MODEL 1
REMARK VINA RESULT:    -4.314      0.000      0.000
REMARK INTER + INTRA:          -4.440
REMARK INTER:                  -4.440
REMARK INTRA:                   0.000
REMARK UNBOUND:                 0.000
REMARK SMILES Nc1ncnc2nc[nH]c12
REMARK SMILES IDX 8 1 7 2 6 3 5 4 4 5 3 6 2 7 10 8 9 9 1 11
REMARK H PARENT 9 10 1 12 1 13
REMARK Flexibility Score: inf
ROOT
ATOM      1  C   UNL     1       4.711   1.753  45.192  1.00  0.00     0.199 A 
ATOM      2  N   UNL     1       4.499   1.315  43.921  1.00  0.00    -0.217 NA
ATOM      3  C   UNL     1       4.007   2.410  43.319  1.00  0.00     0.182 A 
ATOM      4  N   UNL     1       3.624   2.518  42.025  1.00  0.00    -0.215 NA
ATOM      5  C   UNL     1       3.144   3.724  41.592  1.00  0.00     0.226 A 
ATOM      6  N   UNL     1       3.057   4.788  42.454  1.00  0.00    -0.217 NA
ATOM      7  C   UNL     1       3.442   4.681  43.760  1.00  0.00     0.152 A 
ATOM      8  C   UNL     1       3.929   3.448  44.185  1.00  0.00     0.127 A 
ATOM      9  N   UNL     1       4.373   3.054  45.384  1.00  0.00    -0.340 N 
ATOM     10  H   UNL     1       4.445   3.605  46.268  1.00  0.00     0.168 HD
ENDROOT
BRANCH   7  11
ATOM     11  N   UNL     1       3.343   5.803  44.637  1.00  0.00    -0.382 N 
ATOM     12  H   UNL     1       4.137   6.084  45.253  1.00  0.00     0.158 HD
ATOM     13  H   UNL     1       2.462   6.362  44.673  1.00  0.00     0.158 HD
ENDBRANCH   7  11
TORSDOF 1
ENDMDL
MODEL 2
REMARK VINA RESULT:    -4.220      1.081      3.071
REMARK INTER + INTRA:          -4.344
REMARK INTER:                  -4.344
REMARK INTRA:                   0.000
REMARK UNBOUND:                 0.000
REMARK SMILES Nc1ncnc2nc[nH]c12
REMARK SMILES IDX 8 1 7 2 6 3 5 4 4 5 3 6 2 7 10 8 9 9 1 11
REMARK H PARENT 9 10 1 12 1 13
REMARK Flexibility Score: inf
ROOT
ATOM      1  C   UNL     1       3.020   6.423  43.773  1.00  0.00     0.199 A 
ATOM      2  N   UNL     1       2.818   5.978  42.502  1.00  0.00    -0.217 NA
ATOM      3  C   UNL     1       3.178   4.687  42.590  1.00  0.00     0.182 A 
ATOM      4  N   UNL     1       3.166   3.775  41.590  1.00  0.00    -0.215 NA
ATOM      5  C   UNL     1       3.571   2.499  41.875  1.00  0.00     0.226 A 
ATOM      6  N   UNL     1       3.975   2.164  43.142  1.00  0.00    -0.217 NA
ATOM      7  C   UNL     1       3.988   3.083  44.152  1.00  0.00     0.152 A 
ATOM      8  C   UNL     1       3.573   4.376  43.847  1.00  0.00     0.127 A 
ATOM      9  N   UNL     1       3.481   5.466  44.619  1.00  0.00    -0.340 N 
ATOM     10  H   UNL     1       3.707   5.570  45.632  1.00  0.00     0.168 HD
ENDROOT
BRANCH   7  11
ATOM     11  N   UNL     1       4.413   2.710  45.464  1.00  0.00    -0.382 N 
ATOM     12  H   UNL     1       3.725   2.541  46.231  1.00  0.00     0.158 HD
ATOM     13  H   UNL     1       5.430   2.602  45.672  1.00  0.00     0.158 HD
ENDBRANCH   7  11
TORSDOF 1
ENDMDL
MODEL 3
REMARK VINA RESULT:    -4.151      1.205      3.136
REMARK INTER + INTRA:          -4.272
REMARK INTER:                  -4.272
REMARK INTRA:                   0.000
REMARK UNBOUND:                 0.000
REMARK SMILES Nc1ncnc2nc[nH]c12
REMARK SMILES IDX 8 1 7 2 6 3 5 4 4 5 3 6 2 7 10 8 9 9 1 11
REMARK H PARENT 9 10 1 12 1 13
REMARK Flexibility Score: inf
ROOT
ATOM      1  C   UNL     1       1.977   5.609  41.689  1.00  0.00     0.199 A 
ATOM      2  N   UNL     1       2.251   4.398  41.131  1.00  0.00    -0.217 NA
ATOM      3  C   UNL     1       3.047   3.831  42.052  1.00  0.00     0.182 A 
ATOM      4  N   UNL     1       3.609   2.601  41.988  1.00  0.00    -0.215 NA
ATOM      5  C   UNL     1       4.395   2.196  43.031  1.00  0.00     0.226 A 
ATOM      6  N   UNL     1       4.603   3.020  44.108  1.00  0.00    -0.217 NA
ATOM      7  C   UNL     1       4.037   4.262  44.175  1.00  0.00     0.152 A 
ATOM      8  C   UNL     1       3.239   4.659  43.106  1.00  0.00     0.127 A 
ATOM      9  N   UNL     1       2.567   5.798  42.897  1.00  0.00    -0.340 N 
ATOM     10  H   UNL     1       2.504   6.641  43.510  1.00  0.00     0.168 HD
ENDROOT
BRANCH   7  11
ATOM     11  N   UNL     1       4.267   5.101  45.306  1.00  0.00    -0.382 N 
ATOM     12  H   UNL     1       4.401   4.702  46.262  1.00  0.00     0.158 HD
ATOM     13  H   UNL     1       4.303   6.138  45.189  1.00  0.00     0.158 HD
ENDBRANCH   7  11
TORSDOF 1
ENDMDL
MODEL 4
REMARK VINA RESULT:    -4.067      1.210      1.839
REMARK INTER + INTRA:          -4.186
REMARK INTER:                  -4.186
REMARK INTRA:                   0.000
REMARK UNBOUND:                 0.000
REMARK SMILES Nc1ncnc2nc[nH]c12
REMARK SMILES IDX 8 1 7 2 6 3 5 4 4 5 3 6 2 7 10 8 9 9 1 11
REMARK H PARENT 9 10 1 12 1 13
REMARK Flexibility Score: inf
ROOT
ATOM      1  C   UNL     1       4.220   2.297  43.195  1.00  0.00     0.199 A 
ATOM      2  N   UNL     1       3.567   2.571  42.033  1.00  0.00    -0.217 NA
ATOM      3  C   UNL     1       3.149   3.832  42.230  1.00  0.00     0.182 A 
ATOM      4  N   UNL     1       2.437   4.592  41.364  1.00  0.00    -0.215 NA
ATOM      5  C   UNL     1       2.102   5.863  41.746  1.00  0.00     0.226 A 
ATOM      6  N   UNL     1       2.480   6.343  42.974  1.00  0.00    -0.217 NA
ATOM      7  C   UNL     1       3.197   5.578  43.849  1.00  0.00     0.152 A 
ATOM      8  C   UNL     1       3.531   4.288  43.446  1.00  0.00     0.127 A 
ATOM      9  N   UNL     1       4.216   3.328  44.079  1.00  0.00    -0.340 N 
ATOM     10  H   UNL     1       4.648   3.352  45.029  1.00  0.00     0.168 HD
ENDROOT
BRANCH   7  11
ATOM     11  N   UNL     1       3.579   6.100  45.122  1.00  0.00    -0.382 N 
ATOM     12  H   UNL     1       4.240   5.585  45.745  1.00  0.00     0.158 HD
ATOM     13  H   UNL     1       3.196   7.015  45.448  1.00  0.00     0.158 HD
ENDBRANCH   7  11
TORSDOF 1
ENDMDL
MODEL 5
REMARK VINA RESULT:    -4.045      1.234      1.538
REMARK INTER + INTRA:          -4.164
REMARK INTER:                  -4.164
REMARK INTRA:                   0.000
REMARK UNBOUND:                 0.000
REMARK SMILES Nc1ncnc2nc[nH]c12
REMARK SMILES IDX 8 1 7 2 6 3 5 4 4 5 3 6 2 7 10 8 9 9 1 11
REMARK H PARENT 9 10 1 12 1 13
REMARK Flexibility Score: inf
ROOT
ATOM      1  C   UNL     1       5.175   4.035  45.695  1.00  0.00     0.199 A 
ATOM      2  N   UNL     1       5.368   2.899  44.970  1.00  0.00    -0.217 NA
ATOM      3  C   UNL     1       4.571   3.100  43.907  1.00  0.00     0.182 A 
ATOM      4  N   UNL     1       4.390   2.257  42.863  1.00  0.00    -0.215 NA
ATOM      5  C   UNL     1       3.532   2.639  41.868  1.00  0.00     0.226 A 
ATOM      6  N   UNL     1       2.879   3.844  41.935  1.00  0.00    -0.217 NA
ATOM      7  C   UNL     1       3.061   4.695  42.988  1.00  0.00     0.152 A 
ATOM      8  C   UNL     1       3.937   4.293  43.992  1.00  0.00     0.127 A 
ATOM      9  N   UNL     1       4.306   4.907  45.123  1.00  0.00    -0.340 N 
ATOM     10  H   UNL     1       4.004   5.836  45.490  1.00  0.00     0.168 HD
ENDROOT
BRANCH   7  11
ATOM     11  N   UNL     1       2.370   5.944  43.036  1.00  0.00    -0.382 N 
ATOM     12  H   UNL     1       1.841   6.240  43.886  1.00  0.00     0.158 HD
ATOM     13  H   UNL     1       2.387   6.582  42.210  1.00  0.00     0.158 HD
ENDBRANCH   7  11
TORSDOF 1
ENDMDL
MODEL 6
REMARK VINA RESULT:    -3.967      3.546      4.839
REMARK INTER + INTRA:          -4.083
REMARK INTER:                  -4.083
REMARK INTRA:                   0.000
REMARK UNBOUND:                 0.000
REMARK SMILES Nc1ncnc2nc[nH]c12
REMARK SMILES IDX 8 1 7 2 6 3 5 4 4 5 3 6 2 7 10 8 9 9 1 11
REMARK H PARENT 9 10 1 12 1 13
REMARK Flexibility Score: inf
ROOT
ATOM      1  C   UNL     1       2.717   4.434  41.233  1.00  0.00     0.199 A 
ATOM      2  N   UNL     1       3.346   5.300  40.392  1.00  0.00    -0.217 NA
ATOM      3  C   UNL     1       2.700   6.452  40.633  1.00  0.00     0.182 A 
ATOM      4  N   UNL     1       2.939   7.650  40.048  1.00  0.00    -0.215 NA
ATOM      5  C   UNL     1       2.171   8.718  40.427  1.00  0.00     0.226 A 
ATOM      6  N   UNL     1       1.189   8.568  41.373  1.00  0.00    -0.217 NA
ATOM      7  C   UNL     1       0.946   7.360  41.963  1.00  0.00     0.152 A 
ATOM      8  C   UNL     1       1.736   6.284  41.568  1.00  0.00     0.127 A 
ATOM      9  N   UNL     1       1.728   5.006  41.966  1.00  0.00    -0.340 N 
ATOM     10  H   UNL     1       1.111   4.545  42.670  1.00  0.00     0.168 HD
ENDROOT
BRANCH   7  11
ATOM     11  N   UNL     1      -0.082   7.229  42.946  1.00  0.00    -0.382 N 
ATOM     12  H   UNL     1       0.126   7.312  43.965  1.00  0.00     0.158 HD
ATOM     13  H   UNL     1      -1.067   7.046  42.651  1.00  0.00     0.158 HD
ENDBRANCH   7  11
TORSDOF 1
ENDMDL
MODEL 7
REMARK VINA RESULT:    -3.911      1.466      3.977
REMARK INTER + INTRA:          -4.025
REMARK INTER:                  -4.025
REMARK INTRA:                   0.000
REMARK UNBOUND:                 0.000
REMARK SMILES Nc1ncnc2nc[nH]c12
REMARK SMILES IDX 8 1 7 2 6 3 5 4 4 5 3 6 2 7 10 8 9 9 1 11
REMARK H PARENT 9 10 1 12 1 13
REMARK Flexibility Score: inf
ROOT
ATOM      1  C   UNL     1       3.322   3.309  42.363  1.00  0.00     0.199 A 
ATOM      2  N   UNL     1       3.477   4.144  43.427  1.00  0.00    -0.217 NA
ATOM      3  C   UNL     1       4.454   3.541  44.123  1.00  0.00     0.182 A 
ATOM      4  N   UNL     1       4.996   3.967  45.289  1.00  0.00    -0.215 NA
ATOM      5  C   UNL     1       5.990   3.213  45.852  1.00  0.00     0.226 A 
ATOM      6  N   UNL     1       6.417   2.059  45.245  1.00  0.00    -0.217 NA
ATOM      7  C   UNL     1       5.870   1.628  44.069  1.00  0.00     0.152 A 
ATOM      8  C   UNL     1       4.862   2.406  43.509  1.00  0.00     0.127 A 
ATOM      9  N   UNL     1       4.155   2.237  42.385  1.00  0.00    -0.340 N 
ATOM     10  H   UNL     1       4.218   1.468  41.682  1.00  0.00     0.168 HD
ENDROOT
BRANCH   7  11
ATOM     11  N   UNL     1       6.332   0.424  43.456  1.00  0.00    -0.382 N 
ATOM     12  H   UNL     1       6.128  -0.512  43.873  1.00  0.00     0.158 HD
ATOM     13  H   UNL     1       6.888   0.467  42.573  1.00  0.00     0.158 HD
ENDBRANCH   7  11
TORSDOF 1
ENDMDL
MODEL 8
REMARK VINA RESULT:    -3.873      1.309      2.722
REMARK INTER + INTRA:          -3.986
REMARK INTER:                  -3.986
REMARK INTRA:                   0.000
REMARK UNBOUND:                 0.000
REMARK SMILES Nc1ncnc2nc[nH]c12
REMARK SMILES IDX 8 1 7 2 6 3 5 4 4 5 3 6 2 7 10 8 9 9 1 11
REMARK H PARENT 9 10 1 12 1 13
REMARK Flexibility Score: inf
ROOT
ATOM      1  C   UNL     1       3.656   2.480  42.447  1.00  0.00     0.199 A 
ATOM      2  N   UNL     1       4.628   2.440  43.399  1.00  0.00    -0.217 NA
ATOM      3  C   UNL     1       4.492   3.636  43.997  1.00  0.00     0.182 A 
ATOM      4  N   UNL     1       5.228   4.111  45.029  1.00  0.00    -0.215 NA
ATOM      5  C   UNL     1       4.938   5.361  45.506  1.00  0.00     0.226 A 
ATOM      6  N   UNL     1       3.929   6.103  44.947  1.00  0.00    -0.217 NA
ATOM      7  C   UNL     1       3.186   5.624  43.905  1.00  0.00     0.152 A 
ATOM      8  C   UNL     1       3.492   4.352  43.432  1.00  0.00     0.127 A 
ATOM      9  N   UNL     1       2.944   3.636  42.442  1.00  0.00    -0.340 N 
ATOM     10  H   UNL     1       2.156   3.894  41.808  1.00  0.00     0.168 HD
ENDROOT
BRANCH   7  11
ATOM     11  N   UNL     1       2.140   6.415  43.340  1.00  0.00    -0.382 N 
ATOM     12  H   UNL     1       2.040   6.527  42.307  1.00  0.00     0.158 HD
ATOM     13  H   UNL     1       1.454   6.897  43.963  1.00  0.00     0.158 HD
ENDBRANCH   7  11
TORSDOF 1
ENDMDL
MODEL 9
REMARK VINA RESULT:    -3.833      1.330      2.912
REMARK INTER + INTRA:          -3.945
REMARK INTER:                  -3.945
REMARK INTRA:                   0.000
REMARK UNBOUND:                 0.000
REMARK SMILES Nc1ncnc2nc[nH]c12
REMARK SMILES IDX 8 1 7 2 6 3 5 4 4 5 3 6 2 7 10 8 9 9 1 11
REMARK H PARENT 9 10 1 12 1 13
REMARK Flexibility Score: inf
ROOT
ATOM      1  C   UNL     1       3.961   2.305  43.082  1.00  0.00     0.199 A 
ATOM      2  N   UNL     1       4.051   3.150  44.146  1.00  0.00    -0.217 NA
ATOM      3  C   UNL     1       3.608   4.308  43.629  1.00  0.00     0.182 A 
ATOM      4  N   UNL     1       3.493   5.491  44.278  1.00  0.00    -0.215 NA
ATOM      5  C   UNL     1       3.017   6.567  43.579  1.00  0.00     0.226 A 
ATOM      6  N   UNL     1       2.670   6.441  42.258  1.00  0.00    -0.217 NA
ATOM      7  C   UNL     1       2.785   5.248  41.602  1.00  0.00     0.152 A 
ATOM      8  C   UNL     1       3.270   4.163  42.327  1.00  0.00     0.127 A 
ATOM      9  N   UNL     1       3.486   2.895  41.956  1.00  0.00    -0.340 N 
ATOM     10  H   UNL     1       3.331   2.452  41.024  1.00  0.00     0.168 HD
ENDROOT
BRANCH   7  11
ATOM     11  N   UNL     1       2.417   5.141  40.226  1.00  0.00    -0.382 N 
ATOM     12  H   UNL     1       3.112   4.870  39.496  1.00  0.00     0.158 HD
ATOM     13  H   UNL     1       1.434   5.336  39.932  1.00  0.00     0.158 HD
ENDBRANCH   7  11
TORSDOF 1
ENDMDL
