MODEL 1
REMARK VINA RESULT:    -4.546      0.000      0.000
REMARK INTER + INTRA:          -5.835
REMARK INTER:                  -6.141
REMARK INTRA:                   0.305
REMARK UNBOUND:                 0.305
REMARK SMILES C=C1C(=O)O[C@H]2[C@H]3O[C@@]3(C)CCC=C(C)CC[C@@H]12
REMARK SMILES IDX 6 1 18 2 2 3 1 4 3 5 4 6 5 7 17 8 16 9 14 10 15 11 13 12
REMARK SMILES IDX 7 14 9 15 8 16 10 17 11 18 12 19
REMARK H PARENT
REMARK Flexibility Score: 70.00
ROOT
ATOM      1  C   UNL     1      23.442  18.485   3.407  1.00  0.00     0.216 C 
ATOM      2  C   UNL     1      22.410  18.319   4.589  1.00  0.00     0.070 C 
ATOM      3  C   UNL     1      23.054  19.102   5.697  1.00  0.00     0.037 C 
ATOM      4  C   UNL     1      22.758  19.104   6.998  1.00  0.00     0.021 C 
ATOM      5  C   UNL     1      23.912  20.058   5.028  1.00  0.00     0.334 C 
ATOM      6  O   UNL     1      24.484  21.039   5.571  1.00  0.00    -0.247 OA
ATOM      7  O   UNL     1      23.990  19.776   3.676  1.00  0.00    -0.455 OA
ENDROOT
BRANCH   2   8
ATOM      8  C   UNL     1      21.804  16.930   4.928  1.00  0.00     0.017 C 
BRANCH   8   9
ATOM      9  C   UNL     1      20.906  16.432   3.775  1.00  0.00     0.031 C 
BRANCH   9  10
ATOM     10  C   UNL     1      20.694  14.925   3.692  1.00  0.00    -0.077 C 
ATOM     11  C   UNL     1      19.361  14.373   4.142  1.00  0.00     0.039 C 
ATOM     12  C   UNL     1      21.552  14.050   3.102  1.00  0.00    -0.028 CG0
ATOM     13  G   UNL     1      23.015  14.261   2.790  1.00  0.00     0.000 G0
ENDBRANCH   9  10
ENDBRANCH   8   9
ENDBRANCH   2   8
BRANCH   1  14
ATOM     14  C   UNL     1      24.695  17.558   3.323  1.00  0.00     0.192 C 
ATOM     15  C   UNL     1      24.679  16.202   2.685  1.00  0.00     0.096 C 
ATOM     16  O   UNL     1      24.600  16.384   4.086  1.00  0.00    -0.362 OA
ATOM     17  C   UNL     1      26.022  15.586   2.291  1.00  0.00     0.045 C 
BRANCH  15  18
ATOM     18  C   UNL     1      23.405  15.570   2.092  1.00  0.00     0.042 C 
BRANCH  18  19
ATOM     19  C   UNL     1      23.024  14.252   2.798  1.00  0.00     0.030 CG0
ATOM     20  G   UNL     1      21.553  14.066   3.092  1.00  0.00     0.000 G0
ENDBRANCH  18  19
ENDBRANCH  15  18
ENDBRANCH   1  14
TORSDOF 0
ENDMDL
MODEL 2
REMARK VINA RESULT:    -4.090      1.635      3.564
REMARK INTER + INTRA:          -5.219
REMARK INTER:                  -5.600
REMARK INTRA:                   0.381
REMARK UNBOUND:                 0.305
REMARK SMILES C=C1C(=O)O[C@H]2[C@H]3O[C@@]3(C)CCC=C(C)CC[C@@H]12
REMARK SMILES IDX 6 1 18 2 2 3 1 4 3 5 4 6 5 7 17 8 16 9 14 10 15 11 13 12
REMARK SMILES IDX 7 14 9 15 8 16 10 17 11 18 12 19
REMARK H PARENT
REMARK Flexibility Score: 70.00
ROOT
ATOM      1  C   UNL     1      22.598  17.011   5.178  1.00  0.00     0.216 C 
ATOM      2  C   UNL     1      23.689  16.654   4.096  1.00  0.00     0.070 C 
ATOM      3  C   UNL     1      24.150  18.008   3.637  1.00  0.00     0.037 C 
ATOM      4  C   UNL     1      24.877  18.322   2.563  1.00  0.00     0.021 C 
ATOM      5  C   UNL     1      23.856  18.896   4.742  1.00  0.00     0.334 C 
ATOM      6  O   UNL     1      24.260  20.082   4.861  1.00  0.00    -0.247 OA
ATOM      7  O   UNL     1      23.094  18.245   5.697  1.00  0.00    -0.455 OA
ENDROOT
BRANCH   2   8
ATOM      8  C   UNL     1      23.418  15.568   3.019  1.00  0.00     0.017 C 
BRANCH   8   9
ATOM      9  C   UNL     1      23.179  14.194   3.682  1.00  0.00     0.031 C 
BRANCH   9  10
ATOM     10  C   UNL     1      22.405  13.175   2.853  1.00  0.00    -0.077 C 
ATOM     11  C   UNL     1      23.195  12.137   2.090  1.00  0.00     0.039 C 
ATOM     12  C   UNL     1      21.053  13.028   2.866  1.00  0.00    -0.028 CG0
ATOM     13  G   UNL     1      20.020  14.032   3.326  1.00  0.00     0.000 G0
ENDBRANCH   9  10
ENDBRANCH   8   9
ENDBRANCH   2   8
BRANCH   1  14
ATOM     14  C   UNL     1      21.139  17.350   4.739  1.00  0.00     0.192 C 
ATOM     15  C   UNL     1      20.084  16.313   4.506  1.00  0.00     0.096 C 
ATOM     16  O   UNL     1      20.806  16.913   3.448  1.00  0.00    -0.362 OA
ATOM     17  C   UNL     1      18.625  16.772   4.499  1.00  0.00     0.045 C 
BRANCH  15  18
ATOM     18  C   UNL     1      20.353  14.800   4.631  1.00  0.00     0.042 C 
BRANCH  18  19
ATOM     19  C   UNL     1      20.019  14.039   3.332  1.00  0.00     0.030 CG0
ATOM     20  G   UNL     1      21.043  13.021   2.885  1.00  0.00     0.000 G0
ENDBRANCH  18  19
ENDBRANCH  15  18
ENDBRANCH   1  14
TORSDOF 0
ENDMDL
MODEL 3
REMARK VINA RESULT:    -4.084     15.930     18.043
REMARK INTER + INTRA:          -5.212
REMARK INTER:                  -5.717
REMARK INTRA:                   0.505
REMARK UNBOUND:                 0.305
REMARK SMILES C=C1C(=O)O[C@H]2[C@H]3O[C@@]3(C)CCC=C(C)CC[C@@H]12
REMARK SMILES IDX 6 1 18 2 2 3 1 4 3 5 4 6 5 7 17 8 16 9 14 10 15 11 13 12
REMARK SMILES IDX 7 14 9 15 8 16 10 17 11 18 12 19
REMARK H PARENT
REMARK Flexibility Score: 70.00
ROOT
ATOM      1  C   UNL     1      11.839  21.152  18.808  1.00  0.00     0.216 C 
ATOM      2  C   UNL     1      10.711  21.115  17.705  1.00  0.00     0.070 C 
ATOM      3  C   UNL     1       9.471  20.870  18.513  1.00  0.00     0.037 C 
ATOM      4  C   UNL     1       8.260  20.499  18.092  1.00  0.00     0.021 C 
ATOM      5  C   UNL     1       9.785  21.363  19.838  1.00  0.00     0.334 C 
ATOM      6  O   UNL     1       8.961  21.535  20.774  1.00  0.00    -0.247 OA
ATOM      7  O   UNL     1      11.130  21.674  19.932  1.00  0.00    -0.455 OA
ENDROOT
BRANCH   2   8
ATOM      8  C   UNL     1      10.905  20.304  16.394  1.00  0.00     0.017 C 
BRANCH   8   9
ATOM      9  C   UNL     1      12.223  20.705  15.696  1.00  0.00     0.031 C 
BRANCH   9  10
ATOM     10  C   UNL     1      12.825  19.671  14.753  1.00  0.00    -0.077 C 
ATOM     11  C   UNL     1      12.273  19.589  13.348  1.00  0.00     0.039 C 
ATOM     12  C   UNL     1      13.924  18.917  15.024  1.00  0.00    -0.028 CG0
ATOM     13  G   UNL     1      14.525  18.617  16.378  1.00  0.00     0.000 G0
ENDBRANCH   9  10
ENDBRANCH   8   9
ENDBRANCH   2   8
BRANCH   1  14
ATOM     14  C   UNL     1      12.459  19.822  19.341  1.00  0.00     0.192 C 
ATOM     15  C   UNL     1      13.646  19.155  18.717  1.00  0.00     0.096 C 
ATOM     16  O   UNL     1      12.320  18.728  18.473  1.00  0.00    -0.362 OA
ATOM     17  C   UNL     1      14.404  18.124  19.555  1.00  0.00     0.045 C 
BRANCH  15  18
ATOM     18  C   UNL     1      14.343  19.695  17.453  1.00  0.00     0.042 C 
BRANCH  18  19
ATOM     19  C   UNL     1      14.523  18.605  16.376  1.00  0.00     0.030 CG0
ATOM     20  G   UNL     1      13.942  18.923  15.017  1.00  0.00     0.000 G0
ENDBRANCH  18  19
ENDBRANCH  15  18
ENDBRANCH   1  14
TORSDOF 0
ENDMDL
MODEL 4
REMARK VINA RESULT:    -3.973     15.515     17.687
REMARK INTER + INTRA:          -5.061
REMARK INTER:                  -5.525
REMARK INTRA:                   0.464
REMARK UNBOUND:                 0.305
REMARK SMILES C=C1C(=O)O[C@H]2[C@H]3O[C@@]3(C)CCC=C(C)CC[C@@H]12
REMARK SMILES IDX 6 1 18 2 2 3 1 4 3 5 4 6 5 7 17 8 16 9 14 10 15 11 13 12
REMARK SMILES IDX 7 14 9 15 8 16 10 17 11 18 12 19
REMARK H PARENT
REMARK Flexibility Score: 70.00
ROOT
ATOM      1  C   UNL     1      10.865  19.574  17.272  1.00  0.00     0.216 C 
ATOM      2  C   UNL     1      11.368  19.805  18.750  1.00  0.00     0.070 C 
ATOM      3  C   UNL     1      10.567  20.997  19.186  1.00  0.00     0.037 C 
ATOM      4  C   UNL     1      10.752  21.784  20.247  1.00  0.00     0.021 C 
ATOM      5  C   UNL     1       9.384  20.977  18.351  1.00  0.00     0.334 C 
ATOM      6  O   UNL     1       8.353  21.681  18.517  1.00  0.00    -0.247 OA
ATOM      7  O   UNL     1       9.514  20.031  17.349  1.00  0.00    -0.455 OA
ENDROOT
BRANCH   2   8
ATOM      8  C   UNL     1      12.884  19.777  19.089  1.00  0.00     0.017 C 
BRANCH   8   9
ATOM      9  C   UNL     1      13.533  18.475  18.569  1.00  0.00     0.031 C 
BRANCH   9  10
ATOM     10  C   UNL     1      15.032  18.533  18.302  1.00  0.00    -0.077 C 
ATOM     11  C   UNL     1      15.967  18.393  19.481  1.00  0.00     0.039 C 
ATOM     12  C   UNL     1      15.603  18.548  17.067  1.00  0.00    -0.028 CG0
ATOM     13  G   UNL     1      14.951  18.921  15.755  1.00  0.00     0.000 G0
ENDBRANCH   9  10
ENDBRANCH   8   9
ENDBRANCH   2   8
BRANCH   1  14
ATOM     14  C   UNL     1      11.473  20.403  16.098  1.00  0.00     0.192 C 
ATOM     15  C   UNL     1      12.673  19.968  15.313  1.00  0.00     0.096 C 
ATOM     16  O   UNL     1      12.752  20.921  16.355  1.00  0.00    -0.362 OA
ATOM     17  C   UNL     1      12.910  20.626  13.953  1.00  0.00     0.045 C 
BRANCH  15  18
ATOM     18  C   UNL     1      13.454  18.676  15.624  1.00  0.00     0.042 C 
BRANCH  18  19
ATOM     19  C   UNL     1      14.972  18.927  15.741  1.00  0.00     0.030 CG0
ATOM     20  G   UNL     1      15.601  18.549  17.062  1.00  0.00     0.000 G0
ENDBRANCH  18  19
ENDBRANCH  15  18
ENDBRANCH   1  14
TORSDOF 0
ENDMDL
MODEL 5
REMARK VINA RESULT:    -3.624      1.715      2.559
REMARK INTER + INTRA:          -4.589
REMARK INTER:                  -5.917
REMARK INTRA:                   1.328
REMARK UNBOUND:                 0.305
REMARK SMILES C=C1C(=O)O[C@H]2[C@H]3O[C@@]3(C)CCC=C(C)CC[C@@H]12
REMARK SMILES IDX 6 1 18 2 2 3 1 4 3 5 4 6 5 7 17 8 16 9 14 10 15 11 13 12
REMARK SMILES IDX 7 14 9 15 8 16 10 17 11 18 12 19
REMARK H PARENT
REMARK Flexibility Score: 70.00
ROOT
ATOM      1  C   UNL     1      23.117  15.870   2.517  1.00  0.00     0.216 C 
ATOM      2  C   UNL     1      22.457  16.916   3.496  1.00  0.00     0.070 C 
ATOM      3  C   UNL     1      23.603  17.828   3.822  1.00  0.00     0.037 C 
ATOM      4  C   UNL     1      23.695  18.740   4.792  1.00  0.00     0.021 C 
ATOM      5  C   UNL     1      24.514  17.697   2.704  1.00  0.00     0.334 C 
ATOM      6  O   UNL     1      25.508  18.435   2.473  1.00  0.00    -0.247 OA
ATOM      7  O   UNL     1      24.118  16.661   1.876  1.00  0.00    -0.455 OA
ENDROOT
BRANCH   2   8
ATOM      8  C   UNL     1      21.538  16.449   4.658  1.00  0.00     0.017 C 
BRANCH   8   9
ATOM      9  C   UNL     1      20.135  16.081   4.128  1.00  0.00     0.031 C 
BRANCH   9  10
ATOM     10  C   UNL     1      19.781  14.599   4.137  1.00  0.00    -0.077 C 
ATOM     11  C   UNL     1      18.866  14.097   5.230  1.00  0.00     0.039 C 
ATOM     12  C   UNL     1      20.100  13.716   3.153  1.00  0.00    -0.028 CG0
ATOM     13  G   UNL     1      21.170  13.862   2.095  1.00  0.00     0.000 G0
ENDBRANCH   9  10
ENDBRANCH   8   9
ENDBRANCH   2   8
BRANCH   1  14
ATOM     14  C   UNL     1      23.912  14.654   3.088  1.00  0.00     0.192 C 
ATOM     15  C   UNL     1      23.532  13.226   2.838  1.00  0.00     0.096 C 
ATOM     16  O   UNL     1      23.211  13.898   4.041  1.00  0.00    -0.362 OA
ATOM     17  C   UNL     1      24.596  12.154   3.080  1.00  0.00     0.045 C 
BRANCH  15  18
ATOM     18  C   UNL     1      22.285  12.821   2.028  1.00  0.00     0.042 C 
BRANCH  18  19
ATOM     19  C   UNL     1      21.178  13.895   2.087  1.00  0.00     0.030 CG0
ATOM     20  G   UNL     1      20.124  13.694   3.152  1.00  0.00     0.000 G0
ENDBRANCH  18  19
ENDBRANCH  15  18
ENDBRANCH   1  14
TORSDOF 0
ENDMDL
MODEL 6
REMARK VINA RESULT:    -3.542     14.994     17.192
REMARK INTER + INTRA:          -4.479
REMARK INTER:                  -4.970
REMARK INTRA:                   0.491
REMARK UNBOUND:                 0.305
REMARK SMILES C=C1C(=O)O[C@H]2[C@H]3O[C@@]3(C)CCC=C(C)CC[C@@H]12
REMARK SMILES IDX 6 1 18 2 2 3 1 4 3 5 4 6 5 7 17 8 16 9 14 10 15 11 13 12
REMARK SMILES IDX 7 14 9 15 8 16 10 17 11 18 12 19
REMARK H PARENT
REMARK Flexibility Score: 70.00
ROOT
ATOM      1  C   UNL     1      13.850  18.451  16.014  1.00  0.00     0.216 C 
ATOM      2  C   UNL     1      12.996  19.645  15.437  1.00  0.00     0.070 C 
ATOM      3  C   UNL     1      13.946  20.289  14.469  1.00  0.00     0.037 C 
ATOM      4  C   UNL     1      13.856  21.483  13.880  1.00  0.00     0.021 C 
ATOM      5  C   UNL     1      14.874  19.239  14.102  1.00  0.00     0.334 C 
ATOM      6  O   UNL     1      15.711  19.292  13.164  1.00  0.00    -0.247 OA
ATOM      7  O   UNL     1      14.688  18.127  14.904  1.00  0.00    -0.455 OA
ENDROOT
BRANCH   2   8
ATOM      8  C   UNL     1      12.173  20.565  16.379  1.00  0.00     0.017 C 
BRANCH   8   9
ATOM      9  C   UNL     1      10.744  20.010  16.569  1.00  0.00     0.031 C 
BRANCH   9  10
ATOM     10  C   UNL     1      10.145  20.163  17.961  1.00  0.00    -0.077 C 
ATOM     11  C   UNL     1       8.659  20.417  18.068  1.00  0.00     0.039 C 
ATOM     12  C   UNL     1      10.812  19.937  19.125  1.00  0.00    -0.028 CG0
ATOM     13  G   UNL     1      12.308  19.904  19.339  1.00  0.00     0.000 G0
ENDBRANCH   9  10
ENDBRANCH   8   9
ENDBRANCH   2   8
BRANCH   1  14
ATOM     14  C   UNL     1      14.857  18.699  17.181  1.00  0.00     0.192 C 
ATOM     15  C   UNL     1      14.460  18.719  18.625  1.00  0.00     0.096 C 
ATOM     16  O   UNL     1      14.655  19.902  17.875  1.00  0.00    -0.362 OA
ATOM     17  C   UNL     1      15.565  18.547  19.669  1.00  0.00     0.045 C 
BRANCH  15  18
ATOM     18  C   UNL     1      13.003  18.543  19.096  1.00  0.00     0.042 C 
BRANCH  18  19
ATOM     19  C   UNL     1      12.307  19.896  19.356  1.00  0.00     0.030 CG0
ATOM     20  G   UNL     1      10.815  19.923  19.119  1.00  0.00     0.000 G0
ENDBRANCH  18  19
ENDBRANCH  15  18
ENDBRANCH   1  14
TORSDOF 0
ENDMDL
MODEL 7
REMARK VINA RESULT:    -3.440      2.708      4.499
REMARK INTER + INTRA:          -4.341
REMARK INTER:                  -5.767
REMARK INTRA:                   1.426
REMARK UNBOUND:                 0.305
REMARK SMILES C=C1C(=O)O[C@H]2[C@H]3O[C@@]3(C)CCC=C(C)CC[C@@H]12
REMARK SMILES IDX 6 1 18 2 2 3 1 4 3 5 4 6 5 7 17 8 16 9 14 10 15 11 13 12
REMARK SMILES IDX 7 14 9 15 8 16 10 17 11 18 12 19
REMARK H PARENT
REMARK Flexibility Score: 70.00
ROOT
ATOM      1  C   UNL     1      21.224  15.685   4.402  1.00  0.00     0.216 C 
ATOM      2  C   UNL     1      21.089  17.237   4.151  1.00  0.00     0.070 C 
ATOM      3  C   UNL     1      19.602  17.438   4.135  1.00  0.00     0.037 C 
ATOM      4  C   UNL     1      18.908  18.498   3.717  1.00  0.00     0.021 C 
ATOM      5  C   UNL     1      19.068  16.335   4.907  1.00  0.00     0.334 C 
ATOM      6  O   UNL     1      17.881  16.227   5.313  1.00  0.00    -0.247 OA
ATOM      7  O   UNL     1      20.063  15.415   5.189  1.00  0.00    -0.455 OA
ENDROOT
BRANCH   2   8
ATOM      8  C   UNL     1      21.937  17.943   3.057  1.00  0.00     0.017 C 
BRANCH   8   9
ATOM      9  C   UNL     1      23.354  18.256   3.585  1.00  0.00     0.031 C 
BRANCH   9  10
ATOM     10  C   UNL     1      24.485  17.414   3.009  1.00  0.00    -0.077 C 
ATOM     11  C   UNL     1      25.445  18.078   2.049  1.00  0.00     0.039 C 
ATOM     12  C   UNL     1      24.795  16.150   3.407  1.00  0.00    -0.028 CG0
ATOM     13  G   UNL     1      23.910  15.173   4.146  1.00  0.00     0.000 G0
ENDBRANCH   9  10
ENDBRANCH   8   9
ENDBRANCH   2   8
BRANCH   1  14
ATOM     14  C   UNL     1      21.109  14.684   3.210  1.00  0.00     0.192 C 
ATOM     15  C   UNL     1      22.234  13.803   2.759  1.00  0.00     0.096 C 
ATOM     16  O   UNL     1      21.903  15.011   2.100  1.00  0.00    -0.362 OA
ATOM     17  C   UNL     1      21.885  12.595   1.888  1.00  0.00     0.045 C 
BRANCH  15  18
ATOM     18  C   UNL     1      23.634  13.837   3.401  1.00  0.00     0.042 C 
BRANCH  18  19
ATOM     19  C   UNL     1      23.911  15.171   4.125  1.00  0.00     0.030 CG0
ATOM     20  G   UNL     1      24.820  16.136   3.399  1.00  0.00     0.000 G0
ENDBRANCH  18  19
ENDBRANCH  15  18
ENDBRANCH   1  14
TORSDOF 0
ENDMDL
MODEL 8
REMARK VINA RESULT:    -3.400      2.397      4.331
REMARK INTER + INTRA:          -4.287
REMARK INTER:                  -6.810
REMARK INTRA:                   2.523
REMARK UNBOUND:                 0.305
REMARK SMILES C=C1C(=O)O[C@H]2[C@H]3O[C@@]3(C)CCC=C(C)CC[C@@H]12
REMARK SMILES IDX 6 1 18 2 2 3 1 4 3 5 4 6 5 7 17 8 16 9 14 10 15 11 13 12
REMARK SMILES IDX 7 14 9 15 8 16 10 17 11 18 12 19
REMARK H PARENT
REMARK Flexibility Score: 70.00
ROOT
ATOM      1  C   UNL     1      21.039  17.543   3.710  1.00  0.00     0.216 C 
ATOM      2  C   UNL     1      20.602  16.028   3.681  1.00  0.00     0.070 C 
ATOM      3  C   UNL     1      19.382  16.023   4.556  1.00  0.00     0.037 C 
ATOM      4  C   UNL     1      18.743  14.981   5.092  1.00  0.00     0.021 C 
ATOM      5  C   UNL     1      18.878  17.380   4.502  1.00  0.00     0.334 C 
ATOM      6  O   UNL     1      17.760  17.768   4.930  1.00  0.00    -0.247 OA
ATOM      7  O   UNL     1      19.784  18.207   3.862  1.00  0.00    -0.455 OA
ENDROOT
BRANCH   2   8
ATOM      8  C   UNL     1      21.645  14.893   3.871  1.00  0.00     0.017 C 
BRANCH   8   9
ATOM      9  C   UNL     1      23.063  15.481   4.041  1.00  0.00     0.031 C 
BRANCH   9  10
ATOM     10  C   UNL     1      23.935  15.501   2.792  1.00  0.00    -0.077 C 
ATOM     11  C   UNL     1      23.885  14.301   1.875  1.00  0.00     0.039 C 
ATOM     12  C   UNL     1      24.643  16.577   2.354  1.00  0.00    -0.028 CG0
ATOM     13  G   UNL     1      25.064  17.791   3.151  1.00  0.00     0.000 G0
ENDBRANCH   9  10
ENDBRANCH   8   9
ENDBRANCH   2   8
BRANCH   1  14
ATOM     14  C   UNL     1      21.897  18.090   4.894  1.00  0.00     0.192 C 
ATOM     15  C   UNL     1      23.241  18.727   4.717  1.00  0.00     0.096 C 
ATOM     16  O   UNL     1      23.086  17.381   5.125  1.00  0.00    -0.362 OA
ATOM     17  C   UNL     1      23.778  19.585   5.864  1.00  0.00     0.045 C 
BRANCH  15  18
ATOM     18  C   UNL     1      23.930  18.860   3.346  1.00  0.00     0.042 C 
BRANCH  18  19
ATOM     19  C   UNL     1      25.038  17.804   3.144  1.00  0.00     0.030 CG0
ATOM     20  G   UNL     1      24.645  16.584   2.343  1.00  0.00     0.000 G0
ENDBRANCH  18  19
ENDBRANCH  15  18
ENDBRANCH   1  14
TORSDOF 0
ENDMDL
MODEL 9
REMARK VINA RESULT:    -3.393      2.339      4.788
REMARK INTER + INTRA:          -4.277
REMARK INTER:                  -5.941
REMARK INTRA:                   1.664
REMARK UNBOUND:                 0.305
REMARK SMILES C=C1C(=O)O[C@H]2[C@H]3O[C@@]3(C)CCC=C(C)CC[C@@H]12
REMARK SMILES IDX 6 1 18 2 2 3 1 4 3 5 4 6 5 7 17 8 16 9 14 10 15 11 13 12
REMARK SMILES IDX 7 14 9 15 8 16 10 17 11 18 12 19
REMARK H PARENT
REMARK Flexibility Score: 70.00
ROOT
ATOM      1  C   UNL     1      23.669  14.890   3.619  1.00  0.00     0.216 C 
ATOM      2  C   UNL     1      22.488  13.965   3.130  1.00  0.00     0.070 C 
ATOM      3  C   UNL     1      23.211  12.748   2.632  1.00  0.00     0.037 C 
ATOM      4  C   UNL     1      22.743  11.749   1.881  1.00  0.00     0.021 C 
ATOM      5  C   UNL     1      24.471  12.744   3.345  1.00  0.00     0.334 C 
ATOM      6  O   UNL     1      25.295  11.793   3.379  1.00  0.00    -0.247 OA
ATOM      7  O   UNL     1      24.637  13.929   4.040  1.00  0.00    -0.455 OA
ENDROOT
BRANCH   2   8
ATOM      8  C   UNL     1      21.333  14.539   2.263  1.00  0.00     0.017 C 
BRANCH   8   9
ATOM      9  C   UNL     1      21.254  16.074   2.410  1.00  0.00     0.031 C 
BRANCH   9  10
ATOM     10  C   UNL     1      20.945  16.600   3.806  1.00  0.00    -0.077 C 
ATOM     11  C   UNL     1      19.797  15.971   4.561  1.00  0.00     0.039 C 
ATOM     12  C   UNL     1      21.716  17.487   4.492  1.00  0.00    -0.028 CG0
ATOM     13  G   UNL     1      22.752  18.434   3.932  1.00  0.00     0.000 G0
ENDBRANCH   9  10
ENDBRANCH   8   9
ENDBRANCH   2   8
BRANCH   1  14
ATOM     14  C   UNL     1      24.445  15.779   2.597  1.00  0.00     0.192 C 
ATOM     15  C   UNL     1      24.729  17.233   2.814  1.00  0.00     0.096 C 
ATOM     16  O   UNL     1      23.669  16.780   1.993  1.00  0.00    -0.362 OA
ATOM     17  C   UNL     1      25.833  17.876   1.972  1.00  0.00     0.045 C 
BRANCH  15  18
ATOM     18  C   UNL     1      24.237  18.007   4.052  1.00  0.00     0.042 C 
BRANCH  18  19
ATOM     19  C   UNL     1      22.759  18.433   3.925  1.00  0.00     0.030 CG0
ATOM     20  G   UNL     1      21.746  17.468   4.498  1.00  0.00     0.000 G0
ENDBRANCH  18  19
ENDBRANCH  15  18
ENDBRANCH   1  14
TORSDOF 0
ENDMDL
