MODEL 1
REMARK VINA RESULT:    -4.316      0.000      0.000
REMARK INTER + INTRA:          -5.296
REMARK INTER:                  -5.199
REMARK INTRA:                  -0.098
REMARK UNBOUND:                -0.098
REMARK SMILES CC[C@@H](C)[C@@H]([NH3+])C(=O)[O-]
REMARK SMILES IDX 3 1 4 2 5 3 6 4 7 8 8 9 9 10 2 11 1 12
REMARK H PARENT 6 5 6 6 6 7
REMARK Flexibility Score: inf
ROOT
ATOM      1  C   UNL     1     145.734 130.536 127.043  1.00  0.00     0.050 C 
ATOM      2  C   UNL     1     144.293 130.584 126.493  1.00  0.00     0.014 C 
ENDROOT
BRANCH   1   3
ATOM      3  C   UNL     1     145.988 129.183 127.785  1.00  0.00     0.230 C 
BRANCH   3   4
ATOM      4  N   UNL     1     147.320 128.630 127.494  1.00  0.00    -0.350 N 
ATOM      5  H   UNL     1     148.035 129.394 127.479  1.00  0.00     0.345 HD
ATOM      6  H   UNL     1     147.325 128.144 126.567  1.00  0.00     0.345 HD
ATOM      7  H   UNL     1     147.608 127.963 128.246  1.00  0.00     0.345 HD
ENDBRANCH   3   4
BRANCH   3   8
ATOM      8  C   UNL     1     145.842 129.354 129.278  1.00  0.00     0.099 C 
ATOM      9  O   UNL     1     146.812 129.771 129.966  1.00  0.00    -0.544 OA
ATOM     10  O   UNL     1     144.637 129.057 129.901  1.00  0.00    -0.544 OA
ENDBRANCH   3   8
ENDBRANCH   1   3
BRANCH   1  11
ATOM     11  C   UNL     1     146.762 130.764 125.904  1.00  0.00     0.006 C 
ATOM     12  C   UNL     1     146.184 130.541 124.503  1.00  0.00     0.004 C 
ENDBRANCH   1  11
TORSDOF 4
ENDMDL
MODEL 2
REMARK VINA RESULT:    -4.236      0.895      1.623
REMARK INTER + INTRA:          -5.200
REMARK INTER:                  -5.370
REMARK INTRA:                   0.170
REMARK UNBOUND:                -0.098
REMARK SMILES CC[C@@H](C)[C@@H]([NH3+])C(=O)[O-]
REMARK SMILES IDX 3 1 4 2 5 3 6 4 7 8 8 9 9 10 2 11 1 12
REMARK H PARENT 6 5 6 6 6 7
REMARK Flexibility Score: inf
ROOT
ATOM      1  C   UNL     1     145.639 129.897 126.659  1.00  0.00     0.050 C 
ATOM      2  C   UNL     1     146.694 131.024 126.672  1.00  0.00     0.014 C 
ENDROOT
BRANCH   1   3
ATOM      3  C   UNL     1     146.044 128.761 127.652  1.00  0.00     0.230 C 
BRANCH   3   4
ATOM      4  N   UNL     1     147.418 128.286 127.425  1.00  0.00    -0.350 N 
ATOM      5  H   UNL     1     148.095 129.081 127.508  1.00  0.00     0.345 HD
ATOM      6  H   UNL     1     147.512 127.861 126.473  1.00  0.00     0.345 HD
ATOM      7  H   UNL     1     147.685 127.586 128.154  1.00  0.00     0.345 HD
ENDBRANCH   3   4
BRANCH   3   8
ATOM      8  C   UNL     1     145.915 129.226 129.083  1.00  0.00     0.099 C 
ATOM      9  O   UNL     1     146.880 129.801 129.652  1.00  0.00    -0.544 OA
ATOM     10  O   UNL     1     144.729 129.028 129.778  1.00  0.00    -0.544 OA
ENDBRANCH   3   8
ENDBRANCH   1   3
BRANCH   1  11
ATOM     11  C   UNL     1     144.231 130.464 126.984  1.00  0.00     0.006 C 
ATOM     12  C   UNL     1     143.546 131.129 125.787  1.00  0.00     0.004 C 
ENDBRANCH   1  11
TORSDOF 4
ENDMDL
MODEL 3
REMARK VINA RESULT:    -4.210      1.677      2.053
REMARK INTER + INTRA:          -5.169
REMARK INTER:                  -5.098
REMARK INTRA:                  -0.071
REMARK UNBOUND:                -0.098
REMARK SMILES CC[C@@H](C)[C@@H]([NH3+])C(=O)[O-]
REMARK SMILES IDX 3 1 4 2 5 3 6 4 7 8 8 9 9 10 2 11 1 12
REMARK H PARENT 6 5 6 6 6 7
REMARK Flexibility Score: inf
ROOT
ATOM      1  C   UNL     1     146.714 129.632 126.800  1.00  0.00     0.050 C 
ATOM      2  C   UNL     1     147.587 128.603 126.049  1.00  0.00     0.014 C 
ENDROOT
BRANCH   1   3
ATOM      3  C   UNL     1     146.613 129.258 128.314  1.00  0.00     0.230 C 
BRANCH   3   4
ATOM      4  N   UNL     1     147.489 130.091 129.154  1.00  0.00    -0.350 N 
ATOM      5  H   UNL     1     148.465 130.085 128.777  1.00  0.00     0.345 HD
ATOM      6  H   UNL     1     147.504 129.738 130.139  1.00  0.00     0.345 HD
ATOM      7  H   UNL     1     147.166 131.086 129.138  1.00  0.00     0.345 HD
ENDBRANCH   3   4
BRANCH   3   8
ATOM      8  C   UNL     1     145.192 129.388 128.806  1.00  0.00     0.099 C 
ATOM      9  O   UNL     1     144.846 128.855 129.893  1.00  0.00    -0.544 OA
ATOM     10  O   UNL     1     144.258 130.102 128.065  1.00  0.00    -0.544 OA
ENDBRANCH   3   8
ENDBRANCH   1   3
BRANCH   1  11
ATOM     11  C   UNL     1     147.270 131.067 126.603  1.00  0.00     0.006 C 
ATOM     12  C   UNL     1     148.077 131.240 125.313  1.00  0.00     0.004 C 
ENDBRANCH   1  11
TORSDOF 4
ENDMDL
MODEL 4
REMARK VINA RESULT:    -4.083      2.699      3.695
REMARK INTER + INTRA:          -5.017
REMARK INTER:                  -4.876
REMARK INTRA:                  -0.140
REMARK UNBOUND:                -0.098
REMARK SMILES CC[C@@H](C)[C@@H]([NH3+])C(=O)[O-]
REMARK SMILES IDX 3 1 4 2 5 3 6 4 7 8 8 9 9 10 2 11 1 12
REMARK H PARENT 6 5 6 6 6 7
REMARK Flexibility Score: inf
ROOT
ATOM      1  C   UNL     1     145.265 129.771 126.991  1.00  0.00     0.050 C 
ATOM      2  C   UNL     1     143.999 130.607 126.705  1.00  0.00     0.014 C 
ENDROOT
BRANCH   1   3
ATOM      3  C   UNL     1     146.524 130.462 126.373  1.00  0.00     0.230 C 
BRANCH   3   4
ATOM      4  N   UNL     1     147.471 130.917 127.403  1.00  0.00    -0.350 N 
ATOM      5  H   UNL     1     146.999 130.960 128.336  1.00  0.00     0.345 HD
ATOM      6  H   UNL     1     147.845 131.867 127.169  1.00  0.00     0.345 HD
ATOM      7  H   UNL     1     148.261 130.238 127.495  1.00  0.00     0.345 HD
ENDBRANCH   3   4
BRANCH   3   8
ATOM      8  C   UNL     1     147.239 129.528 125.426  1.00  0.00     0.099 C 
ATOM      9  O   UNL     1     147.866 128.531 125.872  1.00  0.00    -0.544 OA
ATOM     10  O   UNL     1     147.205 129.759 124.057  1.00  0.00    -0.544 OA
ENDBRANCH   3   8
ENDBRANCH   1   3
BRANCH   1  11
ATOM     11  C   UNL     1     145.433 129.538 128.516  1.00  0.00     0.006 C 
ATOM     12  C   UNL     1     145.823 128.102 128.877  1.00  0.00     0.004 C 
ENDBRANCH   1  11
TORSDOF 4
ENDMDL
MODEL 5
REMARK VINA RESULT:    -4.034      1.185      1.376
REMARK INTER + INTRA:          -4.957
REMARK INTER:                  -4.866
REMARK INTRA:                  -0.092
REMARK UNBOUND:                -0.098
REMARK SMILES CC[C@@H](C)[C@@H]([NH3+])C(=O)[O-]
REMARK SMILES IDX 3 1 4 2 5 3 6 4 7 8 8 9 9 10 2 11 1 12
REMARK H PARENT 6 5 6 6 6 7
REMARK Flexibility Score: inf
ROOT
ATOM      1  C   UNL     1     146.167 130.286 126.020  1.00  0.00     0.050 C 
ATOM      2  C   UNL     1     144.665 130.512 126.300  1.00  0.00     0.014 C 
ENDROOT
BRANCH   1   3
ATOM      3  C   UNL     1     146.622 128.900 126.581  1.00  0.00     0.230 C 
BRANCH   3   4
ATOM      4  N   UNL     1     148.002 128.567 126.194  1.00  0.00    -0.350 N 
ATOM      5  H   UNL     1     148.397 129.317 125.580  1.00  0.00     0.345 HD
ATOM      6  H   UNL     1     148.033 127.657 125.679  1.00  0.00     0.345 HD
ATOM      7  H   UNL     1     148.614 128.518 127.040  1.00  0.00     0.345 HD
ENDBRANCH   3   4
BRANCH   3   8
ATOM      8  C   UNL     1     146.513 128.868 128.087  1.00  0.00     0.099 C 
ATOM      9  O   UNL     1     147.091 129.744 128.783  1.00  0.00    -0.544 OA
ATOM     10  O   UNL     1     145.770 127.875 128.714  1.00  0.00    -0.544 OA
ENDBRANCH   3   8
ENDBRANCH   1   3
BRANCH   1  11
ATOM     11  C   UNL     1     146.466 130.413 124.503  1.00  0.00     0.006 C 
ATOM     12  C   UNL     1     145.367 131.137 123.721  1.00  0.00     0.004 C 
ENDBRANCH   1  11
TORSDOF 4
ENDMDL
MODEL 6
REMARK VINA RESULT:    -3.945      2.551      3.909
REMARK INTER + INTRA:          -4.850
REMARK INTER:                  -4.756
REMARK INTRA:                  -0.094
REMARK UNBOUND:                -0.098
REMARK SMILES CC[C@@H](C)[C@@H]([NH3+])C(=O)[O-]
REMARK SMILES IDX 3 1 4 2 5 3 6 4 7 8 8 9 9 10 2 11 1 12
REMARK H PARENT 6 5 6 6 6 7
REMARK Flexibility Score: inf
ROOT
ATOM      1  C   UNL     1     145.552 129.160 128.152  1.00  0.00     0.050 C 
ATOM      2  C   UNL     1     144.680 129.469 129.389  1.00  0.00     0.014 C 
ENDROOT
BRANCH   1   3
ATOM      3  C   UNL     1     145.936 130.483 127.413  1.00  0.00     0.230 C 
BRANCH   3   4
ATOM      4  N   UNL     1     147.373 130.781 127.515  1.00  0.00    -0.350 N 
ATOM      5  H   UNL     1     147.517 131.736 127.919  1.00  0.00     0.345 HD
ATOM      6  H   UNL     1     147.828 130.740 126.573  1.00  0.00     0.345 HD
ATOM      7  H   UNL     1     147.838 130.106 128.164  1.00  0.00     0.345 HD
ENDBRANCH   3   4
BRANCH   3   8
ATOM      8  C   UNL     1     145.550 130.415 125.955  1.00  0.00     0.099 C 
ATOM      9  O   UNL     1     144.378 130.092 125.624  1.00  0.00    -0.544 OA
ATOM     10  O   UNL     1     146.483 130.713 124.970  1.00  0.00    -0.544 OA
ENDBRANCH   3   8
ENDBRANCH   1   3
BRANCH   1  11
ATOM     11  C   UNL     1     146.810 128.348 128.559  1.00  0.00     0.006 C 
ATOM     12  C   UNL     1     146.871 128.021 130.053  1.00  0.00     0.004 C 
ENDBRANCH   1  11
TORSDOF 4
ENDMDL
MODEL 7
REMARK VINA RESULT:    -3.837      2.456      3.005
REMARK INTER + INTRA:          -4.720
REMARK INTER:                  -4.653
REMARK INTRA:                  -0.066
REMARK UNBOUND:                -0.098
REMARK SMILES CC[C@@H](C)[C@@H]([NH3+])C(=O)[O-]
REMARK SMILES IDX 3 1 4 2 5 3 6 4 7 8 8 9 9 10 2 11 1 12
REMARK H PARENT 6 5 6 6 6 7
REMARK Flexibility Score: inf
ROOT
ATOM      1  C   UNL     1     144.556 130.129 125.132  1.00  0.00     0.050 C 
ATOM      2  C   UNL     1     145.661 130.908 124.386  1.00  0.00     0.014 C 
ENDROOT
BRANCH   1   3
ATOM      3  C   UNL     1     144.431 130.638 126.605  1.00  0.00     0.230 C 
BRANCH   3   4
ATOM      4  N   UNL     1     143.030 130.845 127.006  1.00  0.00    -0.350 N 
ATOM      5  H   UNL     1     142.690 130.032 127.570  1.00  0.00     0.345 HD
ATOM      6  H   UNL     1     142.416 130.954 126.165  1.00  0.00     0.345 HD
ATOM      7  H   UNL     1     142.950 131.690 127.616  1.00  0.00     0.345 HD
ENDBRANCH   3   4
BRANCH   3   8
ATOM      8  C   UNL     1     145.078 129.669 127.565  1.00  0.00     0.099 C 
ATOM      9  O   UNL     1     145.974 128.880 127.162  1.00  0.00    -0.544 OA
ATOM     10  O   UNL     1     144.694 129.645 128.900  1.00  0.00    -0.544 OA
ENDBRANCH   3   8
ENDBRANCH   1   3
BRANCH   1  11
ATOM     11  C   UNL     1     143.206 130.236 124.375  1.00  0.00     0.006 C 
ATOM     12  C   UNL     1     143.328 130.878 122.991  1.00  0.00     0.004 C 
ENDBRANCH   1  11
TORSDOF 4
ENDMDL
MODEL 8
REMARK VINA RESULT:    -3.793     10.043     11.211
REMARK INTER + INTRA:          -4.667
REMARK INTER:                  -4.536
REMARK INTRA:                  -0.131
REMARK UNBOUND:                -0.098
REMARK SMILES CC[C@@H](C)[C@@H]([NH3+])C(=O)[O-]
REMARK SMILES IDX 3 1 4 2 5 3 6 4 7 8 8 9 9 10 2 11 1 12
REMARK H PARENT 6 5 6 6 6 7
REMARK Flexibility Score: inf
ROOT
ATOM      1  C   UNL     1     140.060 132.834 118.341  1.00  0.00     0.050 C 
ATOM      2  C   UNL     1     140.059 132.349 116.875  1.00  0.00     0.014 C 
ENDROOT
BRANCH   1   3
ATOM      3  C   UNL     1     141.121 133.966 118.538  1.00  0.00     0.230 C 
BRANCH   3   4
ATOM      4  N   UNL     1     140.622 135.279 118.102  1.00  0.00    -0.350 N 
ATOM      5  H   UNL     1     141.195 135.637 117.302  1.00  0.00     0.345 HD
ATOM      6  H   UNL     1     140.665 135.972 118.885  1.00  0.00     0.345 HD
ATOM      7  H   UNL     1     139.639 135.197 117.754  1.00  0.00     0.345 HD
ENDBRANCH   3   4
BRANCH   3   8
ATOM      8  C   UNL     1     141.545 134.057 119.984  1.00  0.00     0.099 C 
ATOM      9  O   UNL     1     141.087 134.969 120.723  1.00  0.00    -0.544 OA
ATOM     10  O   UNL     1     142.440 133.133 120.510  1.00  0.00    -0.544 OA
ENDBRANCH   3   8
ENDBRANCH   1   3
BRANCH   1  11
ATOM     11  C   UNL     1     138.642 133.302 118.762  1.00  0.00     0.006 C 
ATOM     12  C   UNL     1     138.097 132.573 119.994  1.00  0.00     0.004 C 
ENDBRANCH   1  11
TORSDOF 4
ENDMDL
MODEL 9
REMARK VINA RESULT:    -3.764     10.637     11.795
REMARK INTER + INTRA:          -4.631
REMARK INTER:                  -4.525
REMARK INTRA:                  -0.106
REMARK UNBOUND:                -0.098
REMARK SMILES CC[C@@H](C)[C@@H]([NH3+])C(=O)[O-]
REMARK SMILES IDX 3 1 4 2 5 3 6 4 7 8 8 9 9 10 2 11 1 12
REMARK H PARENT 6 5 6 6 6 7
REMARK Flexibility Score: inf
ROOT
ATOM      1  C   UNL     1     139.676 133.621 117.729  1.00  0.00     0.050 C 
ATOM      2  C   UNL     1     139.963 132.366 116.877  1.00  0.00     0.014 C 
ENDROOT
BRANCH   1   3
ATOM      3  C   UNL     1     140.996 134.153 118.375  1.00  0.00     0.230 C 
BRANCH   3   4
ATOM      4  N   UNL     1     140.998 135.618 118.514  1.00  0.00    -0.350 N 
ATOM      5  H   UNL     1     141.968 135.963 118.701  1.00  0.00     0.345 HD
ATOM      6  H   UNL     1     140.375 135.917 119.300  1.00  0.00     0.345 HD
ATOM      7  H   UNL     1     140.686 136.067 117.622  1.00  0.00     0.345 HD
ENDBRANCH   3   4
BRANCH   3   8
ATOM      8  C   UNL     1     141.218 133.531 119.733  1.00  0.00     0.099 C 
ATOM      9  O   UNL     1     140.238 133.123 120.411  1.00  0.00    -0.544 OA
ATOM     10  O   UNL     1     142.504 133.399 120.241  1.00  0.00    -0.544 OA
ENDBRANCH   3   8
ENDBRANCH   1   3
BRANCH   1  11
ATOM     11  C   UNL     1     138.979 134.713 116.875  1.00  0.00     0.006 C 
ATOM     12  C   UNL     1     137.520 134.960 117.269  1.00  0.00     0.004 C 
ENDBRANCH   1  11
TORSDOF 4
ENDMDL
