MODEL 1
REMARK VINA RESULT:    -3.130      0.000      0.000
REMARK INTER + INTRA:          -3.704
REMARK INTER:                  -3.679
REMARK INTRA:                  -0.024
REMARK UNBOUND:                -0.024
REMARK SMILES [NH3+][C@@H](CO)C(=O)[O-]
REMARK SMILES IDX 3 1 2 2 1 3 5 7 6 8 7 9 4 10
REMARK H PARENT 1 4 1 5 1 6 4 11
REMARK Flexibility Score: inf
ROOT
ATOM      1  C   UNL     1     145.912 130.232 121.519  1.00  0.00     0.227 C 
ENDROOT
BRANCH   1   2
ATOM      2  C   UNL     1     146.737 130.515 120.252  1.00  0.00     0.253 C 
BRANCH   2   3
ATOM      3  N   UNL     1     146.748 131.948 119.932  1.00  0.00    -0.348 N 
ATOM      4  H   UNL     1     146.948 132.105 118.917  1.00  0.00     0.345 HD
ATOM      5  H   UNL     1     145.820 132.369 120.165  1.00  0.00     0.345 HD
ATOM      6  H   UNL     1     147.480 132.432 120.502  1.00  0.00     0.345 HD
ENDBRANCH   2   3
BRANCH   2   7
ATOM      7  C   UNL     1     146.228 129.704 119.090  1.00  0.00     0.102 C 
ATOM      8  O   UNL     1     146.646 128.533 118.891  1.00  0.00    -0.544 OA
ATOM      9  O   UNL     1     145.315 130.263 118.203  1.00  0.00    -0.544 OA
ENDBRANCH   2   7
ENDBRANCH   1   2
BRANCH   1  10
ATOM     10  O   UNL     1     146.699 129.604 122.494  1.00  0.00    -0.390 OA
ATOM     11  H   UNL     1     147.642 129.817 122.265  1.00  0.00     0.210 HD
ENDBRANCH   1  10
TORSDOF 4
ENDMDL
MODEL 2
REMARK VINA RESULT:    -3.084     14.901     15.503
REMARK INTER + INTRA:          -3.650
REMARK INTER:                  -3.425
REMARK INTRA:                  -0.225
REMARK UNBOUND:                -0.024
REMARK SMILES [NH3+][C@@H](CO)C(=O)[O-]
REMARK SMILES IDX 3 1 2 2 1 3 5 7 6 8 7 9 4 10
REMARK H PARENT 1 4 1 5 1 6 4 11
REMARK Flexibility Score: inf
ROOT
ATOM      1  C   UNL     1     146.361 145.737 118.111  1.00  0.00     0.227 C 
ENDROOT
BRANCH   1   2
ATOM      2  C   UNL     1     147.125 144.834 119.095  1.00  0.00     0.253 C 
BRANCH   2   3
ATOM      3  N   UNL     1     146.898 143.414 118.802  1.00  0.00    -0.348 N 
ATOM      4  H   UNL     1     145.920 143.251 118.465  1.00  0.00     0.345 HD
ATOM      5  H   UNL     1     147.569 143.093 118.068  1.00  0.00     0.345 HD
ATOM      6  H   UNL     1     147.059 142.845 119.666  1.00  0.00     0.345 HD
ENDBRANCH   2   3
BRANCH   2   7
ATOM      7  C   UNL     1     146.753 145.159 120.518  1.00  0.00     0.102 C 
ATOM      8  O   UNL     1     146.181 144.304 121.244  1.00  0.00    -0.544 OA
ATOM      9  O   UNL     1     147.008 146.427 121.028  1.00  0.00    -0.544 OA
ENDBRANCH   2   7
ENDBRANCH   1   2
BRANCH   1  10
ATOM     10  O   UNL     1     146.750 147.076 118.261  1.00  0.00    -0.390 OA
ATOM     11  H   UNL     1     147.719 147.105 118.048  1.00  0.00     0.210 HD
ENDBRANCH   1  10
TORSDOF 4
ENDMDL
MODEL 3
REMARK VINA RESULT:    -3.060     17.022     17.494
REMARK INTER + INTRA:          -3.621
REMARK INTER:                  -3.245
REMARK INTRA:                  -0.376
REMARK UNBOUND:                -0.024
REMARK SMILES [NH3+][C@@H](CO)C(=O)[O-]
REMARK SMILES IDX 3 1 2 2 1 3 5 7 6 8 7 9 4 10
REMARK H PARENT 1 4 1 5 1 6 4 11
REMARK Flexibility Score: inf
ROOT
ATOM      1  C   UNL     1     146.799 145.221 112.046  1.00  0.00     0.227 C 
ENDROOT
BRANCH   1   2
ATOM      2  C   UNL     1     145.349 144.730 111.902  1.00  0.00     0.253 C 
BRANCH   2   3
ATOM      3  N   UNL     1     145.226 143.314 112.271  1.00  0.00    -0.348 N 
ATOM      4  H   UNL     1     144.992 142.727 111.436  1.00  0.00     0.345 HD
ATOM      5  H   UNL     1     146.126 142.977 112.682  1.00  0.00     0.345 HD
ATOM      6  H   UNL     1     144.474 143.200 112.990  1.00  0.00     0.345 HD
ENDBRANCH   2   3
BRANCH   2   7
ATOM      7  C   UNL     1     144.838 144.972 110.506  1.00  0.00     0.102 C 
ATOM      8  O   UNL     1     145.111 144.169 109.574  1.00  0.00    -0.544 OA
ATOM      9  O   UNL     1     144.092 146.111 110.229  1.00  0.00    -0.544 OA
ENDBRANCH   2   7
ENDBRANCH   1   2
BRANCH   1  10
ATOM     10  O   UNL     1     147.125 146.115 111.016  1.00  0.00    -0.390 OA
ATOM     11  H   UNL     1     147.740 146.783 111.417  1.00  0.00     0.210 HD
ENDBRANCH   1  10
TORSDOF 4
ENDMDL
MODEL 4
REMARK VINA RESULT:    -3.044      1.669      1.999
REMARK INTER + INTRA:          -3.602
REMARK INTER:                  -3.221
REMARK INTRA:                  -0.381
REMARK UNBOUND:                -0.024
REMARK SMILES [NH3+][C@@H](CO)C(=O)[O-]
REMARK SMILES IDX 3 1 2 2 1 3 5 7 6 8 7 9 4 10
REMARK H PARENT 1 4 1 5 1 6 4 11
REMARK Flexibility Score: inf
ROOT
ATOM      1  C   UNL     1     144.537 130.880 120.160  1.00  0.00     0.227 C 
ENDROOT
BRANCH   1   2
ATOM      2  C   UNL     1     146.040 130.554 120.164  1.00  0.00     0.253 C 
BRANCH   2   3
ATOM      3  N   UNL     1     146.847 131.760 120.392  1.00  0.00    -0.348 N 
ATOM      4  H   UNL     1     147.099 132.220 119.486  1.00  0.00     0.345 HD
ATOM      5  H   UNL     1     146.311 132.437 120.980  1.00  0.00     0.345 HD
ATOM      6  H   UNL     1     147.725 131.505 120.901  1.00  0.00     0.345 HD
ENDBRANCH   2   3
BRANCH   2   7
ATOM      7  C   UNL     1     146.442 129.867 118.885  1.00  0.00     0.102 C 
ATOM      8  O   UNL     1     146.563 128.614 118.839  1.00  0.00    -0.544 OA
ATOM      9  O   UNL     1     146.721 130.622 117.752  1.00  0.00    -0.544 OA
ENDBRANCH   2   7
ENDBRANCH   1   2
BRANCH   1  10
ATOM     10  O   UNL     1     143.931 130.408 118.987  1.00  0.00    -0.390 OA
ATOM     11  H   UNL     1     143.039 130.065 119.258  1.00  0.00     0.210 HD
ENDBRANCH   1  10
TORSDOF 4
ENDMDL
MODEL 5
REMARK VINA RESULT:    -3.032      1.892      2.304
REMARK INTER + INTRA:          -3.588
REMARK INTER:                  -3.195
REMARK INTRA:                  -0.394
REMARK UNBOUND:                -0.024
REMARK SMILES [NH3+][C@@H](CO)C(=O)[O-]
REMARK SMILES IDX 3 1 2 2 1 3 5 7 6 8 7 9 4 10
REMARK H PARENT 1 4 1 5 1 6 4 11
REMARK Flexibility Score: inf
ROOT
ATOM      1  C   UNL     1     147.088 129.216 119.911  1.00  0.00     0.227 C 
ENDROOT
BRANCH   1   2
ATOM      2  C   UNL     1     146.343 130.562 119.931  1.00  0.00     0.253 C 
BRANCH   2   3
ATOM      3  N   UNL     1     145.591 130.736 121.180  1.00  0.00    -0.348 N 
ATOM      4  H   UNL     1     144.583 130.486 121.050  1.00  0.00     0.345 HD
ATOM      5  H   UNL     1     145.999 130.127 121.926  1.00  0.00     0.345 HD
ATOM      6  H   UNL     1     145.657 131.731 121.496  1.00  0.00     0.345 HD
ENDBRANCH   2   3
BRANCH   2   7
ATOM      7  C   UNL     1     145.439 130.691 118.733  1.00  0.00     0.102 C 
ATOM      8  O   UNL     1     144.205 130.459 118.831  1.00  0.00    -0.544 OA
ATOM      9  O   UNL     1     145.974 131.032 117.496  1.00  0.00    -0.544 OA
ENDBRANCH   2   7
ENDBRANCH   1   2
BRANCH   1  10
ATOM     10  O   UNL     1     146.620 128.406 118.867  1.00  0.00    -0.390 OA
ATOM     11  H   UNL     1     146.432 129.018 118.108  1.00  0.00     0.210 HD
ENDBRANCH   1  10
TORSDOF 4
ENDMDL
MODEL 6
REMARK VINA RESULT:    -2.959     11.786     13.000
REMARK INTER + INTRA:          -3.503
REMARK INTER:                  -3.297
REMARK INTRA:                  -0.205
REMARK UNBOUND:                -0.024
REMARK SMILES [NH3+][C@@H](CO)C(=O)[O-]
REMARK SMILES IDX 3 1 2 2 1 3 5 7 6 8 7 9 4 10
REMARK H PARENT 1 4 1 5 1 6 4 11
REMARK Flexibility Score: inf
ROOT
ATOM      1  C   UNL     1     145.561 131.334 108.727  1.00  0.00     0.227 C 
ENDROOT
BRANCH   1   2
ATOM      2  C   UNL     1     144.363 131.057 107.803  1.00  0.00     0.253 C 
BRANCH   2   3
ATOM      3  N   UNL     1     143.824 129.708 108.018  1.00  0.00    -0.348 N 
ATOM      4  H   UNL     1     144.301 129.010 107.401  1.00  0.00     0.345 HD
ATOM      5  H   UNL     1     143.960 129.429 109.016  1.00  0.00     0.345 HD
ATOM      6  H   UNL     1     142.798 129.701 107.812  1.00  0.00     0.345 HD
ENDBRANCH   2   3
BRANCH   2   7
ATOM      7  C   UNL     1     144.742 131.264 106.360  1.00  0.00     0.102 C 
ATOM      8  O   UNL     1     143.924 131.006 105.437  1.00  0.00    -0.544 OA
ATOM      9  O   UNL     1     146.019 131.708 106.036  1.00  0.00    -0.544 OA
ENDBRANCH   2   7
ENDBRANCH   1   2
BRANCH   1  10
ATOM     10  O   UNL     1     146.443 130.244 108.736  1.00  0.00    -0.390 OA
ATOM     11  H   UNL     1     146.450 129.904 109.669  1.00  0.00     0.210 HD
ENDBRANCH   1  10
TORSDOF 4
ENDMDL
MODEL 7
REMARK VINA RESULT:    -2.957     12.517     13.082
REMARK INTER + INTRA:          -3.500
REMARK INTER:                  -3.276
REMARK INTRA:                  -0.224
REMARK UNBOUND:                -0.024
REMARK SMILES [NH3+][C@@H](CO)C(=O)[O-]
REMARK SMILES IDX 3 1 2 2 1 3 5 7 6 8 7 9 4 10
REMARK H PARENT 1 4 1 5 1 6 4 11
REMARK Flexibility Score: inf
ROOT
ATOM      1  C   UNL     1     143.662 130.885 108.039  1.00  0.00     0.227 C 
ENDROOT
BRANCH   1   2
ATOM      2  C   UNL     1     144.575 131.562 107.003  1.00  0.00     0.253 C 
BRANCH   2   3
ATOM      3  N   UNL     1     144.291 131.078 105.646  1.00  0.00    -0.348 N 
ATOM      4  H   UNL     1     145.171 130.985 105.088  1.00  0.00     0.345 HD
ATOM      5  H   UNL     1     143.819 130.146 105.694  1.00  0.00     0.345 HD
ATOM      6  H   UNL     1     143.648 131.746 105.160  1.00  0.00     0.345 HD
ENDBRANCH   2   3
BRANCH   2   7
ATOM      7  C   UNL     1     146.026 131.362 107.356  1.00  0.00     0.102 C 
ATOM      8  O   UNL     1     146.934 131.909 106.676  1.00  0.00    -0.544 OA
ATOM      9  O   UNL     1     146.372 130.535 108.418  1.00  0.00    -0.544 OA
ENDBRANCH   2   7
ENDBRANCH   1   2
BRANCH   1  10
ATOM     10  O   UNL     1     143.753 129.489 107.944  1.00  0.00    -0.390 OA
ATOM     11  H   UNL     1     144.199 129.301 107.077  1.00  0.00     0.210 HD
ENDBRANCH   1  10
TORSDOF 4
ENDMDL
MODEL 8
REMARK VINA RESULT:    -2.948     17.619     18.342
REMARK INTER + INTRA:          -3.490
REMARK INTER:                  -3.262
REMARK INTRA:                  -0.227
REMARK UNBOUND:                -0.024
REMARK SMILES [NH3+][C@@H](CO)C(=O)[O-]
REMARK SMILES IDX 3 1 2 2 1 3 5 7 6 8 7 9 4 10
REMARK H PARENT 1 4 1 5 1 6 4 11
REMARK Flexibility Score: inf
ROOT
ATOM      1  C   UNL     1     144.849 143.772 109.160  1.00  0.00     0.227 C 
ENDROOT
BRANCH   1   2
ATOM      2  C   UNL     1     144.695 142.810 107.970  1.00  0.00     0.253 C 
BRANCH   2   3
ATOM      3  N   UNL     1     145.695 141.736 108.020  1.00  0.00    -0.348 N 
ATOM      4  H   UNL     1     146.585 142.029 107.554  1.00  0.00     0.345 HD
ATOM      5  H   UNL     1     145.897 141.487 109.015  1.00  0.00     0.345 HD
ATOM      6  H   UNL     1     145.322 140.885 107.538  1.00  0.00     0.345 HD
ENDBRANCH   2   3
BRANCH   2   7
ATOM      7  C   UNL     1     144.768 143.558 106.665  1.00  0.00     0.102 C 
ATOM      8  O   UNL     1     144.519 142.976 105.576  1.00  0.00    -0.544 OA
ATOM      9  O   UNL     1     145.153 144.894 106.653  1.00  0.00    -0.544 OA
ENDBRANCH   2   7
ENDBRANCH   1   2
BRANCH   1  10
ATOM     10  O   UNL     1     146.184 144.174 109.304  1.00  0.00    -0.390 OA
ATOM     11  H   UNL     1     146.725 143.519 108.789  1.00  0.00     0.210 HD
ENDBRANCH   1  10
TORSDOF 4
ENDMDL
MODEL 9
REMARK VINA RESULT:    -0.526     16.054     16.827
REMARK INTER + INTRA:          -0.642
REMARK INTER:                  -0.390
REMARK INTRA:                  -0.252
REMARK UNBOUND:                -0.024
REMARK SMILES [NH3+][C@@H](CO)C(=O)[O-]
REMARK SMILES IDX 3 1 2 2 1 3 5 7 6 8 7 9 4 10
REMARK H PARENT 1 4 1 5 1 6 4 11
REMARK Flexibility Score: inf
ROOT
ATOM      1  C   UNL     1     144.512 143.477 112.253  1.00  0.00     0.227 C 
ENDROOT
BRANCH   1   2
ATOM      2  C   UNL     1     144.930 144.549 111.232  1.00  0.00     0.253 C 
BRANCH   2   3
ATOM      3  N   UNL     1     145.225 143.953 109.923  1.00  0.00    -0.348 N 
ATOM      4  H   UNL     1     144.463 144.159 109.236  1.00  0.00     0.345 HD
ATOM      5  H   UNL     1     146.127 144.334 109.557  1.00  0.00     0.345 HD
ATOM      6  H   UNL     1     145.323 142.916 110.023  1.00  0.00     0.345 HD
ENDBRANCH   2   3
BRANCH   2   7
ATOM      7  C   UNL     1     146.104 145.344 111.742  1.00  0.00     0.102 C 
ATOM      8  O   UNL     1     147.125 145.514 111.024  1.00  0.00    -0.544 OA
ATOM      9  O   UNL     1     146.082 145.863 113.031  1.00  0.00    -0.544 OA
ENDBRANCH   2   7
ENDBRANCH   1   2
BRANCH   1  10
ATOM     10  O   UNL     1     145.639 142.885 112.841  1.00  0.00    -0.390 OA
ATOM     11  H   UNL     1     145.924 142.164 112.221  1.00  0.00     0.210 HD
ENDBRANCH   1  10
TORSDOF 4
ENDMDL
