MODEL 1
REMARK VINA RESULT:    -3.112      0.000      0.000
REMARK INTER + INTRA:          -4.173
REMARK INTER:                  -4.022
REMARK INTRA:                  -0.151
REMARK UNBOUND:                -0.151
REMARK SMILES CCCCCCC(=O)[O-]
REMARK SMILES IDX 5 1 6 2 7 3 8 4 9 5 4 6 3 7 2 8 1 9
REMARK H PARENT
REMARK Flexibility Score: inf
ROOT
ATOM      1  C   UNL     1      53.065  19.047  86.214  1.00  0.00     0.006 C 
ENDROOT
BRANCH   1   2
ATOM      2  C   UNL     1      52.002  18.810  85.137  1.00  0.00     0.053 C 
BRANCH   2   3
ATOM      3  C   UNL     1      50.632  19.032  85.696  1.00  0.00     0.041 C 
ATOM      4  O   UNL     1      50.444  19.900  86.589  1.00  0.00    -0.550 OA
ATOM      5  O   UNL     1      49.570  18.246  85.266  1.00  0.00    -0.550 OA
ENDBRANCH   2   3
ENDBRANCH   1   2
BRANCH   1   6
ATOM      6  C   UNL     1      54.110  17.925  86.212  1.00  0.00     0.000 C 
BRANCH   6   7
ATOM      7  C   UNL     1      54.840  17.855  84.862  1.00  0.00    -0.000 C 
BRANCH   7   8
ATOM      8  C   UNL     1      56.115  17.001  84.924  1.00  0.00    -0.003 C 
ATOM      9  C   UNL     1      56.125  16.038  86.111  1.00  0.00     0.004 C 
ENDBRANCH   7   8
ENDBRANCH   6   7
ENDBRANCH   1   6
TORSDOF 5
ENDMDL
MODEL 2
REMARK VINA RESULT:    -2.954     11.401     12.941
REMARK INTER + INTRA:          -3.969
REMARK INTER:                  -3.875
REMARK INTRA:                  -0.094
REMARK UNBOUND:                -0.151
REMARK SMILES CCCCCCC(=O)[O-]
REMARK SMILES IDX 5 1 6 2 7 3 8 4 9 5 4 6 3 7 2 8 1 9
REMARK H PARENT
REMARK Flexibility Score: inf
ROOT
ATOM      1  C   UNL     1      44.688  19.917  77.522  1.00  0.00     0.006 C 
ENDROOT
BRANCH   1   2
ATOM      2  C   UNL     1      45.599  18.714  77.781  1.00  0.00     0.053 C 
BRANCH   2   3
ATOM      3  C   UNL     1      45.689  17.853  76.560  1.00  0.00     0.041 C 
ATOM      4  O   UNL     1      45.854  18.376  75.427  1.00  0.00    -0.550 OA
ATOM      5  O   UNL     1      45.541  16.476  76.669  1.00  0.00    -0.550 OA
ENDBRANCH   2   3
ENDBRANCH   1   2
BRANCH   1   6
ATOM      6  C   UNL     1      44.036  20.405  78.822  1.00  0.00     0.000 C 
BRANCH   6   7
ATOM      7  C   UNL     1      42.542  20.695  78.613  1.00  0.00    -0.000 C 
BRANCH   7   8
ATOM      8  C   UNL     1      41.694  20.335  79.842  1.00  0.00    -0.003 C 
ATOM      9  C   UNL     1      40.287  19.866  79.473  1.00  0.00     0.004 C 
ENDBRANCH   7   8
ENDBRANCH   6   7
ENDBRANCH   1   6
TORSDOF 5
ENDMDL
MODEL 3
REMARK VINA RESULT:    -2.901     12.789     14.552
REMARK INTER + INTRA:          -3.901
REMARK INTER:                  -3.703
REMARK INTRA:                  -0.197
REMARK UNBOUND:                -0.151
REMARK SMILES CCCCCCC(=O)[O-]
REMARK SMILES IDX 5 1 6 2 7 3 8 4 9 5 4 6 3 7 2 8 1 9
REMARK H PARENT
REMARK Flexibility Score: inf
ROOT
ATOM      1  C   UNL     1      40.076  19.826  79.422  1.00  0.00     0.006 C 
ENDROOT
BRANCH   1   2
ATOM      2  C   UNL     1      38.863  20.394  80.163  1.00  0.00     0.053 C 
BRANCH   2   3
ATOM      3  C   UNL     1      37.964  19.290  80.622  1.00  0.00     0.041 C 
ATOM      4  O   UNL     1      37.892  18.218  79.965  1.00  0.00    -0.550 OA
ATOM      5  O   UNL     1      37.167  19.463  81.746  1.00  0.00    -0.550 OA
ENDBRANCH   2   3
ENDBRANCH   1   2
BRANCH   1   6
ATOM      6  C   UNL     1      40.393  20.650  78.169  1.00  0.00     0.000 C 
BRANCH   6   7
ATOM      7  C   UNL     1      41.797  21.267  78.256  1.00  0.00    -0.000 C 
BRANCH   7   8
ATOM      8  C   UNL     1      42.741  20.460  79.160  1.00  0.00    -0.003 C 
ATOM      9  C   UNL     1      43.956  19.916  78.411  1.00  0.00     0.004 C 
ENDBRANCH   7   8
ENDBRANCH   6   7
ENDBRANCH   1   6
TORSDOF 5
ENDMDL
MODEL 4
REMARK VINA RESULT:    -2.882     13.450     15.445
REMARK INTER + INTRA:          -3.875
REMARK INTER:                  -3.626
REMARK INTRA:                  -0.249
REMARK UNBOUND:                -0.151
REMARK SMILES CCCCCCC(=O)[O-]
REMARK SMILES IDX 5 1 6 2 7 3 8 4 9 5 4 6 3 7 2 8 1 9
REMARK H PARENT
REMARK Flexibility Score: inf
ROOT
ATOM      1  C   UNL     1      38.761  21.536  80.333  1.00  0.00     0.006 C 
ENDROOT
BRANCH   1   2
ATOM      2  C   UNL     1      37.379  20.911  80.123  1.00  0.00     0.053 C 
BRANCH   2   3
ATOM      3  C   UNL     1      37.288  19.592  80.825  1.00  0.00     0.041 C 
ATOM      4  O   UNL     1      37.291  18.521  80.163  1.00  0.00    -0.550 OA
ATOM      5  O   UNL     1      37.152  19.548  82.206  1.00  0.00    -0.550 OA
ENDBRANCH   2   3
ENDBRANCH   1   2
BRANCH   1   6
ATOM      6  C   UNL     1      39.366  21.994  79.000  1.00  0.00     0.000 C 
BRANCH   6   7
ATOM      7  C   UNL     1      40.153  20.856  78.332  1.00  0.00    -0.000 C 
BRANCH   7   8
ATOM      8  C   UNL     1      41.008  20.064  79.333  1.00  0.00    -0.003 C 
ATOM      9  C   UNL     1      42.508  20.234  79.093  1.00  0.00     0.004 C 
ENDBRANCH   7   8
ENDBRANCH   6   7
ENDBRANCH   1   6
TORSDOF 5
ENDMDL
MODEL 5
REMARK VINA RESULT:    -2.855      9.380     10.545
REMARK INTER + INTRA:          -3.841
REMARK INTER:                  -3.670
REMARK INTRA:                  -0.171
REMARK UNBOUND:                -0.151
REMARK SMILES CCCCCCC(=O)[O-]
REMARK SMILES IDX 5 1 6 2 7 3 8 4 9 5 4 6 3 7 2 8 1 9
REMARK H PARENT
REMARK Flexibility Score: inf
ROOT
ATOM      1  C   UNL     1      46.792  19.897  77.748  1.00  0.00     0.006 C 
ENDROOT
BRANCH   1   2
ATOM      2  C   UNL     1      45.620  18.911  77.748  1.00  0.00     0.053 C 
BRANCH   2   3
ATOM      3  C   UNL     1      45.693  18.011  76.555  1.00  0.00     0.041 C 
ATOM      4  O   UNL     1      45.871  18.495  75.406  1.00  0.00    -0.550 OA
ATOM      5  O   UNL     1      45.513  16.642  76.705  1.00  0.00    -0.550 OA
ENDBRANCH   2   3
ENDBRANCH   1   2
BRANCH   1   6
ATOM      6  C   UNL     1      47.779  19.580  78.878  1.00  0.00     0.000 C 
BRANCH   6   7
ATOM      7  C   UNL     1      49.118  20.299  78.657  1.00  0.00    -0.000 C 
BRANCH   7   8
ATOM      8  C   UNL     1      49.155  21.086  77.338  1.00  0.00    -0.003 C 
ATOM      9  C   UNL     1      50.340  22.047  77.255  1.00  0.00     0.004 C 
ENDBRANCH   7   8
ENDBRANCH   6   7
ENDBRANCH   1   6
TORSDOF 5
ENDMDL
MODEL 6
REMARK VINA RESULT:    -2.843     14.189     15.549
REMARK INTER + INTRA:          -3.826
REMARK INTER:                  -3.635
REMARK INTRA:                  -0.191
REMARK UNBOUND:                -0.151
REMARK SMILES CCCCCCC(=O)[O-]
REMARK SMILES IDX 5 1 6 2 7 3 8 4 9 5 4 6 3 7 2 8 1 9
REMARK H PARENT
REMARK Flexibility Score: inf
ROOT
ATOM      1  C   UNL     1      45.589  31.638  90.642  1.00  0.00     0.006 C 
ENDROOT
BRANCH   1   2
ATOM      2  C   UNL     1      44.987  30.457  91.408  1.00  0.00     0.053 C 
BRANCH   2   3
ATOM      3  C   UNL     1      43.807  30.902  92.213  1.00  0.00     0.041 C 
ATOM      4  O   UNL     1      43.899  31.900  92.975  1.00  0.00    -0.550 OA
ATOM      5  O   UNL     1      42.619  30.185  92.159  1.00  0.00    -0.550 OA
ENDBRANCH   2   3
ENDBRANCH   1   2
BRANCH   1   6
ATOM      6  C   UNL     1      46.912  31.244  89.972  1.00  0.00     0.000 C 
BRANCH   6   7
ATOM      7  C   UNL     1      47.538  30.025  90.666  1.00  0.00    -0.000 C 
BRANCH   7   8
ATOM      8  C   UNL     1      49.065  29.977  90.509  1.00  0.00    -0.003 C 
ATOM      9  C   UNL     1      49.771  31.118  91.241  1.00  0.00     0.004 C 
ENDBRANCH   7   8
ENDBRANCH   6   7
ENDBRANCH   1   6
TORSDOF 5
ENDMDL
MODEL 7
REMARK VINA RESULT:    -2.811     14.805     15.745
REMARK INTER + INTRA:          -3.784
REMARK INTER:                  -3.546
REMARK INTRA:                  -0.238
REMARK UNBOUND:                -0.151
REMARK SMILES CCCCCCC(=O)[O-]
REMARK SMILES IDX 5 1 6 2 7 3 8 4 9 5 4 6 3 7 2 8 1 9
REMARK H PARENT
REMARK Flexibility Score: inf
ROOT
ATOM      1  C   UNL     1      39.847  19.600  79.624  1.00  0.00     0.006 C 
ENDROOT
BRANCH   1   2
ATOM      2  C   UNL     1      38.572  20.301  80.102  1.00  0.00     0.053 C 
BRANCH   2   3
ATOM      3  C   UNL     1      37.633  19.315  80.723  1.00  0.00     0.041 C 
ATOM      4  O   UNL     1      37.248  18.309  80.070  1.00  0.00    -0.550 OA
ATOM      5  O   UNL     1      37.144  19.532  82.005  1.00  0.00    -0.550 OA
ENDBRANCH   2   3
ENDBRANCH   1   2
BRANCH   1   6
ATOM      6  C   UNL     1      40.730  20.555  78.813  1.00  0.00     0.000 C 
BRANCH   6   7
ATOM      7  C   UNL     1      40.129  21.969  78.783  1.00  0.00    -0.000 C 
BRANCH   7   8
ATOM      8  C   UNL     1      40.060  22.550  77.362  1.00  0.00    -0.003 C 
ATOM      9  C   UNL     1      40.585  21.585  76.301  1.00  0.00     0.004 C 
ENDBRANCH   7   8
ENDBRANCH   6   7
ENDBRANCH   1   6
TORSDOF 5
ENDMDL
MODEL 8
REMARK VINA RESULT:    -2.774      2.855      4.997
REMARK INTER + INTRA:          -3.737
REMARK INTER:                  -3.588
REMARK INTRA:                  -0.149
REMARK UNBOUND:                -0.151
REMARK SMILES CCCCCCC(=O)[O-]
REMARK SMILES IDX 5 1 6 2 7 3 8 4 9 5 4 6 3 7 2 8 1 9
REMARK H PARENT
REMARK Flexibility Score: inf
ROOT
ATOM      1  C   UNL     1      54.109  18.986  84.924  1.00  0.00     0.006 C 
ENDROOT
BRANCH   1   2
ATOM      2  C   UNL     1      55.050  17.780  84.872  1.00  0.00     0.053 C 
BRANCH   2   3
ATOM      3  C   UNL     1      55.171  17.151  86.224  1.00  0.00     0.041 C 
ATOM      4  O   UNL     1      55.486  15.936  86.332  1.00  0.00    -0.550 OA
ATOM      5  O   UNL     1      54.888  17.893  87.364  1.00  0.00    -0.550 OA
ENDBRANCH   2   3
ENDBRANCH   1   2
BRANCH   1   6
ATOM      6  C   UNL     1      52.650  18.555  84.733  1.00  0.00     0.000 C 
BRANCH   6   7
ATOM      7  C   UNL     1      51.720  19.325  85.683  1.00  0.00    -0.000 C 
BRANCH   7   8
ATOM      8  C   UNL     1      50.248  18.912  85.531  1.00  0.00    -0.003 C 
ATOM      9  C   UNL     1      49.371  19.415  86.677  1.00  0.00     0.004 C 
ENDBRANCH   7   8
ENDBRANCH   6   7
ENDBRANCH   1   6
TORSDOF 5
ENDMDL
MODEL 9
REMARK VINA RESULT:    -2.734     11.928     12.807
REMARK INTER + INTRA:          -3.685
REMARK INTER:                  -3.549
REMARK INTRA:                  -0.137
REMARK UNBOUND:                -0.151
REMARK SMILES CCCCCCC(=O)[O-]
REMARK SMILES IDX 5 1 6 2 7 3 8 4 9 5 4 6 3 7 2 8 1 9
REMARK H PARENT
REMARK Flexibility Score: inf
ROOT
ATOM      1  C   UNL     1      54.071  20.369  73.220  1.00  0.00     0.006 C 
ENDROOT
BRANCH   1   2
ATOM      2  C   UNL     1      53.903  18.882  72.896  1.00  0.00     0.053 C 
BRANCH   2   3
ATOM      3  C   UNL     1      54.952  18.072  73.589  1.00  0.00     0.041 C 
ATOM      4  O   UNL     1      55.815  18.638  74.311  1.00  0.00    -0.550 OA
ATOM      5  O   UNL     1      55.009  16.697  73.399  1.00  0.00    -0.550 OA
ENDBRANCH   2   3
ENDBRANCH   1   2
BRANCH   1   6
ATOM      6  C   UNL     1      52.830  20.921  73.932  1.00  0.00     0.000 C 
BRANCH   6   7
ATOM      7  C   UNL     1      53.132  22.275  74.593  1.00  0.00    -0.000 C 
BRANCH   7   8
ATOM      8  C   UNL     1      51.859  23.072  74.913  1.00  0.00    -0.003 C 
ATOM      9  C   UNL     1      50.656  22.176  75.204  1.00  0.00     0.004 C 
ENDBRANCH   7   8
ENDBRANCH   6   7
ENDBRANCH   1   6
TORSDOF 5
ENDMDL
