MODEL 1
REMARK VINA RESULT:    -7.038      0.000      0.000
REMARK INTER + INTRA:         -11.490
REMARK INTER:                 -10.330
REMARK INTRA:                  -1.161
REMARK UNBOUND:                -1.161
REMARK SMILES O=c1c(O[C@H]2O[C@H](CO)[C@H](O)[C@H](O)[C@@H]2O)c(-c2ccc(O)c(O)c2)oc2cc(O)cc(O)c12
REMARK SMILES IDX 4 1 3 2 16 3 25 4 2 5 26 6 1 7 33 8 27 9 31 10 28 11 30 12
REMARK SMILES IDX 17 13 18 14 19 15 20 16 24 17 22 18 21 19 23 21 32 23 29 25
REMARK SMILES IDX 5 27 14 28 6 29 12 30 7 31 10 32 15 33 13 35 8 37 9 38 11 40
REMARK H PARENT 21 20 23 22 32 24 29 26 15 34 13 36 9 39 11 41
REMARK Flexibility Score: inf
ROOT
ATOM      1  O   UNL     1     -38.282   5.770  81.570  1.00  0.00    -0.454 OA
ENDROOT
BRANCH   1   2
ATOM      2  C   UNL     1     -39.127   5.139  80.633  1.00  0.00     0.214 A 
ATOM      3  C   UNL     1     -38.702   5.095  79.294  1.00  0.00     0.180 A 
ATOM      4  O   UNL     1     -39.423   4.451  78.386  1.00  0.00    -0.452 OA
ATOM      5  C   UNL     1     -40.357   4.528  80.968  1.00  0.00     0.239 A 
ATOM      6  C   UNL     1     -40.581   3.863  78.654  1.00  0.00     0.146 A 
ATOM      7  O   UNL     1     -40.739   4.516  82.166  1.00  0.00    -0.285 OA
ATOM      8  C   UNL     1     -41.134   3.907  79.959  1.00  0.00     0.111 A 
ATOM      9  C   UNL     1     -41.241   3.192  77.623  1.00  0.00     0.094 A 
ATOM     10  C   UNL     1     -42.409   3.300  80.175  1.00  0.00     0.134 A 
ATOM     11  C   UNL     1     -42.457   2.549  77.862  1.00  0.00     0.123 A 
ATOM     12  C   UNL     1     -43.028   2.602  79.131  1.00  0.00     0.093 A 
BRANCH   3  13
ATOM     13  C   UNL     1     -37.427   5.711  78.859  1.00  0.00     0.025 A 
ATOM     14  C   UNL     1     -36.223   4.987  78.874  1.00  0.00     0.016 A 
ATOM     15  C   UNL     1     -35.032   5.588  78.458  1.00  0.00     0.051 A 
ATOM     16  C   UNL     1     -35.023   6.922  78.037  1.00  0.00     0.157 A 
ATOM     17  C   UNL     1     -37.411   7.056  78.456  1.00  0.00     0.062 A 
ATOM     18  C   UNL     1     -36.218   7.662  78.039  1.00  0.00     0.158 A 
BRANCH  16  19
ATOM     19  O   UNL     1     -33.821   7.496  77.625  1.00  0.00    -0.504 OA
ATOM     20  H   UNL     1     -33.746   8.477  77.388  1.00  0.00     0.293 HD
ENDBRANCH  16  19
BRANCH  18  21
ATOM     21  O   UNL     1     -36.215   8.996  77.628  1.00  0.00    -0.504 OA
ATOM     22  H   UNL     1     -36.167   9.756  78.295  1.00  0.00     0.293 HD
ENDBRANCH  18  21
ENDBRANCH   3  13
BRANCH  10  23
ATOM     23  O   UNL     1     -43.119   3.375  81.377  1.00  0.00    -0.507 OA
ATOM     24  H   UNL     1     -42.701   3.355  82.294  1.00  0.00     0.293 HD
ENDBRANCH  10  23
BRANCH  11  25
ATOM     25  O   UNL     1     -43.111   1.863  76.841  1.00  0.00    -0.508 OA
ATOM     26  H   UNL     1     -43.443   0.914  76.968  1.00  0.00     0.293 HD
ENDBRANCH  11  25
ENDBRANCH   1   2
BRANCH   1  27
ATOM     27  C   UNL     1     -37.906   5.293  82.865  1.00  0.00     0.339 C 
ATOM     28  C   UNL     1     -37.669   6.485  83.809  1.00  0.00     0.214 C 
ATOM     29  O   UNL     1     -36.762   4.451  82.799  1.00  0.00    -0.332 OA
ATOM     30  C   UNL     1     -36.411   7.261  83.375  1.00  0.00     0.180 C 
ATOM     31  C   UNL     1     -35.637   5.137  82.270  1.00  0.00     0.179 C 
ATOM     32  C   UNL     1     -35.217   6.302  83.195  1.00  0.00     0.177 C 
BRANCH  28  33
ATOM     33  O   UNL     1     -37.531   6.009  85.125  1.00  0.00    -0.384 OA
ATOM     34  H   UNL     1     -37.709   6.775  85.730  1.00  0.00     0.211 HD
ENDBRANCH  28  33
BRANCH  30  35
ATOM     35  O   UNL     1     -36.113   8.258  84.318  1.00  0.00    -0.387 OA
ATOM     36  H   UNL     1     -35.321   8.749  83.973  1.00  0.00     0.211 HD
ENDBRANCH  30  35
BRANCH  31  37
ATOM     37  C   UNL     1     -34.496   4.124  82.079  1.00  0.00     0.191 C 
BRANCH  37  38
ATOM     38  O   UNL     1     -34.282   3.381  83.249  1.00  0.00    -0.394 OA
ATOM     39  H   UNL     1     -34.874   3.768  83.944  1.00  0.00     0.210 HD
ENDBRANCH  37  38
ENDBRANCH  31  37
BRANCH  32  40
ATOM     40  O   UNL     1     -34.799   5.801  84.439  1.00  0.00    -0.387 OA
ATOM     41  H   UNL     1     -35.286   6.312  85.136  1.00  0.00     0.211 HD
ENDBRANCH  32  40
ENDBRANCH   1  27
TORSDOF 12
ENDMDL
MODEL 2
REMARK VINA RESULT:    -7.038      2.148      6.604
REMARK INTER + INTRA:         -11.490
REMARK INTER:                 -10.043
REMARK INTRA:                  -1.447
REMARK UNBOUND:                -1.161
REMARK SMILES O=c1c(O[C@H]2O[C@H](CO)[C@H](O)[C@H](O)[C@@H]2O)c(-c2ccc(O)c(O)c2)oc2cc(O)cc(O)c12
REMARK SMILES IDX 4 1 3 2 16 3 25 4 2 5 26 6 1 7 33 8 27 9 31 10 28 11 30 12
REMARK SMILES IDX 17 13 18 14 19 15 20 16 24 17 22 18 21 19 23 21 32 23 29 25
REMARK SMILES IDX 5 27 14 28 6 29 12 30 7 31 10 32 15 33 13 35 8 37 9 38 11 40
REMARK H PARENT 21 20 23 22 32 24 29 26 15 34 13 36 9 39 11 41
REMARK Flexibility Score: inf
ROOT
ATOM      1  O   UNL     1     -37.234   4.550  81.641  1.00  0.00    -0.454 OA
ENDROOT
BRANCH   1   2
ATOM      2  C   UNL     1     -36.609   5.462  80.766  1.00  0.00     0.214 A 
ATOM      3  C   UNL     1     -37.096   5.544  79.449  1.00  0.00     0.180 A 
ATOM      4  O   UNL     1     -36.593   6.437  78.607  1.00  0.00    -0.452 OA
ATOM      5  C   UNL     1     -35.545   6.313  81.143  1.00  0.00     0.239 A 
ATOM      6  C   UNL     1     -35.597   7.255  78.917  1.00  0.00     0.146 A 
ATOM      7  O   UNL     1     -35.121   6.289  82.326  1.00  0.00    -0.285 OA
ATOM      8  C   UNL     1     -34.987   7.207  80.196  1.00  0.00     0.111 A 
ATOM      9  C   UNL     1     -35.165   8.171  77.956  1.00  0.00     0.094 A 
ATOM     10  C   UNL     1     -33.884   8.078  80.454  1.00  0.00     0.134 A 
ATOM     11  C   UNL     1     -34.127   9.060  78.242  1.00  0.00     0.123 A 
ATOM     12  C   UNL     1     -33.500   9.012  79.485  1.00  0.00     0.093 A 
BRANCH   3  13
ATOM     13  C   UNL     1     -38.208   4.689  78.973  1.00  0.00     0.025 A 
ATOM     14  C   UNL     1     -39.474   5.226  78.688  1.00  0.00     0.016 A 
ATOM     15  C   UNL     1     -40.507   4.400  78.240  1.00  0.00     0.051 A 
ATOM     16  C   UNL     1     -40.297   3.026  78.082  1.00  0.00     0.157 A 
ATOM     17  C   UNL     1     -38.005   3.306  78.835  1.00  0.00     0.062 A 
ATOM     18  C   UNL     1     -39.040   2.474  78.385  1.00  0.00     0.158 A 
BRANCH  16  19
ATOM     19  O   UNL     1     -41.344   2.225  77.630  1.00  0.00    -0.504 OA
ATOM     20  H   UNL     1     -42.301   2.372  77.927  1.00  0.00     0.293 HD
ENDBRANCH  16  19
BRANCH  18  21
ATOM     21  O   UNL     1     -38.824   1.103  78.239  1.00  0.00    -0.504 OA
ATOM     22  H   UNL     1     -39.170   0.595  77.434  1.00  0.00     0.293 HD
ENDBRANCH  18  21
ENDBRANCH   3  13
BRANCH  10  23
ATOM     23  O   UNL     1     -33.121   8.049  81.624  1.00  0.00    -0.507 OA
ATOM     24  H   UNL     1     -33.302   8.607  82.444  1.00  0.00     0.293 HD
ENDBRANCH  10  23
BRANCH  11  25
ATOM     25  O   UNL     1     -33.705   9.989  77.293  1.00  0.00    -0.508 OA
ATOM     26  H   UNL     1     -33.281  10.868  77.565  1.00  0.00     0.293 HD
ENDBRANCH  11  25
ENDBRANCH   1   2
BRANCH   1  27
ATOM     27  C   UNL     1     -37.993   4.849  82.816  1.00  0.00     0.339 C 
ATOM     28  C   UNL     1     -37.691   3.808  83.909  1.00  0.00     0.214 C 
ATOM     29  O   UNL     1     -39.385   4.914  82.536  1.00  0.00    -0.332 OA
ATOM     30  C   UNL     1     -38.259   2.434  83.501  1.00  0.00     0.180 C 
ATOM     31  C   UNL     1     -39.876   3.681  82.031  1.00  0.00     0.179 C 
ATOM     32  C   UNL     1     -39.738   2.560  83.086  1.00  0.00     0.177 C 
BRANCH  28  33
ATOM     33  O   UNL     1     -38.255   4.238  85.123  1.00  0.00    -0.384 OA
ATOM     34  H   UNL     1     -38.870   4.987  84.906  1.00  0.00     0.211 HD
ENDBRANCH  28  33
BRANCH  30  35
ATOM     35  O   UNL     1     -38.112   1.522  84.558  1.00  0.00    -0.387 OA
ATOM     36  H   UNL     1     -37.784   0.673  84.159  1.00  0.00     0.211 HD
ENDBRANCH  30  35
BRANCH  31  37
ATOM     37  C   UNL     1     -41.339   3.879  81.602  1.00  0.00     0.191 C 
BRANCH  37  38
ATOM     38  O   UNL     1     -42.006   2.649  81.500  1.00  0.00    -0.394 OA
ATOM     39  H   UNL     1     -41.503   2.107  80.839  1.00  0.00     0.210 HD
ENDBRANCH  37  38
ENDBRANCH  31  37
BRANCH  32  40
ATOM     40  O   UNL     1     -40.538   2.852  84.205  1.00  0.00    -0.387 OA
ATOM     41  H   UNL     1     -41.472   2.927  83.881  1.00  0.00     0.211 HD
ENDBRANCH  32  40
ENDBRANCH   1  27
TORSDOF 12
ENDMDL
MODEL 3
REMARK VINA RESULT:    -6.891      1.231      1.540
REMARK INTER + INTRA:         -11.274
REMARK INTER:                 -10.201
REMARK INTRA:                  -1.073
REMARK UNBOUND:                -1.161
REMARK SMILES O=c1c(O[C@H]2O[C@H](CO)[C@H](O)[C@H](O)[C@@H]2O)c(-c2ccc(O)c(O)c2)oc2cc(O)cc(O)c12
REMARK SMILES IDX 4 1 3 2 16 3 25 4 2 5 26 6 1 7 33 8 27 9 31 10 28 11 30 12
REMARK SMILES IDX 17 13 18 14 19 15 20 16 24 17 22 18 21 19 23 21 32 23 29 25
REMARK SMILES IDX 5 27 14 28 6 29 12 30 7 31 10 32 15 33 13 35 8 37 9 38 11 40
REMARK H PARENT 21 20 23 22 32 24 29 26 15 34 13 36 9 39 11 41
REMARK Flexibility Score: inf
ROOT
ATOM      1  O   UNL     1     -37.616   4.901  82.282  1.00  0.00    -0.454 OA
ENDROOT
BRANCH   1   2
ATOM      2  C   UNL     1     -38.497   4.557  81.237  1.00  0.00     0.214 A 
ATOM      3  C   UNL     1     -38.017   4.650  79.918  1.00  0.00     0.180 A 
ATOM      4  O   UNL     1     -38.779   4.269  78.902  1.00  0.00    -0.452 OA
ATOM      5  C   UNL     1     -39.819   4.099  81.439  1.00  0.00     0.239 A 
ATOM      6  C   UNL     1     -40.023   3.833  79.044  1.00  0.00     0.146 A 
ATOM      7  O   UNL     1     -40.258   3.965  82.609  1.00  0.00    -0.285 OA
ATOM      8  C   UNL     1     -40.629   3.765  80.325  1.00  0.00     0.111 A 
ATOM      9  C   UNL     1     -40.724   3.436  77.904  1.00  0.00     0.094 A 
ATOM     10  C   UNL     1     -41.989   3.336  80.410  1.00  0.00     0.134 A 
ATOM     11  C   UNL     1     -42.032   2.959  78.007  1.00  0.00     0.123 A 
ATOM     12  C   UNL     1     -42.651   2.907  79.254  1.00  0.00     0.093 A 
BRANCH   3  13
ATOM     13  C   UNL     1     -36.645   5.121  79.619  1.00  0.00     0.025 A 
ATOM     14  C   UNL     1     -35.519   4.501  80.187  1.00  0.00     0.016 A 
ATOM     15  C   UNL     1     -34.234   4.960  79.889  1.00  0.00     0.051 A 
ATOM     16  C   UNL     1     -34.054   6.053  79.034  1.00  0.00     0.157 A 
ATOM     17  C   UNL     1     -36.462   6.230  78.778  1.00  0.00     0.062 A 
ATOM     18  C   UNL     1     -35.174   6.694  78.478  1.00  0.00     0.158 A 
BRANCH  16  19
ATOM     19  O   UNL     1     -32.760   6.489  78.752  1.00  0.00    -0.504 OA
ATOM     20  H   UNL     1     -32.052   5.868  78.381  1.00  0.00     0.293 HD
ENDBRANCH  16  19
BRANCH  18  21
ATOM     21  O   UNL     1     -35.003   7.790  77.631  1.00  0.00    -0.504 OA
ATOM     22  H   UNL     1     -35.075   7.699  76.625  1.00  0.00     0.293 HD
ENDBRANCH  18  21
ENDBRANCH   3  13
BRANCH  10  23
ATOM     23  O   UNL     1     -42.738   3.337  81.590  1.00  0.00    -0.507 OA
ATOM     24  H   UNL     1     -42.640   2.665  82.334  1.00  0.00     0.293 HD
ENDBRANCH  10  23
BRANCH  11  25
ATOM     25  O   UNL     1     -42.728   2.544  76.874  1.00  0.00    -0.508 OA
ATOM     26  H   UNL     1     -42.268   2.442  75.977  1.00  0.00     0.293 HD
ENDBRANCH  11  25
ENDBRANCH   1   2
BRANCH   1  27
ATOM     27  C   UNL     1     -37.785   5.927  83.264  1.00  0.00     0.339 C 
ATOM     28  C   UNL     1     -37.655   7.309  82.599  1.00  0.00     0.214 C 
ATOM     29  O   UNL     1     -36.862   5.781  84.336  1.00  0.00    -0.332 OA
ATOM     30  C   UNL     1     -36.202   7.540  82.140  1.00  0.00     0.180 C 
ATOM     31  C   UNL     1     -35.518   5.860  83.885  1.00  0.00     0.179 C 
ATOM     32  C   UNL     1     -35.218   7.256  83.292  1.00  0.00     0.177 C 
BRANCH  28  33
ATOM     33  O   UNL     1     -38.051   8.299  83.516  1.00  0.00    -0.384 OA
ATOM     34  H   UNL     1     -38.912   8.001  83.910  1.00  0.00     0.211 HD
ENDBRANCH  28  33
BRANCH  30  35
ATOM     35  O   UNL     1     -36.052   8.853  81.667  1.00  0.00    -0.387 OA
ATOM     36  H   UNL     1     -36.534   9.444  82.305  1.00  0.00     0.211 HD
ENDBRANCH  30  35
BRANCH  31  37
ATOM     37  C   UNL     1     -34.589   5.533  85.065  1.00  0.00     0.191 C 
BRANCH  37  38
ATOM     38  O   UNL     1     -34.317   4.158  85.125  1.00  0.00    -0.394 OA
ATOM     39  H   UNL     1     -35.136   3.721  85.475  1.00  0.00     0.210 HD
ENDBRANCH  37  38
ENDBRANCH  31  37
BRANCH  32  40
ATOM     40  O   UNL     1     -35.336   8.238  84.291  1.00  0.00    -0.387 OA
ATOM     41  H   UNL     1     -35.825   9.002  83.890  1.00  0.00     0.211 HD
ENDBRANCH  32  40
ENDBRANCH   1  27
TORSDOF 12
ENDMDL
MODEL 4
REMARK VINA RESULT:    -6.886      0.982      2.084
REMARK INTER + INTRA:         -11.267
REMARK INTER:                 -10.341
REMARK INTRA:                  -0.926
REMARK UNBOUND:                -1.161
REMARK SMILES O=c1c(O[C@H]2O[C@H](CO)[C@H](O)[C@H](O)[C@@H]2O)c(-c2ccc(O)c(O)c2)oc2cc(O)cc(O)c12
REMARK SMILES IDX 4 1 3 2 16 3 25 4 2 5 26 6 1 7 33 8 27 9 31 10 28 11 30 12
REMARK SMILES IDX 17 13 18 14 19 15 20 16 24 17 22 18 21 19 23 21 32 23 29 25
REMARK SMILES IDX 5 27 14 28 6 29 12 30 7 31 10 32 15 33 13 35 8 37 9 38 11 40
REMARK H PARENT 21 20 23 22 32 24 29 26 15 34 13 36 9 39 11 41
REMARK Flexibility Score: inf
ROOT
ATOM      1  O   UNL     1     -38.189   5.826  81.557  1.00  0.00    -0.454 OA
ENDROOT
BRANCH   1   2
ATOM      2  C   UNL     1     -39.026   5.186  80.619  1.00  0.00     0.214 A 
ATOM      3  C   UNL     1     -38.600   5.147  79.280  1.00  0.00     0.180 A 
ATOM      4  O   UNL     1     -39.313   4.494  78.372  1.00  0.00    -0.452 OA
ATOM      5  C   UNL     1     -40.250   4.562  80.954  1.00  0.00     0.239 A 
ATOM      6  C   UNL     1     -40.465   3.894  78.639  1.00  0.00     0.146 A 
ATOM      7  O   UNL     1     -40.632   4.545  82.151  1.00  0.00    -0.285 OA
ATOM      8  C   UNL     1     -41.019   3.932  79.944  1.00  0.00     0.111 A 
ATOM      9  C   UNL     1     -41.117   3.216  77.608  1.00  0.00     0.094 A 
ATOM     10  C   UNL     1     -42.288   3.311  80.160  1.00  0.00     0.134 A 
ATOM     11  C   UNL     1     -42.326   2.560  77.846  1.00  0.00     0.123 A 
ATOM     12  C   UNL     1     -42.898   2.606  79.116  1.00  0.00     0.093 A 
BRANCH   3  13
ATOM     13  C   UNL     1     -37.331   5.776  78.846  1.00  0.00     0.025 A 
ATOM     14  C   UNL     1     -36.131   5.048  78.802  1.00  0.00     0.016 A 
ATOM     15  C   UNL     1     -34.947   5.663  78.389  1.00  0.00     0.051 A 
ATOM     16  C   UNL     1     -34.940   7.014  78.027  1.00  0.00     0.157 A 
ATOM     17  C   UNL     1     -37.318   7.138  78.503  1.00  0.00     0.062 A 
ATOM     18  C   UNL     1     -36.131   7.757  78.087  1.00  0.00     0.158 A 
BRANCH  16  19
ATOM     19  O   UNL     1     -33.744   7.601  77.615  1.00  0.00    -0.504 OA
ATOM     20  H   UNL     1     -33.052   7.093  77.078  1.00  0.00     0.293 HD
ENDBRANCH  16  19
BRANCH  18  21
ATOM     21  O   UNL     1     -36.131   9.108  77.736  1.00  0.00    -0.504 OA
ATOM     22  H   UNL     1     -36.741   9.774  78.193  1.00  0.00     0.293 HD
ENDBRANCH  18  21
ENDBRANCH   3  13
BRANCH  10  23
ATOM     23  O   UNL     1     -42.998   3.378  81.361  1.00  0.00    -0.507 OA
ATOM     24  H   UNL     1     -42.631   3.739  82.228  1.00  0.00     0.293 HD
ENDBRANCH  10  23
BRANCH  11  25
ATOM     25  O   UNL     1     -42.972   1.866  76.825  1.00  0.00    -0.508 OA
ATOM     26  H   UNL     1     -43.391   0.957  76.985  1.00  0.00     0.293 HD
ENDBRANCH  11  25
ENDBRANCH   1   2
BRANCH   1  27
ATOM     27  C   UNL     1     -36.842   5.486  81.897  1.00  0.00     0.339 C 
ATOM     28  C   UNL     1     -36.764   4.002  82.294  1.00  0.00     0.214 C 
ATOM     29  O   UNL     1     -36.337   6.324  82.929  1.00  0.00    -0.332 OA
ATOM     30  C   UNL     1     -37.499   3.773  83.629  1.00  0.00     0.180 C 
ATOM     31  C   UNL     1     -37.104   6.209  84.119  1.00  0.00     0.179 C 
ATOM     32  C   UNL     1     -37.016   4.777  84.694  1.00  0.00     0.177 C 
BRANCH  28  33
ATOM     33  O   UNL     1     -35.414   3.624  82.399  1.00  0.00    -0.384 OA
ATOM     34  H   UNL     1     -35.037   3.639  81.481  1.00  0.00     0.211 HD
ENDBRANCH  28  33
BRANCH  30  35
ATOM     35  O   UNL     1     -37.305   2.452  84.064  1.00  0.00    -0.387 OA
ATOM     36  H   UNL     1     -36.720   2.499  84.866  1.00  0.00     0.211 HD
ENDBRANCH  30  35
BRANCH  31  37
ATOM     37  C   UNL     1     -36.601   7.257  85.125  1.00  0.00     0.191 C 
BRANCH  37  38
ATOM     38  O   UNL     1     -35.224   7.481  84.973  1.00  0.00    -0.394 OA
ATOM     39  H   UNL     1     -34.832   6.629  84.648  1.00  0.00     0.210 HD
ENDBRANCH  37  38
ENDBRANCH  31  37
BRANCH  32  40
ATOM     40  O   UNL     1     -35.693   4.492  85.072  1.00  0.00    -0.387 OA
ATOM     41  H   UNL     1     -35.194   4.277  84.242  1.00  0.00     0.211 HD
ENDBRANCH  32  40
ENDBRANCH   1  27
TORSDOF 12
ENDMDL
MODEL 5
REMARK VINA RESULT:    -6.752      2.842      7.333
REMARK INTER + INTRA:         -11.071
REMARK INTER:                 -10.397
REMARK INTRA:                  -0.674
REMARK UNBOUND:                -1.161
REMARK SMILES O=c1c(O[C@H]2O[C@H](CO)[C@H](O)[C@H](O)[C@@H]2O)c(-c2ccc(O)c(O)c2)oc2cc(O)cc(O)c12
REMARK SMILES IDX 4 1 3 2 16 3 25 4 2 5 26 6 1 7 33 8 27 9 31 10 28 11 30 12
REMARK SMILES IDX 17 13 18 14 19 15 20 16 24 17 22 18 21 19 23 21 32 23 29 25
REMARK SMILES IDX 5 27 14 28 6 29 12 30 7 31 10 32 15 33 13 35 8 37 9 38 11 40
REMARK H PARENT 21 20 23 22 32 24 29 26 15 34 13 36 9 39 11 41
REMARK Flexibility Score: inf
ROOT
ATOM      1  O   UNL     1     -39.384   4.997  78.790  1.00  0.00    -0.454 OA
ENDROOT
BRANCH   1   2
ATOM      2  C   UNL     1     -38.210   5.775  78.846  1.00  0.00     0.214 A 
ATOM      3  C   UNL     1     -38.338   7.166  78.679  1.00  0.00     0.180 A 
ATOM      4  O   UNL     1     -37.276   7.952  78.797  1.00  0.00    -0.452 OA
ATOM      5  C   UNL     1     -36.923   5.243  79.087  1.00  0.00     0.239 A 
ATOM      6  C   UNL     1     -36.051   7.498  79.023  1.00  0.00     0.146 A 
ATOM      7  O   UNL     1     -36.787   4.009  79.283  1.00  0.00    -0.285 OA
ATOM      8  C   UNL     1     -35.800   6.106  79.139  1.00  0.00     0.111 A 
ATOM      9  C   UNL     1     -35.012   8.421  79.152  1.00  0.00     0.094 A 
ATOM     10  C   UNL     1     -34.452   5.674  79.331  1.00  0.00     0.134 A 
ATOM     11  C   UNL     1     -33.708   7.989  79.402  1.00  0.00     0.123 A 
ATOM     12  C   UNL     1     -33.438   6.626  79.496  1.00  0.00     0.093 A 
BRANCH   3  13
ATOM     13  C   UNL     1     -39.649   7.804  78.423  1.00  0.00     0.025 A 
ATOM     14  C   UNL     1     -40.666   7.802  79.393  1.00  0.00     0.016 A 
ATOM     15  C   UNL     1     -41.895   8.411  79.129  1.00  0.00     0.051 A 
ATOM     16  C   UNL     1     -42.133   9.017  77.891  1.00  0.00     0.157 A 
ATOM     17  C   UNL     1     -39.898   8.394  77.173  1.00  0.00     0.062 A 
ATOM     18  C   UNL     1     -41.131   9.006  76.906  1.00  0.00     0.158 A 
BRANCH  16  19
ATOM     19  O   UNL     1     -43.368   9.620  77.656  1.00  0.00    -0.504 OA
ATOM     20  H   UNL     1     -44.242   9.126  77.790  1.00  0.00     0.293 HD
ENDBRANCH  16  19
BRANCH  18  21
ATOM     21  O   UNL     1     -41.364   9.601  75.665  1.00  0.00    -0.504 OA
ATOM     22  H   UNL     1     -42.208  10.127  75.480  1.00  0.00     0.293 HD
ENDBRANCH  18  21
ENDBRANCH   3  13
BRANCH  10  23
ATOM     23  O   UNL     1     -34.053   4.335  79.342  1.00  0.00    -0.507 OA
ATOM     24  H   UNL     1     -33.135   4.010  79.600  1.00  0.00     0.293 HD
ENDBRANCH  10  23
BRANCH  11  25
ATOM     25  O   UNL     1     -32.671   8.908  79.550  1.00  0.00    -0.508 OA
ATOM     26  H   UNL     1     -31.972   8.804  80.276  1.00  0.00     0.293 HD
ENDBRANCH  11  25
ENDBRANCH   1   2
BRANCH   1  27
ATOM     27  C   UNL     1     -39.516   3.597  79.051  1.00  0.00     0.339 C 
ATOM     28  C   UNL     1     -40.356   2.938  77.942  1.00  0.00     0.214 C 
ATOM     29  O   UNL     1     -40.077   3.356  80.335  1.00  0.00    -0.332 OA
ATOM     30  C   UNL     1     -41.817   3.420  78.029  1.00  0.00     0.180 C 
ATOM     31  C   UNL     1     -41.374   3.922  80.454  1.00  0.00     0.179 C 
ATOM     32  C   UNL     1     -42.358   3.258  79.463  1.00  0.00     0.177 C 
BRANCH  28  33
ATOM     33  O   UNL     1     -40.284   1.540  78.080  1.00  0.00    -0.384 OA
ATOM     34  H   UNL     1     -40.857   1.150  77.370  1.00  0.00     0.211 HD
ENDBRANCH  28  33
BRANCH  30  35
ATOM     35  O   UNL     1     -42.611   2.711  77.113  1.00  0.00    -0.387 OA
ATOM     36  H   UNL     1     -43.465   3.211  77.029  1.00  0.00     0.211 HD
ENDBRANCH  30  35
BRANCH  31  37
ATOM     37  C   UNL     1     -41.842   3.763  81.910  1.00  0.00     0.191 C 
BRANCH  37  38
ATOM     38  O   UNL     1     -43.242   3.721  81.988  1.00  0.00    -0.394 OA
ATOM     39  H   UNL     1     -43.557   3.242  81.178  1.00  0.00     0.210 HD
ENDBRANCH  37  38
ENDBRANCH  31  37
BRANCH  32  40
ATOM     40  O   UNL     1     -42.512   1.897  79.779  1.00  0.00    -0.387 OA
ATOM     41  H   UNL     1     -42.793   1.850  80.728  1.00  0.00     0.211 HD
ENDBRANCH  32  40
ENDBRANCH   1  27
TORSDOF 12
ENDMDL
MODEL 6
REMARK VINA RESULT:    -6.739      2.118      6.956
REMARK INTER + INTRA:         -11.052
REMARK INTER:                  -9.483
REMARK INTRA:                  -1.569
REMARK UNBOUND:                -1.161
REMARK SMILES O=c1c(O[C@H]2O[C@H](CO)[C@H](O)[C@H](O)[C@@H]2O)c(-c2ccc(O)c(O)c2)oc2cc(O)cc(O)c12
REMARK SMILES IDX 4 1 3 2 16 3 25 4 2 5 26 6 1 7 33 8 27 9 31 10 28 11 30 12
REMARK SMILES IDX 17 13 18 14 19 15 20 16 24 17 22 18 21 19 23 21 32 23 29 25
REMARK SMILES IDX 5 27 14 28 6 29 12 30 7 31 10 32 15 33 13 35 8 37 9 38 11 40
REMARK H PARENT 21 20 23 22 32 24 29 26 15 34 13 36 9 39 11 41
REMARK Flexibility Score: inf
ROOT
ATOM      1  O   UNL     1     -38.478   5.208  81.386  1.00  0.00    -0.454 OA
ENDROOT
BRANCH   1   2
ATOM      2  C   UNL     1     -37.225   5.836  81.548  1.00  0.00     0.214 A 
ATOM      3  C   UNL     1     -36.779   6.683  80.518  1.00  0.00     0.180 A 
ATOM      4  O   UNL     1     -35.643   7.355  80.652  1.00  0.00    -0.452 OA
ATOM      5  C   UNL     1     -36.411   5.685  82.694  1.00  0.00     0.239 A 
ATOM      6  C   UNL     1     -34.849   7.246  81.708  1.00  0.00     0.146 A 
ATOM      7  O   UNL     1     -36.807   4.969  83.648  1.00  0.00    -0.285 OA
ATOM      8  C   UNL     1     -35.171   6.367  82.773  1.00  0.00     0.111 A 
ATOM      9  C   UNL     1     -33.689   8.022  81.751  1.00  0.00     0.094 A 
ATOM     10  C   UNL     1     -34.251   6.253  83.860  1.00  0.00     0.134 A 
ATOM     11  C   UNL     1     -32.829   7.948  82.848  1.00  0.00     0.123 A 
ATOM     12  C   UNL     1     -33.117   7.073  83.894  1.00  0.00     0.093 A 
BRANCH   3  13
ATOM     13  C   UNL     1     -37.571   6.896  79.285  1.00  0.00     0.025 A 
ATOM     14  C   UNL     1     -37.181   6.332  78.059  1.00  0.00     0.016 A 
ATOM     15  C   UNL     1     -37.944   6.545  76.908  1.00  0.00     0.051 A 
ATOM     16  C   UNL     1     -39.098   7.335  76.961  1.00  0.00     0.157 A 
ATOM     17  C   UNL     1     -38.717   7.705  79.331  1.00  0.00     0.062 A 
ATOM     18  C   UNL     1     -39.486   7.921  78.178  1.00  0.00     0.158 A 
BRANCH  16  19
ATOM     19  O   UNL     1     -39.842   7.528  75.799  1.00  0.00    -0.504 OA
ATOM     20  H   UNL     1     -39.667   7.000  74.953  1.00  0.00     0.293 HD
ENDBRANCH  16  19
BRANCH  18  21
ATOM     21  O   UNL     1     -40.630   8.717  78.237  1.00  0.00    -0.504 OA
ATOM     22  H   UNL     1     -41.488   8.382  78.658  1.00  0.00     0.293 HD
ENDBRANCH  18  21
ENDBRANCH   3  13
BRANCH  10  23
ATOM     23  O   UNL     1     -34.388   5.341  84.910  1.00  0.00    -0.507 OA
ATOM     24  H   UNL     1     -34.384   4.338  84.805  1.00  0.00     0.293 HD
ENDBRANCH  10  23
BRANCH  11  25
ATOM     25  O   UNL     1     -31.680   8.733  82.905  1.00  0.00    -0.508 OA
ATOM     26  H   UNL     1     -31.487   9.334  83.698  1.00  0.00     0.293 HD
ENDBRANCH  11  25
ENDBRANCH   1   2
BRANCH   1  27
ATOM     27  C   UNL     1     -38.734   3.821  81.152  1.00  0.00     0.339 C 
ATOM     28  C   UNL     1     -38.917   3.573  79.644  1.00  0.00     0.214 C 
ATOM     29  O   UNL     1     -39.862   3.367  81.890  1.00  0.00    -0.332 OA
ATOM     30  C   UNL     1     -40.224   4.228  79.155  1.00  0.00     0.180 C 
ATOM     31  C   UNL     1     -41.042   4.071  81.530  1.00  0.00     0.179 C 
ATOM     32  C   UNL     1     -41.407   3.812  80.050  1.00  0.00     0.177 C 
BRANCH  28  33
ATOM     33  O   UNL     1     -38.936   2.188  79.405  1.00  0.00    -0.384 OA
ATOM     34  H   UNL     1     -39.124   2.064  78.438  1.00  0.00     0.211 HD
ENDBRANCH  28  33
BRANCH  30  35
ATOM     35  O   UNL     1     -40.463   3.880  77.817  1.00  0.00    -0.387 OA
ATOM     36  H   UNL     1     -41.350   3.432  77.792  1.00  0.00     0.211 HD
ENDBRANCH  30  35
BRANCH  31  37
ATOM     37  C   UNL     1     -42.173   3.641  82.478  1.00  0.00     0.191 C 
BRANCH  37  38
ATOM     38  O   UNL     1     -43.419   3.701  81.836  1.00  0.00    -0.394 OA
ATOM     39  H   UNL     1     -43.234   3.842  80.871  1.00  0.00     0.210 HD
ENDBRANCH  37  38
ENDBRANCH  31  37
BRANCH  32  40
ATOM     40  O   UNL     1     -41.710   2.452  79.862  1.00  0.00    -0.387 OA
ATOM     41  H   UNL     1     -42.539   2.412  79.320  1.00  0.00     0.211 HD
ENDBRANCH  32  40
ENDBRANCH   1  27
TORSDOF 12
ENDMDL
MODEL 7
REMARK VINA RESULT:    -6.630      1.845      6.063
REMARK INTER + INTRA:         -10.892
REMARK INTER:                  -9.604
REMARK INTRA:                  -1.288
REMARK UNBOUND:                -1.161
REMARK SMILES O=c1c(O[C@H]2O[C@H](CO)[C@H](O)[C@H](O)[C@@H]2O)c(-c2ccc(O)c(O)c2)oc2cc(O)cc(O)c12
REMARK SMILES IDX 4 1 3 2 16 3 25 4 2 5 26 6 1 7 33 8 27 9 31 10 28 11 30 12
REMARK SMILES IDX 17 13 18 14 19 15 20 16 24 17 22 18 21 19 23 21 32 23 29 25
REMARK SMILES IDX 5 27 14 28 6 29 12 30 7 31 10 32 15 33 13 35 8 37 9 38 11 40
REMARK H PARENT 21 20 23 22 32 24 29 26 15 34 13 36 9 39 11 41
REMARK Flexibility Score: inf
ROOT
ATOM      1  O   UNL     1     -38.283   4.766  80.914  1.00  0.00    -0.454 OA
ENDROOT
BRANCH   1   2
ATOM      2  C   UNL     1     -38.300   5.651  79.816  1.00  0.00     0.214 A 
ATOM      3  C   UNL     1     -39.300   5.470  78.844  1.00  0.00     0.180 A 
ATOM      4  O   UNL     1     -39.406   6.319  77.831  1.00  0.00    -0.452 OA
ATOM      5  C   UNL     1     -37.390   6.721  79.654  1.00  0.00     0.239 A 
ATOM      6  C   UNL     1     -38.578   7.336  77.638  1.00  0.00     0.146 A 
ATOM      7  O   UNL     1     -36.515   6.930  80.530  1.00  0.00    -0.285 OA
ATOM      8  C   UNL     1     -37.492   7.567  78.522  1.00  0.00     0.111 A 
ATOM      9  C   UNL     1     -38.801   8.179  76.549  1.00  0.00     0.094 A 
ATOM     10  C   UNL     1     -36.603   8.648  78.234  1.00  0.00     0.134 A 
ATOM     11  C   UNL     1     -37.961   9.269  76.314  1.00  0.00     0.123 A 
ATOM     12  C   UNL     1     -36.876   9.499  77.157  1.00  0.00     0.093 A 
BRANCH   3  13
ATOM     13  C   UNL     1     -40.292   4.374  78.939  1.00  0.00     0.025 A 
ATOM     14  C   UNL     1     -40.326   3.335  77.995  1.00  0.00     0.016 A 
ATOM     15  C   UNL     1     -41.269   2.310  78.105  1.00  0.00     0.051 A 
ATOM     16  C   UNL     1     -42.200   2.316  79.150  1.00  0.00     0.157 A 
ATOM     17  C   UNL     1     -41.240   4.389  79.974  1.00  0.00     0.062 A 
ATOM     18  C   UNL     1     -42.189   3.362  80.088  1.00  0.00     0.158 A 
BRANCH  16  19
ATOM     19  O   UNL     1     -43.128   1.279  79.237  1.00  0.00    -0.504 OA
ATOM     20  H   UNL     1     -43.055   0.442  78.673  1.00  0.00     0.293 HD
ENDBRANCH  16  19
BRANCH  18  21
ATOM     21  O   UNL     1     -43.119   3.379  81.128  1.00  0.00    -0.504 OA
ATOM     22  H   UNL     1     -43.873   2.704  81.176  1.00  0.00     0.293 HD
ENDBRANCH  18  21
ENDBRANCH   3  13
BRANCH  10  23
ATOM     23  O   UNL     1     -35.433   8.911  78.951  1.00  0.00    -0.507 OA
ATOM     24  H   UNL     1     -34.798   9.670  78.759  1.00  0.00     0.293 HD
ENDBRANCH  10  23
BRANCH  11  25
ATOM     25  O   UNL     1     -38.190  10.125  75.238  1.00  0.00    -0.508 OA
ATOM     26  H   UNL     1     -37.830  11.072  75.229  1.00  0.00     0.293 HD
ENDBRANCH  11  25
ENDBRANCH   1   2
BRANCH   1  27
ATOM     27  C   UNL     1     -38.469   5.086  82.296  1.00  0.00     0.339 C 
ATOM     28  C   UNL     1     -37.165   4.822  83.069  1.00  0.00     0.214 C 
ATOM     29  O   UNL     1     -39.557   4.364  82.857  1.00  0.00    -0.332 OA
ATOM     30  C   UNL     1     -36.881   3.308  83.126  1.00  0.00     0.180 C 
ATOM     31  C   UNL     1     -39.349   2.961  82.783  1.00  0.00     0.179 C 
ATOM     32  C   UNL     1     -38.122   2.541  83.624  1.00  0.00     0.177 C 
BRANCH  28  33
ATOM     33  O   UNL     1     -37.284   5.354  84.366  1.00  0.00    -0.384 OA
ATOM     34  H   UNL     1     -36.362   5.490  84.708  1.00  0.00     0.211 HD
ENDBRANCH  28  33
BRANCH  30  35
ATOM     35  O   UNL     1     -35.774   3.059  83.953  1.00  0.00    -0.387 OA
ATOM     36  H   UNL     1     -35.196   3.866  83.908  1.00  0.00     0.211 HD
ENDBRANCH  30  35
BRANCH  31  37
ATOM     37  C   UNL     1     -40.630   2.254  83.257  1.00  0.00     0.191 C 
BRANCH  37  38
ATOM     38  O   UNL     1     -41.630   3.184  83.576  1.00  0.00    -0.394 OA
ATOM     39  H   UNL     1     -41.394   4.027  83.108  1.00  0.00     0.210 HD
ENDBRANCH  37  38
ENDBRANCH  31  37
BRANCH  32  40
ATOM     40  O   UNL     1     -38.354   2.815  84.983  1.00  0.00    -0.387 OA
ATOM     41  H   UNL     1     -37.679   3.485  85.263  1.00  0.00     0.211 HD
ENDBRANCH  32  40
ENDBRANCH   1  27
TORSDOF 12
ENDMDL
MODEL 8
REMARK VINA RESULT:    -6.551      1.309      2.103
REMARK INTER + INTRA:         -10.776
REMARK INTER:                 -10.633
REMARK INTRA:                  -0.142
REMARK UNBOUND:                -1.161
REMARK SMILES O=c1c(O[C@H]2O[C@H](CO)[C@H](O)[C@H](O)[C@@H]2O)c(-c2ccc(O)c(O)c2)oc2cc(O)cc(O)c12
REMARK SMILES IDX 4 1 3 2 16 3 25 4 2 5 26 6 1 7 33 8 27 9 31 10 28 11 30 12
REMARK SMILES IDX 17 13 18 14 19 15 20 16 24 17 22 18 21 19 23 21 32 23 29 25
REMARK SMILES IDX 5 27 14 28 6 29 12 30 7 31 10 32 15 33 13 35 8 37 9 38 11 40
REMARK H PARENT 21 20 23 22 32 24 29 26 15 34 13 36 9 39 11 41
REMARK Flexibility Score: inf
ROOT
ATOM      1  O   UNL     1     -38.360   6.010  81.864  1.00  0.00    -0.454 OA
ENDROOT
BRANCH   1   2
ATOM      2  C   UNL     1     -39.129   5.263  80.947  1.00  0.00     0.214 A 
ATOM      3  C   UNL     1     -38.582   5.030  79.672  1.00  0.00     0.180 A 
ATOM      4  O   UNL     1     -39.230   4.271  78.798  1.00  0.00    -0.452 OA
ATOM      5  C   UNL     1     -40.397   4.714  81.246  1.00  0.00     0.239 A 
ATOM      6  C   UNL     1     -40.420   3.736  79.034  1.00  0.00     0.146 A 
ATOM      7  O   UNL     1     -40.887   4.871  82.392  1.00  0.00    -0.285 OA
ATOM      8  C   UNL     1     -41.091   3.966  80.262  1.00  0.00     0.111 A 
ATOM      9  C   UNL     1     -40.997   2.935  78.047  1.00  0.00     0.094 A 
ATOM     10  C   UNL     1     -42.393   3.405  80.439  1.00  0.00     0.134 A 
ATOM     11  C   UNL     1     -42.243   2.341  78.256  1.00  0.00     0.123 A 
ATOM     12  C   UNL     1     -42.927   2.574  79.447  1.00  0.00     0.093 A 
BRANCH   3  13
ATOM     13  C   UNL     1     -37.260   5.569  79.280  1.00  0.00     0.025 A 
ATOM     14  C   UNL     1     -37.138   6.814  78.643  1.00  0.00     0.016 A 
ATOM     15  C   UNL     1     -35.880   7.303  78.282  1.00  0.00     0.051 A 
ATOM     16  C   UNL     1     -34.729   6.551  78.539  1.00  0.00     0.157 A 
ATOM     17  C   UNL     1     -36.105   4.806  79.517  1.00  0.00     0.062 A 
ATOM     18  C   UNL     1     -34.841   5.294  79.156  1.00  0.00     0.158 A 
BRANCH  16  19
ATOM     19  O   UNL     1     -33.486   7.065  78.171  1.00  0.00    -0.504 OA
ATOM     20  H   UNL     1     -33.312   7.447  77.250  1.00  0.00     0.293 HD
ENDBRANCH  16  19
BRANCH  18  21
ATOM     21  O   UNL     1     -33.698   4.533  79.408  1.00  0.00    -0.504 OA
ATOM     22  H   UNL     1     -33.553   3.633  78.967  1.00  0.00     0.293 HD
ENDBRANCH  18  21
ENDBRANCH   3  13
BRANCH  10  23
ATOM     23  O   UNL     1     -43.208   3.652  81.547  1.00  0.00    -0.507 OA
ATOM     24  H   UNL     1     -44.212   3.556  81.555  1.00  0.00     0.293 HD
ENDBRANCH  10  23
BRANCH  11  25
ATOM     25  O   UNL     1     -42.814   1.525  77.282  1.00  0.00    -0.508 OA
ATOM     26  H   UNL     1     -43.550   0.867  77.508  1.00  0.00     0.293 HD
ENDBRANCH  11  25
ENDBRANCH   1   2
BRANCH   1  27
ATOM     27  C   UNL     1     -38.171   5.751  83.258  1.00  0.00     0.339 C 
ATOM     28  C   UNL     1     -36.744   6.152  83.672  1.00  0.00     0.214 C 
ATOM     29  O   UNL     1     -38.438   4.392  83.578  1.00  0.00    -0.332 OA
ATOM     30  C   UNL     1     -35.719   5.199  83.026  1.00  0.00     0.180 C 
ATOM     31  C   UNL     1     -37.577   3.509  82.874  1.00  0.00     0.179 C 
ATOM     32  C   UNL     1     -36.104   3.729  83.288  1.00  0.00     0.177 C 
BRANCH  28  33
ATOM     33  O   UNL     1     -36.643   6.114  85.074  1.00  0.00    -0.384 OA
ATOM     34  H   UNL     1     -36.554   7.053  85.383  1.00  0.00     0.211 HD
ENDBRANCH  28  33
BRANCH  30  35
ATOM     35  O   UNL     1     -34.433   5.473  83.518  1.00  0.00    -0.387 OA
ATOM     36  H   UNL     1     -34.030   6.144  82.905  1.00  0.00     0.211 HD
ENDBRANCH  30  35
BRANCH  31  37
ATOM     37  C   UNL     1     -38.033   2.066  83.145  1.00  0.00     0.191 C 
BRANCH  37  38
ATOM     38  O   UNL     1     -39.163   1.742  82.379  1.00  0.00    -0.394 OA
ATOM     39  H   UNL     1     -39.620   0.997  82.847  1.00  0.00     0.210 HD
ENDBRANCH  37  38
ENDBRANCH  31  37
BRANCH  32  40
ATOM     40  O   UNL     1     -35.935   3.414  84.647  1.00  0.00    -0.387 OA
ATOM     41  H   UNL     1     -35.005   3.657  84.888  1.00  0.00     0.211 HD
ENDBRANCH  32  40
ENDBRANCH   1  27
TORSDOF 12
ENDMDL
MODEL 9
REMARK VINA RESULT:    -6.397      2.674      5.506
REMARK INTER + INTRA:         -10.550
REMARK INTER:                  -9.304
REMARK INTRA:                  -1.246
REMARK UNBOUND:                -1.161
REMARK SMILES O=c1c(O[C@H]2O[C@H](CO)[C@H](O)[C@H](O)[C@@H]2O)c(-c2ccc(O)c(O)c2)oc2cc(O)cc(O)c12
REMARK SMILES IDX 4 1 3 2 16 3 25 4 2 5 26 6 1 7 33 8 27 9 31 10 28 11 30 12
REMARK SMILES IDX 17 13 18 14 19 15 20 16 24 17 22 18 21 19 23 21 32 23 29 25
REMARK SMILES IDX 5 27 14 28 6 29 12 30 7 31 10 32 15 33 13 35 8 37 9 38 11 40
REMARK H PARENT 21 20 23 22 32 24 29 26 15 34 13 36 9 39 11 41
REMARK Flexibility Score: inf
ROOT
ATOM      1  O   UNL     1     -38.761   6.396  79.759  1.00  0.00    -0.454 OA
ENDROOT
BRANCH   1   2
ATOM      2  C   UNL     1     -38.764   5.288  80.633  1.00  0.00     0.214 A 
ATOM      3  C   UNL     1     -37.522   4.739  80.999  1.00  0.00     0.180 A 
ATOM      4  O   UNL     1     -37.465   3.745  81.875  1.00  0.00    -0.452 OA
ATOM      5  C   UNL     1     -39.938   4.721  81.179  1.00  0.00     0.239 A 
ATOM      6  C   UNL     1     -38.538   3.182  82.413  1.00  0.00     0.146 A 
ATOM      7  O   UNL     1     -41.057   5.220  80.902  1.00  0.00    -0.285 OA
ATOM      8  C   UNL     1     -39.842   3.614  82.059  1.00  0.00     0.111 A 
ATOM      9  C   UNL     1     -38.355   2.157  83.343  1.00  0.00     0.094 A 
ATOM     10  C   UNL     1     -40.960   2.935  82.634  1.00  0.00     0.134 A 
ATOM     11  C   UNL     1     -39.456   1.543  83.944  1.00  0.00     0.123 A 
ATOM     12  C   UNL     1     -40.745   1.938  83.592  1.00  0.00     0.093 A 
BRANCH   3  13
ATOM     13  C   UNL     1     -36.246   5.275  80.471  1.00  0.00     0.025 A 
ATOM     14  C   UNL     1     -35.728   4.848  79.237  1.00  0.00     0.016 A 
ATOM     15  C   UNL     1     -34.523   5.368  78.759  1.00  0.00     0.051 A 
ATOM     16  C   UNL     1     -33.811   6.309  79.510  1.00  0.00     0.157 A 
ATOM     17  C   UNL     1     -35.519   6.203  81.233  1.00  0.00     0.062 A 
ATOM     18  C   UNL     1     -34.309   6.727  80.756  1.00  0.00     0.158 A 
BRANCH  16  19
ATOM     19  O   UNL     1     -32.613   6.813  79.007  1.00  0.00    -0.504 OA
ATOM     20  H   UNL     1     -32.379   7.797  79.058  1.00  0.00     0.293 HD
ENDBRANCH  16  19
BRANCH  18  21
ATOM     21  O   UNL     1     -33.600   7.659  81.515  1.00  0.00    -0.504 OA
ATOM     22  H   UNL     1     -33.625   8.648  81.299  1.00  0.00     0.293 HD
ENDBRANCH  18  21
ENDBRANCH   3  13
BRANCH  10  23
ATOM     23  O   UNL     1     -42.290   3.180  82.282  1.00  0.00    -0.507 OA
ATOM     24  H   UNL     1     -42.754   2.787  81.477  1.00  0.00     0.293 HD
ENDBRANCH  10  23
BRANCH  11  25
ATOM     25  O   UNL     1     -39.279   0.532  84.887  1.00  0.00    -0.508 OA
ATOM     26  H   UNL     1     -39.737   0.563  85.790  1.00  0.00     0.293 HD
ENDBRANCH  11  25
ENDBRANCH   1   2
BRANCH   1  27
ATOM     27  C   UNL     1     -39.253   6.451  78.418  1.00  0.00     0.339 C 
ATOM     28  C   UNL     1     -38.168   7.024  77.489  1.00  0.00     0.214 C 
ATOM     29  O   UNL     1     -40.455   7.205  78.334  1.00  0.00    -0.332 OA
ATOM     30  C   UNL     1     -37.934   8.514  77.807  1.00  0.00     0.180 C 
ATOM     31  C   UNL     1     -40.264   8.546  78.757  1.00  0.00     0.179 C 
ATOM     32  C   UNL     1     -39.271   9.281  77.827  1.00  0.00     0.177 C 
BRANCH  28  33
ATOM     33  O   UNL     1     -38.571   6.858  76.153  1.00  0.00    -0.384 OA
ATOM     34  H   UNL     1     -39.558   6.745  76.160  1.00  0.00     0.211 HD
ENDBRANCH  28  33
BRANCH  30  35
ATOM     35  O   UNL     1     -37.053   9.072  76.867  1.00  0.00    -0.387 OA
ATOM     36  H   UNL     1     -36.875  10.005  77.161  1.00  0.00     0.211 HD
ENDBRANCH  30  35
BRANCH  31  37
ATOM     37  C   UNL     1     -41.632   9.246  78.792  1.00  0.00     0.191 C 
BRANCH  37  38
ATOM     38  O   UNL     1     -42.677   8.311  78.734  1.00  0.00    -0.394 OA
ATOM     39  H   UNL     1     -42.987   8.290  77.792  1.00  0.00     0.210 HD
ENDBRANCH  37  38
ENDBRANCH  31  37
BRANCH  32  40
ATOM     40  O   UNL     1     -39.805   9.370  76.530  1.00  0.00    -0.387 OA
ATOM     41  H   UNL     1     -40.509   8.676  76.458  1.00  0.00     0.211 HD
ENDBRANCH  32  40
ENDBRANCH   1  27
TORSDOF 12
ENDMDL
