MODEL 1
REMARK VINA RESULT:    -4.169      0.000      0.000
REMARK INTER + INTRA:          -6.425
REMARK INTER:                  -6.119
REMARK INTRA:                  -0.306
REMARK UNBOUND:                -0.306
REMARK SMILES O=C([O-])CCCCCCCC(=O)[O-]
REMARK SMILES IDX 7 1 6 2 5 3 4 4 2 5 1 6 3 7 8 8 9 9 10 10 11 11 12 12 13 13
REMARK H PARENT
REMARK Flexibility Score: inf
ROOT
ATOM      1  C   UNL     1      -2.017   2.377  15.984  1.00  0.00     0.000 C 
ENDROOT
BRANCH   1   2
ATOM      2  C   UNL     1      -1.035   1.229  16.245  1.00  0.00     0.000 C 
BRANCH   2   3
ATOM      3  C   UNL     1      -0.378   1.369  17.623  1.00  0.00     0.006 C 
BRANCH   3   4
ATOM      4  C   UNL     1      -0.193   0.002  18.287  1.00  0.00     0.053 C 
BRANCH   4   5
ATOM      5  C   UNL     1      -0.031   0.155  19.766  1.00  0.00     0.041 C 
ATOM      6  O   UNL     1      -1.044   0.251  20.507  1.00  0.00    -0.550 OA
ATOM      7  O   UNL     1       1.239   0.240  20.321  1.00  0.00    -0.550 OA
ENDBRANCH   4   5
ENDBRANCH   3   4
ENDBRANCH   2   3
ENDBRANCH   1   2
BRANCH   1   8
ATOM      8  C   UNL     1      -2.770   2.166  14.661  1.00  0.00     0.000 C 
BRANCH   8   9
ATOM      9  C   UNL     1      -4.161   1.537  14.859  1.00  0.00     0.006 C 
BRANCH   9  10
ATOM     10  C   UNL     1      -5.330   2.521  14.689  1.00  0.00     0.053 C 
BRANCH  10  11
ATOM     11  C   UNL     1      -5.760   3.110  15.997  1.00  0.00     0.041 C 
ATOM     12  O   UNL     1      -5.189   4.137  16.448  1.00  0.00    -0.550 OA
ATOM     13  O   UNL     1      -6.772   2.506  16.732  1.00  0.00    -0.550 OA
ENDBRANCH  10  11
ENDBRANCH   9  10
ENDBRANCH   8   9
ENDBRANCH   1   8
TORSDOF 8
ENDMDL
MODEL 2
REMARK VINA RESULT:    -4.128      5.521      6.504
REMARK INTER + INTRA:          -6.365
REMARK INTER:                  -5.926
REMARK INTRA:                  -0.439
REMARK UNBOUND:                -0.306
REMARK SMILES O=C([O-])CCCCCCCC(=O)[O-]
REMARK SMILES IDX 7 1 6 2 5 3 4 4 2 5 1 6 3 7 8 8 9 9 10 10 11 11 12 12 13 13
REMARK H PARENT
REMARK Flexibility Score: inf
ROOT
ATOM      1  C   UNL     1      -4.638   2.199  15.005  1.00  0.00     0.000 C 
ENDROOT
BRANCH   1   2
ATOM      2  C   UNL     1      -5.494   2.134  13.735  1.00  0.00     0.000 C 
BRANCH   2   3
ATOM      3  C   UNL     1      -5.265   0.818  12.982  1.00  0.00     0.006 C 
BRANCH   3   4
ATOM      4  C   UNL     1      -3.886   0.796  12.319  1.00  0.00     0.053 C 
BRANCH   4   5
ATOM      5  C   UNL     1      -4.019   0.853  10.830  1.00  0.00     0.041 C 
ATOM      6  O   UNL     1      -3.971  -0.204  10.148  1.00  0.00    -0.550 OA
ATOM      7  O   UNL     1      -4.148   2.079  10.190  1.00  0.00    -0.550 OA
ENDBRANCH   4   5
ENDBRANCH   3   4
ENDBRANCH   2   3
ENDBRANCH   1   2
BRANCH   1   8
ATOM      8  C   UNL     1      -5.234   3.188  16.019  1.00  0.00     0.000 C 
BRANCH   8   9
ATOM      9  C   UNL     1      -6.694   2.861  16.384  1.00  0.00     0.006 C 
BRANCH   9  10
ATOM     10  C   UNL     1      -7.630   4.079  16.399  1.00  0.00     0.053 C 
BRANCH  10  11
ATOM     11  C   UNL     1      -8.121   4.425  15.027  1.00  0.00     0.041 C 
ATOM     12  O   UNL     1      -9.232   3.991  14.622  1.00  0.00    -0.550 OA
ATOM     13  O   UNL     1      -7.337   5.200  14.183  1.00  0.00    -0.550 OA
ENDBRANCH  10  11
ENDBRANCH   9  10
ENDBRANCH   8   9
ENDBRANCH   1   8
TORSDOF 8
ENDMDL
MODEL 3
REMARK VINA RESULT:    -4.126      1.077      6.330
REMARK INTER + INTRA:          -6.362
REMARK INTER:                  -6.025
REMARK INTRA:                  -0.337
REMARK UNBOUND:                -0.306
REMARK SMILES O=C([O-])CCCCCCCC(=O)[O-]
REMARK SMILES IDX 7 1 6 2 5 3 4 4 2 5 1 6 3 7 8 8 9 9 10 10 11 11 12 12 13 13
REMARK H PARENT
REMARK Flexibility Score: inf
ROOT
ATOM      1  C   UNL     1      -1.070   1.312  15.492  1.00  0.00     0.000 C 
ENDROOT
BRANCH   1   2
ATOM      2  C   UNL     1      -2.581   1.344  15.237  1.00  0.00     0.000 C 
BRANCH   2   3
ATOM      3  C   UNL     1      -3.030   2.731  14.760  1.00  0.00     0.006 C 
BRANCH   3   4
ATOM      4  C   UNL     1      -4.059   3.337  15.718  1.00  0.00     0.053 C 
BRANCH   4   5
ATOM      5  C   UNL     1      -5.408   2.733  15.489  1.00  0.00     0.041 C 
ATOM      6  O   UNL     1      -5.785   2.449  14.323  1.00  0.00    -0.550 OA
ATOM      7  O   UNL     1      -6.269   2.528  16.560  1.00  0.00    -0.550 OA
ENDBRANCH   4   5
ENDBRANCH   3   4
ENDBRANCH   2   3
ENDBRANCH   1   2
BRANCH   1   8
ATOM      8  C   UNL     1      -0.755   1.607  16.966  1.00  0.00     0.000 C 
BRANCH   8   9
ATOM      9  C   UNL     1       0.169   0.553  17.602  1.00  0.00     0.006 C 
BRANCH   9  10
ATOM     10  C   UNL     1      -0.477  -0.249  18.742  1.00  0.00     0.053 C 
BRANCH  10  11
ATOM     11  C   UNL     1      -0.143   0.319  20.087  1.00  0.00     0.041 C 
ATOM     12  O   UNL     1      -1.057   0.756  20.835  1.00  0.00    -0.550 OA
ATOM     13  O   UNL     1       1.180   0.397  20.500  1.00  0.00    -0.550 OA
ENDBRANCH  10  11
ENDBRANCH   9  10
ENDBRANCH   8   9
ENDBRANCH   1   8
TORSDOF 8
ENDMDL
MODEL 4
REMARK VINA RESULT:    -4.101      5.301      7.245
REMARK INTER + INTRA:          -6.325
REMARK INTER:                  -6.076
REMARK INTRA:                  -0.249
REMARK UNBOUND:                -0.306
REMARK SMILES O=C([O-])CCCCCCCC(=O)[O-]
REMARK SMILES IDX 7 1 6 2 5 3 4 4 2 5 1 6 3 7 8 8 9 9 10 10 11 11 12 12 13 13
REMARK H PARENT
REMARK Flexibility Score: inf
ROOT
ATOM      1  C   UNL     1      -5.197   2.260  13.704  1.00  0.00     0.000 C 
ENDROOT
BRANCH   1   2
ATOM      2  C   UNL     1      -4.864   2.115  15.193  1.00  0.00     0.000 C 
BRANCH   2   3
ATOM      3  C   UNL     1      -5.472   3.263  16.008  1.00  0.00     0.006 C 
BRANCH   3   4
ATOM      4  C   UNL     1      -6.926   2.963  16.381  1.00  0.00     0.053 C 
BRANCH   4   5
ATOM      5  C   UNL     1      -7.812   4.106  15.997  1.00  0.00     0.041 C 
ATOM      6  O   UNL     1      -7.994   5.062  16.795  1.00  0.00    -0.550 OA
ATOM      7  O   UNL     1      -8.476   4.091  14.777  1.00  0.00    -0.550 OA
ENDBRANCH   4   5
ENDBRANCH   3   4
ENDBRANCH   2   3
ENDBRANCH   1   2
BRANCH   1   8
ATOM      8  C   UNL     1      -5.137   0.900  12.992  1.00  0.00     0.000 C 
BRANCH   8   9
ATOM      9  C   UNL     1      -3.975   0.803  11.986  1.00  0.00     0.006 C 
BRANCH   9  10
ATOM     10  C   UNL     1      -3.939  -0.508  11.185  1.00  0.00     0.053 C 
BRANCH  10  11
ATOM     11  C   UNL     1      -3.847  -0.262   9.711  1.00  0.00     0.041 C 
ATOM     12  O   UNL     1      -3.369   0.820   9.277  1.00  0.00    -0.550 OA
ATOM     13  O   UNL     1      -4.318  -1.214   8.817  1.00  0.00    -0.550 OA
ENDBRANCH  10  11
ENDBRANCH   9  10
ENDBRANCH   8   9
ENDBRANCH   1   8
TORSDOF 8
ENDMDL
MODEL 5
REMARK VINA RESULT:    -4.075      5.513      7.547
REMARK INTER + INTRA:          -6.287
REMARK INTER:                  -6.110
REMARK INTRA:                  -0.177
REMARK UNBOUND:                -0.306
REMARK SMILES O=C([O-])CCCCCCCC(=O)[O-]
REMARK SMILES IDX 7 1 6 2 5 3 4 4 2 5 1 6 3 7 8 8 9 9 10 10 11 11 12 12 13 13
REMARK H PARENT
REMARK Flexibility Score: inf
ROOT
ATOM      1  C   UNL     1      -4.372   1.063  11.687  1.00  0.00     0.000 C 
ENDROOT
BRANCH   1   2
ATOM      2  C   UNL     1      -3.842  -0.216  11.029  1.00  0.00     0.000 C 
BRANCH   2   3
ATOM      3  C   UNL     1      -3.744  -0.053   9.507  1.00  0.00     0.006 C 
BRANCH   3   4
ATOM      4  C   UNL     1      -4.347  -1.259   8.784  1.00  0.00     0.053 C 
BRANCH   4   5
ATOM      5  C   UNL     1      -3.292  -2.282   8.502  1.00  0.00     0.041 C 
ATOM      6  O   UNL     1      -2.204  -1.940   7.972  1.00  0.00    -0.550 OA
ATOM      7  O   UNL     1      -3.531  -3.622   8.781  1.00  0.00    -0.550 OA
ENDBRANCH   4   5
ENDBRANCH   3   4
ENDBRANCH   2   3
ENDBRANCH   1   2
BRANCH   1   8
ATOM      8  C   UNL     1      -5.117   0.741  12.992  1.00  0.00     0.000 C 
BRANCH   8   9
ATOM      9  C   UNL     1      -4.755   1.702  14.139  1.00  0.00     0.006 C 
BRANCH   9  10
ATOM     10  C   UNL     1      -5.849   2.728  14.474  1.00  0.00     0.053 C 
BRANCH  10  11
ATOM     11  C   UNL     1      -5.865   3.075  15.931  1.00  0.00     0.041 C 
ATOM     12  O   UNL     1      -5.007   3.866  16.404  1.00  0.00    -0.550 OA
ATOM     13  O   UNL     1      -6.808   2.499  16.772  1.00  0.00    -0.550 OA
ENDBRANCH  10  11
ENDBRANCH   9  10
ENDBRANCH   8   9
ENDBRANCH   1   8
TORSDOF 8
ENDMDL
MODEL 6
REMARK VINA RESULT:    -4.042      1.919      6.658
REMARK INTER + INTRA:          -6.239
REMARK INTER:                  -5.923
REMARK INTRA:                  -0.316
REMARK UNBOUND:                -0.306
REMARK SMILES O=C([O-])CCCCCCCC(=O)[O-]
REMARK SMILES IDX 7 1 6 2 5 3 4 4 2 5 1 6 3 7 8 8 9 9 10 10 11 11 12 12 13 13
REMARK H PARENT
REMARK Flexibility Score: inf
ROOT
ATOM      1  C   UNL     1      -4.293   1.464  14.589  1.00  0.00     0.000 C 
ENDROOT
BRANCH   1   2
ATOM      2  C   UNL     1      -5.434   2.487  14.600  1.00  0.00     0.000 C 
BRANCH   2   3
ATOM      3  C   UNL     1      -5.588   3.127  15.985  1.00  0.00     0.006 C 
BRANCH   3   4
ATOM      4  C   UNL     1      -7.007   2.934  16.526  1.00  0.00     0.053 C 
BRANCH   4   5
ATOM      5  C   UNL     1      -7.866   4.108  16.176  1.00  0.00     0.041 C 
ATOM      6  O   UNL     1      -7.814   5.159  16.866  1.00  0.00    -0.550 OA
ATOM      7  O   UNL     1      -8.760   4.025  15.116  1.00  0.00    -0.550 OA
ENDBRANCH   4   5
ENDBRANCH   3   4
ENDBRANCH   2   3
ENDBRANCH   1   2
BRANCH   1   8
ATOM      8  C   UNL     1      -3.024   2.049  15.227  1.00  0.00     0.000 C 
BRANCH   8   9
ATOM      9  C   UNL     1      -1.819   1.095  15.144  1.00  0.00     0.006 C 
BRANCH   9  10
ATOM     10  C   UNL     1      -0.537   1.636  15.796  1.00  0.00     0.053 C 
BRANCH  10  11
ATOM     11  C   UNL     1      -0.571   1.510  17.288  1.00  0.00     0.041 C 
ATOM     12  O   UNL     1      -0.578   0.372  17.828  1.00  0.00    -0.550 OA
ATOM     13  O   UNL     1      -0.628   2.649  18.081  1.00  0.00    -0.550 OA
ENDBRANCH  10  11
ENDBRANCH   9  10
ENDBRANCH   8   9
ENDBRANCH   1   8
TORSDOF 8
ENDMDL
MODEL 7
REMARK VINA RESULT:    -4.028      5.278      6.542
REMARK INTER + INTRA:          -6.218
REMARK INTER:                  -5.838
REMARK INTRA:                  -0.380
REMARK UNBOUND:                -0.306
REMARK SMILES O=C([O-])CCCCCCCC(=O)[O-]
REMARK SMILES IDX 7 1 6 2 5 3 4 4 2 5 1 6 3 7 8 8 9 9 10 10 11 11 12 12 13 13
REMARK H PARENT
REMARK Flexibility Score: inf
ROOT
ATOM      1  C   UNL     1      -4.699   1.559  13.996  1.00  0.00     0.000 C 
ENDROOT
BRANCH   1   2
ATOM      2  C   UNL     1      -5.197   1.004  12.657  1.00  0.00     0.000 C 
BRANCH   2   3
ATOM      3  C   UNL     1      -4.030   0.488  11.806  1.00  0.00     0.006 C 
BRANCH   3   4
ATOM      4  C   UNL     1      -4.023   1.145  10.424  1.00  0.00     0.053 C 
BRANCH   4   5
ATOM      5  C   UNL     1      -3.465   2.530  10.504  1.00  0.00     0.041 C 
ATOM      6  O   UNL     1      -2.398   2.747  11.136  1.00  0.00    -0.550 OA
ATOM      7  O   UNL     1      -4.147   3.590   9.921  1.00  0.00    -0.550 OA
ENDBRANCH   4   5
ENDBRANCH   3   4
ENDBRANCH   2   3
ENDBRANCH   1   2
BRANCH   1   8
ATOM      8  C   UNL     1      -5.573   2.734  14.462  1.00  0.00     0.000 C 
BRANCH   8   9
ATOM      9  C   UNL     1      -5.638   2.858  15.995  1.00  0.00     0.006 C 
BRANCH   9  10
ATOM     10  C   UNL     1      -7.061   2.819  16.574  1.00  0.00     0.053 C 
BRANCH  10  11
ATOM     11  C   UNL     1      -7.851   4.035  16.200  1.00  0.00     0.041 C 
ATOM     12  O   UNL     1      -7.655   5.127  16.796  1.00  0.00    -0.550 OA
ATOM     13  O   UNL     1      -8.827   3.954  15.215  1.00  0.00    -0.550 OA
ENDBRANCH  10  11
ENDBRANCH   9  10
ENDBRANCH   8   9
ENDBRANCH   1   8
TORSDOF 8
ENDMDL
MODEL 8
REMARK VINA RESULT:    -3.961      6.176      8.071
REMARK INTER + INTRA:          -6.119
REMARK INTER:                  -5.797
REMARK INTRA:                  -0.323
REMARK UNBOUND:                -0.306
REMARK SMILES O=C([O-])CCCCCCCC(=O)[O-]
REMARK SMILES IDX 7 1 6 2 5 3 4 4 2 5 1 6 3 7 8 8 9 9 10 10 11 11 12 12 13 13
REMARK H PARENT
REMARK Flexibility Score: inf
ROOT
ATOM      1  C   UNL     1      -3.214  -0.036   9.535  1.00  0.00     0.000 C 
ENDROOT
BRANCH   1   2
ATOM      2  C   UNL     1      -4.041  -1.290   9.233  1.00  0.00     0.000 C 
BRANCH   2   3
ATOM      3  C   UNL     1      -3.463  -2.517   9.949  1.00  0.00     0.006 C 
BRANCH   3   4
ATOM      4  C   UNL     1      -3.780  -3.802   9.181  1.00  0.00     0.053 C 
BRANCH   4   5
ATOM      5  C   UNL     1      -4.773  -4.631   9.933  1.00  0.00     0.041 C 
ATOM      6  O   UNL     1      -4.595  -4.880  11.154  1.00  0.00    -0.550 OA
ATOM      7  O   UNL     1      -5.870  -5.170   9.274  1.00  0.00    -0.550 OA
ENDBRANCH   4   5
ENDBRANCH   3   4
ENDBRANCH   2   3
ENDBRANCH   1   2
BRANCH   1   8
ATOM      8  C   UNL     1      -4.018   0.963  10.381  1.00  0.00     0.000 C 
BRANCH   8   9
ATOM      9  C   UNL     1      -3.877   0.715  11.893  1.00  0.00     0.006 C 
BRANCH   9  10
ATOM     10  C   UNL     1      -5.168   0.942  12.695  1.00  0.00     0.053 C 
BRANCH  10  11
ATOM     11  C   UNL     1      -5.023   2.055  13.687  1.00  0.00     0.041 C 
ATOM     12  O   UNL     1      -6.033   2.500  14.294  1.00  0.00    -0.550 OA
ATOM     13  O   UNL     1      -3.777   2.623  13.918  1.00  0.00    -0.550 OA
ENDBRANCH  10  11
ENDBRANCH   9  10
ENDBRANCH   8   9
ENDBRANCH   1   8
TORSDOF 8
ENDMDL
MODEL 9
REMARK VINA RESULT:    -3.929      1.732      2.411
REMARK INTER + INTRA:          -6.072
REMARK INTER:                  -5.816
REMARK INTRA:                  -0.257
REMARK UNBOUND:                -0.306
REMARK SMILES O=C([O-])CCCCCCCC(=O)[O-]
REMARK SMILES IDX 7 1 6 2 5 3 4 4 2 5 1 6 3 7 8 8 9 9 10 10 11 11 12 12 13 13
REMARK H PARENT
REMARK Flexibility Score: inf
ROOT
ATOM      1  C   UNL     1      -3.807   1.452  14.842  1.00  0.00     0.000 C 
ENDROOT
BRANCH   1   2
ATOM      2  C   UNL     1      -2.584   2.284  15.245  1.00  0.00     0.000 C 
BRANCH   2   3
ATOM      3  C   UNL     1      -1.417   1.382  15.663  1.00  0.00     0.006 C 
BRANCH   3   4
ATOM      4  C   UNL     1      -0.885   1.774  17.044  1.00  0.00     0.053 C 
BRANCH   4   5
ATOM      5  C   UNL     1      -0.151   0.630  17.668  1.00  0.00     0.041 C 
ATOM      6  O   UNL     1      -0.635   0.037  18.667  1.00  0.00    -0.550 OA
ATOM      7  O   UNL     1       1.091   0.249  17.177  1.00  0.00    -0.550 OA
ENDBRANCH   4   5
ENDBRANCH   3   4
ENDBRANCH   2   3
ENDBRANCH   1   2
BRANCH   1   8
ATOM      8  C   UNL     1      -5.053   2.340  14.701  1.00  0.00     0.000 C 
BRANCH   8   9
ATOM      9  C   UNL     1      -5.440   3.039  16.017  1.00  0.00     0.006 C 
BRANCH   9  10
ATOM     10  C   UNL     1      -6.917   2.880  16.407  1.00  0.00     0.053 C 
BRANCH  10  11
ATOM     11  C   UNL     1      -7.729   4.083  16.034  1.00  0.00     0.041 C 
ATOM     12  O   UNL     1      -7.774   5.080  16.801  1.00  0.00    -0.550 OA
ATOM     13  O   UNL     1      -8.460   4.088  14.854  1.00  0.00    -0.550 OA
ENDBRANCH  10  11
ENDBRANCH   9  10
ENDBRANCH   8   9
ENDBRANCH   1   8
TORSDOF 8
ENDMDL
