MODEL 1
REMARK VINA RESULT:     0.000      0.000      0.000
REMARK INTER + INTRA:           0.287
REMARK INTER:                   0.000
REMARK INTRA:                   0.287
REMARK UNBOUND:                 0.287
REMARK SMILES CC1=CCC(=C(C)C)C(=O)CC(C)=CCC1
REMARK SMILES IDX 12 1 14 2 13 3 15 4 16 5 2 6 1 7 3 8 11 10 9 11 10 12 5 13
REMARK SMILES IDX 6 14 7 15 8 16 4 17
REMARK H PARENT
REMARK Flexibility Score: 60.00
ROOT
ATOM      1  C   UNL     1     132.992 136.801 134.439  1.00  0.00    -0.070 C 
ATOM      2  C   UNL     1     131.740 136.338 134.661  1.00  0.00    -0.027 C 
ATOM      3  C   UNL     1     133.343 138.172 134.959  1.00  0.00     0.039 C 
ENDROOT
BRANCH   2   4
ATOM      4  C   UNL     1     131.199 135.018 134.160  1.00  0.00     0.032 C 
BRANCH   4   5
ATOM      5  C   UNL     1     131.578 133.860 135.096  1.00  0.00     0.034 C 
BRANCH   5   6
ATOM      6  C   UNL     1     132.104 132.634 134.363  1.00  0.00    -0.077 C 
ATOM      7  C   UNL     1     131.169 131.869 133.462  1.00  0.00     0.039 C 
ATOM      8  C   UNL     1     133.372 132.177 134.491  1.00  0.00    -0.023 CG0
ATOM      9  G   UNL     1     134.468 132.845 135.288  1.00  0.00     0.000 G0
ENDBRANCH   5   6
ENDBRANCH   4   5
ENDBRANCH   2   4
BRANCH   1  10
ATOM     10  C   UNL     1     134.050 136.003 133.701  1.00  0.00     0.111 C 
BRANCH  10  11
ATOM     11  C   UNL     1     134.969 135.305 134.662  1.00  0.00     0.163 C 
ATOM     12  O   UNL     1     135.498 135.960 135.600  1.00  0.00    -0.294 OA
BRANCH  11  13
ATOM     13  C   UNL     1     135.287 133.861 134.515  1.00  0.00    -0.002 C 
ATOM     14  C   UNL     1     136.295 133.461 133.691  1.00  0.00    -0.069 C 
ATOM     15  C   UNL     1     136.668 132.001 133.568  1.00  0.00     0.039 C 
ATOM     16  C   UNL     1     137.051 134.456 132.839  1.00  0.00     0.039 C 
BRANCH  13  17
ATOM     17  C   UNL     1     134.471 132.836 135.294  1.00  0.00     0.066 CG0
ATOM     18  G   UNL     1     133.374 132.188 134.483  1.00  0.00     0.000 G0
ENDBRANCH  13  17
ENDBRANCH  11  13
ENDBRANCH  10  11
ENDBRANCH   1  10
TORSDOF 0
ENDMDL
MODEL 2
REMARK VINA RESULT:     0.000      2.215      2.979
REMARK INTER + INTRA:           0.287
REMARK INTER:                   0.000
REMARK INTRA:                   0.287
REMARK UNBOUND:                 0.287
REMARK SMILES CC1=CCC(=C(C)C)C(=O)CC(C)=CCC1
REMARK SMILES IDX 12 1 14 2 13 3 15 4 16 5 2 6 1 7 3 8 11 10 9 11 10 12 5 13
REMARK SMILES IDX 6 14 7 15 8 16 4 17
REMARK H PARENT
REMARK Flexibility Score: 60.00
ROOT
ATOM      1  C   UNL     1     130.310 138.070 134.175  1.00  0.00    -0.070 C 
ATOM      2  C   UNL     1     129.058 137.608 134.396  1.00  0.00    -0.027 C 
ATOM      3  C   UNL     1     130.661 139.441 134.694  1.00  0.00     0.039 C 
ENDROOT
BRANCH   2   4
ATOM      4  C   UNL     1     128.517 136.287 133.896  1.00  0.00     0.032 C 
BRANCH   4   5
ATOM      5  C   UNL     1     128.896 135.130 134.831  1.00  0.00     0.034 C 
BRANCH   5   6
ATOM      6  C   UNL     1     129.422 133.904 134.099  1.00  0.00    -0.077 C 
ATOM      7  C   UNL     1     128.487 133.139 133.198  1.00  0.00     0.039 C 
ATOM      8  C   UNL     1     130.690 133.447 134.227  1.00  0.00    -0.023 CG0
ATOM      9  G   UNL     1     131.786 134.115 135.024  1.00  0.00     0.000 G0
ENDBRANCH   5   6
ENDBRANCH   4   5
ENDBRANCH   2   4
BRANCH   1  10
ATOM     10  C   UNL     1     131.367 137.273 133.437  1.00  0.00     0.111 C 
BRANCH  10  11
ATOM     11  C   UNL     1     132.287 136.574 134.398  1.00  0.00     0.163 C 
ATOM     12  O   UNL     1     132.816 137.229 135.336  1.00  0.00    -0.294 OA
BRANCH  11  13
ATOM     13  C   UNL     1     132.605 135.130 134.251  1.00  0.00    -0.002 C 
ATOM     14  C   UNL     1     133.613 134.731 133.427  1.00  0.00    -0.069 C 
ATOM     15  C   UNL     1     133.986 133.271 133.303  1.00  0.00     0.039 C 
ATOM     16  C   UNL     1     134.369 135.725 132.574  1.00  0.00     0.039 C 
BRANCH  13  17
ATOM     17  C   UNL     1     131.789 134.106 135.030  1.00  0.00     0.066 CG0
ATOM     18  G   UNL     1     130.692 133.458 134.218  1.00  0.00     0.000 G0
ENDBRANCH  13  17
ENDBRANCH  11  13
ENDBRANCH  10  11
ENDBRANCH   1  10
TORSDOF 0
ENDMDL
MODEL 3
REMARK VINA RESULT:     0.005      2.947      4.173
REMARK INTER + INTRA:           0.294
REMARK INTER:                   0.000
REMARK INTRA:                   0.294
REMARK UNBOUND:                 0.287
REMARK SMILES CC1=CCC(=C(C)C)C(=O)CC(C)=CCC1
REMARK SMILES IDX 12 1 14 2 13 3 15 4 16 5 2 6 1 7 3 8 11 10 9 11 10 12 5 13
REMARK SMILES IDX 6 14 7 15 8 16 4 17
REMARK H PARENT
REMARK Flexibility Score: 60.00
ROOT
ATOM      1  C   UNL     1     134.942 133.099 129.376  1.00  0.00    -0.070 C 
ATOM      2  C   UNL     1     133.639 132.844 129.116  1.00  0.00    -0.027 C 
ATOM      3  C   UNL     1     135.811 133.571 128.238  1.00  0.00     0.039 C 
ENDROOT
BRANCH   2   4
ATOM      4  C   UNL     1     132.641 132.307 130.118  1.00  0.00     0.032 C 
BRANCH   4   5
ATOM      5  C   UNL     1     131.964 133.440 130.905  1.00  0.00     0.034 C 
BRANCH   5   6
ATOM      6  C   UNL     1     131.920 133.195 132.406  1.00  0.00    -0.077 C 
ATOM      7  C   UNL     1     131.010 132.118 132.940  1.00  0.00     0.039 C 
ATOM      8  C   UNL     1     132.645 133.908 133.298  1.00  0.00    -0.023 CG0
ATOM      9  G   UNL     1     133.659 134.974 132.952  1.00  0.00     0.000 G0
ENDBRANCH   5   6
ENDBRANCH   4   5
ENDBRANCH   2   4
BRANCH   1  10
ATOM     10  C   UNL     1     135.559 132.935 130.751  1.00  0.00     0.111 C 
BRANCH  10  11
ATOM     11  C   UNL     1     135.660 134.256 131.459  1.00  0.00     0.163 C 
ATOM     12  O   UNL     1     136.260 135.213 130.900  1.00  0.00    -0.294 OA
BRANCH  11  13
ATOM     13  C   UNL     1     135.089 134.450 132.817  1.00  0.00    -0.002 C 
ATOM     14  C   UNL     1     135.829 134.154 133.921  1.00  0.00    -0.069 C 
ATOM     15  C   UNL     1     135.285 134.394 135.311  1.00  0.00     0.039 C 
ATOM     16  C   UNL     1     137.205 133.538 133.800  1.00  0.00     0.039 C 
BRANCH  13  17
ATOM     17  C   UNL     1     133.667 134.981 132.956  1.00  0.00     0.066 CG0
ATOM     18  G   UNL     1     132.651 133.916 133.296  1.00  0.00     0.000 G0
ENDBRANCH  13  17
ENDBRANCH  11  13
ENDBRANCH  10  11
ENDBRANCH   1  10
TORSDOF 0
ENDMDL
MODEL 4
REMARK VINA RESULT:     0.008      5.945      7.960
REMARK INTER + INTRA:           0.298
REMARK INTER:                   0.000
REMARK INTRA:                   0.298
REMARK UNBOUND:                 0.287
REMARK SMILES CC1=CCC(=C(C)C)C(=O)CC(C)=CCC1
REMARK SMILES IDX 12 1 14 2 13 3 15 4 16 5 2 6 1 7 3 8 11 10 9 11 10 12 5 13
REMARK SMILES IDX 6 14 7 15 8 16 4 17
REMARK H PARENT
REMARK Flexibility Score: 60.00
ROOT
ATOM      1  C   UNL     1     136.717 127.628 140.064  1.00  0.00    -0.070 C 
ATOM      2  C   UNL     1     136.541 126.316 139.781  1.00  0.00    -0.027 C 
ATOM      3  C   UNL     1     137.903 128.016 140.910  1.00  0.00     0.039 C 
ENDROOT
BRANCH   2   4
ATOM      4  C   UNL     1     135.379 125.743 139.001  1.00  0.00     0.032 C 
BRANCH   4   5
ATOM      5  C   UNL     1     135.673 125.704 137.494  1.00  0.00     0.034 C 
BRANCH   5   6
ATOM      6  C   UNL     1     134.560 126.298 136.642  1.00  0.00    -0.077 C 
ATOM      7  C   UNL     1     133.274 125.527 136.486  1.00  0.00     0.039 C 
ATOM      8  C   UNL     1     134.668 127.482 135.996  1.00  0.00    -0.023 CG0
ATOM      9  G   UNL     1     135.844 128.426 136.087  1.00  0.00     0.000 G0
ENDBRANCH   5   6
ENDBRANCH   4   5
ENDBRANCH   2   4
BRANCH   1  10
ATOM     10  C   UNL     1     135.783 128.714 139.568  1.00  0.00     0.111 C 
BRANCH  10  11
ATOM     11  C   UNL     1     136.382 129.453 138.405  1.00  0.00     0.163 C 
ATOM     12  O   UNL     1     137.498 130.020 138.541  1.00  0.00    -0.294 OA
BRANCH  11  13
ATOM     13  C   UNL     1     135.672 129.548 137.103  1.00  0.00    -0.002 C 
ATOM     14  C   UNL     1     134.872 130.617 136.835  1.00  0.00    -0.069 C 
ATOM     15  C   UNL     1     134.183 130.758 135.497  1.00  0.00     0.039 C 
ATOM     16  C   UNL     1     134.610 131.680 137.878  1.00  0.00     0.039 C 
BRANCH  13  17
ATOM     17  C   UNL     1     135.849 128.436 136.076  1.00  0.00     0.066 CG0
ATOM     18  G   UNL     1     134.671 127.493 135.992  1.00  0.00     0.000 G0
ENDBRANCH  13  17
ENDBRANCH  11  13
ENDBRANCH  10  11
ENDBRANCH   1  10
TORSDOF 0
ENDMDL
MODEL 5
REMARK VINA RESULT:     0.017      6.249      8.305
REMARK INTER + INTRA:           0.310
REMARK INTER:                  -0.004
REMARK INTRA:                   0.314
REMARK UNBOUND:                 0.287
REMARK SMILES CC1=CCC(=C(C)C)C(=O)CC(C)=CCC1
REMARK SMILES IDX 12 1 14 2 13 3 15 4 16 5 2 6 1 7 3 8 11 10 9 11 10 12 5 13
REMARK SMILES IDX 6 14 7 15 8 16 4 17
REMARK H PARENT
REMARK Flexibility Score: 60.00
ROOT
ATOM      1  C   UNL     1     137.241 127.909 141.077  1.00  0.00    -0.070 C 
ATOM      2  C   UNL     1     136.744 126.918 140.302  1.00  0.00    -0.027 C 
ATOM      3  C   UNL     1     138.654 127.771 141.583  1.00  0.00     0.039 C 
ENDROOT
BRANCH   2   4
ATOM      4  C   UNL     1     135.333 126.862 139.760  1.00  0.00     0.032 C 
BRANCH   4   5
ATOM      5  C   UNL     1     135.220 127.570 138.401  1.00  0.00     0.034 C 
BRANCH   5   6
ATOM      6  C   UNL     1     134.064 128.557 138.324  1.00  0.00    -0.077 C 
ATOM      7  C   UNL     1     132.655 128.023 138.264  1.00  0.00     0.039 C 
ATOM      8  C   UNL     1     134.232 129.899 138.287  1.00  0.00    -0.023 CG0
ATOM      9  G   UNL     1     135.554 130.620 138.407  1.00  0.00     0.000 G0
ENDBRANCH   5   6
ENDBRANCH   4   5
ENDBRANCH   2   4
BRANCH   1  10
ATOM     10  C   UNL     1     136.445 129.144 141.452  1.00  0.00     0.111 C 
BRANCH  10  11
ATOM     11  C   UNL     1     136.864 130.328 140.628  1.00  0.00     0.163 C 
ATOM     12  O   UNL     1     138.070 130.693 140.637  1.00  0.00    -0.294 OA
BRANCH  11  13
ATOM     13  C   UNL     1     135.879 131.093 139.820  1.00  0.00    -0.002 C 
ATOM     14  C   UNL     1     135.274 132.197 140.341  1.00  0.00    -0.069 C 
ATOM     15  C   UNL     1     134.309 133.018 139.516  1.00  0.00     0.039 C 
ATOM     16  C   UNL     1     135.513 132.618 141.773  1.00  0.00     0.039 C 
BRANCH  13  17
ATOM     17  C   UNL     1     135.554 130.627 138.406  1.00  0.00     0.066 CG0
ATOM     18  G   UNL     1     134.232 129.904 138.293  1.00  0.00     0.000 G0
ENDBRANCH  13  17
ENDBRANCH  11  13
ENDBRANCH  10  11
ENDBRANCH   1  10
TORSDOF 0
ENDMDL
MODEL 6
REMARK VINA RESULT:     0.019      5.513      7.588
REMARK INTER + INTRA:           0.314
REMARK INTER:                   0.000
REMARK INTRA:                   0.314
REMARK UNBOUND:                 0.287
REMARK SMILES CC1=CCC(=C(C)C)C(=O)CC(C)=CCC1
REMARK SMILES IDX 12 1 14 2 13 3 15 4 16 5 2 6 1 7 3 8 11 10 9 11 10 12 5 13
REMARK SMILES IDX 6 14 7 15 8 16 4 17
REMARK H PARENT
REMARK Flexibility Score: 60.00
ROOT
ATOM      1  C   UNL     1     134.802 127.003 139.839  1.00  0.00    -0.070 C 
ATOM      2  C   UNL     1     134.165 125.982 139.220  1.00  0.00    -0.027 C 
ATOM      3  C   UNL     1     136.035 126.683 140.645  1.00  0.00     0.039 C 
ENDROOT
BRANCH   2   4
ATOM      4  C   UNL     1     132.885 126.109 138.425  1.00  0.00     0.032 C 
BRANCH   4   5
ATOM      5  C   UNL     1     133.166 126.429 136.949  1.00  0.00     0.034 C 
BRANCH   5   6
ATOM      6  C   UNL     1     132.350 127.598 136.415  1.00  0.00    -0.077 C 
ATOM      7  C   UNL     1     130.872 127.409 136.186  1.00  0.00     0.039 C 
ATOM      8  C   UNL     1     132.886 128.804 136.114  1.00  0.00    -0.023 CG0
ATOM      9  G   UNL     1     134.325 129.205 136.339  1.00  0.00     0.000 G0
ENDBRANCH   5   6
ENDBRANCH   4   5
ENDBRANCH   2   4
BRANCH   1  10
ATOM     10  C   UNL     1     134.333 128.442 139.755  1.00  0.00     0.111 C 
BRANCH  10  11
ATOM     11  C   UNL     1     135.175 129.229 138.791  1.00  0.00     0.163 C 
ATOM     12  O   UNL     1     136.421 129.294 138.967  1.00  0.00    -0.294 OA
BRANCH  11  13
ATOM     13  C   UNL     1     134.564 129.954 137.646  1.00  0.00    -0.002 C 
ATOM     14  C   UNL     1     134.220 131.265 137.770  1.00  0.00    -0.069 C 
ATOM     15  C   UNL     1     133.646 132.033 136.601  1.00  0.00     0.039 C 
ATOM     16  C   UNL     1     134.361 131.991 139.089  1.00  0.00     0.039 C 
BRANCH  13  17
ATOM     17  C   UNL     1     134.327 129.210 136.337  1.00  0.00     0.066 CG0
ATOM     18  G   UNL     1     132.887 128.810 136.118  1.00  0.00     0.000 G0
ENDBRANCH  13  17
ENDBRANCH  11  13
ENDBRANCH  10  11
ENDBRANCH   1  10
TORSDOF 0
ENDMDL
MODEL 7
REMARK VINA RESULT:     0.019      7.223      9.326
REMARK INTER + INTRA:           0.314
REMARK INTER:                   0.000
REMARK INTRA:                   0.314
REMARK UNBOUND:                 0.287
REMARK SMILES CC1=CCC(=C(C)C)C(=O)CC(C)=CCC1
REMARK SMILES IDX 12 1 14 2 13 3 15 4 16 5 2 6 1 7 3 8 11 10 9 11 10 12 5 13
REMARK SMILES IDX 6 14 7 15 8 16 4 17
REMARK H PARENT
REMARK Flexibility Score: 60.00
ROOT
ATOM      1  C   UNL     1     136.626 125.472 140.228  1.00  0.00    -0.070 C 
ATOM      2  C   UNL     1     136.128 124.481 139.453  1.00  0.00    -0.027 C 
ATOM      3  C   UNL     1     138.039 125.333 140.734  1.00  0.00     0.039 C 
ENDROOT
BRANCH   2   4
ATOM      4  C   UNL     1     134.718 124.425 138.911  1.00  0.00     0.032 C 
BRANCH   4   5
ATOM      5  C   UNL     1     134.605 125.132 137.552  1.00  0.00     0.034 C 
BRANCH   5   6
ATOM      6  C   UNL     1     133.448 126.119 137.475  1.00  0.00    -0.077 C 
ATOM      7  C   UNL     1     132.040 125.585 137.415  1.00  0.00     0.039 C 
ATOM      8  C   UNL     1     133.617 127.461 137.438  1.00  0.00    -0.023 CG0
ATOM      9  G   UNL     1     134.939 128.183 137.558  1.00  0.00     0.000 G0
ENDBRANCH   5   6
ENDBRANCH   4   5
ENDBRANCH   2   4
BRANCH   1  10
ATOM     10  C   UNL     1     135.830 126.706 140.603  1.00  0.00     0.111 C 
BRANCH  10  11
ATOM     11  C   UNL     1     136.249 127.891 139.779  1.00  0.00     0.163 C 
ATOM     12  O   UNL     1     137.455 128.256 139.788  1.00  0.00    -0.294 OA
BRANCH  11  13
ATOM     13  C   UNL     1     135.264 128.656 138.971  1.00  0.00    -0.002 C 
ATOM     14  C   UNL     1     134.659 129.759 139.491  1.00  0.00    -0.069 C 
ATOM     15  C   UNL     1     133.694 130.580 138.667  1.00  0.00     0.039 C 
ATOM     16  C   UNL     1     134.898 130.180 140.924  1.00  0.00     0.039 C 
BRANCH  13  17
ATOM     17  C   UNL     1     134.939 128.189 137.557  1.00  0.00     0.066 CG0
ATOM     18  G   UNL     1     133.617 127.466 137.444  1.00  0.00     0.000 G0
ENDBRANCH  13  17
ENDBRANCH  11  13
ENDBRANCH  10  11
ENDBRANCH   1  10
TORSDOF 0
ENDMDL
MODEL 8
REMARK VINA RESULT:     0.040     12.233     13.986
REMARK INTER + INTRA:           0.344
REMARK INTER:                   0.000
REMARK INTRA:                   0.344
REMARK UNBOUND:                 0.287
REMARK SMILES CC1=CCC(=C(C)C)C(=O)CC(C)=CCC1
REMARK SMILES IDX 12 1 14 2 13 3 15 4 16 5 2 6 1 7 3 8 11 10 9 11 10 12 5 13
REMARK SMILES IDX 6 14 7 15 8 16 4 17
REMARK H PARENT
REMARK Flexibility Score: 60.00
ROOT
ATOM      1  C   UNL     1     127.204 124.112 124.416  1.00  0.00    -0.070 C 
ATOM      2  C   UNL     1     126.687 125.320 124.096  1.00  0.00    -0.027 C 
ATOM      3  C   UNL     1     127.884 123.322 123.327  1.00  0.00     0.039 C 
ENDROOT
BRANCH   2   4
ATOM      4  C   UNL     1     125.921 126.217 125.043  1.00  0.00     0.032 C 
BRANCH   4   5
ATOM      5  C   UNL     1     126.866 127.048 125.924  1.00  0.00     0.034 C 
BRANCH   5   6
ATOM      6  C   UNL     1     126.570 126.931 127.412  1.00  0.00    -0.077 C 
ATOM      7  C   UNL     1     125.270 127.483 127.940  1.00  0.00     0.039 C 
ATOM      8  C   UNL     1     127.424 126.371 128.299  1.00  0.00    -0.023 CG0
ATOM      9  G   UNL     1     128.736 125.705 127.953  1.00  0.00     0.000 G0
ENDBRANCH   5   6
ENDBRANCH   4   5
ENDBRANCH   2   4
BRANCH   1  10
ATOM     10  C   UNL     1     127.133 123.525 125.812  1.00  0.00     0.111 C 
BRANCH  10  11
ATOM     11  C   UNL     1     128.475 123.568 126.486  1.00  0.00     0.163 C 
ATOM     12  O   UNL     1     129.474 123.060 125.910  1.00  0.00    -0.294 OA
BRANCH  11  13
ATOM     13  C   UNL     1     128.644 124.179 127.831  1.00  0.00    -0.002 C 
ATOM     14  C   UNL     1     128.711 123.389 128.938  1.00  0.00    -0.069 C 
ATOM     15  C   UNL     1     128.936 123.987 130.308  1.00  0.00     0.039 C 
ATOM     16  C   UNL     1     128.524 121.892 128.845  1.00  0.00     0.039 C 
BRANCH  13  17
ATOM     17  C   UNL     1     128.738 125.694 127.952  1.00  0.00     0.066 CG0
ATOM     18  G   UNL     1     127.426 126.360 128.295  1.00  0.00     0.000 G0
ENDBRANCH  13  17
ENDBRANCH  11  13
ENDBRANCH  10  11
ENDBRANCH   1  10
TORSDOF 0
ENDMDL
MODEL 9
REMARK VINA RESULT:     0.043      5.244      7.384
REMARK INTER + INTRA:           0.347
REMARK INTER:                  -0.004
REMARK INTRA:                   0.351
REMARK UNBOUND:                 0.287
REMARK SMILES CC1=CCC(=C(C)C)C(=O)CC(C)=CCC1
REMARK SMILES IDX 12 1 14 2 13 3 15 4 16 5 2 6 1 7 3 8 11 10 9 11 10 12 5 13
REMARK SMILES IDX 6 14 7 15 8 16 4 17
REMARK H PARENT
REMARK Flexibility Score: 60.00
ROOT
ATOM      1  C   UNL     1     134.647 131.093 139.208  1.00  0.00    -0.070 C 
ATOM      2  C   UNL     1     135.343 131.548 140.275  1.00  0.00    -0.027 C 
ATOM      3  C   UNL     1     134.706 129.618 138.900  1.00  0.00     0.039 C 
ENDROOT
BRANCH   2   4
ATOM      4  C   UNL     1     135.446 132.998 140.693  1.00  0.00     0.032 C 
BRANCH   4   5
ATOM      5  C   UNL     1     134.360 133.372 141.712  1.00  0.00     0.034 C 
BRANCH   5   6
ATOM      6  C   UNL     1     133.692 134.709 141.426  1.00  0.00    -0.077 C 
ATOM      7  C   UNL     1     134.456 135.978 141.704  1.00  0.00     0.039 C 
ATOM      8  C   UNL     1     132.431 134.823 140.947  1.00  0.00    -0.023 CG0
ATOM      9  G   UNL     1     131.539 133.672 140.544  1.00  0.00     0.000 G0
ENDBRANCH   5   6
ENDBRANCH   4   5
ENDBRANCH   2   4
BRANCH   1  10
ATOM     10  C   UNL     1     133.814 131.995 138.318  1.00  0.00     0.111 C 
BRANCH  10  11
ATOM     11  C   UNL     1     132.374 131.995 138.745  1.00  0.00     0.163 C 
ATOM     12  O   UNL     1     131.743 130.906 138.797  1.00  0.00    -0.294 OA
BRANCH  11  13
ATOM     13  C   UNL     1     131.670 133.259 139.085  1.00  0.00    -0.002 C 
ATOM     14  C   UNL     1     131.151 134.042 138.098  1.00  0.00    -0.069 C 
ATOM     15  C   UNL     1     130.386 135.304 138.426  1.00  0.00     0.039 C 
ATOM     16  C   UNL     1     131.355 133.701 136.639  1.00  0.00     0.039 C 
BRANCH  13  17
ATOM     17  C   UNL     1     131.539 133.667 140.547  1.00  0.00     0.066 CG0
ATOM     18  G   UNL     1     132.425 134.827 140.937  1.00  0.00     0.000 G0
ENDBRANCH  13  17
ENDBRANCH  11  13
ENDBRANCH  10  11
ENDBRANCH   1  10
TORSDOF 0
ENDMDL
