MODEL 1
REMARK VINA RESULT:    -5.145      0.000      0.000
REMARK INTER + INTRA:          -9.993
REMARK INTER:                  -9.055
REMARK INTRA:                  -0.938
REMARK UNBOUND:                -0.938
REMARK SMILES CCCCCCC=CCCCCCCCC(=O)[O-]
REMARK SMILES IDX 10 1 11 2 12 3 13 4 14 5 15 6 16 7 17 8 18 9 9 10 8 11 7 12
REMARK SMILES IDX 6 13 5 14 4 15 3 16 2 17 1 18
REMARK H PARENT
REMARK Flexibility Score: inf
ROOT
ATOM      1  C   UNL     1       5.730  -8.044  18.285  1.00  0.00     0.004 C 
ENDROOT
BRANCH   1   2
ATOM      2  C   UNL     1       6.222  -8.606  16.940  1.00  0.00     0.000 C 
BRANCH   2   3
ATOM      3  C   UNL     1       6.665  -7.507  15.958  1.00  0.00     0.000 C 
BRANCH   3   4
ATOM      4  C   UNL     1       6.309  -7.768  14.482  1.00  0.00     0.000 C 
BRANCH   4   5
ATOM      5  C   UNL     1       5.434  -6.659  13.873  1.00  0.00     0.006 C 
BRANCH   5   6
ATOM      6  C   UNL     1       6.272  -5.560  13.207  1.00  0.00     0.053 C 
BRANCH   6   7
ATOM      7  C   UNL     1       5.959  -4.206  13.767  1.00  0.00     0.041 C 
ATOM      8  O   UNL     1       5.724  -3.239  12.996  1.00  0.00    -0.550 OA
ATOM      9  O   UNL     1       5.956  -4.006  15.142  1.00  0.00    -0.550 OA
ENDBRANCH   6   7
ENDBRANCH   5   6
ENDBRANCH   4   5
ENDBRANCH   3   4
ENDBRANCH   2   3
ENDBRANCH   1   2
BRANCH   1  10
ATOM     10  C   UNL     1       6.612  -6.891  18.787  1.00  0.00     0.027 C 
BRANCH  10  11
ATOM     11  C   UNL     1       7.396  -7.274  20.017  1.00  0.00    -0.031 C 
ATOM     12  C   UNL     1       7.115  -6.856  21.266  1.00  0.00    -0.031 C 
BRANCH  12  13
ATOM     13  C   UNL     1       6.037  -5.859  21.616  1.00  0.00     0.027 C 
BRANCH  13  14
ATOM     14  C   UNL     1       6.600  -4.438  21.770  1.00  0.00     0.004 C 
BRANCH  14  15
ATOM     15  C   UNL     1       7.690  -4.363  22.853  1.00  0.00     0.000 C 
BRANCH  15  16
ATOM     16  C   UNL     1       7.315  -3.424  24.014  1.00  0.00    -0.000 C 
BRANCH  16  17
ATOM     17  C   UNL     1       7.030  -4.131  25.351  1.00  0.00    -0.003 C 
ATOM     18  C   UNL     1       5.830  -5.075  25.285  1.00  0.00     0.004 C 
ENDBRANCH  16  17
ENDBRANCH  15  16
ENDBRANCH  14  15
ENDBRANCH  13  14
ENDBRANCH  12  13
ENDBRANCH  10  11
ENDBRANCH   1  10
TORSDOF 13
ENDMDL
MODEL 2
REMARK VINA RESULT:    -5.025      2.829      4.933
REMARK INTER + INTRA:          -9.782
REMARK INTER:                  -8.096
REMARK INTRA:                  -1.686
REMARK UNBOUND:                -0.938
REMARK SMILES CCCCCCC=CCCCCCCCC(=O)[O-]
REMARK SMILES IDX 10 1 11 2 12 3 13 4 14 5 15 6 16 7 17 8 18 9 9 10 8 11 7 12
REMARK SMILES IDX 6 13 5 14 4 15 3 16 2 17 1 18
REMARK H PARENT
REMARK Flexibility Score: inf
ROOT
ATOM      1  C   UNL     1       2.870  -7.527  22.132  1.00  0.00     0.004 C 
ENDROOT
BRANCH   1   2
ATOM      2  C   UNL     1       3.982  -8.580  22.287  1.00  0.00     0.000 C 
BRANCH   2   3
ATOM      3  C   UNL     1       5.004  -8.545  21.137  1.00  0.00     0.000 C 
BRANCH   3   4
ATOM      4  C   UNL     1       6.252  -7.681  21.397  1.00  0.00     0.000 C 
BRANCH   4   5
ATOM      5  C   UNL     1       6.507  -6.648  20.286  1.00  0.00     0.006 C 
BRANCH   5   6
ATOM      6  C   UNL     1       7.281  -7.248  19.105  1.00  0.00     0.053 C 
BRANCH   6   7
ATOM      7  C   UNL     1       6.490  -7.188  17.834  1.00  0.00     0.041 C 
ATOM      8  O   UNL     1       5.249  -6.980  17.868  1.00  0.00    -0.550 OA
ATOM      9  O   UNL     1       7.121  -7.388  16.612  1.00  0.00    -0.550 OA
ENDBRANCH   6   7
ENDBRANCH   5   6
ENDBRANCH   4   5
ENDBRANCH   3   4
ENDBRANCH   2   3
ENDBRANCH   1   2
BRANCH   1  10
ATOM     10  C   UNL     1       3.169  -6.250  22.932  1.00  0.00     0.027 C 
BRANCH  10  11
ATOM     11  C   UNL     1       3.562  -6.555  24.356  1.00  0.00    -0.031 C 
ATOM     12  C   UNL     1       4.685  -6.111  24.953  1.00  0.00    -0.031 C 
BRANCH  12  13
ATOM     13  C   UNL     1       5.772  -5.325  24.261  1.00  0.00     0.027 C 
BRANCH  13  14
ATOM     14  C   UNL     1       6.564  -4.454  25.248  1.00  0.00     0.004 C 
BRANCH  14  15
ATOM     15  C   UNL     1       7.437  -3.413  24.528  1.00  0.00     0.000 C 
BRANCH  15  16
ATOM     16  C   UNL     1       7.677  -3.756  23.046  1.00  0.00    -0.000 C 
BRANCH  16  17
ATOM     17  C   UNL     1       7.366  -2.617  22.060  1.00  0.00    -0.003 C 
ATOM     18  C   UNL     1       6.195  -2.934  21.129  1.00  0.00     0.004 C 
ENDBRANCH  16  17
ENDBRANCH  15  16
ENDBRANCH  14  15
ENDBRANCH  13  14
ENDBRANCH  12  13
ENDBRANCH  10  11
ENDBRANCH   1  10
TORSDOF 13
ENDMDL
MODEL 3
REMARK VINA RESULT:    -4.936      1.029      1.619
REMARK INTER + INTRA:          -9.626
REMARK INTER:                  -8.596
REMARK INTRA:                  -1.029
REMARK UNBOUND:                -0.938
REMARK SMILES CCCCCCC=CCCCCCCCC(=O)[O-]
REMARK SMILES IDX 10 1 11 2 12 3 13 4 14 5 15 6 16 7 17 8 18 9 9 10 8 11 7 12
REMARK SMILES IDX 6 13 5 14 4 15 3 16 2 17 1 18
REMARK H PARENT
REMARK Flexibility Score: inf
ROOT
ATOM      1  C   UNL     1       6.216  -8.421  16.923  1.00  0.00     0.004 C 
ENDROOT
BRANCH   1   2
ATOM      2  C   UNL     1       6.649  -8.650  15.464  1.00  0.00     0.000 C 
BRANCH   2   3
ATOM      3  C   UNL     1       5.662  -8.054  14.445  1.00  0.00     0.000 C 
BRANCH   3   4
ATOM      4  C   UNL     1       6.085  -6.704  13.838  1.00  0.00     0.000 C 
BRANCH   4   5
ATOM      5  C   UNL     1       5.531  -5.498  14.615  1.00  0.00     0.006 C 
BRANCH   5   6
ATOM      6  C   UNL     1       5.623  -4.197  13.807  1.00  0.00     0.053 C 
BRANCH   6   7
ATOM      7  C   UNL     1       6.161  -3.067  14.631  1.00  0.00     0.041 C 
ATOM      8  O   UNL     1       6.624  -2.038  14.072  1.00  0.00    -0.550 OA
ATOM      9  O   UNL     1       6.176  -3.162  16.017  1.00  0.00    -0.550 OA
ENDBRANCH   6   7
ENDBRANCH   5   6
ENDBRANCH   4   5
ENDBRANCH   3   4
ENDBRANCH   2   3
ENDBRANCH   1   2
BRANCH   1  10
ATOM     10  C   UNL     1       7.009  -7.288  17.590  1.00  0.00     0.027 C 
BRANCH  10  11
ATOM     11  C   UNL     1       6.102  -6.264  18.227  1.00  0.00    -0.031 C 
ATOM     12  C   UNL     1       5.854  -6.177  19.548  1.00  0.00    -0.031 C 
BRANCH  12  13
ATOM     13  C   UNL     1       6.363  -7.150  20.583  1.00  0.00     0.027 C 
BRANCH  13  14
ATOM     14  C   UNL     1       7.267  -6.463  21.618  1.00  0.00     0.004 C 
BRANCH  14  15
ATOM     15  C   UNL     1       6.554  -5.301  22.329  1.00  0.00     0.000 C 
BRANCH  15  16
ATOM     16  C   UNL     1       7.534  -4.288  22.949  1.00  0.00    -0.000 C 
BRANCH  16  17
ATOM     17  C   UNL     1       7.169  -3.822  24.369  1.00  0.00    -0.003 C 
ATOM     18  C   UNL     1       6.274  -4.812  25.113  1.00  0.00     0.004 C 
ENDBRANCH  16  17
ENDBRANCH  15  16
ENDBRANCH  14  15
ENDBRANCH  13  14
ENDBRANCH  12  13
ENDBRANCH  10  11
ENDBRANCH   1  10
TORSDOF 13
ENDMDL
MODEL 4
REMARK VINA RESULT:    -4.900      4.065      7.480
REMARK INTER + INTRA:          -9.562
REMARK INTER:                  -7.685
REMARK INTRA:                  -1.878
REMARK UNBOUND:                -0.938
REMARK SMILES CCCCCCC=CCCCCCCCC(=O)[O-]
REMARK SMILES IDX 10 1 11 2 12 3 13 4 14 5 15 6 16 7 17 8 18 9 9 10 8 11 7 12
REMARK SMILES IDX 6 13 5 14 4 15 3 16 2 17 1 18
REMARK H PARENT
REMARK Flexibility Score: inf
ROOT
ATOM      1  C   UNL     1       7.438  -3.421  24.568  1.00  0.00     0.004 C 
ENDROOT
BRANCH   1   2
ATOM      2  C   UNL     1       6.598  -4.432  25.370  1.00  0.00     0.000 C 
BRANCH   2   3
ATOM      3  C   UNL     1       5.819  -5.409  24.472  1.00  0.00     0.000 C 
BRANCH   3   4
ATOM      4  C   UNL     1       4.453  -5.856  25.024  1.00  0.00     0.000 C 
BRANCH   4   5
ATOM      5  C   UNL     1       3.849  -7.037  24.244  1.00  0.00     0.006 C 
BRANCH   5   6
ATOM      6  C   UNL     1       4.111  -6.929  22.736  1.00  0.00     0.053 C 
BRANCH   6   7
ATOM      7  C   UNL     1       2.878  -6.536  21.983  1.00  0.00     0.041 C 
ATOM      8  O   UNL     1       2.437  -5.358  22.057  1.00  0.00    -0.550 OA
ATOM      9  O   UNL     1       2.197  -7.478  21.222  1.00  0.00    -0.550 OA
ENDBRANCH   6   7
ENDBRANCH   5   6
ENDBRANCH   4   5
ENDBRANCH   3   4
ENDBRANCH   2   3
ENDBRANCH   1   2
BRANCH   1  10
ATOM     10  C   UNL     1       7.619  -3.853  23.105  1.00  0.00     0.027 C 
BRANCH  10  11
ATOM     11  C   UNL     1       7.281  -2.741  22.143  1.00  0.00    -0.031 C 
ATOM     12  C   UNL     1       6.337  -2.817  21.186  1.00  0.00    -0.031 C 
BRANCH  12  13
ATOM     13  C   UNL     1       5.542  -4.057  20.861  1.00  0.00     0.027 C 
BRANCH  13  14
ATOM     14  C   UNL     1       5.046  -4.053  19.406  1.00  0.00     0.004 C 
BRANCH  14  15
ATOM     15  C   UNL     1       5.613  -5.234  18.599  1.00  0.00     0.000 C 
BRANCH  15  16
ATOM     16  C   UNL     1       5.614  -6.554  19.392  1.00  0.00    -0.000 C 
BRANCH  16  17
ATOM     17  C   UNL     1       7.000  -7.195  19.577  1.00  0.00    -0.003 C 
ATOM     18  C   UNL     1       7.451  -7.238  21.037  1.00  0.00     0.004 C 
ENDBRANCH  16  17
ENDBRANCH  15  16
ENDBRANCH  14  15
ENDBRANCH  13  14
ENDBRANCH  12  13
ENDBRANCH  10  11
ENDBRANCH   1  10
TORSDOF 13
ENDMDL
MODEL 5
REMARK VINA RESULT:    -4.844      3.496      6.905
REMARK INTER + INTRA:          -9.464
REMARK INTER:                  -7.033
REMARK INTRA:                  -2.431
REMARK UNBOUND:                -0.938
REMARK SMILES CCCCCCC=CCCCCCCCC(=O)[O-]
REMARK SMILES IDX 10 1 11 2 12 3 13 4 14 5 15 6 16 7 17 8 18 9 9 10 8 11 7 12
REMARK SMILES IDX 6 13 5 14 4 15 3 16 2 17 1 18
REMARK H PARENT
REMARK Flexibility Score: inf
ROOT
ATOM      1  C   UNL     1       5.213  -7.675  14.147  1.00  0.00     0.004 C 
ENDROOT
BRANCH   1   2
ATOM      2  C   UNL     1       6.672  -7.638  14.635  1.00  0.00     0.000 C 
BRANCH   2   3
ATOM      3  C   UNL     1       6.817  -8.012  16.120  1.00  0.00     0.000 C 
BRANCH   3   4
ATOM      4  C   UNL     1       5.498  -8.345  16.842  1.00  0.00     0.000 C 
BRANCH   4   5
ATOM      5  C   UNL     1       5.580  -8.137  18.364  1.00  0.00     0.006 C 
BRANCH   5   6
ATOM      6  C   UNL     1       6.835  -7.356  18.776  1.00  0.00     0.053 C 
BRANCH   6   7
ATOM      7  C   UNL     1       6.765  -6.902  20.201  1.00  0.00     0.041 C 
ATOM      8  O   UNL     1       7.416  -7.507  21.093  1.00  0.00    -0.550 OA
ATOM      9  O   UNL     1       5.958  -5.826  20.550  1.00  0.00    -0.550 OA
ENDBRANCH   6   7
ENDBRANCH   5   6
ENDBRANCH   4   5
ENDBRANCH   3   4
ENDBRANCH   2   3
ENDBRANCH   1   2
BRANCH   1  10
ATOM     10  C   UNL     1       4.877  -6.481  13.240  1.00  0.00     0.027 C 
BRANCH  10  11
ATOM     11  C   UNL     1       6.088  -5.985  12.489  1.00  0.00    -0.031 C 
ATOM     12  C   UNL     1       6.460  -4.693  12.405  1.00  0.00    -0.031 C 
BRANCH  12  13
ATOM     13  C   UNL     1       5.672  -3.534  12.962  1.00  0.00     0.027 C 
BRANCH  13  14
ATOM     14  C   UNL     1       6.477  -2.743  14.004  1.00  0.00     0.004 C 
BRANCH  14  15
ATOM     15  C   UNL     1       5.865  -2.850  15.410  1.00  0.00     0.000 C 
BRANCH  15  16
ATOM     16  C   UNL     1       6.119  -4.218  16.071  1.00  0.00    -0.000 C 
BRANCH  16  17
ATOM     17  C   UNL     1       5.059  -4.646  17.101  1.00  0.00    -0.003 C 
ATOM     18  C   UNL     1       3.739  -5.075  16.460  1.00  0.00     0.004 C 
ENDBRANCH  16  17
ENDBRANCH  15  16
ENDBRANCH  14  15
ENDBRANCH  13  14
ENDBRANCH  12  13
ENDBRANCH  10  11
ENDBRANCH   1  10
TORSDOF 13
ENDMDL
MODEL 6
REMARK VINA RESULT:    -4.812      3.063      7.648
REMARK INTER + INTRA:          -9.407
REMARK INTER:                  -7.821
REMARK INTRA:                  -1.586
REMARK UNBOUND:                -0.938
REMARK SMILES CCCCCCC=CCCCCCCCC(=O)[O-]
REMARK SMILES IDX 10 1 11 2 12 3 13 4 14 5 15 6 16 7 17 8 18 9 9 10 8 11 7 12
REMARK SMILES IDX 6 13 5 14 4 15 3 16 2 17 1 18
REMARK H PARENT
REMARK Flexibility Score: inf
ROOT
ATOM      1  C   UNL     1       5.440  -7.632  18.922  1.00  0.00     0.004 C 
ENDROOT
BRANCH   1   2
ATOM      2  C   UNL     1       6.857  -7.199  19.340  1.00  0.00     0.000 C 
BRANCH   2   3
ATOM      3  C   UNL     1       7.069  -7.233  20.863  1.00  0.00     0.000 C 
BRANCH   3   4
ATOM      4  C   UNL     1       5.817  -6.927  21.705  1.00  0.00     0.000 C 
BRANCH   4   5
ATOM      5  C   UNL     1       6.018  -5.747  22.671  1.00  0.00     0.006 C 
BRANCH   5   6
ATOM      6  C   UNL     1       7.292  -4.952  22.356  1.00  0.00     0.053 C 
BRANCH   6   7
ATOM      7  C   UNL     1       7.279  -3.600  23.002  1.00  0.00     0.041 C 
ATOM      8  O   UNL     1       7.221  -2.560  22.295  1.00  0.00    -0.550 OA
ATOM      9  O   UNL     1       7.359  -3.489  24.384  1.00  0.00    -0.550 OA
ENDBRANCH   6   7
ENDBRANCH   5   6
ENDBRANCH   4   5
ENDBRANCH   3   4
ENDBRANCH   2   3
ENDBRANCH   1   2
BRANCH   1  10
ATOM     10  C   UNL     1       5.383  -8.082  17.455  1.00  0.00     0.027 C 
BRANCH  10  11
ATOM     11  C   UNL     1       6.745  -8.063  16.805  1.00  0.00    -0.031 C 
ATOM     12  C   UNL     1       6.965  -7.837  15.496  1.00  0.00    -0.031 C 
BRANCH  12  13
ATOM     13  C   UNL     1       5.883  -7.669  14.459  1.00  0.00     0.027 C 
BRANCH  13  14
ATOM     14  C   UNL     1       6.187  -6.511  13.496  1.00  0.00     0.004 C 
BRANCH  14  15
ATOM     15  C   UNL     1       5.055  -5.471  13.467  1.00  0.00     0.000 C 
BRANCH  15  16
ATOM     16  C   UNL     1       4.745  -4.885  14.857  1.00  0.00    -0.000 C 
BRANCH  16  17
ATOM     17  C   UNL     1       5.839  -3.967  15.430  1.00  0.00    -0.003 C 
ATOM     18  C   UNL     1       6.291  -4.377  16.831  1.00  0.00     0.004 C 
ENDBRANCH  16  17
ENDBRANCH  15  16
ENDBRANCH  14  15
ENDBRANCH  13  14
ENDBRANCH  12  13
ENDBRANCH  10  11
ENDBRANCH   1  10
TORSDOF 13
ENDMDL
MODEL 7
REMARK VINA RESULT:    -4.787      1.159      1.416
REMARK INTER + INTRA:          -9.364
REMARK INTER:                  -8.622
REMARK INTRA:                  -0.741
REMARK UNBOUND:                -0.938
REMARK SMILES CCCCCCC=CCCCCCCCC(=O)[O-]
REMARK SMILES IDX 10 1 11 2 12 3 13 4 14 5 15 6 16 7 17 8 18 9 9 10 8 11 7 12
REMARK SMILES IDX 6 13 5 14 4 15 3 16 2 17 1 18
REMARK H PARENT
REMARK Flexibility Score: inf
ROOT
ATOM      1  C   UNL     1       5.980  -8.290  17.787  1.00  0.00     0.004 C 
ENDROOT
BRANCH   1   2
ATOM      2  C   UNL     1       6.621  -8.412  16.393  1.00  0.00     0.000 C 
BRANCH   2   3
ATOM      3  C   UNL     1       6.455  -7.140  15.543  1.00  0.00     0.000 C 
BRANCH   3   4
ATOM      4  C   UNL     1       5.893  -7.368  14.128  1.00  0.00     0.000 C 
BRANCH   4   5
ATOM      5  C   UNL     1       6.328  -6.282  13.129  1.00  0.00     0.006 C 
BRANCH   5   6
ATOM      6  C   UNL     1       5.512  -4.992  13.284  1.00  0.00     0.053 C 
BRANCH   6   7
ATOM      7  C   UNL     1       4.983  -4.507  11.970  1.00  0.00     0.041 C 
ATOM      8  O   UNL     1       5.234  -3.337  11.577  1.00  0.00    -0.550 OA
ATOM      9  O   UNL     1       4.187  -5.337  11.191  1.00  0.00    -0.550 OA
ENDBRANCH   6   7
ENDBRANCH   5   6
ENDBRANCH   4   5
ENDBRANCH   3   4
ENDBRANCH   2   3
ENDBRANCH   1   2
BRANCH   1  10
ATOM     10  C   UNL     1       6.431  -7.018  18.520  1.00  0.00     0.027 C 
BRANCH  10  11
ATOM     11  C   UNL     1       7.537  -7.298  19.507  1.00  0.00    -0.031 C 
ATOM     12  C   UNL     1       7.390  -7.283  20.846  1.00  0.00    -0.031 C 
BRANCH  12  13
ATOM     13  C   UNL     1       6.126  -6.886  21.567  1.00  0.00     0.027 C 
BRANCH  13  14
ATOM     14  C   UNL     1       6.091  -5.380  21.872  1.00  0.00     0.004 C 
BRANCH  14  15
ATOM     15  C   UNL     1       7.425  -4.875  22.446  1.00  0.00     0.000 C 
BRANCH  15  16
ATOM     16  C   UNL     1       7.262  -3.618  23.320  1.00  0.00    -0.000 C 
BRANCH  16  17
ATOM     17  C   UNL     1       7.427  -3.856  24.831  1.00  0.00    -0.003 C 
ATOM     18  C   UNL     1       6.289  -4.678  25.436  1.00  0.00     0.004 C 
ENDBRANCH  16  17
ENDBRANCH  15  16
ENDBRANCH  14  15
ENDBRANCH  13  14
ENDBRANCH  12  13
ENDBRANCH  10  11
ENDBRANCH   1  10
TORSDOF 13
ENDMDL
MODEL 8
REMARK VINA RESULT:    -4.686      4.111      5.808
REMARK INTER + INTRA:          -9.185
REMARK INTER:                  -7.399
REMARK INTRA:                  -1.786
REMARK UNBOUND:                -0.938
REMARK SMILES CCCCCCC=CCCCCCCCC(=O)[O-]
REMARK SMILES IDX 10 1 11 2 12 3 13 4 14 5 15 6 16 7 17 8 18 9 9 10 8 11 7 12
REMARK SMILES IDX 6 13 5 14 4 15 3 16 2 17 1 18
REMARK H PARENT
REMARK Flexibility Score: inf
ROOT
ATOM      1  C   UNL     1       5.135  -7.241  13.879  1.00  0.00     0.004 C 
ENDROOT
BRANCH   1   2
ATOM      2  C   UNL     1       5.254  -6.135  12.816  1.00  0.00     0.000 C 
BRANCH   2   3
ATOM      3  C   UNL     1       6.704  -5.675  12.588  1.00  0.00     0.000 C 
BRANCH   3   4
ATOM      4  C   UNL     1       7.117  -5.518  11.113  1.00  0.00     0.000 C 
BRANCH   4   5
ATOM      5  C   UNL     1       5.912  -5.457  10.157  1.00  0.00     0.006 C 
BRANCH   5   6
ATOM      6  C   UNL     1       5.691  -4.046   9.596  1.00  0.00     0.053 C 
BRANCH   6   7
ATOM      7  C   UNL     1       4.633  -3.305  10.353  1.00  0.00     0.041 C 
ATOM      8  O   UNL     1       4.930  -2.659  11.392  1.00  0.00    -0.550 OA
ATOM      9  O   UNL     1       3.311  -3.351   9.927  1.00  0.00    -0.550 OA
ENDBRANCH   6   7
ENDBRANCH   5   6
ENDBRANCH   4   5
ENDBRANCH   3   4
ENDBRANCH   2   3
ENDBRANCH   1   2
BRANCH   1  10
ATOM     10  C   UNL     1       6.502  -7.626  14.466  1.00  0.00     0.027 C 
BRANCH  10  11
ATOM     11  C   UNL     1       6.365  -8.497  15.690  1.00  0.00    -0.031 C 
ATOM     12  C   UNL     1       6.590  -8.085  16.952  1.00  0.00    -0.031 C 
BRANCH  12  13
ATOM     13  C   UNL     1       7.113  -6.721  17.330  1.00  0.00     0.027 C 
BRANCH  13  14
ATOM     14  C   UNL     1       5.981  -5.689  17.453  1.00  0.00     0.004 C 
BRANCH  14  15
ATOM     15  C   UNL     1       6.364  -4.335  16.834  1.00  0.00     0.000 C 
BRANCH  15  16
ATOM     16  C   UNL     1       5.380  -3.877  15.741  1.00  0.00    -0.000 C 
BRANCH  16  17
ATOM     17  C   UNL     1       5.846  -2.664  14.918  1.00  0.00    -0.003 C 
ATOM     18  C   UNL     1       4.788  -1.565  14.819  1.00  0.00     0.004 C 
ENDBRANCH  16  17
ENDBRANCH  15  16
ENDBRANCH  14  15
ENDBRANCH  13  14
ENDBRANCH  12  13
ENDBRANCH  10  11
ENDBRANCH   1  10
TORSDOF 13
ENDMDL
MODEL 9
REMARK VINA RESULT:    -4.670      3.283      7.636
REMARK INTER + INTRA:          -9.157
REMARK INTER:                  -7.550
REMARK INTRA:                  -1.607
REMARK UNBOUND:                -0.938
REMARK SMILES CCCCCCC=CCCCCCCCC(=O)[O-]
REMARK SMILES IDX 10 1 11 2 12 3 13 4 14 5 15 6 16 7 17 8 18 9 9 10 8 11 7 12
REMARK SMILES IDX 6 13 5 14 4 15 3 16 2 17 1 18
REMARK H PARENT
REMARK Flexibility Score: inf
ROOT
ATOM      1  C   UNL     1       6.438  -8.165  16.192  1.00  0.00     0.004 C 
ENDROOT
BRANCH   1   2
ATOM      2  C   UNL     1       7.042  -6.986  16.976  1.00  0.00     0.000 C 
BRANCH   2   3
ATOM      3  C   UNL     1       7.163  -7.268  18.484  1.00  0.00     0.000 C 
BRANCH   3   4
ATOM      4  C   UNL     1       5.826  -7.478  19.218  1.00  0.00     0.000 C 
BRANCH   4   5
ATOM      5  C   UNL     1       6.005  -7.746  20.723  1.00  0.00     0.006 C 
BRANCH   5   6
ATOM      6  C   UNL     1       7.146  -6.917  21.326  1.00  0.00     0.053 C 
BRANCH   6   7
ATOM      7  C   UNL     1       6.632  -5.762  22.128  1.00  0.00     0.041 C 
ATOM      8  O   UNL     1       5.461  -5.782  22.591  1.00  0.00    -0.550 OA
ATOM      9  O   UNL     1       7.436  -4.649  22.341  1.00  0.00    -0.550 OA
ENDBRANCH   6   7
ENDBRANCH   5   6
ENDBRANCH   4   5
ENDBRANCH   3   4
ENDBRANCH   2   3
ENDBRANCH   1   2
BRANCH   1  10
ATOM     10  C   UNL     1       6.466  -7.925  14.675  1.00  0.00     0.027 C 
BRANCH  10  11
ATOM     11  C   UNL     1       5.202  -7.263  14.184  1.00  0.00    -0.031 C 
ATOM     12  C   UNL     1       5.134  -6.428  13.130  1.00  0.00    -0.031 C 
BRANCH  12  13
ATOM     13  C   UNL     1       6.325  -5.944  12.340  1.00  0.00     0.027 C 
BRANCH  13  14
ATOM     14  C   UNL     1       6.652  -4.474  12.641  1.00  0.00     0.004 C 
BRANCH  14  15
ATOM     15  C   UNL     1       5.418  -3.694  13.125  1.00  0.00     0.000 C 
BRANCH  15  16
ATOM     16  C   UNL     1       5.686  -2.886  14.408  1.00  0.00    -0.000 C 
BRANCH  16  17
ATOM     17  C   UNL     1       5.971  -3.735  15.660  1.00  0.00    -0.003 C 
ATOM     18  C   UNL     1       4.700  -4.237  16.344  1.00  0.00     0.004 C 
ENDBRANCH  16  17
ENDBRANCH  15  16
ENDBRANCH  14  15
ENDBRANCH  13  14
ENDBRANCH  12  13
ENDBRANCH  10  11
ENDBRANCH   1  10
TORSDOF 13
ENDMDL
