MODEL 1
REMARK VINA RESULT:    -4.668      0.000      0.000
REMARK INTER + INTRA:          -5.294
REMARK INTER:                  -5.077
REMARK INTRA:                  -0.217
REMARK UNBOUND:                -0.217
REMARK SMILES O=C([O-])c1ccccc1O
REMARK SMILES IDX 4 1 9 2 5 3 8 4 6 5 7 6 2 7 1 8 3 9 10 10
REMARK H PARENT 10 11
REMARK Flexibility Score: inf
ROOT
ATOM      1  C   UNL     1       6.714   7.038  13.058  1.00  0.00     0.039 A 
ATOM      2  C   UNL     1       6.736   5.624  12.956  1.00  0.00     0.124 A 
ATOM      3  C   UNL     1       5.518   7.723  12.773  1.00  0.00     0.014 A 
ATOM      4  C   UNL     1       5.558   4.934  12.637  1.00  0.00     0.047 A 
ATOM      5  C   UNL     1       4.359   7.022  12.436  1.00  0.00     0.001 A 
ATOM      6  C   UNL     1       4.376   5.629  12.377  1.00  0.00     0.004 A 
ENDROOT
BRANCH   1   7
ATOM      7  C   UNL     1       7.894   7.821  13.491  1.00  0.00     0.075 C 
ATOM      8  O   UNL     1       8.946   7.813  12.800  1.00  0.00    -0.545 OA
ATOM      9  O   UNL     1       7.837   8.624  14.623  1.00  0.00    -0.545 OA
ENDBRANCH   1   7
BRANCH   2  10
ATOM     10  O   UNL     1       7.902   4.875  13.126  1.00  0.00    -0.507 OA
ATOM     11  H   UNL     1       8.388   4.424  12.364  1.00  0.00     0.293 HD
ENDBRANCH   2  10
TORSDOF 2
ENDMDL
MODEL 2
REMARK VINA RESULT:    -4.379      2.547      3.313
REMARK INTER + INTRA:          -4.980
REMARK INTER:                  -4.737
REMARK INTRA:                  -0.243
REMARK UNBOUND:                -0.217
REMARK SMILES O=C([O-])c1ccccc1O
REMARK SMILES IDX 4 1 9 2 5 3 8 4 6 5 7 6 2 7 1 8 3 9 10 10
REMARK H PARENT 10 11
REMARK Flexibility Score: inf
ROOT
ATOM      1  C   UNL     1       5.744   7.212  12.289  1.00  0.00     0.039 A 
ATOM      2  C   UNL     1       5.341   5.870  12.505  1.00  0.00     0.124 A 
ATOM      3  C   UNL     1       7.116   7.526  12.327  1.00  0.00     0.014 A 
ATOM      4  C   UNL     1       6.312   4.876  12.691  1.00  0.00     0.047 A 
ATOM      5  C   UNL     1       8.069   6.528  12.533  1.00  0.00     0.001 A 
ATOM      6  C   UNL     1       7.669   5.203  12.706  1.00  0.00     0.004 A 
ENDROOT
BRANCH   1   7
ATOM      7  C   UNL     1       4.778   8.291  11.984  1.00  0.00     0.075 C 
ATOM      8  O   UNL     1       3.805   8.504  12.755  1.00  0.00    -0.545 OA
ATOM      9  O   UNL     1       4.965   9.125  10.889  1.00  0.00    -0.545 OA
ENDBRANCH   1   7
BRANCH   2  10
ATOM     10  O   UNL     1       4.000   5.490  12.581  1.00  0.00    -0.507 OA
ATOM     11  H   UNL     1       3.673   4.714  13.139  1.00  0.00     0.293 HD
ENDBRANCH   2  10
TORSDOF 2
ENDMDL
MODEL 3
REMARK VINA RESULT:    -4.115      1.196      2.931
REMARK INTER + INTRA:          -4.693
REMARK INTER:                  -4.526
REMARK INTRA:                  -0.167
REMARK UNBOUND:                -0.217
REMARK SMILES O=C([O-])c1ccccc1O
REMARK SMILES IDX 4 1 9 2 5 3 8 4 6 5 7 6 2 7 1 8 3 9 10 10
REMARK H PARENT 10 11
REMARK Flexibility Score: inf
ROOT
ATOM      1  C   UNL     1       6.292   6.554  12.678  1.00  0.00     0.039 A 
ATOM      2  C   UNL     1       6.861   7.818  12.385  1.00  0.00     0.124 A 
ATOM      3  C   UNL     1       4.914   6.361  12.465  1.00  0.00     0.014 A 
ATOM      4  C   UNL     1       6.061   8.828  11.834  1.00  0.00     0.047 A 
ATOM      5  C   UNL     1       4.126   7.384  11.934  1.00  0.00     0.001 A 
ATOM      6  C   UNL     1       4.700   8.613  11.610  1.00  0.00     0.004 A 
ENDROOT
BRANCH   1   7
ATOM      7  C   UNL     1       7.100   5.413  13.164  1.00  0.00     0.075 C 
ATOM      8  O   UNL     1       6.835   4.876  14.272  1.00  0.00    -0.545 OA
ATOM      9  O   UNL     1       8.114   4.875  12.380  1.00  0.00    -0.545 OA
ENDBRANCH   1   7
BRANCH   2  10
ATOM     10  O   UNL     1       8.197   8.124  12.657  1.00  0.00    -0.507 OA
ATOM     11  H   UNL     1       8.642   8.982  12.362  1.00  0.00     0.293 HD
ENDBRANCH   2  10
TORSDOF 2
ENDMDL
MODEL 4
REMARK VINA RESULT:    -4.105      1.187      2.185
REMARK INTER + INTRA:          -4.682
REMARK INTER:                  -4.460
REMARK INTRA:                  -0.222
REMARK UNBOUND:                -0.217
REMARK SMILES O=C([O-])c1ccccc1O
REMARK SMILES IDX 4 1 9 2 5 3 8 4 6 5 7 6 2 7 1 8 3 9 10 10
REMARK H PARENT 10 11
REMARK Flexibility Score: inf
ROOT
ATOM      1  C   UNL     1       6.588   7.039  13.024  1.00  0.00     0.039 A 
ATOM      2  C   UNL     1       5.458   7.598  12.375  1.00  0.00     0.124 A 
ATOM      3  C   UNL     1       6.568   5.676  13.375  1.00  0.00     0.014 A 
ATOM      4  C   UNL     1       4.373   6.775  12.042  1.00  0.00     0.047 A 
ATOM      5  C   UNL     1       5.470   4.875  13.054  1.00  0.00     0.001 A 
ATOM      6  C   UNL     1       4.378   5.421  12.381  1.00  0.00     0.004 A 
ENDROOT
BRANCH   1   7
ATOM      7  C   UNL     1       7.808   7.827  13.311  1.00  0.00     0.075 C 
ATOM      8  O   UNL     1       8.905   7.510  12.778  1.00  0.00    -0.545 OA
ATOM      9  O   UNL     1       7.751   8.960  14.112  1.00  0.00    -0.545 OA
ENDBRANCH   1   7
BRANCH   2  10
ATOM     10  O   UNL     1       5.356   8.959  12.080  1.00  0.00    -0.507 OA
ATOM     11  H   UNL     1       4.709   9.581  12.543  1.00  0.00     0.293 HD
ENDBRANCH   2  10
TORSDOF 2
ENDMDL
MODEL 5
REMARK VINA RESULT:    -3.971      2.199      3.236
REMARK INTER + INTRA:          -4.536
REMARK INTER:                  -4.283
REMARK INTRA:                  -0.253
REMARK UNBOUND:                -0.217
REMARK SMILES O=C([O-])c1ccccc1O
REMARK SMILES IDX 4 1 9 2 5 3 8 4 6 5 7 6 2 7 1 8 3 9 10 10
REMARK H PARENT 10 11
REMARK Flexibility Score: inf
ROOT
ATOM      1  C   UNL     1       5.600   7.207  12.310  1.00  0.00     0.039 A 
ATOM      2  C   UNL     1       7.013   7.275  12.406  1.00  0.00     0.124 A 
ATOM      3  C   UNL     1       4.955   5.989  12.597  1.00  0.00     0.014 A 
ATOM      4  C   UNL     1       7.732   6.153  12.841  1.00  0.00     0.047 A 
ATOM      5  C   UNL     1       5.688   4.875  13.009  1.00  0.00     0.001 A 
ATOM      6  C   UNL     1       7.074   4.959  13.140  1.00  0.00     0.004 A 
ENDROOT
BRANCH   1   7
ATOM      7  C   UNL     1       4.771   8.382  11.958  1.00  0.00     0.075 C 
ATOM      8  O   UNL     1       3.738   8.650  12.627  1.00  0.00    -0.545 OA
ATOM      9  O   UNL     1       5.153   9.241  10.935  1.00  0.00    -0.545 OA
ENDBRANCH   1   7
BRANCH   2  10
ATOM     10  O   UNL     1       7.738   8.413  12.047  1.00  0.00    -0.507 OA
ATOM     11  H   UNL     1       8.723   8.527  12.238  1.00  0.00     0.293 HD
ENDBRANCH   2  10
TORSDOF 2
ENDMDL
MODEL 6
REMARK VINA RESULT:    -3.776      1.863      3.013
REMARK INTER + INTRA:          -4.324
REMARK INTER:                  -4.086
REMARK INTRA:                  -0.238
REMARK UNBOUND:                -0.217
REMARK SMILES O=C([O-])c1ccccc1O
REMARK SMILES IDX 4 1 9 2 5 3 8 4 6 5 7 6 2 7 1 8 3 9 10 10
REMARK H PARENT 10 11
REMARK Flexibility Score: inf
ROOT
ATOM      1  C   UNL     1       6.290   6.530  12.621  1.00  0.00     0.039 A 
ATOM      2  C   UNL     1       4.896   6.467  12.372  1.00  0.00     0.124 A 
ATOM      3  C   UNL     1       6.983   7.718  12.320  1.00  0.00     0.014 A 
ATOM      4  C   UNL     1       4.226   7.601  11.893  1.00  0.00     0.047 A 
ATOM      5  C   UNL     1       6.303   8.832  11.824  1.00  0.00     0.001 A 
ATOM      6  C   UNL     1       4.925   8.777  11.619  1.00  0.00     0.004 A 
ENDROOT
BRANCH   1   7
ATOM      7  C   UNL     1       7.041   5.405  13.223  1.00  0.00     0.075 C 
ATOM      8  O   UNL     1       6.635   4.875  14.291  1.00  0.00    -0.545 OA
ATOM      9  O   UNL     1       8.158   4.875  12.589  1.00  0.00    -0.545 OA
ENDBRANCH   1   7
BRANCH   2  10
ATOM     10  O   UNL     1       4.152   5.299  12.550  1.00  0.00    -0.507 OA
ATOM     11  H   UNL     1       4.085   4.812  13.432  1.00  0.00     0.293 HD
ENDBRANCH   2  10
TORSDOF 2
ENDMDL
MODEL 7
REMARK VINA RESULT:    -3.486      2.624      4.040
REMARK INTER + INTRA:          -4.009
REMARK INTER:                  -3.758
REMARK INTRA:                  -0.251
REMARK UNBOUND:                -0.217
REMARK SMILES O=C([O-])c1ccccc1O
REMARK SMILES IDX 4 1 9 2 5 3 8 4 6 5 7 6 2 7 1 8 3 9 10 10
REMARK H PARENT 10 11
REMARK Flexibility Score: inf
ROOT
ATOM      1  C   UNL     1       5.424   6.301  12.586  1.00  0.00     0.039 A 
ATOM      2  C   UNL     1       5.864   7.611  12.270  1.00  0.00     0.124 A 
ATOM      3  C   UNL     1       6.382   5.282  12.749  1.00  0.00     0.014 A 
ATOM      4  C   UNL     1       7.237   7.880  12.187  1.00  0.00     0.047 A 
ATOM      5  C   UNL     1       7.745   5.562  12.642  1.00  0.00     0.001 A 
ATOM      6  C   UNL     1       8.173   6.861  12.370  1.00  0.00     0.004 A 
ENDROOT
BRANCH   1   7
ATOM      7  C   UNL     1       3.996   5.971  12.791  1.00  0.00     0.075 C 
ATOM      8  O   UNL     1       3.534   4.875  12.375  1.00  0.00    -0.545 OA
ATOM      9  O   UNL     1       3.163   6.827  13.500  1.00  0.00    -0.545 OA
ENDBRANCH   1   7
BRANCH   2  10
ATOM     10  O   UNL     1       4.979   8.656  11.996  1.00  0.00    -0.507 OA
ATOM     11  H   UNL     1       4.901   9.483  12.572  1.00  0.00     0.293 HD
ENDBRANCH   2  10
TORSDOF 2
ENDMDL
MODEL 8
REMARK VINA RESULT:    -1.983      2.191      3.453
REMARK INTER + INTRA:          -2.374
REMARK INTER:                  -2.128
REMARK INTRA:                  -0.246
REMARK UNBOUND:                -0.217
REMARK SMILES O=C([O-])c1ccccc1O
REMARK SMILES IDX 4 1 9 2 5 3 8 4 6 5 7 6 2 7 1 8 3 9 10 10
REMARK H PARENT 10 11
REMARK Flexibility Score: inf
ROOT
ATOM      1  C   UNL     1       5.695   6.726  12.888  1.00  0.00     0.039 A 
ATOM      2  C   UNL     1       6.801   6.101  13.518  1.00  0.00     0.124 A 
ATOM      3  C   UNL     1       5.864   8.007  12.330  1.00  0.00     0.014 A 
ATOM      4  C   UNL     1       8.048   6.739  13.520  1.00  0.00     0.047 A 
ATOM      5  C   UNL     1       7.109   8.638  12.360  1.00  0.00     0.001 A 
ATOM      6  C   UNL     1       8.202   8.001  12.946  1.00  0.00     0.004 A 
ENDROOT
BRANCH   1   7
ATOM      7  C   UNL     1       4.377   6.064  12.758  1.00  0.00     0.075 C 
ATOM      8  O   UNL     1       4.305   4.875  12.348  1.00  0.00    -0.545 OA
ATOM      9  O   UNL     1       3.213   6.715  13.147  1.00  0.00    -0.545 OA
ENDBRANCH   1   7
BRANCH   2  10
ATOM     10  O   UNL     1       6.696   4.875  14.179  1.00  0.00    -0.507 OA
ATOM     11  H   UNL     1       6.236   4.764  15.072  1.00  0.00     0.293 HD
ENDBRANCH   2  10
TORSDOF 2
ENDMDL
