MODEL 1
REMARK VINA RESULT:    -7.000      0.000      0.000
REMARK INTER + INTRA:          -8.539
REMARK INTER:                  -8.228
REMARK INTRA:                  -0.311
REMARK UNBOUND:                -0.311
REMARK SMILES O=c1cc(-c2ccc(O)c(O)c2)oc2cc(O)cc(O)c12
REMARK SMILES IDX 4 1 3 2 2 3 1 4 21 5 19 6 18 7 16 8 15 9 14 10 13 11 5 12
REMARK SMILES IDX 6 13 7 14 8 15 12 16 10 17 9 18 11 20 20 22 17 24
REMARK H PARENT 9 19 11 21 20 23 17 25
REMARK Flexibility Score: inf
ROOT
ATOM      1  C   UNL     1       2.111   3.839 -22.816  1.00  0.00     0.138 A 
ATOM      2  C   UNL     1       1.360   2.657 -22.751  1.00  0.00     0.100 A 
ATOM      3  C   UNL     1       0.886   2.208 -21.518  1.00  0.00     0.197 A 
ATOM      4  O   UNL     1       0.268   1.112 -21.483  1.00  0.00    -0.289 OA
ATOM      5  C   UNL     1       1.137   2.965 -20.349  1.00  0.00     0.107 A 
ATOM      6  C   UNL     1       0.668   2.625 -19.045  1.00  0.00     0.134 A 
ATOM      7  C   UNL     1       1.078   3.388 -17.944  1.00  0.00     0.093 A 
ATOM      8  C   UNL     1       1.892   4.512 -18.109  1.00  0.00     0.123 A 
ATOM      9  C   UNL     1       2.311   4.882 -19.384  1.00  0.00     0.094 A 
ATOM     10  C   UNL     1       1.947   4.122 -20.498  1.00  0.00     0.146 A 
ATOM     11  O   UNL     1       2.380   4.502 -21.696  1.00  0.00    -0.456 OA
ENDROOT
BRANCH   1  12
ATOM     12  C   UNL     1       2.639   4.363 -24.101  1.00  0.00     0.021 A 
ATOM     13  C   UNL     1       2.804   3.534 -25.225  1.00  0.00     0.016 A 
ATOM     14  C   UNL     1       3.293   4.057 -26.423  1.00  0.00     0.051 A 
ATOM     15  C   UNL     1       3.622   5.411 -26.532  1.00  0.00     0.157 A 
ATOM     16  C   UNL     1       2.957   5.727 -24.214  1.00  0.00     0.062 A 
ATOM     17  C   UNL     1       3.449   6.259 -25.413  1.00  0.00     0.158 A 
BRANCH  15  18
ATOM     18  O   UNL     1       4.109   5.868 -27.758  1.00  0.00    -0.504 OA
ATOM     19  H   UNL     1       5.073   6.118 -27.924  1.00  0.00     0.293 HD
ENDBRANCH  15  18
BRANCH  17  20
ATOM     20  O   UNL     1       3.751   7.622 -25.446  1.00  0.00    -0.504 OA
ATOM     21  H   UNL     1       4.652   8.006 -25.202  1.00  0.00     0.293 HD
ENDBRANCH  17  20
ENDBRANCH   1  12
BRANCH   6  22
ATOM     22  O   UNL     1      -0.215   1.574 -18.781  1.00  0.00    -0.507 OA
ATOM     23  H   UNL     1      -0.804   1.507 -17.965  1.00  0.00     0.293 HD
ENDBRANCH   6  22
BRANCH   8  24
ATOM     24  O   UNL     1       2.283   5.273 -17.009  1.00  0.00    -0.508 OA
ATOM     25  H   UNL     1       3.256   5.501 -16.840  1.00  0.00     0.293 HD
ENDBRANCH   8  24
TORSDOF 5
ENDMDL
MODEL 2
REMARK VINA RESULT:    -6.898      1.332      3.111
REMARK INTER + INTRA:          -8.419
REMARK INTER:                  -8.117
REMARK INTRA:                  -0.302
REMARK UNBOUND:                -0.311
REMARK SMILES O=c1cc(-c2ccc(O)c(O)c2)oc2cc(O)cc(O)c12
REMARK SMILES IDX 4 1 3 2 2 3 1 4 21 5 19 6 18 7 16 8 15 9 14 10 13 11 5 12
REMARK SMILES IDX 6 13 7 14 8 15 12 16 10 17 9 18 11 20 20 22 17 24
REMARK H PARENT 9 19 11 21 20 23 17 25
REMARK Flexibility Score: inf
ROOT
ATOM      1  C   UNL     1       2.281   4.500 -22.172  1.00  0.00     0.138 A 
ATOM      2  C   UNL     1       2.625   5.053 -20.931  1.00  0.00     0.100 A 
ATOM      3  C   UNL     1       2.157   4.460 -19.757  1.00  0.00     0.197 A 
ATOM      4  O   UNL     1       2.431   5.015 -18.662  1.00  0.00    -0.289 OA
ATOM      5  C   UNL     1       1.367   3.288 -19.828  1.00  0.00     0.107 A 
ATOM      6  C   UNL     1       0.869   2.575 -18.697  1.00  0.00     0.134 A 
ATOM      7  C   UNL     1      -0.000   1.493 -18.891  1.00  0.00     0.093 A 
ATOM      8  C   UNL     1      -0.341   1.064 -20.177  1.00  0.00     0.123 A 
ATOM      9  C   UNL     1       0.184   1.720 -21.287  1.00  0.00     0.094 A 
ATOM     10  C   UNL     1       1.025   2.824 -21.126  1.00  0.00     0.146 A 
ATOM     11  O   UNL     1       1.493   3.430 -22.212  1.00  0.00    -0.456 OA
ENDROOT
BRANCH   1  12
ATOM     12  C   UNL     1       2.753   5.089 -23.451  1.00  0.00     0.021 A 
ATOM     13  C   UNL     1       2.931   6.476 -23.604  1.00  0.00     0.016 A 
ATOM     14  C   UNL     1       3.385   7.000 -24.815  1.00  0.00     0.051 A 
ATOM     15  C   UNL     1       3.678   6.161 -25.894  1.00  0.00     0.157 A 
ATOM     16  C   UNL     1       3.059   4.244 -24.531  1.00  0.00     0.062 A 
ATOM     17  C   UNL     1       3.515   4.763 -25.750  1.00  0.00     0.158 A 
BRANCH  15  18
ATOM     18  O   UNL     1       4.125   6.751 -27.078  1.00  0.00    -0.504 OA
ATOM     19  H   UNL     1       4.072   6.308 -27.984  1.00  0.00     0.293 HD
ENDBRANCH  15  18
BRANCH  17  20
ATOM     20  O   UNL     1       3.790   3.862 -26.780  1.00  0.00    -0.504 OA
ATOM     21  H   UNL     1       3.354   2.955 -26.868  1.00  0.00     0.293 HD
ENDBRANCH  17  20
ENDBRANCH   1  12
BRANCH   6  22
ATOM     22  O   UNL     1       1.213   2.868 -17.374  1.00  0.00    -0.507 OA
ATOM     23  H   UNL     1       0.648   2.648 -16.568  1.00  0.00     0.293 HD
ENDBRANCH   6  22
BRANCH   8  24
ATOM     24  O   UNL     1      -1.194  -0.022 -20.360  1.00  0.00    -0.508 OA
ATOM     25  H   UNL     1      -2.054   0.062 -20.890  1.00  0.00     0.293 HD
ENDBRANCH   8  24
TORSDOF 5
ENDMDL
MODEL 3
REMARK VINA RESULT:    -6.673      1.825      6.907
REMARK INTER + INTRA:          -8.155
REMARK INTER:                  -7.873
REMARK INTRA:                  -0.282
REMARK UNBOUND:                -0.311
REMARK SMILES O=c1cc(-c2ccc(O)c(O)c2)oc2cc(O)cc(O)c12
REMARK SMILES IDX 4 1 3 2 2 3 1 4 21 5 19 6 18 7 16 8 15 9 14 10 13 11 5 12
REMARK SMILES IDX 6 13 7 14 8 15 12 16 10 17 9 18 11 20 20 22 17 24
REMARK H PARENT 9 19 11 21 20 23 17 25
REMARK Flexibility Score: inf
ROOT
ATOM      1  C   UNL     1       1.209   3.436 -22.226  1.00  0.00     0.138 A 
ATOM      2  C   UNL     1       0.354   2.978 -23.238  1.00  0.00     0.100 A 
ATOM      3  C   UNL     1       0.391   3.577 -24.497  1.00  0.00     0.197 A 
ATOM      4  O   UNL     1      -0.432   3.187 -25.365  1.00  0.00    -0.289 OA
ATOM      5  C   UNL     1       1.314   4.619 -24.753  1.00  0.00     0.107 A 
ATOM      6  C   UNL     1       1.469   5.275 -26.011  1.00  0.00     0.134 A 
ATOM      7  C   UNL     1       2.335   6.372 -26.115  1.00  0.00     0.093 A 
ATOM      8  C   UNL     1       3.093   6.798 -25.021  1.00  0.00     0.123 A 
ATOM      9  C   UNL     1       2.989   6.129 -23.804  1.00  0.00     0.094 A 
ATOM     10  C   UNL     1       2.109   5.054 -23.660  1.00  0.00     0.146 A 
ATOM     11  O   UNL     1       2.029   4.452 -22.478  1.00  0.00    -0.456 OA
ENDROOT
BRANCH   1  12
ATOM     12  C   UNL     1       1.212   2.834 -20.869  1.00  0.00     0.021 A 
ATOM     13  C   UNL     1       1.390   3.616 -19.714  1.00  0.00     0.016 A 
ATOM     14  C   UNL     1       1.377   3.023 -18.451  1.00  0.00     0.051 A 
ATOM     15  C   UNL     1       1.181   1.647 -18.307  1.00  0.00     0.157 A 
ATOM     16  C   UNL     1       1.001   1.451 -20.725  1.00  0.00     0.062 A 
ATOM     17  C   UNL     1       0.988   0.850 -19.459  1.00  0.00     0.158 A 
BRANCH  15  18
ATOM     18  O   UNL     1       1.183   1.118 -17.015  1.00  0.00    -0.504 OA
ATOM     19  H   UNL     1       0.384   1.132 -16.398  1.00  0.00     0.293 HD
ENDBRANCH  15  18
BRANCH  17  20
ATOM     20  O   UNL     1       0.782  -0.530 -19.397  1.00  0.00    -0.504 OA
ATOM     21  H   UNL     1       1.023  -1.101 -18.600  1.00  0.00     0.293 HD
ENDBRANCH  17  20
ENDBRANCH   1  12
BRANCH   6  22
ATOM     22  O   UNL     1       0.824   4.878 -27.185  1.00  0.00    -0.507 OA
ATOM     23  H   UNL     1       0.244   4.057 -27.276  1.00  0.00     0.293 HD
ENDBRANCH   6  22
BRANCH   8  24
ATOM     24  O   UNL     1       3.962   7.880 -25.138  1.00  0.00    -0.508 OA
ATOM     25  H   UNL     1       4.967   7.752 -25.188  1.00  0.00     0.293 HD
ENDBRANCH   8  24
TORSDOF 5
ENDMDL
MODEL 4
REMARK VINA RESULT:    -6.652      1.659      2.476
REMARK INTER + INTRA:          -8.130
REMARK INTER:                  -7.837
REMARK INTRA:                  -0.293
REMARK UNBOUND:                -0.311
REMARK SMILES O=c1cc(-c2ccc(O)c(O)c2)oc2cc(O)cc(O)c12
REMARK SMILES IDX 4 1 3 2 2 3 1 4 21 5 19 6 18 7 16 8 15 9 14 10 13 11 5 12
REMARK SMILES IDX 6 13 7 14 8 15 12 16 10 17 9 18 11 20 20 22 17 24
REMARK H PARENT 9 19 11 21 20 23 17 25
REMARK Flexibility Score: inf
ROOT
ATOM      1  C   UNL     1       1.476   3.914 -22.932  1.00  0.00     0.138 A 
ATOM      2  C   UNL     1       0.681   2.995 -23.632  1.00  0.00     0.100 A 
ATOM      3  C   UNL     1       0.060   1.953 -22.943  1.00  0.00     0.197 A 
ATOM      4  O   UNL     1      -0.595   1.109 -23.607  1.00  0.00    -0.289 OA
ATOM      5  C   UNL     1       0.210   1.851 -21.539  1.00  0.00     0.107 A 
ATOM      6  C   UNL     1      -0.410   0.854 -20.727  1.00  0.00     0.134 A 
ATOM      7  C   UNL     1      -0.094   0.781 -19.364  1.00  0.00     0.093 A 
ATOM      8  C   UNL     1       0.771   1.706 -18.774  1.00  0.00     0.123 A 
ATOM      9  C   UNL     1       1.338   2.715 -19.548  1.00  0.00     0.094 A 
ATOM     10  C   UNL     1       1.071   2.792 -20.917  1.00  0.00     0.146 A 
ATOM     11  O   UNL     1       1.644   3.762 -21.622  1.00  0.00    -0.456 OA
ENDROOT
BRANCH   1  12
ATOM     12  C   UNL     1       2.158   5.041 -23.616  1.00  0.00     0.021 A 
ATOM     13  C   UNL     1       2.757   6.089 -22.894  1.00  0.00     0.016 A 
ATOM     14  C   UNL     1       3.401   7.130 -23.563  1.00  0.00     0.051 A 
ATOM     15  C   UNL     1       3.469   7.151 -24.960  1.00  0.00     0.157 A 
ATOM     16  C   UNL     1       2.238   5.054 -25.019  1.00  0.00     0.062 A 
ATOM     17  C   UNL     1       2.881   6.097 -25.698  1.00  0.00     0.158 A 
BRANCH  15  18
ATOM     18  O   UNL     1       4.124   8.224 -25.567  1.00  0.00    -0.504 OA
ATOM     19  H   UNL     1       4.754   8.847 -25.082  1.00  0.00     0.293 HD
ENDBRANCH  15  18
BRANCH  17  20
ATOM     20  O   UNL     1       2.912   6.045 -27.093  1.00  0.00    -0.504 OA
ATOM     21  H   UNL     1       2.316   5.448 -27.648  1.00  0.00     0.293 HD
ENDBRANCH  17  20
ENDBRANCH   1  12
BRANCH   6  22
ATOM     22  O   UNL     1      -1.352  -0.064 -21.199  1.00  0.00    -0.507 OA
ATOM     23  H   UNL     1      -1.221  -1.064 -21.224  1.00  0.00     0.293 HD
ENDBRANCH   6  22
BRANCH   8  24
ATOM     24  O   UNL     1       1.067   1.634 -17.415  1.00  0.00    -0.508 OA
ATOM     25  H   UNL     1       0.371   1.846 -16.708  1.00  0.00     0.293 HD
ENDBRANCH   8  24
TORSDOF 5
ENDMDL
MODEL 5
REMARK VINA RESULT:    -6.643      1.794      6.720
REMARK INTER + INTRA:          -8.119
REMARK INTER:                  -7.812
REMARK INTRA:                  -0.307
REMARK UNBOUND:                -0.311
REMARK SMILES O=c1cc(-c2ccc(O)c(O)c2)oc2cc(O)cc(O)c12
REMARK SMILES IDX 4 1 3 2 2 3 1 4 21 5 19 6 18 7 16 8 15 9 14 10 13 11 5 12
REMARK SMILES IDX 6 13 7 14 8 15 12 16 10 17 9 18 11 20 20 22 17 24
REMARK H PARENT 9 19 11 21 20 23 17 25
REMARK Flexibility Score: inf
ROOT
ATOM      1  C   UNL     1       1.172   3.450 -22.332  1.00  0.00     0.138 A 
ATOM      2  C   UNL     1       0.327   3.004 -23.358  1.00  0.00     0.100 A 
ATOM      3  C   UNL     1       0.376   3.619 -24.610  1.00  0.00     0.197 A 
ATOM      4  O   UNL     1      -0.437   3.238 -25.491  1.00  0.00    -0.289 OA
ATOM      5  C   UNL     1       1.302   4.664 -24.843  1.00  0.00     0.107 A 
ATOM      6  C   UNL     1       1.469   5.336 -26.091  1.00  0.00     0.134 A 
ATOM      7  C   UNL     1       2.334   6.435 -26.172  1.00  0.00     0.093 A 
ATOM      8  C   UNL     1       3.081   6.847 -25.066  1.00  0.00     0.123 A 
ATOM      9  C   UNL     1       2.965   6.163 -23.859  1.00  0.00     0.094 A 
ATOM     10  C   UNL     1       2.084   5.086 -23.737  1.00  0.00     0.146 A 
ATOM     11  O   UNL     1       1.993   4.469 -22.563  1.00  0.00    -0.456 OA
ENDROOT
BRANCH   1  12
ATOM     12  C   UNL     1       1.161   2.831 -20.983  1.00  0.00     0.021 A 
ATOM     13  C   UNL     1       0.859   1.470 -20.796  1.00  0.00     0.016 A 
ATOM     14  C   UNL     1       0.867   0.914 -19.517  1.00  0.00     0.051 A 
ATOM     15  C   UNL     1       1.180   1.692 -18.398  1.00  0.00     0.157 A 
ATOM     16  C   UNL     1       1.489   3.611 -19.861  1.00  0.00     0.062 A 
ATOM     17  C   UNL     1       1.498   3.060 -18.573  1.00  0.00     0.158 A 
BRANCH  15  18
ATOM     18  O   UNL     1       1.166   1.074 -17.147  1.00  0.00    -0.504 OA
ATOM     19  H   UNL     1       1.821   0.360 -16.863  1.00  0.00     0.293 HD
ENDBRANCH  15  18
BRANCH  17  20
ATOM     20  O   UNL     1       1.826   3.900 -17.507  1.00  0.00    -0.504 OA
ATOM     21  H   UNL     1       2.657   3.799 -16.944  1.00  0.00     0.293 HD
ENDBRANCH  17  20
ENDBRANCH   1  12
BRANCH   6  22
ATOM     22  O   UNL     1       0.835   4.953 -27.277  1.00  0.00    -0.507 OA
ATOM     23  H   UNL     1       0.906   5.446 -28.154  1.00  0.00     0.293 HD
ENDBRANCH   6  22
BRANCH   8  24
ATOM     24  O   UNL     1       3.950   7.932 -25.160  1.00  0.00    -0.508 OA
ATOM     25  H   UNL     1       4.303   8.403 -24.335  1.00  0.00     0.293 HD
ENDBRANCH   8  24
TORSDOF 5
ENDMDL
MODEL 6
REMARK VINA RESULT:    -6.513      1.521      1.552
REMARK INTER + INTRA:          -7.967
REMARK INTER:                  -7.651
REMARK INTRA:                  -0.316
REMARK UNBOUND:                -0.311
REMARK SMILES O=c1cc(-c2ccc(O)c(O)c2)oc2cc(O)cc(O)c12
REMARK SMILES IDX 4 1 3 2 2 3 1 4 21 5 19 6 18 7 16 8 15 9 14 10 13 11 5 12
REMARK SMILES IDX 6 13 7 14 8 15 12 16 10 17 9 18 11 20 20 22 17 24
REMARK H PARENT 9 19 11 21 20 23 17 25
REMARK Flexibility Score: inf
ROOT
ATOM      1  C   UNL     1       1.333   3.120 -22.682  1.00  0.00     0.138 A 
ATOM      2  C   UNL     1       1.138   1.739 -22.542  1.00  0.00     0.100 A 
ATOM      3  C   UNL     1       1.120   1.170 -21.268  1.00  0.00     0.197 A 
ATOM      4  O   UNL     1       1.006  -0.080 -21.177  1.00  0.00    -0.289 OA
ATOM      5  C   UNL     1       1.265   1.995 -20.127  1.00  0.00     0.107 A 
ATOM      6  C   UNL     1       1.222   1.531 -18.778  1.00  0.00     0.134 A 
ATOM      7  C   UNL     1       1.495   2.423 -17.732  1.00  0.00     0.093 A 
ATOM      8  C   UNL     1       1.751   3.773 -17.985  1.00  0.00     0.123 A 
ATOM      9  C   UNL     1       1.741   4.246 -19.294  1.00  0.00     0.094 A 
ATOM     10  C   UNL     1       1.507   3.374 -20.361  1.00  0.00     0.146 A 
ATOM     11  O   UNL     1       1.522   3.864 -21.596  1.00  0.00    -0.456 OA
ENDROOT
BRANCH   1  12
ATOM     12  C   UNL     1       1.360   3.777 -24.013  1.00  0.00     0.021 A 
ATOM     13  C   UNL     1       1.425   3.031 -25.204  1.00  0.00     0.016 A 
ATOM     14  C   UNL     1       1.438   3.676 -26.441  1.00  0.00     0.051 A 
ATOM     15  C   UNL     1       1.381   5.071 -26.523  1.00  0.00     0.157 A 
ATOM     16  C   UNL     1       1.289   5.178 -24.095  1.00  0.00     0.062 A 
ATOM     17  C   UNL     1       1.303   5.833 -25.334  1.00  0.00     0.158 A 
BRANCH  15  18
ATOM     18  O   UNL     1       1.402   5.652 -27.792  1.00  0.00    -0.504 OA
ATOM     19  H   UNL     1       0.579   5.803 -28.357  1.00  0.00     0.293 HD
ENDBRANCH  15  18
BRANCH  17  20
ATOM     20  O   UNL     1       1.239   7.227 -25.334  1.00  0.00    -0.504 OA
ATOM     21  H   UNL     1       0.636   7.764 -25.941  1.00  0.00     0.293 HD
ENDBRANCH  17  20
ENDBRANCH   1  12
BRANCH   6  22
ATOM     22  O   UNL     1       0.894   0.223 -18.412  1.00  0.00    -0.507 OA
ATOM     23  H   UNL     1       0.115  -0.034 -17.823  1.00  0.00     0.293 HD
ENDBRANCH   6  22
BRANCH   8  24
ATOM     24  O   UNL     1       2.006   4.655 -16.938  1.00  0.00    -0.508 OA
ATOM     25  H   UNL     1       2.647   4.419 -16.189  1.00  0.00     0.293 HD
ENDBRANCH   8  24
TORSDOF 5
ENDMDL
MODEL 7
REMARK VINA RESULT:    -6.439      2.766      3.259
REMARK INTER + INTRA:          -7.880
REMARK INTER:                  -7.602
REMARK INTRA:                  -0.278
REMARK UNBOUND:                -0.311
REMARK SMILES O=c1cc(-c2ccc(O)c(O)c2)oc2cc(O)cc(O)c12
REMARK SMILES IDX 4 1 3 2 2 3 1 4 21 5 19 6 18 7 16 8 15 9 14 10 13 11 5 12
REMARK SMILES IDX 6 13 7 14 8 15 12 16 10 17 9 18 11 20 20 22 17 24
REMARK H PARENT 9 19 11 21 20 23 17 25
REMARK Flexibility Score: inf
ROOT
ATOM      1  C   UNL     1       0.659   3.007 -23.446  1.00  0.00     0.138 A 
ATOM      2  C   UNL     1      -0.724   2.955 -23.668  1.00  0.00     0.100 A 
ATOM      3  C   UNL     1      -1.513   2.093 -22.905  1.00  0.00     0.197 A 
ATOM      4  O   UNL     1      -2.742   2.023 -23.170  1.00  0.00    -0.289 OA
ATOM      5  C   UNL     1      -0.918   1.305 -21.892  1.00  0.00     0.107 A 
ATOM      6  C   UNL     1      -1.630   0.422 -21.026  1.00  0.00     0.134 A 
ATOM      7  C   UNL     1      -0.919  -0.396 -20.138  1.00  0.00     0.093 A 
ATOM      8  C   UNL     1       0.473  -0.318 -20.045  1.00  0.00     0.123 A 
ATOM      9  C   UNL     1       1.172   0.579 -20.848  1.00  0.00     0.094 A 
ATOM     10  C   UNL     1       0.494   1.383 -21.768  1.00  0.00     0.146 A 
ATOM     11  O   UNL     1       1.201   2.216 -22.525  1.00  0.00    -0.456 OA
ENDROOT
BRANCH   1  12
ATOM     12  C   UNL     1       1.545   3.906 -24.228  1.00  0.00     0.021 A 
ATOM     13  C   UNL     1       2.788   3.472 -24.721  1.00  0.00     0.016 A 
ATOM     14  C   UNL     1       3.596   4.336 -25.462  1.00  0.00     0.051 A 
ATOM     15  C   UNL     1       3.184   5.644 -25.734  1.00  0.00     0.157 A 
ATOM     16  C   UNL     1       1.125   5.217 -24.512  1.00  0.00     0.062 A 
ATOM     17  C   UNL     1       1.930   6.090 -25.255  1.00  0.00     0.158 A 
BRANCH  15  18
ATOM     18  O   UNL     1       4.041   6.458 -26.477  1.00  0.00    -0.504 OA
ATOM     19  H   UNL     1       4.328   6.258 -27.425  1.00  0.00     0.293 HD
ENDBRANCH  15  18
BRANCH  17  20
ATOM     20  O   UNL     1       1.449   7.380 -25.489  1.00  0.00    -0.504 OA
ATOM     21  H   UNL     1       1.886   8.218 -25.134  1.00  0.00     0.293 HD
ENDBRANCH  17  20
ENDBRANCH   1  12
BRANCH   6  22
ATOM     22  O   UNL     1      -3.024   0.329 -20.980  1.00  0.00    -0.507 OA
ATOM     23  H   UNL     1      -3.565  -0.431 -21.365  1.00  0.00     0.293 HD
ENDBRANCH   6  22
BRANCH   8  24
ATOM     24  O   UNL     1       1.170  -1.125 -19.148  1.00  0.00    -0.508 OA
ATOM     25  H   UNL     1       2.172  -1.034 -19.021  1.00  0.00     0.293 HD
ENDBRANCH   8  24
TORSDOF 5
ENDMDL
MODEL 8
REMARK VINA RESULT:    -6.337      1.339      7.378
REMARK INTER + INTRA:          -7.759
REMARK INTER:                  -7.446
REMARK INTRA:                  -0.314
REMARK UNBOUND:                -0.311
REMARK SMILES O=c1cc(-c2ccc(O)c(O)c2)oc2cc(O)cc(O)c12
REMARK SMILES IDX 4 1 3 2 2 3 1 4 21 5 19 6 18 7 16 8 15 9 14 10 13 11 5 12
REMARK SMILES IDX 6 13 7 14 8 15 12 16 10 17 9 18 11 20 20 22 17 24
REMARK H PARENT 9 19 11 21 20 23 17 25
REMARK Flexibility Score: inf
ROOT
ATOM      1  C   UNL     1       2.328   4.402 -22.164  1.00  0.00     0.138 A 
ATOM      2  C   UNL     1       2.764   5.734 -22.159  1.00  0.00     0.100 A 
ATOM      3  C   UNL     1       3.227   6.314 -23.341  1.00  0.00     0.197 A 
ATOM      4  O   UNL     1       3.670   7.490 -23.292  1.00  0.00    -0.289 OA
ATOM      5  C   UNL     1       3.220   5.564 -24.542  1.00  0.00     0.107 A 
ATOM      6  C   UNL     1       3.630   6.065 -25.814  1.00  0.00     0.134 A 
ATOM      7  C   UNL     1       3.691   5.194 -26.910  1.00  0.00     0.093 A 
ATOM      8  C   UNL     1       3.300   3.858 -26.793  1.00  0.00     0.123 A 
ATOM      9  C   UNL     1       2.848   3.375 -25.568  1.00  0.00     0.094 A 
ATOM     10  C   UNL     1       2.809   4.209 -24.447  1.00  0.00     0.146 A 
ATOM     11  O   UNL     1       2.384   3.704 -23.294  1.00  0.00    -0.456 OA
ENDROOT
BRANCH   1  12
ATOM     12  C   UNL     1       1.825   3.737 -20.936  1.00  0.00     0.021 A 
ATOM     13  C   UNL     1       2.068   4.267 -19.656  1.00  0.00     0.016 A 
ATOM     14  C   UNL     1       1.574   3.625 -18.520  1.00  0.00     0.051 A 
ATOM     15  C   UNL     1       0.825   2.449 -18.630  1.00  0.00     0.157 A 
ATOM     16  C   UNL     1       1.061   2.562 -21.048  1.00  0.00     0.062 A 
ATOM     17  C   UNL     1       0.562   1.912 -19.912  1.00  0.00     0.158 A 
BRANCH  15  18
ATOM     18  O   UNL     1       0.364   1.856 -17.453  1.00  0.00    -0.504 OA
ATOM     19  H   UNL     1       0.930   1.727 -16.627  1.00  0.00     0.293 HD
ENDBRANCH  15  18
BRANCH  17  20
ATOM     20  O   UNL     1      -0.181   0.745 -20.103  1.00  0.00    -0.504 OA
ATOM     21  H   UNL     1       0.133  -0.040 -20.654  1.00  0.00     0.293 HD
ENDBRANCH  17  20
ENDBRANCH   1  12
BRANCH   6  22
ATOM     22  O   UNL     1       3.960   7.400 -26.059  1.00  0.00    -0.507 OA
ATOM     23  H   UNL     1       4.892   7.741 -26.239  1.00  0.00     0.293 HD
ENDBRANCH   6  22
BRANCH   8  24
ATOM     24  O   UNL     1       3.350   3.004 -27.892  1.00  0.00    -0.508 OA
ATOM     25  H   UNL     1       3.847   2.122 -27.857  1.00  0.00     0.293 HD
ENDBRANCH   8  24
TORSDOF 5
ENDMDL
MODEL 9
REMARK VINA RESULT:    -6.312      3.025      7.403
REMARK INTER + INTRA:          -7.730
REMARK INTER:                  -7.468
REMARK INTRA:                  -0.263
REMARK UNBOUND:                -0.311
REMARK SMILES O=c1cc(-c2ccc(O)c(O)c2)oc2cc(O)cc(O)c12
REMARK SMILES IDX 4 1 3 2 2 3 1 4 21 5 19 6 18 7 16 8 15 9 14 10 13 11 5 12
REMARK SMILES IDX 6 13 7 14 8 15 12 16 10 17 9 18 11 20 20 22 17 24
REMARK H PARENT 9 19 11 21 20 23 17 25
REMARK Flexibility Score: inf
ROOT
ATOM      1  C   UNL     1       0.773   2.556 -22.486  1.00  0.00     0.138 A 
ATOM      2  C   UNL     1       1.851   2.606 -23.380  1.00  0.00     0.100 A 
ATOM      3  C   UNL     1       1.634   2.997 -24.702  1.00  0.00     0.197 A 
ATOM      4  O   UNL     1       2.609   2.972 -25.496  1.00  0.00    -0.289 OA
ATOM      5  C   UNL     1       0.335   3.372 -25.120  1.00  0.00     0.107 A 
ATOM      6  C   UNL     1       0.005   3.827 -26.432  1.00  0.00     0.134 A 
ATOM      7  C   UNL     1      -1.337   4.060 -26.763  1.00  0.00     0.093 A 
ATOM      8  C   UNL     1      -2.350   3.910 -25.813  1.00  0.00     0.123 A 
ATOM      9  C   UNL     1      -2.031   3.519 -24.516  1.00  0.00     0.094 A 
ATOM     10  C   UNL     1      -0.706   3.246 -24.164  1.00  0.00     0.146 A 
ATOM     11  O   UNL     1      -0.446   2.862 -22.919  1.00  0.00    -0.456 OA
ENDROOT
BRANCH   1  12
ATOM     12  C   UNL     1       0.948   2.148 -21.069  1.00  0.00     0.021 A 
ATOM     13  C   UNL     1       1.086   3.095 -20.039  1.00  0.00     0.016 A 
ATOM     14  C   UNL     1       1.238   2.682 -18.715  1.00  0.00     0.051 A 
ATOM     15  C   UNL     1       1.249   1.323 -18.385  1.00  0.00     0.157 A 
ATOM     16  C   UNL     1       0.945   0.782 -20.737  1.00  0.00     0.062 A 
ATOM     17  C   UNL     1       1.098   0.360 -19.410  1.00  0.00     0.158 A 
BRANCH  15  18
ATOM     18  O   UNL     1       1.409   0.978 -17.041  1.00  0.00    -0.504 OA
ATOM     19  H   UNL     1       0.643   0.764 -16.419  1.00  0.00     0.293 HD
ENDBRANCH  15  18
BRANCH  17  20
ATOM     20  O   UNL     1       1.095  -1.014 -19.159  1.00  0.00    -0.504 OA
ATOM     21  H   UNL     1       0.326  -1.507 -18.731  1.00  0.00     0.293 HD
ENDBRANCH  17  20
ENDBRANCH   1  12
BRANCH   6  22
ATOM     22  O   UNL     1       0.948   4.089 -27.430  1.00  0.00    -0.507 OA
ATOM     23  H   UNL     1       1.373   3.390 -28.019  1.00  0.00     0.293 HD
ENDBRANCH   6  22
BRANCH   8  24
ATOM     24  O   UNL     1      -3.680   4.158 -26.148  1.00  0.00    -0.508 OA
ATOM     25  H   UNL     1      -4.438   3.617 -25.749  1.00  0.00     0.293 HD
ENDBRANCH   8  24
TORSDOF 5
ENDMDL
