MODEL 1
REMARK VINA RESULT:    -5.141      0.000      0.000
REMARK INTER + INTRA:          -5.782
REMARK INTER:                  -5.742
REMARK INTRA:                  -0.041
REMARK UNBOUND:                -0.041
REMARK SMILES O=C([O-])c1ccc(O)c(O)c1
REMARK SMILES IDX 4 1 11 2 5 3 9 4 6 5 7 6 2 7 1 8 3 9 10 10 8 12
REMARK H PARENT 10 11 8 13
REMARK Flexibility Score: inf
ROOT
ATOM      1  C   UNL     1      20.424  -0.356 -20.362  1.00  0.00     0.001 A 
ATOM      2  C   UNL     1      20.855   0.943 -20.033  1.00  0.00     0.060 A 
ATOM      3  C   UNL     1      20.754  -0.884 -21.621  1.00  0.00     0.014 A 
ATOM      4  C   UNL     1      21.602   1.700 -20.943  1.00  0.00     0.158 A 
ATOM      5  C   UNL     1      21.500  -0.131 -22.532  1.00  0.00     0.051 A 
ATOM      6  C   UNL     1      21.926   1.161 -22.199  1.00  0.00     0.157 A 
ENDROOT
BRANCH   1   7
ATOM      7  C   UNL     1      19.634  -1.156 -19.400  1.00  0.00     0.072 C 
ATOM      8  O   UNL     1      19.850  -2.390 -19.264  1.00  0.00    -0.545 OA
ATOM      9  O   UNL     1      18.642  -0.557 -18.633  1.00  0.00    -0.545 OA
ENDBRANCH   1   7
BRANCH   4  10
ATOM     10  O   UNL     1      22.011   2.982 -20.581  1.00  0.00    -0.504 OA
ATOM     11  H   UNL     1      22.780   3.452 -21.044  1.00  0.00     0.293 HD
ENDBRANCH   4  10
BRANCH   6  12
ATOM     12  O   UNL     1      22.670   1.910 -23.110  1.00  0.00    -0.504 OA
ATOM     13  H   UNL     1      23.122   1.479 -23.908  1.00  0.00     0.293 HD
ENDBRANCH   6  12
TORSDOF 3
ENDMDL
MODEL 2
REMARK VINA RESULT:    -4.900      1.266      2.196
REMARK INTER + INTRA:          -5.513
REMARK INTER:                  -5.469
REMARK INTRA:                  -0.044
REMARK UNBOUND:                -0.041
REMARK SMILES O=C([O-])c1ccc(O)c(O)c1
REMARK SMILES IDX 4 1 11 2 5 3 9 4 6 5 7 6 2 7 1 8 3 9 10 10 8 12
REMARK H PARENT 10 11 8 13
REMARK Flexibility Score: inf
ROOT
ATOM      1  C   UNL     1      20.390  -0.256 -19.562  1.00  0.00     0.001 A 
ATOM      2  C   UNL     1      20.497  -0.850 -20.833  1.00  0.00     0.060 A 
ATOM      3  C   UNL     1      21.003   0.988 -19.339  1.00  0.00     0.014 A 
ATOM      4  C   UNL     1      21.200  -0.215 -21.863  1.00  0.00     0.158 A 
ATOM      5  C   UNL     1      21.706   1.625 -20.364  1.00  0.00     0.051 A 
ATOM      6  C   UNL     1      21.809   1.029 -21.628  1.00  0.00     0.157 A 
ENDROOT
BRANCH   1   7
ATOM      7  C   UNL     1      19.646  -0.928 -18.474  1.00  0.00     0.072 C 
ATOM      8  O   UNL     1      19.050  -2.018 -18.684  1.00  0.00    -0.545 OA
ATOM      9  O   UNL     1      19.593  -0.364 -17.205  1.00  0.00    -0.545 OA
ENDBRANCH   1   7
BRANCH   4  10
ATOM     10  O   UNL     1      21.283  -0.834 -23.108  1.00  0.00    -0.504 OA
ATOM     11  H   UNL     1      22.144  -0.857 -23.642  1.00  0.00     0.293 HD
ENDBRANCH   4  10
BRANCH   6  12
ATOM     12  O   UNL     1      22.512   1.668 -22.649  1.00  0.00    -0.504 OA
ATOM     13  H   UNL     1      22.075   2.370 -23.235  1.00  0.00     0.293 HD
ENDBRANCH   6  12
TORSDOF 3
ENDMDL
MODEL 3
REMARK VINA RESULT:    -4.874      2.078      2.641
REMARK INTER + INTRA:          -5.485
REMARK INTER:                  -5.446
REMARK INTRA:                  -0.039
REMARK UNBOUND:                -0.041
REMARK SMILES O=C([O-])c1ccc(O)c(O)c1
REMARK SMILES IDX 4 1 11 2 5 3 9 4 6 5 7 6 2 7 1 8 3 9 10 10 8 12
REMARK H PARENT 10 11 8 13
REMARK Flexibility Score: inf
ROOT
ATOM      1  C   UNL     1      20.732   0.252 -18.693  1.00  0.00     0.001 A 
ATOM      2  C   UNL     1      21.403   1.093 -19.601  1.00  0.00     0.060 A 
ATOM      3  C   UNL     1      20.172  -0.946 -19.164  1.00  0.00     0.014 A 
ATOM      4  C   UNL     1      21.515   0.743 -20.951  1.00  0.00     0.158 A 
ATOM      5  C   UNL     1      20.280  -1.299 -20.511  1.00  0.00     0.051 A 
ATOM      6  C   UNL     1      20.950  -0.459 -21.410  1.00  0.00     0.157 A 
ENDROOT
BRANCH   1   7
ATOM      7  C   UNL     1      20.615   0.622 -17.265  1.00  0.00     0.072 C 
ATOM      8  O   UNL     1      19.491   0.634 -16.697  1.00  0.00    -0.545 OA
ATOM      9  O   UNL     1      21.746   0.964 -16.532  1.00  0.00    -0.545 OA
ENDBRANCH   1   7
BRANCH   4  10
ATOM     10  O   UNL     1      22.187   1.601 -21.819  1.00  0.00    -0.504 OA
ATOM     11  H   UNL     1      23.195   1.576 -21.928  1.00  0.00     0.293 HD
ENDBRANCH   4  10
BRANCH   6  12
ATOM     12  O   UNL     1      21.057  -0.813 -22.755  1.00  0.00    -0.504 OA
ATOM     13  H   UNL     1      20.929  -1.770 -23.063  1.00  0.00     0.293 HD
ENDBRANCH   6  12
TORSDOF 3
ENDMDL
MODEL 4
REMARK VINA RESULT:    -4.846      1.298      4.630
REMARK INTER + INTRA:          -5.453
REMARK INTER:                  -5.417
REMARK INTRA:                  -0.037
REMARK UNBOUND:                -0.041
REMARK SMILES O=C([O-])c1ccc(O)c(O)c1
REMARK SMILES IDX 4 1 11 2 5 3 9 4 6 5 7 6 2 7 1 8 3 9 10 10 8 12
REMARK H PARENT 10 11 8 13
REMARK Flexibility Score: inf
ROOT
ATOM      1  C   UNL     1      21.268   0.954 -20.676  1.00  0.00     0.001 A 
ATOM      2  C   UNL     1      20.092   0.182 -20.675  1.00  0.00     0.060 A 
ATOM      3  C   UNL     1      21.857   1.297 -19.448  1.00  0.00     0.014 A 
ATOM      4  C   UNL     1      19.514  -0.241 -19.472  1.00  0.00     0.158 A 
ATOM      5  C   UNL     1      21.284   0.877 -18.245  1.00  0.00     0.051 A 
ATOM      6  C   UNL     1      20.112   0.108 -18.250  1.00  0.00     0.157 A 
ENDROOT
BRANCH   1   7
ATOM      7  C   UNL     1      21.879   1.400 -21.948  1.00  0.00     0.072 C 
ATOM      8  O   UNL     1      21.839   2.613 -22.286  1.00  0.00    -0.545 OA
ATOM      9  O   UNL     1      22.503   0.485 -22.788  1.00  0.00    -0.545 OA
ENDBRANCH   1   7
BRANCH   4  10
ATOM     10  O   UNL     1      18.349  -1.004 -19.512  1.00  0.00    -0.504 OA
ATOM     11  H   UNL     1      18.356  -2.006 -19.363  1.00  0.00     0.293 HD
ENDBRANCH   4  10
BRANCH   6  12
ATOM     12  O   UNL     1      19.542  -0.309 -17.048  1.00  0.00    -0.504 OA
ATOM     13  H   UNL     1      19.524   0.292 -16.232  1.00  0.00     0.293 HD
ENDBRANCH   6  12
TORSDOF 3
ENDMDL
MODEL 5
REMARK VINA RESULT:    -4.816      1.744      2.165
REMARK INTER + INTRA:          -5.419
REMARK INTER:                  -5.380
REMARK INTRA:                  -0.039
REMARK UNBOUND:                -0.041
REMARK SMILES O=C([O-])c1ccc(O)c(O)c1
REMARK SMILES IDX 4 1 11 2 5 3 9 4 6 5 7 6 2 7 1 8 3 9 10 10 8 12
REMARK H PARENT 10 11 8 13
REMARK Flexibility Score: inf
ROOT
ATOM      1  C   UNL     1      19.904   0.011 -18.329  1.00  0.00     0.001 A 
ATOM      2  C   UNL     1      21.067   0.773 -18.117  1.00  0.00     0.060 A 
ATOM      3  C   UNL     1      19.490  -0.248 -19.646  1.00  0.00     0.014 A 
ATOM      4  C   UNL     1      21.805   1.267 -19.199  1.00  0.00     0.158 A 
ATOM      5  C   UNL     1      20.224   0.243 -20.728  1.00  0.00     0.051 A 
ATOM      6  C   UNL     1      21.382   1.002 -20.512  1.00  0.00     0.157 A 
ENDROOT
BRANCH   1   7
ATOM      7  C   UNL     1      19.125  -0.512 -17.185  1.00  0.00     0.072 C 
ATOM      8  O   UNL     1      18.791  -1.726 -17.138  1.00  0.00    -0.545 OA
ATOM      9  O   UNL     1      18.749   0.331 -16.145  1.00  0.00    -0.545 OA
ENDBRANCH   1   7
BRANCH   4  10
ATOM     10  O   UNL     1      22.952   2.018 -18.949  1.00  0.00    -0.504 OA
ATOM     11  H   UNL     1      23.037   2.619 -18.138  1.00  0.00     0.293 HD
ENDBRANCH   4  10
BRANCH   6  12
ATOM     12  O   UNL     1      22.112   1.491 -21.594  1.00  0.00    -0.504 OA
ATOM     13  H   UNL     1      22.626   2.363 -21.537  1.00  0.00     0.293 HD
ENDBRANCH   6  12
TORSDOF 3
ENDMDL
MODEL 6
REMARK VINA RESULT:    -4.789      1.605      4.340
REMARK INTER + INTRA:          -5.389
REMARK INTER:                  -5.352
REMARK INTRA:                  -0.038
REMARK UNBOUND:                -0.041
REMARK SMILES O=C([O-])c1ccc(O)c(O)c1
REMARK SMILES IDX 4 1 11 2 5 3 9 4 6 5 7 6 2 7 1 8 3 9 10 10 8 12
REMARK H PARENT 10 11 8 13
REMARK Flexibility Score: inf
ROOT
ATOM      1  C   UNL     1      20.982   0.640 -20.510  1.00  0.00     0.001 A 
ATOM      2  C   UNL     1      21.432   0.983 -19.221  1.00  0.00     0.060 A 
ATOM      3  C   UNL     1      19.877  -0.217 -20.639  1.00  0.00     0.014 A 
ATOM      4  C   UNL     1      20.790   0.481 -18.083  1.00  0.00     0.158 A 
ATOM      5  C   UNL     1      19.233  -0.720 -19.506  1.00  0.00     0.051 A 
ATOM      6  C   UNL     1      19.685  -0.376 -18.225  1.00  0.00     0.157 A 
ENDROOT
BRANCH   1   7
ATOM      7  C   UNL     1      21.661   1.171 -21.712  1.00  0.00     0.072 C 
ATOM      8  O   UNL     1      21.716   2.413 -21.922  1.00  0.00    -0.545 OA
ATOM      9  O   UNL     1      22.247   0.307 -22.630  1.00  0.00    -0.545 OA
ENDBRANCH   1   7
BRANCH   4  10
ATOM     10  O   UNL     1      21.263   0.843 -16.823  1.00  0.00    -0.504 OA
ATOM     11  H   UNL     1      21.308   1.809 -16.522  1.00  0.00     0.293 HD
ENDBRANCH   4  10
BRANCH   6  12
ATOM     12  O   UNL     1      19.041  -0.879 -17.095  1.00  0.00    -0.504 OA
ATOM     13  H   UNL     1      18.532  -0.274 -16.461  1.00  0.00     0.293 HD
ENDBRANCH   6  12
TORSDOF 3
ENDMDL
MODEL 7
REMARK VINA RESULT:    -4.626     17.662     19.315
REMARK INTER + INTRA:          -5.207
REMARK INTER:                  -5.170
REMARK INTRA:                  -0.037
REMARK UNBOUND:                -0.041
REMARK SMILES O=C([O-])c1ccc(O)c(O)c1
REMARK SMILES IDX 4 1 11 2 5 3 9 4 6 5 7 6 2 7 1 8 3 9 10 10 8 12
REMARK H PARENT 10 11 8 13
REMARK Flexibility Score: inf
ROOT
ATOM      1  C   UNL     1       9.243  -6.852  -8.232  1.00  0.00     0.001 A 
ATOM      2  C   UNL     1      10.117  -6.075  -7.450  1.00  0.00     0.060 A 
ATOM      3  C   UNL     1       7.906  -6.990  -7.825  1.00  0.00     0.014 A 
ATOM      4  C   UNL     1       9.666  -5.447  -6.283  1.00  0.00     0.158 A 
ATOM      5  C   UNL     1       7.451  -6.365  -6.661  1.00  0.00     0.051 A 
ATOM      6  C   UNL     1       8.326  -5.592  -5.885  1.00  0.00     0.157 A 
ENDROOT
BRANCH   1   7
ATOM      7  C   UNL     1       9.720  -7.515  -9.466  1.00  0.00     0.072 C 
ATOM      8  O   UNL     1       9.336  -7.117 -10.597  1.00  0.00    -0.545 OA
ATOM      9  O   UNL     1      10.601  -8.589  -9.392  1.00  0.00    -0.545 OA
ENDBRANCH   1   7
BRANCH   4  10
ATOM     10  O   UNL     1      10.561  -4.685  -5.535  1.00  0.00    -0.504 OA
ATOM     11  H   UNL     1      10.773  -4.900  -4.568  1.00  0.00     0.293 HD
ENDBRANCH   4  10
BRANCH   6  12
ATOM     12  O   UNL     1       7.870  -4.969  -4.724  1.00  0.00    -0.504 OA
ATOM     13  H   UNL     1       8.030  -3.983  -4.554  1.00  0.00     0.293 HD
ENDBRANCH   6  12
TORSDOF 3
ENDMDL
MODEL 8
REMARK VINA RESULT:    -4.519     16.649     17.842
REMARK INTER + INTRA:          -5.088
REMARK INTER:                  -5.052
REMARK INTRA:                  -0.036
REMARK UNBOUND:                -0.041
REMARK SMILES O=C([O-])c1ccc(O)c(O)c1
REMARK SMILES IDX 4 1 11 2 5 3 9 4 6 5 7 6 2 7 1 8 3 9 10 10 8 12
REMARK H PARENT 10 11 8 13
REMARK Flexibility Score: inf
ROOT
ATOM      1  C   UNL     1       8.635  -6.700 -10.265  1.00  0.00     0.001 A 
ATOM      2  C   UNL     1      10.037  -6.614 -10.166  1.00  0.00     0.060 A 
ATOM      3  C   UNL     1       7.853  -6.361  -9.149  1.00  0.00     0.014 A 
ATOM      4  C   UNL     1      10.645  -6.197  -8.977  1.00  0.00     0.158 A 
ATOM      5  C   UNL     1       8.457  -5.944  -7.960  1.00  0.00     0.051 A 
ATOM      6  C   UNL     1       9.852  -5.860  -7.867  1.00  0.00     0.157 A 
ENDROOT
BRANCH   1   7
ATOM      7  C   UNL     1       7.992  -7.141 -11.522  1.00  0.00     0.072 C 
ATOM      8  O   UNL     1       7.562  -8.319 -11.643  1.00  0.00    -0.545 OA
ATOM      9  O   UNL     1       7.855  -6.260 -12.589  1.00  0.00    -0.545 OA
ENDBRANCH   1   7
BRANCH   4  10
ATOM     10  O   UNL     1      12.036  -6.124  -8.918  1.00  0.00    -0.504 OA
ATOM     11  H   UNL     1      12.569  -5.508  -9.520  1.00  0.00     0.293 HD
ENDBRANCH   4  10
BRANCH   6  12
ATOM     12  O   UNL     1      10.453  -5.444  -6.680  1.00  0.00    -0.504 OA
ATOM     13  H   UNL     1       9.935  -4.931  -5.975  1.00  0.00     0.293 HD
ENDBRANCH   6  12
TORSDOF 3
ENDMDL
MODEL 9
REMARK VINA RESULT:    -4.492      5.559      7.137
REMARK INTER + INTRA:          -5.057
REMARK INTER:                  -5.014
REMARK INTRA:                  -0.043
REMARK UNBOUND:                -0.041
REMARK SMILES O=C([O-])c1ccc(O)c(O)c1
REMARK SMILES IDX 4 1 11 2 5 3 9 4 6 5 7 6 2 7 1 8 3 9 10 10 8 12
REMARK H PARENT 10 11 8 13
REMARK Flexibility Score: inf
ROOT
ATOM      1  C   UNL     1      24.222   6.162 -18.931  1.00  0.00     0.001 A 
ATOM      2  C   UNL     1      23.244   5.327 -19.503  1.00  0.00     0.060 A 
ATOM      3  C   UNL     1      25.097   6.863 -19.776  1.00  0.00     0.014 A 
ATOM      4  C   UNL     1      23.142   5.195 -20.893  1.00  0.00     0.158 A 
ATOM      5  C   UNL     1      24.998   6.734 -21.164  1.00  0.00     0.051 A 
ATOM      6  C   UNL     1      24.023   5.901 -21.729  1.00  0.00     0.157 A 
ENDROOT
BRANCH   1   7
ATOM      7  C   UNL     1      24.329   6.302 -17.462  1.00  0.00     0.072 C 
ATOM      8  O   UNL     1      24.839   7.335 -16.952  1.00  0.00    -0.545 OA
ATOM      9  O   UNL     1      23.870   5.293 -16.623  1.00  0.00    -0.545 OA
ENDBRANCH   1   7
BRANCH   4  10
ATOM     10  O   UNL     1      22.161   4.359 -21.423  1.00  0.00    -0.504 OA
ATOM     11  H   UNL     1      21.892   4.395 -22.400  1.00  0.00     0.293 HD
ENDBRANCH   4  10
BRANCH   6  12
ATOM     12  O   UNL     1      23.926   5.774 -23.114  1.00  0.00    -0.504 OA
ATOM     13  H   UNL     1      24.077   6.563 -23.731  1.00  0.00     0.293 HD
ENDBRANCH   6  12
TORSDOF 3
ENDMDL
