MODEL 1
REMARK VINA RESULT:    -4.158      0.000      0.000
REMARK INTER + INTRA:          -6.134
REMARK INTER:                  -6.346
REMARK INTRA:                   0.211
REMARK UNBOUND:                 0.211
REMARK SMILES CC1=CCC[C@H](C)C(=O)C[C@H](C(C)C)C(=O)C1
REMARK SMILES IDX 8 1 9 2 6 3 7 4 5 5 4 6 3 7 2 8 1 9 10 11 11 12 15 13 16 14
REMARK SMILES IDX 17 15 12 17 13 18 14 19
REMARK H PARENT
REMARK Flexibility Score: 70.00
ROOT
ATOM      1  C   UNL     1      -9.819  74.864  30.667  1.00  0.00     0.136 C 
ATOM      2  O   UNL     1      -8.606  74.725  30.726  1.00  0.00    -0.299 OA
ENDROOT
BRANCH   1   3
ATOM      3  C   UNL     1     -10.604  74.834  31.979  1.00  0.00     0.053 C 
ATOM      4  C   UNL     1     -11.247  76.196  32.300  1.00  0.00     0.016 C 
BRANCH   3   5
ATOM      5  C   UNL     1     -11.596  73.659  32.201  1.00  0.00     0.015 C 
BRANCH   5   6
ATOM      6  C   UNL     1     -11.059  72.282  32.642  1.00  0.00     0.028 C 
BRANCH   6   7
ATOM      7  C   UNL     1      -9.806  71.804  31.952  1.00  0.00    -0.028 C 
ATOM      8  C   UNL     1      -9.655  71.500  30.636  1.00  0.00    -0.070 CG0
ATOM      9  C   UNL     1      -8.252  71.186  30.173  1.00  0.00     0.039 C 
ATOM     10  G   UNL     1     -10.787  71.285  29.634  1.00  0.00     0.000 G0
ENDBRANCH   6   7
ENDBRANCH   5   6
ENDBRANCH   3   5
ENDBRANCH   1   3
BRANCH   1  11
ATOM     11  C   UNL     1     -10.454  74.902  29.292  1.00  0.00     0.087 C 
BRANCH  11  12
ATOM     12  C   UNL     1     -10.266  73.607  28.444  1.00  0.00     0.066 C 
BRANCH  12  13
ATOM     13  C   UNL     1     -11.239  72.505  28.856  1.00  0.00     0.140 C 
ATOM     14  O   UNL     1     -12.432  72.654  28.635  1.00  0.00    -0.299 OA
BRANCH  13  15
ATOM     15  C   UNL     1     -10.787  71.285  29.617  1.00  0.00     0.106 CG0
ATOM     16  G   UNL     1      -9.662  71.500  30.627  1.00  0.00     0.000 G0
ENDBRANCH  13  15
ENDBRANCH  12  13
BRANCH  12  17
ATOM     17  C   UNL     1     -10.270  73.827  26.894  1.00  0.00    -0.006 C 
ATOM     18  C   UNL     1     -10.501  75.300  26.512  1.00  0.00     0.008 C 
ATOM     19  C   UNL     1      -8.944  73.357  26.267  1.00  0.00     0.008 C 
ENDBRANCH  12  17
ENDBRANCH  11  12
ENDBRANCH   1  11
TORSDOF 1
ENDMDL
MODEL 2
REMARK VINA RESULT:    -4.091      6.199      8.664
REMARK INTER + INTRA:          -6.033
REMARK INTER:                  -5.628
REMARK INTRA:                  -0.404
REMARK UNBOUND:                 0.211
REMARK SMILES CC1=CCC[C@H](C)C(=O)C[C@H](C(C)C)C(=O)C1
REMARK SMILES IDX 8 1 9 2 6 3 7 4 5 5 4 6 3 7 2 8 1 9 10 11 11 12 15 13 16 14
REMARK SMILES IDX 17 15 12 17 13 18 14 19
REMARK H PARENT
REMARK Flexibility Score: 70.00
ROOT
ATOM      1  C   UNL     1      -7.280  71.965  25.079  1.00  0.00     0.136 C 
ATOM      2  O   UNL     1      -7.799  72.404  26.095  1.00  0.00    -0.299 OA
ENDROOT
BRANCH   1   3
ATOM      3  C   UNL     1      -5.821  71.517  25.162  1.00  0.00     0.053 C 
ATOM      4  C   UNL     1      -5.685  69.982  25.160  1.00  0.00     0.016 C 
BRANCH   3   5
ATOM      5  C   UNL     1      -4.803  72.188  24.199  1.00  0.00     0.015 C 
BRANCH   5   6
ATOM      6  C   UNL     1      -4.534  71.561  22.816  1.00  0.00     0.028 C 
BRANCH   6   7
ATOM      7  C   UNL     1      -4.486  72.515  21.650  1.00  0.00    -0.028 C 
ATOM      8  C   UNL     1      -5.537  73.116  21.033  1.00  0.00    -0.070 CG0
ATOM      9  C   UNL     1      -5.203  74.147  19.981  1.00  0.00     0.039 C 
ATOM     10  G   UNL     1      -7.006  72.726  21.187  1.00  0.00     0.000 G0
ENDBRANCH   6   7
ENDBRANCH   5   6
ENDBRANCH   3   5
ENDBRANCH   1   3
BRANCH   1  11
ATOM     11  C   UNL     1      -8.079  72.044  23.794  1.00  0.00     0.087 C 
BRANCH  11  12
ATOM     12  C   UNL     1      -8.395  73.489  23.304  1.00  0.00     0.066 C 
BRANCH  12  13
ATOM     13  C   UNL     1      -7.902  73.733  21.880  1.00  0.00     0.140 C 
ATOM     14  O   UNL     1      -8.300  74.718  21.274  1.00  0.00    -0.299 OA
BRANCH  13  15
ATOM     15  C   UNL     1      -7.019  72.745  21.161  1.00  0.00     0.106 CG0
ATOM     16  G   UNL     1      -5.544  73.120  21.044  1.00  0.00     0.000 G0
ENDBRANCH  13  15
ENDBRANCH  12  13
BRANCH  12  17
ATOM     17  C   UNL     1      -9.886  73.934  23.479  1.00  0.00    -0.006 C 
ATOM     18  C   UNL     1     -10.867  72.756  23.350  1.00  0.00     0.008 C 
ATOM     19  C   UNL     1     -10.104  74.610  24.845  1.00  0.00     0.008 C 
ENDBRANCH  12  17
ENDBRANCH  11  12
ENDBRANCH   1  11
TORSDOF 1
ENDMDL
MODEL 3
REMARK VINA RESULT:    -3.834      6.334      9.132
REMARK INTER + INTRA:          -5.639
REMARK INTER:                  -5.026
REMARK INTRA:                  -0.613
REMARK UNBOUND:                 0.211
REMARK SMILES CC1=CCC[C@H](C)C(=O)C[C@H](C(C)C)C(=O)C1
REMARK SMILES IDX 8 1 9 2 6 3 7 4 5 5 4 6 3 7 2 8 1 9 10 11 11 12 15 13 16 14
REMARK SMILES IDX 17 15 12 17 13 18 14 19
REMARK H PARENT
REMARK Flexibility Score: 70.00
ROOT
ATOM      1  C   UNL     1      -5.530  71.781  21.353  1.00  0.00     0.136 C 
ATOM      2  O   UNL     1      -5.252  71.176  20.328  1.00  0.00    -0.299 OA
ENDROOT
BRANCH   1   3
ATOM      3  C   UNL     1      -5.369  73.301  21.349  1.00  0.00     0.053 C 
ATOM      4  C   UNL     1      -3.996  73.737  20.805  1.00  0.00     0.016 C 
BRANCH   3   5
ATOM      5  C   UNL     1      -6.525  74.149  20.750  1.00  0.00     0.015 C 
BRANCH   5   6
ATOM      6  C   UNL     1      -7.964  73.593  20.765  1.00  0.00     0.028 C 
BRANCH   6   7
ATOM      7  C   UNL     1      -8.838  74.038  21.910  1.00  0.00    -0.028 C 
ATOM      8  C   UNL     1      -8.946  73.463  23.137  1.00  0.00    -0.070 CG0
ATOM      9  C   UNL     1      -9.785  74.198  24.156  1.00  0.00     0.039 C 
ATOM     10  G   UNL     1      -8.439  72.074  23.519  1.00  0.00     0.000 G0
ENDBRANCH   6   7
ENDBRANCH   5   6
ENDBRANCH   3   5
ENDBRANCH   1   3
BRANCH   1  11
ATOM     11  C   UNL     1      -5.864  70.959  22.581  1.00  0.00     0.087 C 
BRANCH  11  12
ATOM     12  C   UNL     1      -5.854  71.750  23.925  1.00  0.00     0.066 C 
BRANCH  12  13
ATOM     13  C   UNL     1      -7.264  72.002  24.453  1.00  0.00     0.140 C 
ATOM     14  O   UNL     1      -7.442  72.072  25.661  1.00  0.00    -0.299 OA
BRANCH  13  15
ATOM     15  C   UNL     1      -8.460  72.064  23.537  1.00  0.00     0.106 CG0
ATOM     16  G   UNL     1      -8.949  73.462  23.162  1.00  0.00     0.000 G0
ENDBRANCH  13  15
ENDBRANCH  12  13
BRANCH  12  17
ATOM     17  C   UNL     1      -4.923  71.155  25.034  1.00  0.00    -0.006 C 
ATOM     18  C   UNL     1      -5.057  69.626  25.152  1.00  0.00     0.008 C 
ATOM     19  C   UNL     1      -3.448  71.501  24.762  1.00  0.00     0.008 C 
ENDBRANCH  12  17
ENDBRANCH  11  12
ENDBRANCH   1  11
TORSDOF 1
ENDMDL
MODEL 4
REMARK VINA RESULT:    -3.719      5.936      9.167
REMARK INTER + INTRA:          -5.465
REMARK INTER:                  -5.408
REMARK INTRA:                  -0.057
REMARK UNBOUND:                 0.211
REMARK SMILES CC1=CCC[C@H](C)C(=O)C[C@H](C(C)C)C(=O)C1
REMARK SMILES IDX 8 1 9 2 6 3 7 4 5 5 4 6 3 7 2 8 1 9 10 11 11 12 15 13 16 14
REMARK SMILES IDX 17 15 12 17 13 18 14 19
REMARK H PARENT
REMARK Flexibility Score: 70.00
ROOT
ATOM      1  C   UNL     1      -8.788  74.154  21.481  1.00  0.00     0.136 C 
ATOM      2  O   UNL     1      -9.999  74.279  21.362  1.00  0.00    -0.299 OA
ENDROOT
BRANCH   1   3
ATOM      3  C   UNL     1      -7.949  74.099  20.205  1.00  0.00     0.053 C 
ATOM      4  C   UNL     1      -7.301  75.457  19.878  1.00  0.00     0.016 C 
BRANCH   3   5
ATOM      5  C   UNL     1      -6.942  72.925  20.051  1.00  0.00     0.015 C 
BRANCH   5   6
ATOM      6  C   UNL     1      -5.430  73.199  20.176  1.00  0.00     0.028 C 
BRANCH   6   7
ATOM      7  C   UNL     1      -4.631  72.185  20.954  1.00  0.00    -0.028 C 
ATOM      8  C   UNL     1      -4.856  71.758  22.225  1.00  0.00    -0.070 CG0
ATOM      9  C   UNL     1      -3.992  70.620  22.718  1.00  0.00     0.039 C 
ATOM     10  G   UNL     1      -5.775  72.429  23.243  1.00  0.00     0.000 G0
ENDBRANCH   6   7
ENDBRANCH   5   6
ENDBRANCH   3   5
ENDBRANCH   1   3
BRANCH   1  11
ATOM     11  C   UNL     1      -8.242  73.914  22.874  1.00  0.00     0.087 C 
BRANCH  11  12
ATOM     12  C   UNL     1      -8.422  72.462  23.410  1.00  0.00     0.066 C 
BRANCH  12  13
ATOM     13  C   UNL     1      -7.092  71.720  23.516  1.00  0.00     0.140 C 
ATOM     14  O   UNL     1      -7.089  70.558  23.897  1.00  0.00    -0.299 OA
BRANCH  13  15
ATOM     15  C   UNL     1      -5.774  72.406  23.263  1.00  0.00     0.106 CG0
ATOM     16  G   UNL     1      -4.873  71.765  22.209  1.00  0.00     0.000 G0
ENDBRANCH  13  15
ENDBRANCH  12  13
BRANCH  12  17
ATOM     17  C   UNL     1      -9.251  72.344  24.734  1.00  0.00    -0.006 C 
ATOM     18  C   UNL     1      -8.453  72.805  25.966  1.00  0.00     0.008 C 
ATOM     19  C   UNL     1     -10.547  73.171  24.648  1.00  0.00     0.008 C 
ENDBRANCH  12  17
ENDBRANCH  11  12
ENDBRANCH   1  11
TORSDOF 1
ENDMDL
MODEL 5
REMARK VINA RESULT:    -3.533      7.981      9.510
REMARK INTER + INTRA:          -5.180
REMARK INTER:                  -4.995
REMARK INTRA:                  -0.186
REMARK UNBOUND:                 0.211
REMARK SMILES CC1=CCC[C@H](C)C(=O)C[C@H](C(C)C)C(=O)C1
REMARK SMILES IDX 8 1 9 2 6 3 7 4 5 5 4 6 3 7 2 8 1 9 10 11 11 12 15 13 16 14
REMARK SMILES IDX 17 15 12 17 13 18 14 19
REMARK H PARENT
REMARK Flexibility Score: 70.00
ROOT
ATOM      1  C   UNL     1      -8.946  69.059  36.177  1.00  0.00     0.136 C 
ATOM      2  O   UNL     1      -9.057  69.972  35.371  1.00  0.00    -0.299 OA
ENDROOT
BRANCH   1   3
ATOM      3  C   UNL     1      -9.285  69.354  37.638  1.00  0.00     0.053 C 
ATOM      4  C   UNL     1     -10.387  70.421  37.773  1.00  0.00     0.016 C 
BRANCH   3   5
ATOM      5  C   UNL     1      -9.534  68.143  38.580  1.00  0.00     0.015 C 
BRANCH   5   6
ATOM      6  C   UNL     1      -8.372  67.182  38.907  1.00  0.00     0.028 C 
BRANCH   6   7
ATOM      7  C   UNL     1      -7.095  67.821  39.390  1.00  0.00    -0.028 C 
ATOM      8  C   UNL     1      -5.961  68.041  38.674  1.00  0.00    -0.070 CG0
ATOM      9  C   UNL     1      -4.874  68.837  39.358  1.00  0.00     0.039 C 
ATOM     10  G   UNL     1      -5.626  67.420  37.320  1.00  0.00     0.000 G0
ENDBRANCH   6   7
ENDBRANCH   5   6
ENDBRANCH   3   5
ENDBRANCH   1   3
BRANCH   1  11
ATOM     11  C   UNL     1      -8.338  67.761  35.685  1.00  0.00     0.087 C 
BRANCH  11  12
ATOM     12  C   UNL     1      -6.919  67.896  35.054  1.00  0.00     0.066 C 
BRANCH  12  13
ATOM     13  C   UNL     1      -5.862  68.263  36.093  1.00  0.00     0.140 C 
ATOM     14  O   UNL     1      -5.144  69.231  35.893  1.00  0.00    -0.299 OA
BRANCH  13  15
ATOM     15  C   UNL     1      -5.608  67.407  37.308  1.00  0.00     0.106 CG0
ATOM     16  G   UNL     1      -5.965  68.029  38.656  1.00  0.00     0.000 G0
ENDBRANCH  13  15
ENDBRANCH  12  13
BRANCH  12  17
ATOM     17  C   UNL     1      -6.467  66.679  34.180  1.00  0.00    -0.006 C 
ATOM     18  C   UNL     1      -7.470  65.513  34.237  1.00  0.00     0.008 C 
ATOM     19  C   UNL     1      -6.277  67.095  32.710  1.00  0.00     0.008 C 
ENDBRANCH  12  17
ENDBRANCH  11  12
ENDBRANCH   1  11
TORSDOF 1
ENDMDL
MODEL 6
REMARK VINA RESULT:    -3.457      7.510      9.533
REMARK INTER + INTRA:          -5.064
REMARK INTER:                  -4.404
REMARK INTRA:                  -0.661
REMARK UNBOUND:                 0.211
REMARK SMILES CC1=CCC[C@H](C)C(=O)C[C@H](C(C)C)C(=O)C1
REMARK SMILES IDX 8 1 9 2 6 3 7 4 5 5 4 6 3 7 2 8 1 9 10 11 11 12 15 13 16 14
REMARK SMILES IDX 17 15 12 17 13 18 14 19
REMARK H PARENT
REMARK Flexibility Score: 70.00
ROOT
ATOM      1  C   UNL     1      -4.775  66.803  24.030  1.00  0.00     0.136 C 
ATOM      2  O   UNL     1      -4.361  66.071  23.143  1.00  0.00    -0.299 OA
ENDROOT
BRANCH   1   3
ATOM      3  C   UNL     1      -6.233  66.645  24.462  1.00  0.00     0.053 C 
ATOM      4  C   UNL     1      -7.178  66.470  23.259  1.00  0.00     0.016 C 
BRANCH   3   5
ATOM      5  C   UNL     1      -6.544  65.628  25.595  1.00  0.00     0.015 C 
BRANCH   5   6
ATOM      6  C   UNL     1      -5.385  65.013  26.406  1.00  0.00     0.028 C 
BRANCH   6   7
ATOM      7  C   UNL     1      -5.237  65.495  27.827  1.00  0.00    -0.028 C 
ATOM      8  C   UNL     1      -4.503  66.551  28.266  1.00  0.00    -0.070 CG0
ATOM      9  C   UNL     1      -4.645  66.911  29.727  1.00  0.00     0.039 C 
ATOM     10  G   UNL     1      -3.434  67.292  27.465  1.00  0.00     0.000 G0
ENDBRANCH   6   7
ENDBRANCH   5   6
ENDBRANCH   3   5
ENDBRANCH   1   3
BRANCH   1  11
ATOM     11  C   UNL     1      -3.854  67.904  24.517  1.00  0.00     0.087 C 
BRANCH  11  12
ATOM     12  C   UNL     1      -4.475  68.859  25.580  1.00  0.00     0.066 C 
BRANCH  12  13
ATOM     13  C   UNL     1      -3.842  68.675  26.957  1.00  0.00     0.140 C 
ATOM     14  O   UNL     1      -3.579  69.663  27.627  1.00  0.00    -0.299 OA
BRANCH  13  15
ATOM     15  C   UNL     1      -3.437  67.317  27.473  1.00  0.00     0.106 CG0
ATOM     16  G   UNL     1      -4.494  66.558  28.273  1.00  0.00     0.000 G0
ENDBRANCH  13  15
ENDBRANCH  12  13
BRANCH  12  17
ATOM     17  C   UNL     1      -4.517  70.369  25.166  1.00  0.00    -0.006 C 
ATOM     18  C   UNL     1      -3.992  70.599  23.738  1.00  0.00     0.008 C 
ATOM     19  C   UNL     1      -5.950  70.927  25.260  1.00  0.00     0.008 C 
ENDBRANCH  12  17
ENDBRANCH  11  12
ENDBRANCH   1  11
TORSDOF 1
ENDMDL
MODEL 7
REMARK VINA RESULT:    -3.416      6.887      9.264
REMARK INTER + INTRA:          -5.002
REMARK INTER:                  -4.679
REMARK INTRA:                  -0.323
REMARK UNBOUND:                 0.211
REMARK SMILES CC1=CCC[C@H](C)C(=O)C[C@H](C(C)C)C(=O)C1
REMARK SMILES IDX 8 1 9 2 6 3 7 4 5 5 4 6 3 7 2 8 1 9 10 11 11 12 15 13 16 14
REMARK SMILES IDX 17 15 12 17 13 18 14 19
REMARK H PARENT
REMARK Flexibility Score: 70.00
ROOT
ATOM      1  C   UNL     1      -6.758  73.413  20.703  1.00  0.00     0.136 C 
ATOM      2  O   UNL     1      -7.775  73.475  20.026  1.00  0.00    -0.299 OA
ENDROOT
BRANCH   1   3
ATOM      3  C   UNL     1      -5.495  72.863  20.042  1.00  0.00     0.053 C 
ATOM      4  C   UNL     1      -4.235  73.643  20.462  1.00  0.00     0.016 C 
BRANCH   3   5
ATOM      5  C   UNL     1      -5.266  71.327  20.087  1.00  0.00     0.015 C 
BRANCH   5   6
ATOM      6  C   UNL     1      -4.234  70.739  21.071  1.00  0.00     0.028 C 
BRANCH   6   7
ATOM      7  C   UNL     1      -4.773  69.796  22.116  1.00  0.00    -0.028 C 
ATOM      8  C   UNL     1      -5.465  70.120  23.241  1.00  0.00    -0.070 CG0
ATOM      9  C   UNL     1      -6.021  68.969  24.046  1.00  0.00     0.039 C 
ATOM     10  G   UNL     1      -5.584  71.518  23.844  1.00  0.00     0.000 G0
ENDBRANCH   6   7
ENDBRANCH   5   6
ENDBRANCH   3   5
ENDBRANCH   1   3
BRANCH   1  11
ATOM     11  C   UNL     1      -6.877  73.745  22.177  1.00  0.00     0.087 C 
BRANCH  11  12
ATOM     12  C   UNL     1      -7.770  72.769  23.001  1.00  0.00     0.066 C 
BRANCH  12  13
ATOM     13  C   UNL     1      -6.978  72.048  24.090  1.00  0.00     0.140 C 
ATOM     14  O   UNL     1      -7.457  71.959  25.211  1.00  0.00    -0.299 OA
BRANCH  13  15
ATOM     15  C   UNL     1      -5.581  71.533  23.852  1.00  0.00     0.106 CG0
ATOM     16  G   UNL     1      -5.473  70.128  23.263  1.00  0.00     0.000 G0
ENDBRANCH  13  15
ENDBRANCH  12  13
BRANCH  12  17
ATOM     17  C   UNL     1      -9.086  73.398  23.570  1.00  0.00    -0.006 C 
ATOM     18  C   UNL     1      -9.523  74.648  22.785  1.00  0.00     0.008 C 
ATOM     19  C   UNL     1     -10.238  72.377  23.553  1.00  0.00     0.008 C 
ENDBRANCH  12  17
ENDBRANCH  11  12
ENDBRANCH   1  11
TORSDOF 1
ENDMDL
MODEL 8
REMARK VINA RESULT:    -3.364      7.163      9.479
REMARK INTER + INTRA:          -4.923
REMARK INTER:                  -4.505
REMARK INTRA:                  -0.418
REMARK UNBOUND:                 0.211
REMARK SMILES CC1=CCC[C@H](C)C(=O)C[C@H](C(C)C)C(=O)C1
REMARK SMILES IDX 8 1 9 2 6 3 7 4 5 5 4 6 3 7 2 8 1 9 10 11 11 12 15 13 16 14
REMARK SMILES IDX 17 15 12 17 13 18 14 19
REMARK H PARENT
REMARK Flexibility Score: 70.00
ROOT
ATOM      1  C   UNL     1      -4.633  71.096  24.712  1.00  0.00     0.136 C 
ATOM      2  O   UNL     1      -4.180  72.213  24.504  1.00  0.00    -0.299 OA
ENDROOT
BRANCH   1   3
ATOM      3  C   UNL     1      -6.118  70.867  24.433  1.00  0.00     0.053 C 
ATOM      4  C   UNL     1      -6.942  72.159  24.586  1.00  0.00     0.016 C 
BRANCH   3   5
ATOM      5  C   UNL     1      -6.500  70.086  23.145  1.00  0.00     0.015 C 
BRANCH   5   6
ATOM      6  C   UNL     1      -5.395  69.400  22.315  1.00  0.00     0.028 C 
BRANCH   6   7
ATOM      7  C   UNL     1      -5.438  67.894  22.267  1.00  0.00    -0.028 C 
ATOM      8  C   UNL     1      -4.937  67.025  23.185  1.00  0.00    -0.070 CG0
ATOM      9  C   UNL     1      -5.246  65.562  22.969  1.00  0.00     0.039 C 
ATOM     10  G   UNL     1      -3.963  67.375  24.308  1.00  0.00     0.000 G0
ENDBRANCH   6   7
ENDBRANCH   5   6
ENDBRANCH   3   5
ENDBRANCH   1   3
BRANCH   1  11
ATOM     11  C   UNL     1      -3.719  70.081  25.369  1.00  0.00     0.087 C 
BRANCH  11  12
ATOM     12  C   UNL     1      -4.434  69.063  26.308  1.00  0.00     0.066 C 
BRANCH  12  13
ATOM     13  C   UNL     1      -4.595  67.693  25.654  1.00  0.00     0.140 C 
ATOM     14  O   UNL     1      -5.172  66.807  26.267  1.00  0.00    -0.299 OA
BRANCH  13  15
ATOM     15  C   UNL     1      -3.975  67.369  24.318  1.00  0.00     0.106 CG0
ATOM     16  G   UNL     1      -4.946  67.024  23.192  1.00  0.00     0.000 G0
ENDBRANCH  13  15
ENDBRANCH  12  13
BRANCH  12  17
ATOM     17  C   UNL     1      -3.820  68.945  27.744  1.00  0.00    -0.006 C 
ATOM     18  C   UNL     1      -2.512  69.745  27.887  1.00  0.00     0.008 C 
ATOM     19  C   UNL     1      -4.815  69.432  28.812  1.00  0.00     0.008 C 
ENDBRANCH  12  17
ENDBRANCH  11  12
ENDBRANCH   1  11
TORSDOF 1
ENDMDL
MODEL 9
REMARK VINA RESULT:    -3.311      7.727      9.448
REMARK INTER + INTRA:          -4.841
REMARK INTER:                  -4.533
REMARK INTRA:                  -0.308
REMARK UNBOUND:                 0.211
REMARK SMILES CC1=CCC[C@H](C)C(=O)C[C@H](C(C)C)C(=O)C1
REMARK SMILES IDX 8 1 9 2 6 3 7 4 5 5 4 6 3 7 2 8 1 9 10 11 11 12 15 13 16 14
REMARK SMILES IDX 17 15 12 17 13 18 14 19
REMARK H PARENT
REMARK Flexibility Score: 70.00
ROOT
ATOM      1  C   UNL     1      -3.761  69.171  28.180  1.00  0.00     0.136 C 
ATOM      2  O   UNL     1      -3.945  69.653  29.288  1.00  0.00    -0.299 OA
ENDROOT
BRANCH   1   3
ATOM      3  C   UNL     1      -3.754  70.121  26.982  1.00  0.00     0.053 C 
ATOM      4  C   UNL     1      -2.357  70.236  26.342  1.00  0.00     0.016 C 
BRANCH   3   5
ATOM      5  C   UNL     1      -4.867  69.945  25.912  1.00  0.00     0.015 C 
BRANCH   5   6
ATOM      6  C   UNL     1      -4.516  69.334  24.541  1.00  0.00     0.028 C 
BRANCH   6   7
ATOM      7  C   UNL     1      -5.440  68.255  24.036  1.00  0.00    -0.028 C 
ATOM      8  C   UNL     1      -5.661  67.033  24.589  1.00  0.00    -0.070 CG0
ATOM      9  C   UNL     1      -6.753  66.197  23.964  1.00  0.00     0.039 C 
ATOM     10  G   UNL     1      -4.803  66.372  25.665  1.00  0.00     0.000 G0
ENDBRANCH   6   7
ENDBRANCH   5   6
ENDBRANCH   3   5
ENDBRANCH   1   3
BRANCH   1  11
ATOM     11  C   UNL     1      -3.708  67.661  28.073  1.00  0.00     0.087 C 
BRANCH  11  12
ATOM     12  C   UNL     1      -5.082  66.941  28.233  1.00  0.00     0.066 C 
BRANCH  12  13
ATOM     13  C   UNL     1      -5.454  66.132  26.993  1.00  0.00     0.140 C 
ATOM     14  O   UNL     1      -6.248  65.209  27.103  1.00  0.00    -0.299 OA
BRANCH  13  15
ATOM     15  C   UNL     1      -4.795  66.370  25.658  1.00  0.00     0.106 CG0
ATOM     16  G   UNL     1      -5.656  67.044  24.593  1.00  0.00     0.000 G0
ENDBRANCH  13  15
ENDBRANCH  12  13
BRANCH  12  17
ATOM     17  C   UNL     1      -5.234  66.091  29.540  1.00  0.00    -0.006 C 
ATOM     18  C   UNL     1      -3.874  65.714  30.154  1.00  0.00     0.008 C 
ATOM     19  C   UNL     1      -6.060  66.847  30.597  1.00  0.00     0.008 C 
ENDBRANCH  12  17
ENDBRANCH  11  12
ENDBRANCH   1  11
TORSDOF 1
ENDMDL
