MODEL 1
REMARK VINA RESULT:    -5.138      0.000      0.000
REMARK INTER + INTRA:          -5.617
REMARK INTER:                  -5.588
REMARK INTRA:                  -0.028
REMARK UNBOUND:                -0.028
REMARK SMILES O=C([O-])c1ccc(O)cc1
REMARK SMILES IDX 7 1 6 2 9 3 5 4 10 5 4 6 8 7 2 9 1 10 3 11
REMARK H PARENT 8 8
REMARK Flexibility Score: inf
ROOT
ATOM      1  C   UNL     1     -10.528  -2.861  17.113  1.00  0.00     0.115 A 
ATOM      2  C   UNL     1      -9.386  -3.616  16.826  1.00  0.00     0.047 A 
ATOM      3  C   UNL     1     -11.787  -3.331  16.718  1.00  0.00     0.047 A 
ATOM      4  C   UNL     1      -9.498  -4.833  16.148  1.00  0.00     0.014 A 
ATOM      5  C   UNL     1     -11.902  -4.549  16.041  1.00  0.00     0.014 A 
ATOM      6  C   UNL     1     -10.759  -5.313  15.749  1.00  0.00    -0.003 A 
ENDROOT
BRANCH   1   7
ATOM      7  O   UNL     1     -10.399  -1.649  17.788  1.00  0.00    -0.508 OA
ATOM      8  H   UNL     1     -10.152  -0.796  17.300  1.00  0.00     0.293 HD
ENDBRANCH   1   7
BRANCH   6   9
ATOM      9  C   UNL     1     -10.884  -6.601  15.033  1.00  0.00     0.071 C 
ATOM     10  O   UNL     1     -11.498  -7.569  15.556  1.00  0.00    -0.545 OA
ATOM     11  O   UNL     1     -10.324  -6.762  13.770  1.00  0.00    -0.545 OA
ENDBRANCH   6   9
TORSDOF 2
ENDMDL
MODEL 2
REMARK VINA RESULT:    -5.129      0.060      1.533
REMARK INTER + INTRA:          -5.608
REMARK INTER:                  -5.579
REMARK INTRA:                  -0.028
REMARK UNBOUND:                -0.028
REMARK SMILES O=C([O-])c1ccc(O)cc1
REMARK SMILES IDX 7 1 6 2 9 3 5 4 10 5 4 6 8 7 2 9 1 10 3 11
REMARK H PARENT 8 8
REMARK Flexibility Score: inf
ROOT
ATOM      1  C   UNL     1     -10.477  -2.868  17.109  1.00  0.00     0.115 A 
ATOM      2  C   UNL     1     -11.736  -3.332  16.715  1.00  0.00     0.047 A 
ATOM      3  C   UNL     1      -9.335  -3.621  16.807  1.00  0.00     0.047 A 
ATOM      4  C   UNL     1     -11.858  -4.540  16.023  1.00  0.00     0.014 A 
ATOM      5  C   UNL     1      -9.453  -4.830  16.115  1.00  0.00     0.014 A 
ATOM      6  C   UNL     1     -10.715  -5.303  15.715  1.00  0.00    -0.003 A 
ENDROOT
BRANCH   1   7
ATOM      7  O   UNL     1     -10.372  -1.662  17.798  1.00  0.00    -0.508 OA
ATOM      8  H   UNL     1     -11.065  -0.930  17.691  1.00  0.00     0.293 HD
ENDBRANCH   1   7
BRANCH   6   9
ATOM      9  C   UNL     1     -10.837  -6.582  14.983  1.00  0.00     0.071 C 
ATOM     10  O   UNL     1     -11.454  -7.556  15.492  1.00  0.00    -0.545 OA
ATOM     11  O   UNL     1     -10.271  -6.727  13.721  1.00  0.00    -0.545 OA
ENDBRANCH   6   9
TORSDOF 2
ENDMDL
MODEL 3
REMARK VINA RESULT:    -5.114      3.435      5.154
REMARK INTER + INTRA:          -5.591
REMARK INTER:                  -5.562
REMARK INTRA:                  -0.029
REMARK UNBOUND:                -0.028
REMARK SMILES O=C([O-])c1ccc(O)cc1
REMARK SMILES IDX 7 1 6 2 9 3 5 4 10 5 4 6 8 7 2 9 1 10 3 11
REMARK H PARENT 8 8
REMARK Flexibility Score: inf
ROOT
ATOM      1  C   UNL     1     -10.753  -5.391  10.322  1.00  0.00     0.115 A 
ATOM      2  C   UNL     1      -9.595  -5.774  11.005  1.00  0.00     0.047 A 
ATOM      3  C   UNL     1     -11.998  -5.500  10.954  1.00  0.00     0.047 A 
ATOM      4  C   UNL     1      -9.676  -6.264  12.312  1.00  0.00     0.014 A 
ATOM      5  C   UNL     1     -12.084  -5.989  12.261  1.00  0.00     0.014 A 
ATOM      6  C   UNL     1     -10.923  -6.376  12.954  1.00  0.00    -0.003 A 
ENDROOT
BRANCH   1   7
ATOM      7  O   UNL     1     -10.655  -4.906   9.020  1.00  0.00    -0.508 OA
ATOM      8  H   UNL     1      -9.760  -4.656   8.615  1.00  0.00     0.293 HD
ENDBRANCH   1   7
BRANCH   6   9
ATOM      9  C   UNL     1     -11.016  -6.893  14.337  1.00  0.00     0.071 C 
ATOM     10  O   UNL     1     -10.663  -8.072  14.606  1.00  0.00    -0.545 OA
ATOM     11  O   UNL     1     -11.497  -6.083  15.360  1.00  0.00    -0.545 OA
ENDBRANCH   6   9
TORSDOF 2
ENDMDL
MODEL 4
REMARK VINA RESULT:    -4.985      2.389      4.541
REMARK INTER + INTRA:          -5.451
REMARK INTER:                  -5.421
REMARK INTRA:                  -0.030
REMARK UNBOUND:                -0.028
REMARK SMILES O=C([O-])c1ccc(O)cc1
REMARK SMILES IDX 7 1 6 2 9 3 5 4 10 5 4 6 8 7 2 9 1 10 3 11
REMARK H PARENT 8 8
REMARK Flexibility Score: inf
ROOT
ATOM      1  C   UNL     1     -11.094  -7.769  15.004  1.00  0.00     0.115 A 
ATOM      2  C   UNL     1     -11.466  -6.687  15.809  1.00  0.00     0.047 A 
ATOM      3  C   UNL     1     -10.544  -7.533  13.737  1.00  0.00     0.047 A 
ATOM      4  C   UNL     1     -11.291  -5.377  15.355  1.00  0.00     0.014 A 
ATOM      5  C   UNL     1     -10.367  -6.223  13.280  1.00  0.00     0.014 A 
ATOM      6  C   UNL     1     -10.739  -5.131  14.083  1.00  0.00    -0.003 A 
ENDROOT
BRANCH   1   7
ATOM      7  O   UNL     1     -11.275  -9.069  15.471  1.00  0.00    -0.508 OA
ATOM      8  H   UNL     1     -12.134  -9.351  15.928  1.00  0.00     0.293 HD
ENDBRANCH   1   7
BRANCH   6   9
ATOM      9  C   UNL     1     -10.550  -3.747  13.597  1.00  0.00     0.071 C 
ATOM     10  O   UNL     1     -11.019  -3.390  12.484  1.00  0.00    -0.545 OA
ATOM     11  O   UNL     1      -9.852  -2.821  14.364  1.00  0.00    -0.545 OA
ENDBRANCH   6   9
TORSDOF 2
ENDMDL
MODEL 5
REMARK VINA RESULT:    -4.979      3.675      5.111
REMARK INTER + INTRA:          -5.444
REMARK INTER:                  -5.414
REMARK INTRA:                  -0.030
REMARK UNBOUND:                -0.028
REMARK SMILES O=C([O-])c1ccc(O)cc1
REMARK SMILES IDX 7 1 6 2 9 3 5 4 10 5 4 6 8 7 2 9 1 10 3 11
REMARK H PARENT 8 8
REMARK Flexibility Score: inf
ROOT
ATOM      1  C   UNL     1     -10.493  -6.675  13.851  1.00  0.00     0.115 A 
ATOM      2  C   UNL     1      -9.769  -6.145  12.778  1.00  0.00     0.047 A 
ATOM      3  C   UNL     1     -11.890  -6.754  13.772  1.00  0.00     0.047 A 
ATOM      4  C   UNL     1     -10.432  -5.696  11.633  1.00  0.00     0.014 A 
ATOM      5  C   UNL     1     -12.556  -6.306  12.627  1.00  0.00     0.014 A 
ATOM      6  C   UNL     1     -11.835  -5.772  11.545  1.00  0.00    -0.003 A 
ENDROOT
BRANCH   1   7
ATOM      7  O   UNL     1      -9.818  -7.118  14.986  1.00  0.00    -0.508 OA
ATOM      8  H   UNL     1      -9.604  -8.099  15.124  1.00  0.00     0.293 HD
ENDBRANCH   1   7
BRANCH   6   9
ATOM      9  C   UNL     1     -12.542  -5.300  10.336  1.00  0.00     0.071 C 
ATOM     10  O   UNL     1     -12.188  -5.692   9.192  1.00  0.00    -0.545 OA
ATOM     11  O   UNL     1     -13.609  -4.414  10.444  1.00  0.00    -0.545 OA
ENDBRANCH   6   9
TORSDOF 2
ENDMDL
MODEL 6
REMARK VINA RESULT:    -4.955      2.040      4.090
REMARK INTER + INTRA:          -5.417
REMARK INTER:                  -5.383
REMARK INTRA:                  -0.035
REMARK UNBOUND:                -0.028
REMARK SMILES O=C([O-])c1ccc(O)cc1
REMARK SMILES IDX 7 1 6 2 9 3 5 4 10 5 4 6 8 7 2 9 1 10 3 11
REMARK H PARENT 8 8
REMARK Flexibility Score: inf
ROOT
ATOM      1  C   UNL     1     -12.129  -4.165  15.036  1.00  0.00     0.115 A 
ATOM      2  C   UNL     1     -12.386  -3.488  16.233  1.00  0.00     0.047 A 
ATOM      3  C   UNL     1     -10.807  -4.461  14.678  1.00  0.00     0.047 A 
ATOM      4  C   UNL     1     -11.333  -3.109  17.069  1.00  0.00     0.014 A 
ATOM      5  C   UNL     1      -9.751  -4.084  15.513  1.00  0.00     0.014 A 
ATOM      6  C   UNL     1     -10.002  -3.404  16.717  1.00  0.00    -0.003 A 
ENDROOT
BRANCH   1   7
ATOM      7  O   UNL     1     -13.190  -4.536  14.213  1.00  0.00    -0.508 OA
ATOM      8  H   UNL     1     -13.095  -5.280  13.532  1.00  0.00     0.293 HD
ENDBRANCH   1   7
BRANCH   6   9
ATOM      9  C   UNL     1      -8.883  -3.006  17.598  1.00  0.00     0.071 C 
ATOM     10  O   UNL     1      -9.083  -2.760  18.817  1.00  0.00    -0.545 OA
ATOM     11  O   UNL     1      -7.592  -2.896  17.091  1.00  0.00    -0.545 OA
ENDBRANCH   6   9
TORSDOF 2
ENDMDL
MODEL 7
REMARK VINA RESULT:    -4.954      1.961      2.709
REMARK INTER + INTRA:          -5.417
REMARK INTER:                  -5.383
REMARK INTRA:                  -0.035
REMARK UNBOUND:                -0.028
REMARK SMILES O=C([O-])c1ccc(O)cc1
REMARK SMILES IDX 7 1 6 2 9 3 5 4 10 5 4 6 8 7 2 9 1 10 3 11
REMARK H PARENT 8 8
REMARK Flexibility Score: inf
ROOT
ATOM      1  C   UNL     1      -9.109  -3.022  17.893  1.00  0.00     0.115 A 
ATOM      2  C   UNL     1     -10.415  -2.535  18.011  1.00  0.00     0.047 A 
ATOM      3  C   UNL     1      -8.786  -3.892  16.844  1.00  0.00     0.047 A 
ATOM      4  C   UNL     1     -11.394  -2.912  17.087  1.00  0.00     0.014 A 
ATOM      5  C   UNL     1      -9.762  -4.271  15.918  1.00  0.00     0.014 A 
ATOM      6  C   UNL     1     -11.077  -3.785  16.029  1.00  0.00    -0.003 A 
ENDROOT
BRANCH   1   7
ATOM      7  O   UNL     1      -8.145  -2.637  18.822  1.00  0.00    -0.508 OA
ATOM      8  H   UNL     1      -8.284  -1.835  19.426  1.00  0.00     0.293 HD
ENDBRANCH   1   7
BRANCH   6   9
ATOM      9  C   UNL     1     -12.108  -4.187  15.048  1.00  0.00     0.071 C 
ATOM     10  O   UNL     1     -11.978  -5.248  14.380  1.00  0.00    -0.545 OA
ATOM     11  O   UNL     1     -13.236  -3.399  14.849  1.00  0.00    -0.545 OA
ENDBRANCH   6   9
TORSDOF 2
ENDMDL
MODEL 8
REMARK VINA RESULT:    -4.883      4.034      5.994
REMARK INTER + INTRA:          -5.340
REMARK INTER:                  -5.310
REMARK INTRA:                  -0.030
REMARK UNBOUND:                -0.028
REMARK SMILES O=C([O-])c1ccc(O)cc1
REMARK SMILES IDX 7 1 6 2 9 3 5 4 10 5 4 6 8 7 2 9 1 10 3 11
REMARK H PARENT 8 8
REMARK Flexibility Score: inf
ROOT
ATOM      1  C   UNL     1     -11.667  -5.645   9.641  1.00  0.00     0.115 A 
ATOM      2  C   UNL     1     -12.480  -5.626  10.778  1.00  0.00     0.047 A 
ATOM      3  C   UNL     1     -10.275  -5.700   9.784  1.00  0.00     0.047 A 
ATOM      4  C   UNL     1     -11.908  -5.661  12.053  1.00  0.00     0.014 A 
ATOM      5  C   UNL     1      -9.700  -5.736  11.058  1.00  0.00     0.014 A 
ATOM      6  C   UNL     1     -10.510  -5.717  12.207  1.00  0.00    -0.003 A 
ENDROOT
BRANCH   1   7
ATOM      7  O   UNL     1     -12.252  -5.609   8.377  1.00  0.00    -0.508 OA
ATOM      8  H   UNL     1     -12.935  -4.902   8.131  1.00  0.00     0.293 HD
ENDBRANCH   1   7
BRANCH   6   9
ATOM      9  C   UNL     1      -9.900  -5.756  13.553  1.00  0.00     0.071 C 
ATOM     10  O   UNL     1     -10.242  -6.636  14.387  1.00  0.00    -0.545 OA
ATOM     11  O   UNL     1      -8.939  -4.819  13.917  1.00  0.00    -0.545 OA
ENDBRANCH   6   9
TORSDOF 2
ENDMDL
MODEL 9
REMARK VINA RESULT:    -4.881      1.415      4.037
REMARK INTER + INTRA:          -5.338
REMARK INTER:                  -5.307
REMARK INTRA:                  -0.031
REMARK UNBOUND:                -0.028
REMARK SMILES O=C([O-])c1ccc(O)cc1
REMARK SMILES IDX 7 1 6 2 9 3 5 4 10 5 4 6 8 7 2 9 1 10 3 11
REMARK H PARENT 8 8
REMARK Flexibility Score: inf
ROOT
ATOM      1  C   UNL     1     -11.333  -6.001  15.273  1.00  0.00     0.115 A 
ATOM      2  C   UNL     1      -9.996  -6.324  15.526  1.00  0.00     0.047 A 
ATOM      3  C   UNL     1     -11.829  -4.750  15.662  1.00  0.00     0.047 A 
ATOM      4  C   UNL     1      -9.157  -5.405  16.162  1.00  0.00     0.014 A 
ATOM      5  C   UNL     1     -10.993  -3.828  16.298  1.00  0.00     0.014 A 
ATOM      6  C   UNL     1      -9.647  -4.146  16.556  1.00  0.00    -0.003 A 
ENDROOT
BRANCH   1   7
ATOM      7  O   UNL     1     -12.157  -6.928  14.638  1.00  0.00    -0.508 OA
ATOM      8  H   UNL     1     -11.773  -7.727  14.148  1.00  0.00     0.293 HD
ENDBRANCH   1   7
BRANCH   6   9
ATOM      9  C   UNL     1      -8.764  -3.169  17.229  1.00  0.00     0.071 C 
ATOM     10  O   UNL     1      -9.138  -2.585  18.281  1.00  0.00    -0.545 OA
ATOM     11  O   UNL     1      -7.507  -2.880  16.708  1.00  0.00    -0.545 OA
ENDBRANCH   6   9
TORSDOF 2
ENDMDL
