MODEL 1
REMARK VINA RESULT:    -4.945      0.000      0.000
REMARK INTER + INTRA:          -5.378
REMARK INTER:                  -5.378
REMARK INTRA:                   0.000
REMARK UNBOUND:                 0.000
REMARK SMILES Cc1cc(O)c2c(c1)C(=O)c1cc(O)cc(O)c1C2=O
REMARK SMILES IDX 1 1 2 2 8 3 7 4 6 5 4 6 3 7 19 8 20 9 18 10 11 11 9 12 10 13
REMARK SMILES IDX 12 14 13 15 15 16 16 17 5 18 17 20 14 22
REMARK H PARENT 5 19 17 21 14 23
REMARK Flexibility Score: inf
ROOT
ATOM      1  C   UNL     1      16.236  -8.296 -27.639  1.00  0.00     0.044 C 
ATOM      2  C   UNL     1      15.475  -8.394 -28.929  1.00  0.00    -0.047 A 
ATOM      3  C   UNL     1      15.926  -7.714 -30.066  1.00  0.00     0.016 A 
ATOM      4  C   UNL     1      15.237  -7.822 -31.285  1.00  0.00     0.038 A 
ATOM      5  C   UNL     1      14.077  -8.625 -31.368  1.00  0.00     0.076 A 
ATOM      6  C   UNL     1      13.674  -9.378 -30.236  1.00  0.00     0.127 A 
ATOM      7  C   UNL     1      14.364  -9.238 -29.028  1.00  0.00     0.050 A 
ATOM      8  C   UNL     1      13.293  -8.597 -32.630  1.00  0.00     0.201 C 
ATOM      9  O   UNL     1      12.048  -8.784 -32.598  1.00  0.00    -0.288 OA
ATOM     10  C   UNL     1      13.943  -8.165 -33.894  1.00  0.00     0.076 A 
ATOM     11  C   UNL     1      15.105  -7.364 -33.807  1.00  0.00     0.041 A 
ATOM     12  C   UNL     1      15.725  -7.104 -32.487  1.00  0.00     0.194 C 
ATOM     13  O   UNL     1      16.685  -6.291 -32.389  1.00  0.00    -0.289 OA
ATOM     14  C   UNL     1      15.670  -6.823 -34.975  1.00  0.00     0.059 A 
ATOM     15  C   UNL     1      15.100  -7.082 -36.225  1.00  0.00     0.120 A 
ATOM     16  C   UNL     1      13.977  -7.903 -36.317  1.00  0.00     0.093 A 
ATOM     17  C   UNL     1      13.409  -8.471 -35.173  1.00  0.00     0.131 A 
ENDROOT
BRANCH   6  18
ATOM     18  O   UNL     1      12.624 -10.298 -30.275  1.00  0.00    -0.507 OA
ATOM     19  H   UNL     1      12.568 -11.107 -29.672  1.00  0.00     0.293 HD
ENDBRANCH   6  18
BRANCH  17  20
ATOM     20  O   UNL     1      12.344  -9.357 -35.355  1.00  0.00    -0.507 OA
ATOM     21  H   UNL     1      12.462 -10.342 -35.549  1.00  0.00     0.293 HD
ENDBRANCH  17  20
BRANCH  15  22
ATOM     22  O   UNL     1      15.650  -6.536 -37.382  1.00  0.00    -0.508 OA
ATOM     23  H   UNL     1      15.909  -5.558 -37.436  1.00  0.00     0.293 HD
ENDBRANCH  15  22
TORSDOF 3
ENDMDL
MODEL 2
REMARK VINA RESULT:    -4.924      1.458      5.522
REMARK INTER + INTRA:          -5.356
REMARK INTER:                  -5.356
REMARK INTRA:                   0.000
REMARK UNBOUND:                 0.000
REMARK SMILES Cc1cc(O)c2c(c1)C(=O)c1cc(O)cc(O)c1C2=O
REMARK SMILES IDX 1 1 2 2 8 3 7 4 6 5 4 6 3 7 19 8 20 9 18 10 11 11 9 12 10 13
REMARK SMILES IDX 12 14 13 15 15 16 16 17 5 18 17 20 14 22
REMARK H PARENT 5 19 17 21 14 23
REMARK Flexibility Score: inf
ROOT
ATOM      1  C   UNL     1      15.351  -5.458 -36.565  1.00  0.00     0.044 C 
ATOM      2  C   UNL     1      14.941  -6.364 -35.442  1.00  0.00    -0.047 A 
ATOM      3  C   UNL     1      15.630  -6.332 -34.224  1.00  0.00     0.016 A 
ATOM      4  C   UNL     1      15.237  -7.156 -33.157  1.00  0.00     0.038 A 
ATOM      5  C   UNL     1      14.136  -8.028 -33.310  1.00  0.00     0.076 A 
ATOM      6  C   UNL     1      13.390  -7.994 -34.516  1.00  0.00     0.127 A 
ATOM      7  C   UNL     1      13.813  -7.180 -35.572  1.00  0.00     0.050 A 
ATOM      8  C   UNL     1      13.841  -8.988 -32.216  1.00  0.00     0.201 C 
ATOM      9  O   UNL     1      13.313 -10.100 -32.482  1.00  0.00    -0.288 OA
ATOM     10  C   UNL     1      14.340  -8.717 -30.842  1.00  0.00     0.076 A 
ATOM     11  C   UNL     1      15.441  -7.843 -30.692  1.00  0.00     0.041 A 
ATOM     12  C   UNL     1      15.968  -7.111 -31.868  1.00  0.00     0.194 C 
ATOM     13  O   UNL     1      17.025  -6.429 -31.765  1.00  0.00    -0.289 OA
ATOM     14  C   UNL     1      16.027  -7.668 -29.427  1.00  0.00     0.059 A 
ATOM     15  C   UNL     1      15.521  -8.342 -28.311  1.00  0.00     0.120 A 
ATOM     16  C   UNL     1      14.411  -9.174 -28.449  1.00  0.00     0.093 A 
ATOM     17  C   UNL     1      13.796  -9.348 -29.693  1.00  0.00     0.131 A 
ENDROOT
BRANCH   6  18
ATOM     18  O   UNL     1      12.210  -8.720 -34.696  1.00  0.00    -0.507 OA
ATOM     19  H   UNL     1      12.188  -9.712 -34.887  1.00  0.00     0.293 HD
ENDBRANCH   6  18
BRANCH  17  20
ATOM     20  O   UNL     1      12.635 -10.123 -29.734  1.00  0.00    -0.507 OA
ATOM     21  H   UNL     1      12.161 -10.464 -28.909  1.00  0.00     0.293 HD
ENDBRANCH  17  20
BRANCH  15  22
ATOM     22  O   UNL     1      16.108  -8.181 -27.058  1.00  0.00    -0.508 OA
ATOM     23  H   UNL     1      16.474  -8.971 -26.539  1.00  0.00     0.293 HD
ENDBRANCH  15  22
TORSDOF 3
ENDMDL
MODEL 3
REMARK VINA RESULT:    -4.748      3.279      5.998
REMARK INTER + INTRA:          -5.164
REMARK INTER:                  -5.164
REMARK INTRA:                   0.000
REMARK UNBOUND:                 0.000
REMARK SMILES Cc1cc(O)c2c(c1)C(=O)c1cc(O)cc(O)c1C2=O
REMARK SMILES IDX 1 1 2 2 8 3 7 4 6 5 4 6 3 7 19 8 20 9 18 10 11 11 9 12 10 13
REMARK SMILES IDX 12 14 13 15 15 16 16 17 5 18 17 20 14 22
REMARK H PARENT 5 19 17 21 14 23
REMARK Flexibility Score: inf
ROOT
ATOM      1  C   UNL     1      15.917  -3.011 -34.346  1.00  0.00     0.044 C 
ATOM      2  C   UNL     1      15.220  -3.861 -33.324  1.00  0.00    -0.047 A 
ATOM      3  C   UNL     1      15.893  -4.926 -32.716  1.00  0.00     0.016 A 
ATOM      4  C   UNL     1      15.258  -5.710 -31.739  1.00  0.00     0.038 A 
ATOM      5  C   UNL     1      13.927  -5.423 -31.363  1.00  0.00     0.076 A 
ATOM      6  C   UNL     1      13.280  -4.290 -31.920  1.00  0.00     0.127 A 
ATOM      7  C   UNL     1      13.924  -3.537 -32.907  1.00  0.00     0.050 A 
ATOM      8  C   UNL     1      13.240  -6.360 -30.437  1.00  0.00     0.201 C 
ATOM      9  O   UNL     1      11.992  -6.510 -30.509  1.00  0.00    -0.288 OA
ATOM     10  C   UNL     1      14.042  -7.254 -29.562  1.00  0.00     0.076 A 
ATOM     11  C   UNL     1      15.375  -7.538 -29.940  1.00  0.00     0.041 A 
ATOM     12  C   UNL     1      15.981  -6.833 -31.094  1.00  0.00     0.194 C 
ATOM     13  O   UNL     1      17.122  -7.171 -31.512  1.00  0.00    -0.289 OA
ATOM     14  C   UNL     1      16.120  -8.483 -29.216  1.00  0.00     0.059 A 
ATOM     15  C   UNL     1      15.559  -9.136 -28.114  1.00  0.00     0.120 A 
ATOM     16  C   UNL     1      14.259  -8.829 -27.715  1.00  0.00     0.093 A 
ATOM     17  C   UNL     1      13.504  -7.877 -28.406  1.00  0.00     0.131 A 
ENDROOT
BRANCH   6  18
ATOM     18  O   UNL     1      12.020  -3.857 -31.501  1.00  0.00    -0.507 OA
ATOM     19  H   UNL     1      11.727  -2.890 -31.518  1.00  0.00     0.293 HD
ENDBRANCH   6  18
BRANCH  17  20
ATOM     20  O   UNL     1      12.245  -7.557 -27.892  1.00  0.00    -0.507 OA
ATOM     21  H   UNL     1      11.951  -7.784 -26.952  1.00  0.00     0.293 HD
ENDBRANCH  17  20
BRANCH  15  22
ATOM     22  O   UNL     1      16.291 -10.083 -27.402  1.00  0.00    -0.508 OA
ATOM     23  H   UNL     1      16.126 -10.250 -26.416  1.00  0.00     0.293 HD
ENDBRANCH  15  22
TORSDOF 3
ENDMDL
MODEL 4
REMARK VINA RESULT:    -4.719      2.860      3.072
REMARK INTER + INTRA:          -5.133
REMARK INTER:                  -5.133
REMARK INTRA:                   0.000
REMARK UNBOUND:                 0.000
REMARK SMILES Cc1cc(O)c2c(c1)C(=O)c1cc(O)cc(O)c1C2=O
REMARK SMILES IDX 1 1 2 2 8 3 7 4 6 5 4 6 3 7 19 8 20 9 18 10 11 11 9 12 10 13
REMARK SMILES IDX 12 14 13 15 15 16 16 17 5 18 17 20 14 22
REMARK H PARENT 5 19 17 21 14 23
REMARK Flexibility Score: inf
ROOT
ATOM      1  C   UNL     1      16.028 -10.191 -27.204  1.00  0.00     0.044 C 
ATOM      2  C   UNL     1      15.348  -9.106 -27.987  1.00  0.00    -0.047 A 
ATOM      3  C   UNL     1      15.953  -8.579 -29.133  1.00  0.00     0.016 A 
ATOM      4  C   UNL     1      15.311  -7.584 -29.889  1.00  0.00     0.038 A 
ATOM      5  C   UNL     1      14.042  -7.107 -29.489  1.00  0.00     0.076 A 
ATOM      6  C   UNL     1      13.397  -7.705 -28.376  1.00  0.00     0.127 A 
ATOM      7  C   UNL     1      14.064  -8.679 -27.628  1.00  0.00     0.050 A 
ATOM      8  C   UNL     1      13.461  -5.954 -30.224  1.00  0.00     0.201 C 
ATOM      9  O   UNL     1      12.696  -5.151 -29.628  1.00  0.00    -0.288 OA
ATOM     10  C   UNL     1      13.931  -5.643 -31.600  1.00  0.00     0.076 A 
ATOM     11  C   UNL     1      15.200  -6.124 -31.996  1.00  0.00     0.041 A 
ATOM     12  C   UNL     1      15.955  -7.036 -31.106  1.00  0.00     0.194 C 
ATOM     13  O   UNL     1      17.138  -7.366 -31.397  1.00  0.00    -0.289 OA
ATOM     14  C   UNL     1      15.737  -5.738 -33.236  1.00  0.00     0.059 A 
ATOM     15  C   UNL     1      15.019  -4.893 -34.088  1.00  0.00     0.120 A 
ATOM     16  C   UNL     1      13.751  -4.450 -33.717  1.00  0.00     0.093 A 
ATOM     17  C   UNL     1      13.186  -4.837 -32.499  1.00  0.00     0.131 A 
ENDROOT
BRANCH   6  18
ATOM     18  O   UNL     1      12.089  -7.389 -28.002  1.00  0.00    -0.507 OA
ATOM     19  H   UNL     1      11.764  -7.403 -27.045  1.00  0.00     0.293 HD
ENDBRANCH   6  18
BRANCH  17  20
ATOM     20  O   UNL     1      11.875  -4.428 -32.238  1.00  0.00    -0.507 OA
ATOM     21  H   UNL     1      11.097  -4.621 -32.853  1.00  0.00     0.293 HD
ENDBRANCH  17  20
BRANCH  15  22
ATOM     22  O   UNL     1      15.555  -4.498 -35.312  1.00  0.00    -0.508 OA
ATOM     23  H   UNL     1      16.266  -5.047 -35.782  1.00  0.00     0.293 HD
ENDBRANCH  15  22
TORSDOF 3
ENDMDL
MODEL 5
REMARK VINA RESULT:    -4.536      2.586      6.156
REMARK INTER + INTRA:          -4.934
REMARK INTER:                  -4.934
REMARK INTRA:                   0.000
REMARK UNBOUND:                 0.000
REMARK SMILES Cc1cc(O)c2c(c1)C(=O)c1cc(O)cc(O)c1C2=O
REMARK SMILES IDX 1 1 2 2 8 3 7 4 6 5 4 6 3 7 19 8 20 9 18 10 11 11 9 12 10 13
REMARK SMILES IDX 12 14 13 15 15 16 16 17 5 18 17 20 14 22
REMARK H PARENT 5 19 17 21 14 23
REMARK Flexibility Score: inf
ROOT
ATOM      1  C   UNL     1      11.931  -8.800 -36.062  1.00  0.00     0.044 C 
ATOM      2  C   UNL     1      12.306  -8.199 -34.739  1.00  0.00    -0.047 A 
ATOM      3  C   UNL     1      12.902  -8.990 -33.750  1.00  0.00     0.016 A 
ATOM      4  C   UNL     1      13.282  -8.431 -32.519  1.00  0.00     0.038 A 
ATOM      5  C   UNL     1      13.063  -7.057 -32.273  1.00  0.00     0.076 A 
ATOM      6  C   UNL     1      12.536  -6.244 -33.309  1.00  0.00     0.127 A 
ATOM      7  C   UNL     1      12.146  -6.827 -34.519  1.00  0.00     0.050 A 
ATOM      8  C   UNL     1      13.340  -6.533 -30.910  1.00  0.00     0.201 C 
ATOM      9  O   UNL     1      12.676  -5.561 -30.465  1.00  0.00    -0.288 OA
ATOM     10  C   UNL     1      14.264  -7.272 -30.010  1.00  0.00     0.076 A 
ATOM     11  C   UNL     1      14.483  -8.646 -30.261  1.00  0.00     0.041 A 
ATOM     12  C   UNL     1      13.920  -9.273 -31.479  1.00  0.00     0.194 C 
ATOM     13  O   UNL     1      14.006 -10.522 -31.644  1.00  0.00    -0.289 OA
ATOM     14  C   UNL     1      15.239  -9.410 -29.355  1.00  0.00     0.059 A 
ATOM     15  C   UNL     1      15.789  -8.818 -28.214  1.00  0.00     0.120 A 
ATOM     16  C   UNL     1      15.608  -7.455 -27.985  1.00  0.00     0.093 A 
ATOM     17  C   UNL     1      14.878  -6.669 -28.882  1.00  0.00     0.131 A 
ENDROOT
BRANCH   6  18
ATOM     18  O   UNL     1      12.419  -4.857 -33.196  1.00  0.00    -0.507 OA
ATOM     19  H   UNL     1      13.020  -4.204 -33.679  1.00  0.00     0.293 HD
ENDBRANCH   6  18
BRANCH  17  20
ATOM     20  O   UNL     1      14.817  -5.295 -28.633  1.00  0.00    -0.507 OA
ATOM     21  H   UNL     1      15.615  -4.744 -28.347  1.00  0.00     0.293 HD
ENDBRANCH  17  20
BRANCH  15  22
ATOM     22  O   UNL     1      16.528  -9.575 -27.308  1.00  0.00    -0.508 OA
ATOM     23  H   UNL     1      16.474 -10.587 -27.294  1.00  0.00     0.293 HD
ENDBRANCH  15  22
TORSDOF 3
ENDMDL
MODEL 6
REMARK VINA RESULT:    -4.418      2.121      3.468
REMARK INTER + INTRA:          -4.805
REMARK INTER:                  -4.805
REMARK INTRA:                   0.000
REMARK UNBOUND:                 0.000
REMARK SMILES Cc1cc(O)c2c(c1)C(=O)c1cc(O)cc(O)c1C2=O
REMARK SMILES IDX 1 1 2 2 8 3 7 4 6 5 4 6 3 7 19 8 20 9 18 10 11 11 9 12 10 13
REMARK SMILES IDX 12 14 13 15 15 16 16 17 5 18 17 20 14 22
REMARK H PARENT 5 19 17 21 14 23
REMARK Flexibility Score: inf
ROOT
ATOM      1  C   UNL     1      15.900 -10.007 -27.039  1.00  0.00     0.044 C 
ATOM      2  C   UNL     1      15.568  -8.968 -28.070  1.00  0.00    -0.047 A 
ATOM      3  C   UNL     1      15.079  -9.352 -29.324  1.00  0.00     0.016 A 
ATOM      4  C   UNL     1      14.738  -8.387 -30.287  1.00  0.00     0.038 A 
ATOM      5  C   UNL     1      14.890  -7.014 -29.989  1.00  0.00     0.076 A 
ATOM      6  C   UNL     1      15.306  -6.630 -28.688  1.00  0.00     0.127 A 
ATOM      7  C   UNL     1      15.658  -7.609 -27.754  1.00  0.00     0.050 A 
ATOM      8  C   UNL     1      14.662  -6.029 -31.078  1.00  0.00     0.201 C 
ATOM      9  O   UNL     1      15.292  -4.940 -31.080  1.00  0.00    -0.288 OA
ATOM     10  C   UNL     1      13.838  -6.409 -32.255  1.00  0.00     0.076 A 
ATOM     11  C   UNL     1      13.686  -7.784 -32.549  1.00  0.00     0.041 A 
ATOM     12  C   UNL     1      14.213  -8.802 -31.609  1.00  0.00     0.194 C 
ATOM     13  O   UNL     1      14.193 -10.023 -31.925  1.00  0.00    -0.289 OA
ATOM     14  C   UNL     1      13.031  -8.179 -33.727  1.00  0.00     0.059 A 
ATOM     15  C   UNL     1      12.515  -7.222 -34.606  1.00  0.00     0.120 A 
ATOM     16  C   UNL     1      12.628  -5.867 -34.301  1.00  0.00     0.093 A 
ATOM     17  C   UNL     1      13.256  -5.449 -33.124  1.00  0.00     0.131 A 
ENDROOT
BRANCH   6  18
ATOM     18  O   UNL     1      15.347  -5.298 -28.271  1.00  0.00    -0.507 OA
ATOM     19  H   UNL     1      14.666  -4.604 -28.548  1.00  0.00     0.293 HD
ENDBRANCH   6  18
BRANCH  17  20
ATOM     20  O   UNL     1      13.250  -4.081 -32.841  1.00  0.00    -0.507 OA
ATOM     21  H   UNL     1      12.890  -3.690 -31.981  1.00  0.00     0.293 HD
ENDBRANCH  17  20
BRANCH  15  22
ATOM     22  O   UNL     1      11.876  -7.611 -35.782  1.00  0.00    -0.508 OA
ATOM     23  H   UNL     1      12.102  -7.184 -36.674  1.00  0.00     0.293 HD
ENDBRANCH  15  22
TORSDOF 3
ENDMDL
MODEL 7
REMARK VINA RESULT:    -4.395      0.934      1.022
REMARK INTER + INTRA:          -4.781
REMARK INTER:                  -4.781
REMARK INTRA:                   0.000
REMARK UNBOUND:                 0.000
REMARK SMILES Cc1cc(O)c2c(c1)C(=O)c1cc(O)cc(O)c1C2=O
REMARK SMILES IDX 1 1 2 2 8 3 7 4 6 5 4 6 3 7 19 8 20 9 18 10 11 11 9 12 10 13
REMARK SMILES IDX 12 14 13 15 15 16 16 17 5 18 17 20 14 22
REMARK H PARENT 5 19 17 21 14 23
REMARK Flexibility Score: inf
ROOT
ATOM      1  C   UNL     1      15.954  -8.777 -27.821  1.00  0.00     0.044 C 
ATOM      2  C   UNL     1      15.362  -8.541 -29.180  1.00  0.00    -0.047 A 
ATOM      3  C   UNL     1      16.099  -7.868 -30.161  1.00  0.00     0.016 A 
ATOM      4  C   UNL     1      15.565  -7.666 -31.445  1.00  0.00     0.038 A 
ATOM      5  C   UNL     1      14.272  -8.146 -31.752  1.00  0.00     0.076 A 
ATOM      6  C   UNL     1      13.566  -8.901 -30.781  1.00  0.00     0.127 A 
ATOM      7  C   UNL     1      14.109  -9.071 -29.503  1.00  0.00     0.050 A 
ATOM      8  C   UNL     1      13.683  -7.786 -33.067  1.00  0.00     0.201 C 
ATOM      9  O   UNL     1      12.435  -7.666 -33.183  1.00  0.00    -0.288 OA
ATOM     10  C   UNL     1      14.572  -7.386 -34.189  1.00  0.00     0.076 A 
ATOM     11  C   UNL     1      15.865  -6.908 -33.878  1.00  0.00     0.041 A 
ATOM     12  C   UNL     1      16.354  -6.958 -32.481  1.00  0.00     0.194 C 
ATOM     13  O   UNL     1      17.455  -6.420 -32.177  1.00  0.00    -0.289 OA
ATOM     14  C   UNL     1      16.684  -6.393 -34.898  1.00  0.00     0.059 A 
ATOM     15  C   UNL     1      16.234  -6.362 -36.221  1.00  0.00     0.120 A 
ATOM     16  C   UNL     1      14.974  -6.869 -36.537  1.00  0.00     0.093 A 
ATOM     17  C   UNL     1      14.150  -7.407 -35.544  1.00  0.00     0.131 A 
ENDROOT
BRANCH   6  18
ATOM     18  O   UNL     1      12.347  -9.527 -31.050  1.00  0.00    -0.507 OA
ATOM     19  H   UNL     1      12.132  -9.975 -31.930  1.00  0.00     0.293 HD
ENDBRANCH   6  18
BRANCH  17  20
ATOM     20  O   UNL     1      12.941  -7.979 -35.950  1.00  0.00    -0.507 OA
ATOM     21  H   UNL     1      12.130  -8.054 -35.352  1.00  0.00     0.293 HD
ENDBRANCH  17  20
BRANCH  15  22
ATOM     22  O   UNL     1      17.037  -5.840 -37.232  1.00  0.00    -0.508 OA
ATOM     23  H   UNL     1      16.737  -5.052 -37.794  1.00  0.00     0.293 HD
ENDBRANCH  15  22
TORSDOF 3
ENDMDL
MODEL 8
REMARK VINA RESULT:    -3.391      3.036      3.760
REMARK INTER + INTRA:          -3.688
REMARK INTER:                  -3.688
REMARK INTRA:                   0.000
REMARK UNBOUND:                 0.000
REMARK SMILES Cc1cc(O)c2c(c1)C(=O)c1cc(O)cc(O)c1C2=O
REMARK SMILES IDX 1 1 2 2 8 3 7 4 6 5 4 6 3 7 19 8 20 9 18 10 11 11 9 12 10 13
REMARK SMILES IDX 12 14 13 15 15 16 16 17 5 18 17 20 14 22
REMARK H PARENT 5 19 17 21 14 23
REMARK Flexibility Score: inf
ROOT
ATOM      1  C   UNL     1      16.885  -8.995 -26.740  1.00  0.00     0.044 C 
ATOM      2  C   UNL     1      15.999  -8.594 -27.882  1.00  0.00    -0.047 A 
ATOM      3  C   UNL     1      15.601  -7.260 -28.030  1.00  0.00     0.016 A 
ATOM      4  C   UNL     1      14.794  -6.869 -29.111  1.00  0.00     0.038 A 
ATOM      5  C   UNL     1      14.377  -7.829 -30.061  1.00  0.00     0.076 A 
ATOM      6  C   UNL     1      14.853  -9.161 -29.953  1.00  0.00     0.127 A 
ATOM      7  C   UNL     1      15.639  -9.531 -28.857  1.00  0.00     0.050 A 
ATOM      8  C   UNL     1      13.406  -7.410 -31.105  1.00  0.00     0.201 C 
ATOM      9  O   UNL     1      12.594  -8.248 -31.578  1.00  0.00    -0.288 OA
ATOM     10  C   UNL     1      13.269  -5.971 -31.449  1.00  0.00     0.076 A 
ATOM     11  C   UNL     1      13.688  -5.013 -30.497  1.00  0.00     0.041 A 
ATOM     12  C   UNL     1      14.383  -5.453 -29.265  1.00  0.00     0.194 C 
ATOM     13  O   UNL     1      14.646  -4.617 -28.356  1.00  0.00    -0.289 OA
ATOM     14  C   UNL     1      13.450  -3.648 -30.728  1.00  0.00     0.059 A 
ATOM     15  C   UNL     1      12.813  -3.227 -31.899  1.00  0.00     0.120 A 
ATOM     16  C   UNL     1      12.433  -4.166 -32.858  1.00  0.00     0.093 A 
ATOM     17  C   UNL     1      12.679  -5.528 -32.662  1.00  0.00     0.131 A 
ENDROOT
BRANCH   6  18
ATOM     18  O   UNL     1      14.603 -10.134 -30.923  1.00  0.00    -0.507 OA
ATOM     19  H   UNL     1      14.094 -10.987 -30.739  1.00  0.00     0.293 HD
ENDBRANCH   6  18
BRANCH  17  20
ATOM     20  O   UNL     1      12.354  -6.397 -33.706  1.00  0.00    -0.507 OA
ATOM     21  H   UNL     1      11.417  -6.509 -34.069  1.00  0.00     0.293 HD
ENDBRANCH  17  20
BRANCH  15  22
ATOM     22  O   UNL     1      12.563  -1.875 -32.125  1.00  0.00    -0.508 OA
ATOM     23  H   UNL     1      11.785  -1.399 -31.682  1.00  0.00     0.293 HD
ENDBRANCH  15  22
TORSDOF 3
ENDMDL
