MODEL 1
REMARK VINA RESULT:    -4.791      0.000      0.000
REMARK INTER + INTRA:          -8.121
REMARK INTER:                  -7.312
REMARK INTRA:                  -0.809
REMARK UNBOUND:                -0.809
REMARK SMILES CCCCCCCCCCC(=O)[O-]
REMARK SMILES IDX 7 1 8 2 9 3 10 4 11 5 12 6 13 7 6 8 5 9 4 10 3 11 2 12 1 13
REMARK H PARENT
REMARK Flexibility Score: inf
ROOT
ATOM      1  C   UNL     1      11.326   0.806  33.795  1.00  0.00     0.000 C 
ENDROOT
BRANCH   1   2
ATOM      2  C   UNL     1      12.579   0.430  34.604  1.00  0.00     0.000 C 
BRANCH   2   3
ATOM      3  C   UNL     1      13.093   1.580  35.480  1.00  0.00     0.006 C 
BRANCH   3   4
ATOM      4  C   UNL     1      11.959   2.546  35.839  1.00  0.00     0.053 C 
BRANCH   4   5
ATOM      5  C   UNL     1      12.341   3.952  35.497  1.00  0.00     0.041 C 
ATOM      6  O   UNL     1      12.470   4.298  34.292  1.00  0.00    -0.550 OA
ATOM      7  O   UNL     1      12.606   4.866  36.508  1.00  0.00    -0.550 OA
ENDBRANCH   4   5
ENDBRANCH   3   4
ENDBRANCH   2   3
ENDBRANCH   1   2
BRANCH   1   8
ATOM      8  C   UNL     1      10.303  -0.342  33.670  1.00  0.00     0.000 C 
BRANCH   8   9
ATOM      9  C   UNL     1       8.855   0.171  33.635  1.00  0.00    -0.000 C 
BRANCH   9  10
ATOM     10  C   UNL     1       8.671   1.364  34.579  1.00  0.00    -0.000 C 
BRANCH  10  11
ATOM     11  C   UNL     1       8.201   0.902  35.965  1.00  0.00    -0.000 C 
BRANCH  11  12
ATOM     12  C   UNL     1       7.167  -0.223  35.847  1.00  0.00    -0.003 C 
ATOM     13  C   UNL     1       5.789   0.245  36.304  1.00  0.00     0.004 C 
ENDBRANCH  11  12
ENDBRANCH  10  11
ENDBRANCH   9  10
ENDBRANCH   8   9
ENDBRANCH   1   8
TORSDOF 9
ENDMDL
MODEL 2
REMARK VINA RESULT:    -4.757      2.665      5.259
REMARK INTER + INTRA:          -8.069
REMARK INTER:                  -6.922
REMARK INTRA:                  -1.147
REMARK UNBOUND:                -0.809
REMARK SMILES CCCCCCCCCCC(=O)[O-]
REMARK SMILES IDX 7 1 8 2 9 3 10 4 11 5 12 6 13 7 6 8 5 9 4 10 3 11 2 12 1 13
REMARK H PARENT
REMARK Flexibility Score: inf
ROOT
ATOM      1  C   UNL     1      11.262   0.013  34.208  1.00  0.00     0.000 C 
ENDROOT
BRANCH   1   2
ATOM      2  C   UNL     1      10.550   1.111  33.402  1.00  0.00     0.000 C 
BRANCH   2   3
ATOM      3  C   UNL     1       9.446   1.818  34.199  1.00  0.00     0.006 C 
BRANCH   3   4
ATOM      4  C   UNL     1       8.314   0.846  34.549  1.00  0.00     0.053 C 
BRANCH   4   5
ATOM      5  C   UNL     1       7.908   1.010  35.980  1.00  0.00     0.041 C 
ATOM      6  O   UNL     1       8.730   1.454  36.825  1.00  0.00    -0.550 OA
ATOM      7  O   UNL     1       6.638   0.624  36.391  1.00  0.00    -0.550 OA
ENDBRANCH   4   5
ENDBRANCH   3   4
ENDBRANCH   2   3
ENDBRANCH   1   2
BRANCH   1   8
ATOM      8  C   UNL     1      12.731   0.346  34.545  1.00  0.00     0.000 C 
BRANCH   8   9
ATOM      9  C   UNL     1      12.850   1.298  35.745  1.00  0.00    -0.000 C 
BRANCH   9  10
ATOM     10  C   UNL     1      13.467   2.638  35.325  1.00  0.00    -0.000 C 
BRANCH  10  11
ATOM     11  C   UNL     1      12.445   3.775  35.446  1.00  0.00    -0.000 C 
BRANCH  11  12
ATOM     12  C   UNL     1      12.172   4.416  34.081  1.00  0.00    -0.003 C 
ATOM     13  C   UNL     1      13.184   3.947  33.040  1.00  0.00     0.004 C 
ENDBRANCH  11  12
ENDBRANCH  10  11
ENDBRANCH   9  10
ENDBRANCH   8   9
ENDBRANCH   1   8
TORSDOF 9
ENDMDL
MODEL 3
REMARK VINA RESULT:    -4.540      1.619      2.786
REMARK INTER + INTRA:          -7.737
REMARK INTER:                  -7.164
REMARK INTRA:                  -0.574
REMARK UNBOUND:                -0.809
REMARK SMILES CCCCCCCCCCC(=O)[O-]
REMARK SMILES IDX 7 1 8 2 9 3 10 4 11 5 12 6 13 7 6 8 5 9 4 10 3 11 2 12 1 13
REMARK H PARENT
REMARK Flexibility Score: inf
ROOT
ATOM      1  C   UNL     1       9.296   1.859  34.503  1.00  0.00     0.000 C 
ENDROOT
BRANCH   1   2
ATOM      2  C   UNL     1      10.543   1.500  33.678  1.00  0.00     0.000 C 
BRANCH   2   3
ATOM      3  C   UNL     1      11.183   0.173  34.109  1.00  0.00     0.006 C 
BRANCH   3   4
ATOM      4  C   UNL     1      12.682   0.347  34.374  1.00  0.00     0.053 C 
BRANCH   4   5
ATOM      5  C   UNL     1      12.909   1.378  35.435  1.00  0.00     0.041 C 
ATOM      6  O   UNL     1      13.514   2.448  35.159  1.00  0.00    -0.550 OA
ATOM      7  O   UNL     1      12.499   1.135  36.739  1.00  0.00    -0.550 OA
ENDBRANCH   4   5
ENDBRANCH   3   4
ENDBRANCH   2   3
ENDBRANCH   1   2
BRANCH   1   8
ATOM      8  C   UNL     1       9.118   0.989  35.765  1.00  0.00     0.000 C 
BRANCH   8   9
ATOM      9  C   UNL     1       7.698   1.085  36.342  1.00  0.00    -0.000 C 
BRANCH   9  10
ATOM     10  C   UNL     1       6.818  -0.062  35.832  1.00  0.00    -0.000 C 
BRANCH  10  11
ATOM     11  C   UNL     1       5.416   0.003  36.451  1.00  0.00    -0.000 C 
BRANCH  11  12
ATOM     12  C   UNL     1       4.850  -1.404  36.679  1.00  0.00    -0.003 C 
ATOM     13  C   UNL     1       5.868  -2.475  36.298  1.00  0.00     0.004 C 
ENDBRANCH  11  12
ENDBRANCH  10  11
ENDBRANCH   9  10
ENDBRANCH   8   9
ENDBRANCH   1   8
TORSDOF 9
ENDMDL
MODEL 4
REMARK VINA RESULT:    -4.526      3.653      6.128
REMARK INTER + INTRA:          -7.717
REMARK INTER:                  -7.087
REMARK INTRA:                  -0.630
REMARK UNBOUND:                -0.809
REMARK SMILES CCCCCCCCCCC(=O)[O-]
REMARK SMILES IDX 7 1 8 2 9 3 10 4 11 5 12 6 13 7 6 8 5 9 4 10 3 11 2 12 1 13
REMARK H PARENT
REMARK Flexibility Score: inf
ROOT
ATOM      1  C   UNL     1       4.972  -0.917  36.694  1.00  0.00     0.000 C 
ENDROOT
BRANCH   1   2
ATOM      2  C   UNL     1       6.054   0.112  36.328  1.00  0.00     0.000 C 
BRANCH   2   3
ATOM      3  C   UNL     1       7.138  -0.463  35.405  1.00  0.00     0.006 C 
BRANCH   3   4
ATOM      4  C   UNL     1       8.536  -0.216  35.981  1.00  0.00     0.053 C 
BRANCH   4   5
ATOM      5  C   UNL     1       8.858   1.245  35.966  1.00  0.00     0.041 C 
ATOM      6  O   UNL     1       9.060   1.860  37.047  1.00  0.00    -0.550 OA
ATOM      7  O   UNL     1       8.885   1.939  34.763  1.00  0.00    -0.550 OA
ENDBRANCH   4   5
ENDBRANCH   3   4
ENDBRANCH   2   3
ENDBRANCH   1   2
BRANCH   1   8
ATOM      8  C   UNL     1       5.380  -2.376  36.399  1.00  0.00     0.000 C 
BRANCH   8   9
ATOM      9  C   UNL     1       4.682  -3.376  37.332  1.00  0.00    -0.000 C 
BRANCH   9  10
ATOM     10  C   UNL     1       3.521  -2.711  38.081  1.00  0.00    -0.000 C 
BRANCH  10  11
ATOM     11  C   UNL     1       3.197  -3.466  39.377  1.00  0.00    -0.000 C 
BRANCH  11  12
ATOM     12  C   UNL     1       2.856  -2.491  40.510  1.00  0.00    -0.003 C 
ATOM     13  C   UNL     1       2.600  -1.087  39.970  1.00  0.00     0.004 C 
ENDBRANCH  11  12
ENDBRANCH  10  11
ENDBRANCH   9  10
ENDBRANCH   8   9
ENDBRANCH   1   8
TORSDOF 9
ENDMDL
MODEL 5
REMARK VINA RESULT:    -4.523      3.493      6.173
REMARK INTER + INTRA:          -7.711
REMARK INTER:                  -7.119
REMARK INTRA:                  -0.592
REMARK UNBOUND:                -0.809
REMARK SMILES CCCCCCCCCCC(=O)[O-]
REMARK SMILES IDX 7 1 8 2 9 3 10 4 11 5 12 6 13 7 6 8 5 9 4 10 3 11 2 12 1 13
REMARK H PARENT
REMARK Flexibility Score: inf
ROOT
ATOM      1  C   UNL     1       4.866  -1.189  36.736  1.00  0.00     0.000 C 
ENDROOT
BRANCH   1   2
ATOM      2  C   UNL     1       6.279  -1.212  36.131  1.00  0.00     0.000 C 
BRANCH   2   3
ATOM      3  C   UNL     1       6.889   0.189  35.982  1.00  0.00     0.006 C 
BRANCH   3   4
ATOM      4  C   UNL     1       8.080   0.169  35.019  1.00  0.00     0.053 C 
BRANCH   4   5
ATOM      5  C   UNL     1       8.850   1.449  35.112  1.00  0.00     0.041 C 
ATOM      6  O   UNL     1       8.985   2.182  34.096  1.00  0.00    -0.550 OA
ATOM      7  O   UNL     1       9.460   1.808  36.306  1.00  0.00    -0.550 OA
ENDBRANCH   4   5
ENDBRANCH   3   4
ENDBRANCH   2   3
ENDBRANCH   1   2
BRANCH   1   8
ATOM      8  C   UNL     1       4.331   0.234  37.005  1.00  0.00     0.000 C 
BRANCH   8   9
ATOM      9  C   UNL     1       3.048   0.223  37.848  1.00  0.00    -0.000 C 
BRANCH   9  10
ATOM     10  C   UNL     1       2.700  -1.199  38.304  1.00  0.00    -0.000 C 
BRANCH  10  11
ATOM     11  C   UNL     1       2.535  -1.264  39.827  1.00  0.00    -0.000 C 
BRANCH  11  12
ATOM     12  C   UNL     1       2.980  -2.627  40.370  1.00  0.00    -0.003 C 
ATOM     13  C   UNL     1       3.290  -3.598  39.234  1.00  0.00     0.004 C 
ENDBRANCH  11  12
ENDBRANCH  10  11
ENDBRANCH   9  10
ENDBRANCH   8   9
ENDBRANCH   1   8
TORSDOF 9
ENDMDL
MODEL 6
REMARK VINA RESULT:    -4.461      5.560      8.515
REMARK INTER + INTRA:          -7.618
REMARK INTER:                  -7.136
REMARK INTRA:                  -0.482
REMARK UNBOUND:                -0.809
REMARK SMILES CCCCCCCCCCC(=O)[O-]
REMARK SMILES IDX 7 1 8 2 9 3 10 4 11 5 12 6 13 7 6 8 5 9 4 10 3 11 2 12 1 13
REMARK H PARENT
REMARK Flexibility Score: inf
ROOT
ATOM      1  C   UNL     1       4.808  -0.039  36.690  1.00  0.00     0.000 C 
ENDROOT
BRANCH   1   2
ATOM      2  C   UNL     1       3.649   0.048  37.697  1.00  0.00     0.000 C 
BRANCH   2   3
ATOM      3  C   UNL     1       3.045  -1.322  38.033  1.00  0.00     0.006 C 
BRANCH   3   4
ATOM      4  C   UNL     1       1.981  -1.199  39.129  1.00  0.00     0.053 C 
BRANCH   4   5
ATOM      5  C   UNL     1       2.589  -1.425  40.477  1.00  0.00     0.041 C 
ATOM      6  O   UNL     1       2.699  -0.470  41.291  1.00  0.00    -0.550 OA
ATOM      7  O   UNL     1       3.081  -2.679  40.816  1.00  0.00    -0.550 OA
ENDBRANCH   4   5
ENDBRANCH   3   4
ENDBRANCH   2   3
ENDBRANCH   1   2
BRANCH   1   8
ATOM      8  C   UNL     1       5.253  -1.485  36.383  1.00  0.00     0.000 C 
BRANCH   8   9
ATOM      9  C   UNL     1       6.735  -1.566  35.990  1.00  0.00    -0.000 C 
BRANCH   9  10
ATOM     10  C   UNL     1       7.273  -0.189  35.583  1.00  0.00    -0.000 C 
BRANCH  10  11
ATOM     11  C   UNL     1       8.249  -0.306  34.405  1.00  0.00    -0.000 C 
BRANCH  11  12
ATOM     12  C   UNL     1       9.633   0.235  34.782  1.00  0.00    -0.003 C 
ATOM     13  C   UNL     1       9.586   0.992  36.106  1.00  0.00     0.004 C 
ENDBRANCH  11  12
ENDBRANCH  10  11
ENDBRANCH   9  10
ENDBRANCH   8   9
ENDBRANCH   1   8
TORSDOF 9
ENDMDL
MODEL 7
REMARK VINA RESULT:    -4.409      2.027      3.155
REMARK INTER + INTRA:          -7.538
REMARK INTER:                  -6.931
REMARK INTRA:                  -0.607
REMARK UNBOUND:                -0.809
REMARK SMILES CCCCCCCCCCC(=O)[O-]
REMARK SMILES IDX 7 1 8 2 9 3 10 4 11 5 12 6 13 7 6 8 5 9 4 10 3 11 2 12 1 13
REMARK H PARENT
REMARK Flexibility Score: inf
ROOT
ATOM      1  C   UNL     1       8.380  -0.002  34.109  1.00  0.00     0.000 C 
ENDROOT
BRANCH   1   2
ATOM      2  C   UNL     1       9.837  -0.373  33.787  1.00  0.00     0.000 C 
BRANCH   2   3
ATOM      3  C   UNL     1      10.773   0.844  33.767  1.00  0.00     0.006 C 
BRANCH   3   4
ATOM      4  C   UNL     1      11.497   1.001  35.108  1.00  0.00     0.053 C 
BRANCH   4   5
ATOM      5  C   UNL     1      11.019   2.228  35.820  1.00  0.00     0.041 C 
ATOM      6  O   UNL     1      11.632   3.320  35.681  1.00  0.00    -0.550 OA
ATOM      7  O   UNL     1       9.929   2.154  36.677  1.00  0.00    -0.550 OA
ENDBRANCH   4   5
ENDBRANCH   3   4
ENDBRANCH   2   3
ENDBRANCH   1   2
BRANCH   1   8
ATOM      8  C   UNL     1       7.937  -0.412  35.530  1.00  0.00     0.000 C 
BRANCH   8   9
ATOM      9  C   UNL     1       6.652   0.305  35.968  1.00  0.00    -0.000 C 
BRANCH   9  10
ATOM     10  C   UNL     1       5.561  -0.702  36.348  1.00  0.00    -0.000 C 
BRANCH  10  11
ATOM     11  C   UNL     1       6.061  -2.143  36.186  1.00  0.00    -0.000 C 
BRANCH  11  12
ATOM     12  C   UNL     1       5.053  -3.143  36.764  1.00  0.00    -0.003 C 
ATOM     13  C   UNL     1       3.918  -2.425  37.488  1.00  0.00     0.004 C 
ENDBRANCH  11  12
ENDBRANCH  10  11
ENDBRANCH   9  10
ENDBRANCH   8   9
ENDBRANCH   1   8
TORSDOF 9
ENDMDL
MODEL 8
REMARK VINA RESULT:    -4.400      1.856      3.412
REMARK INTER + INTRA:          -7.524
REMARK INTER:                  -7.000
REMARK INTRA:                  -0.524
REMARK UNBOUND:                -0.809
REMARK SMILES CCCCCCCCCCC(=O)[O-]
REMARK SMILES IDX 7 1 8 2 9 3 10 4 11 5 12 6 13 7 6 8 5 9 4 10 3 11 2 12 1 13
REMARK H PARENT
REMARK Flexibility Score: inf
ROOT
ATOM      1  C   UNL     1       8.103   0.059  34.371  1.00  0.00     0.000 C 
ENDROOT
BRANCH   1   2
ATOM      2  C   UNL     1       9.069   1.254  34.324  1.00  0.00     0.000 C 
BRANCH   2   3
ATOM      3  C   UNL     1       9.453   1.768  35.719  1.00  0.00     0.006 C 
BRANCH   3   4
ATOM      4  C   UNL     1      10.792   1.177  36.172  1.00  0.00     0.053 C 
BRANCH   4   5
ATOM      5  C   UNL     1      11.929   1.998  35.650  1.00  0.00     0.041 C 
ATOM      6  O   UNL     1      11.839   3.254  35.613  1.00  0.00    -0.550 OA
ATOM      7  O   UNL     1      13.068   1.374  35.158  1.00  0.00    -0.550 OA
ENDBRANCH   4   5
ENDBRANCH   3   4
ENDBRANCH   2   3
ENDBRANCH   1   2
BRANCH   1   8
ATOM      8  C   UNL     1       7.284  -0.024  35.676  1.00  0.00     0.000 C 
BRANCH   8   9
ATOM      9  C   UNL     1       6.758  -1.442  35.945  1.00  0.00    -0.000 C 
BRANCH   9  10
ATOM     10  C   UNL     1       5.287  -1.411  36.376  1.00  0.00    -0.000 C 
BRANCH  10  11
ATOM     11  C   UNL     1       4.845   0.015  36.727  1.00  0.00    -0.000 C 
BRANCH  11  12
ATOM     12  C   UNL     1       3.579   0.001  37.591  1.00  0.00    -0.003 C 
ATOM     13  C   UNL     1       3.236  -1.415  38.042  1.00  0.00     0.004 C 
ENDBRANCH  11  12
ENDBRANCH  10  11
ENDBRANCH   9  10
ENDBRANCH   8   9
ENDBRANCH   1   8
TORSDOF 9
ENDMDL
MODEL 9
REMARK VINA RESULT:    -4.386      3.045      5.267
REMARK INTER + INTRA:          -7.503
REMARK INTER:                  -6.585
REMARK INTRA:                  -0.918
REMARK UNBOUND:                -0.809
REMARK SMILES CCCCCCCCCCC(=O)[O-]
REMARK SMILES IDX 7 1 8 2 9 3 10 4 11 5 12 6 13 7 6 8 5 9 4 10 3 11 2 12 1 13
REMARK H PARENT
REMARK Flexibility Score: inf
ROOT
ATOM      1  C   UNL     1      12.059   1.397  35.657  1.00  0.00     0.000 C 
ENDROOT
BRANCH   1   2
ATOM      2  C   UNL     1      12.180   0.389  34.503  1.00  0.00     0.000 C 
BRANCH   2   3
ATOM      3  C   UNL     1      10.851   0.157  33.770  1.00  0.00     0.006 C 
BRANCH   3   4
ATOM      4  C   UNL     1       9.872   1.306  34.031  1.00  0.00     0.053 C 
BRANCH   4   5
ATOM      5  C   UNL     1       8.590   0.782  34.598  1.00  0.00     0.041 C 
ATOM      6  O   UNL     1       7.887  -0.026  33.934  1.00  0.00    -0.550 OA
ATOM      7  O   UNL     1       8.145   1.225  35.837  1.00  0.00    -0.550 OA
ENDBRANCH   4   5
ENDBRANCH   3   4
ENDBRANCH   2   3
ENDBRANCH   1   2
BRANCH   1   8
ATOM      8  C   UNL     1      13.141   2.497  35.633  1.00  0.00     0.000 C 
BRANCH   8   9
ATOM      9  C   UNL     1      12.706   3.722  34.816  1.00  0.00    -0.000 C 
BRANCH   9  10
ATOM     10  C   UNL     1      13.333   3.701  33.416  1.00  0.00    -0.000 C 
BRANCH  10  11
ATOM     11  C   UNL     1      12.286   4.010  32.339  1.00  0.00    -0.000 C 
BRANCH  11  12
ATOM     12  C   UNL     1      11.480   5.264  32.700  1.00  0.00    -0.003 C 
ATOM     13  C   UNL     1      10.140   5.285  31.972  1.00  0.00     0.004 C 
ENDBRANCH  11  12
ENDBRANCH  10  11
ENDBRANCH   9  10
ENDBRANCH   8   9
ENDBRANCH   1   8
TORSDOF 9
ENDMDL
