MODEL 1
REMARK VINA RESULT:    -3.383      0.000      0.000
REMARK INTER + INTRA:          -5.350
REMARK INTER:                  -4.965
REMARK INTRA:                  -0.385
REMARK UNBOUND:                -0.385
REMARK SMILES C=C1C=C[C@@H](C(C)C)CCC(C)=CCC1
REMARK SMILES IDX 3 1 4 2 5 3 9 4 10 5 11 6 12 7 13 8 6 10 7 11 8 12 2 13 1 14
REMARK SMILES IDX 15 15 14 16
REMARK H PARENT
REMARK Flexibility Score: 70.00
ROOT
ATOM      1  C   UNL     1      58.643  46.020  41.435  1.00  0.00    -0.001 C 
ATOM      2  C   UNL     1      59.110  44.774  41.246  1.00  0.00    -0.023 C 
ENDROOT
BRANCH   2   3
ATOM      3  C   UNL     1      58.998  43.535  42.126  1.00  0.00     0.014 C 
BRANCH   3   4
ATOM      4  C   UNL     1      57.580  42.917  42.259  1.00  0.00     0.012 C 
BRANCH   4   5
ATOM      5  C   UNL     1      56.679  43.454  43.382  1.00  0.00     0.031 C 
BRANCH   5   6
ATOM      6  C   UNL     1      55.300  43.752  42.835  1.00  0.00    -0.077 C 
ATOM      7  C   UNL     1      54.493  42.622  42.252  1.00  0.00     0.039 C 
ATOM      8  C   UNL     1      54.799  45.005  42.764  1.00  0.00    -0.028 CG0
ATOM      9  G   UNL     1      55.462  46.228  43.351  1.00  0.00     0.000 G0
ENDBRANCH   5   6
ENDBRANCH   4   5
ENDBRANCH   3   4
BRANCH   3  10
ATOM     10  C   UNL     1      59.939  43.564  43.372  1.00  0.00    -0.010 C 
ATOM     11  C   UNL     1      61.221  44.370  43.115  1.00  0.00     0.008 C 
ATOM     12  C   UNL     1      60.271  42.198  43.983  1.00  0.00     0.008 C 
ENDBRANCH   3  10
ENDBRANCH   2   3
BRANCH   1  13
ATOM     13  C   UNL     1      57.888  46.538  42.589  1.00  0.00    -0.055 C 
ATOM     14  C   UNL     1      58.595  47.047  43.606  1.00  0.00     0.012 C 
BRANCH  13  15
ATOM     15  C   UNL     1      56.440  46.947  42.399  1.00  0.00     0.039 C 
BRANCH  15  16
ATOM     16  C   UNL     1      55.444  46.243  43.354  1.00  0.00     0.032 CG0
ATOM     17  G   UNL     1      54.811  45.009  42.759  1.00  0.00     0.000 G0
ENDBRANCH  15  16
ENDBRANCH  13  15
ENDBRANCH   1  13
TORSDOF 1
ENDMDL
MODEL 2
REMARK VINA RESULT:    -2.775     21.019     22.898
REMARK INTER + INTRA:          -4.458
REMARK INTER:                  -4.297
REMARK INTRA:                  -0.161
REMARK UNBOUND:                -0.385
REMARK SMILES C=C1C=C[C@@H](C(C)C)CCC(C)=CCC1
REMARK SMILES IDX 3 1 4 2 5 3 9 4 10 5 11 6 12 7 13 8 6 10 7 11 8 12 2 13 1 14
REMARK SMILES IDX 15 15 14 16
REMARK H PARENT
REMARK Flexibility Score: 70.00
ROOT
ATOM      1  C   UNL     1      54.481  27.888  27.698  1.00  0.00    -0.001 C 
ATOM      2  C   UNL     1      55.522  28.710  27.484  1.00  0.00    -0.023 C 
ENDROOT
BRANCH   2   3
ATOM      3  C   UNL     1      55.743  29.761  26.403  1.00  0.00     0.014 C 
BRANCH   3   4
ATOM      4  C   UNL     1      54.732  30.940  26.378  1.00  0.00     0.012 C 
BRANCH   4   5
ATOM      5  C   UNL     1      53.424  30.731  25.600  1.00  0.00     0.031 C 
BRANCH   5   6
ATOM      6  C   UNL     1      52.270  31.345  26.362  1.00  0.00    -0.077 C 
ATOM      7  C   UNL     1      52.302  32.823  26.655  1.00  0.00     0.039 C 
ATOM      8  C   UNL     1      51.258  30.609  26.870  1.00  0.00    -0.028 CG0
ATOM      9  G   UNL     1      51.060  29.134  26.618  1.00  0.00     0.000 G0
ENDBRANCH   5   6
ENDBRANCH   4   5
ENDBRANCH   3   4
BRANCH   3  10
ATOM     10  C   UNL     1      56.262  29.172  25.053  1.00  0.00    -0.010 C 
ATOM     11  C   UNL     1      57.278  28.039  25.263  1.00  0.00     0.008 C 
ATOM     12  C   UNL     1      56.796  30.197  24.044  1.00  0.00     0.008 C 
ENDBRANCH   3  10
ENDBRANCH   2   3
BRANCH   1  13
ATOM     13  C   UNL     1      53.242  27.772  26.909  1.00  0.00    -0.055 C 
ATOM     14  C   UNL     1      53.240  26.893  25.898  1.00  0.00     0.012 C 
BRANCH  13  15
ATOM     15  C   UNL     1      51.930  28.213  27.527  1.00  0.00     0.039 C 
BRANCH  15  16
ATOM     16  C   UNL     1      51.066  29.123  26.618  1.00  0.00     0.032 CG0
ATOM     17  G   UNL     1      51.267  30.596  26.878  1.00  0.00     0.000 G0
ENDBRANCH  15  16
ENDBRANCH  13  15
ENDBRANCH   1  13
TORSDOF 1
ENDMDL
MODEL 3
REMARK VINA RESULT:    -2.681     21.697     23.579
REMARK INTER + INTRA:          -4.319
REMARK INTER:                  -3.845
REMARK INTRA:                  -0.474
REMARK UNBOUND:                -0.385
REMARK SMILES C=C1C=C[C@@H](C(C)C)CCC(C)=CCC1
REMARK SMILES IDX 3 1 4 2 5 3 9 4 10 5 11 6 12 7 13 8 6 10 7 11 8 12 2 13 1 14
REMARK SMILES IDX 15 15 14 16
REMARK H PARENT
REMARK Flexibility Score: 70.00
ROOT
ATOM      1  C   UNL     1      56.590  29.755  26.108  1.00  0.00    -0.001 C 
ATOM      2  C   UNL     1      55.773  30.578  25.428  1.00  0.00    -0.023 C 
ENDROOT
BRANCH   2   3
ATOM      3  C   UNL     1      54.313  30.406  25.025  1.00  0.00     0.014 C 
BRANCH   3   4
ATOM      4  C   UNL     1      54.031  29.374  23.900  1.00  0.00     0.012 C 
BRANCH   4   5
ATOM      5  C   UNL     1      53.667  27.944  24.330  1.00  0.00     0.031 C 
BRANCH   5   6
ATOM      6  C   UNL     1      52.576  27.986  25.378  1.00  0.00    -0.077 C 
ATOM      7  C   UNL     1      51.205  28.465  24.978  1.00  0.00     0.039 C 
ATOM      8  C   UNL     1      52.805  27.699  26.679  1.00  0.00    -0.028 CG0
ATOM      9  G   UNL     1      54.105  27.159  27.222  1.00  0.00     0.000 G0
ENDBRANCH   5   6
ENDBRANCH   4   5
ENDBRANCH   3   4
BRANCH   3  10
ATOM     10  C   UNL     1      53.491  31.733  25.067  1.00  0.00    -0.010 C 
ATOM     11  C   UNL     1      52.950  32.039  26.472  1.00  0.00     0.008 C 
ATOM     12  C   UNL     1      52.378  31.857  24.020  1.00  0.00     0.008 C 
ENDBRANCH   3  10
ENDBRANCH   2   3
BRANCH   1  13
ATOM     13  C   UNL     1      56.283  28.420  26.650  1.00  0.00    -0.055 C 
ATOM     14  C   UNL     1      57.268  27.512  26.637  1.00  0.00     0.012 C 
BRANCH  13  15
ATOM     15  C   UNL     1      55.130  28.266  27.622  1.00  0.00     0.039 C 
BRANCH  15  16
ATOM     16  C   UNL     1      54.114  27.159  27.242  1.00  0.00     0.032 CG0
ATOM     17  G   UNL     1      52.815  27.698  26.695  1.00  0.00     0.000 G0
ENDBRANCH  15  16
ENDBRANCH  13  15
ENDBRANCH   1  13
TORSDOF 1
ENDMDL
MODEL 4
REMARK VINA RESULT:    -2.656     18.466     20.548
REMARK INTER + INTRA:          -4.283
REMARK INTER:                  -3.828
REMARK INTRA:                  -0.456
REMARK UNBOUND:                -0.385
REMARK SMILES C=C1C=C[C@@H](C(C)C)CCC(C)=CCC1
REMARK SMILES IDX 3 1 4 2 5 3 9 4 10 5 11 6 12 7 13 8 6 10 7 11 8 12 2 13 1 14
REMARK SMILES IDX 15 15 14 16
REMARK H PARENT
REMARK Flexibility Score: 70.00
ROOT
ATOM      1  C   UNL     1      50.780  33.074  30.756  1.00  0.00    -0.001 C 
ATOM      2  C   UNL     1      50.714  31.764  31.049  1.00  0.00    -0.023 C 
ENDROOT
BRANCH   2   3
ATOM      3  C   UNL     1      50.102  30.608  30.266  1.00  0.00     0.014 C 
BRANCH   3   4
ATOM      4  C   UNL     1      50.920  30.099  29.048  1.00  0.00     0.012 C 
BRANCH   4   5
ATOM      5  C   UNL     1      50.510  30.614  27.659  1.00  0.00     0.031 C 
BRANCH   5   6
ATOM      6  C   UNL     1      51.723  31.153  26.933  1.00  0.00    -0.077 C 
ATOM      7  C   UNL     1      52.784  30.185  26.478  1.00  0.00     0.039 C 
ATOM      8  C   UNL     1      51.940  32.475  26.758  1.00  0.00    -0.028 CG0
ATOM      9  G   UNL     1      50.951  33.560  27.110  1.00  0.00     0.000 G0
ENDBRANCH   5   6
ENDBRANCH   4   5
ENDBRANCH   3   4
BRANCH   3  10
ATOM     10  C   UNL     1      48.545  30.672  30.168  1.00  0.00    -0.010 C 
ATOM     11  C   UNL     1      47.887  30.956  31.526  1.00  0.00     0.008 C 
ATOM     12  C   UNL     1      47.875  29.476  29.481  1.00  0.00     0.008 C 
ENDBRANCH   3  10
ENDBRANCH   2   3
BRANCH   1  13
ATOM     13  C   UNL     1      50.246  33.764  29.569  1.00  0.00    -0.055 C 
ATOM     14  C   UNL     1      49.048  34.351  29.688  1.00  0.00     0.012 C 
BRANCH  13  15
ATOM     15  C   UNL     1      51.207  34.225  28.490  1.00  0.00     0.039 C 
BRANCH  15  16
ATOM     16  C   UNL     1      50.964  33.586  27.100  1.00  0.00     0.032 CG0
ATOM     17  G   UNL     1      51.925  32.468  26.776  1.00  0.00     0.000 G0
ENDBRANCH  15  16
ENDBRANCH  13  15
ENDBRANCH   1  13
TORSDOF 1
ENDMDL
MODEL 5
REMARK VINA RESULT:    -2.291     19.510     21.781
REMARK INTER + INTRA:          -3.747
REMARK INTER:                  -3.249
REMARK INTRA:                  -0.498
REMARK UNBOUND:                -0.385
REMARK SMILES C=C1C=C[C@@H](C(C)C)CCC(C)=CCC1
REMARK SMILES IDX 3 1 4 2 5 3 9 4 10 5 11 6 12 7 13 8 6 10 7 11 8 12 2 13 1 14
REMARK SMILES IDX 15 15 14 16
REMARK H PARENT
REMARK Flexibility Score: 70.00
ROOT
ATOM      1  C   UNL     1      50.206  34.210  26.991  1.00  0.00    -0.001 C 
ATOM      2  C   UNL     1      50.999  33.512  27.822  1.00  0.00    -0.023 C 
ENDROOT
BRANCH   2   3
ATOM      3  C   UNL     1      50.705  32.272  28.658  1.00  0.00     0.014 C 
BRANCH   3   4
ATOM      4  C   UNL     1      50.062  31.077  27.903  1.00  0.00     0.012 C 
BRANCH   4   5
ATOM      5  C   UNL     1      50.796  30.550  26.660  1.00  0.00     0.031 C 
BRANCH   5   6
ATOM      6  C   UNL     1      49.792  30.154  25.601  1.00  0.00    -0.077 C 
ATOM      7  C   UNL     1      49.386  28.706  25.493  1.00  0.00     0.039 C 
ATOM      8  C   UNL     1      49.313  31.026  24.687  1.00  0.00    -0.028 CG0
ATOM      9  G   UNL     1      49.584  32.511  24.696  1.00  0.00     0.000 G0
ENDBRANCH   5   6
ENDBRANCH   4   5
ENDBRANCH   3   4
BRANCH   3  10
ATOM     10  C   UNL     1      50.243  32.594  30.114  1.00  0.00    -0.010 C 
ATOM     11  C   UNL     1      48.713  32.575  30.258  1.00  0.00     0.008 C 
ATOM     12  C   UNL     1      50.828  33.871  30.728  1.00  0.00     0.008 C 
ENDBRANCH   3  10
ENDBRANCH   2   3
BRANCH   1  13
ATOM     13  C   UNL     1      48.789  33.960  26.670  1.00  0.00    -0.055 C 
ATOM     14  C   UNL     1      47.875  34.680  27.333  1.00  0.00     0.012 C 
BRANCH  13  15
ATOM     15  C   UNL     1      48.435  33.339  25.333  1.00  0.00     0.039 C 
BRANCH  15  16
ATOM     16  C   UNL     1      49.577  32.516  24.686  1.00  0.00     0.032 CG0
ATOM     17  G   UNL     1      49.317  31.029  24.681  1.00  0.00     0.000 G0
ENDBRANCH  15  16
ENDBRANCH  13  15
ENDBRANCH   1  13
TORSDOF 1
ENDMDL
MODEL 6
REMARK VINA RESULT:    -2.274     18.627     21.052
REMARK INTER + INTRA:          -3.722
REMARK INTER:                  -3.453
REMARK INTRA:                  -0.269
REMARK UNBOUND:                -0.385
REMARK SMILES C=C1C=C[C@@H](C(C)C)CCC(C)=CCC1
REMARK SMILES IDX 3 1 4 2 5 3 9 4 10 5 11 6 12 7 13 8 6 10 7 11 8 12 2 13 1 14
REMARK SMILES IDX 15 15 14 16
REMARK H PARENT
REMARK Flexibility Score: 70.00
ROOT
ATOM      1  C   UNL     1      50.850  33.498  30.212  1.00  0.00    -0.001 C 
ATOM      2  C   UNL     1      50.753  34.013  28.974  1.00  0.00    -0.023 C 
ENDROOT
BRANCH   2   3
ATOM      3  C   UNL     1      50.264  33.380  27.677  1.00  0.00     0.014 C 
BRANCH   3   4
ATOM      4  C   UNL     1      51.295  32.507  26.911  1.00  0.00     0.012 C 
BRANCH   4   5
ATOM      5  C   UNL     1      51.372  31.018  27.281  1.00  0.00     0.031 C 
BRANCH   5   6
ATOM      6  C   UNL     1      50.041  30.352  27.008  1.00  0.00    -0.077 C 
ATOM      7  C   UNL     1      49.600  30.177  25.578  1.00  0.00     0.039 C 
ATOM      8  C   UNL     1      49.191  29.990  27.993  1.00  0.00    -0.028 CG0
ATOM      9  G   UNL     1      49.511  30.052  29.467  1.00  0.00     0.000 G0
ENDBRANCH   5   6
ENDBRANCH   4   5
ENDBRANCH   3   4
BRANCH   3  10
ATOM     10  C   UNL     1      49.280  34.284  26.870  1.00  0.00    -0.010 C 
ATOM     11  C   UNL     1      48.065  34.715  27.706  1.00  0.00     0.008 C 
ATOM     12  C   UNL     1      48.832  33.728  25.513  1.00  0.00     0.008 C 
ENDBRANCH   3  10
ENDBRANCH   2   3
BRANCH   1  13
ATOM     13  C   UNL     1      50.510  32.134  30.653  1.00  0.00    -0.055 C 
ATOM     14  C   UNL     1      51.017  31.725  31.823  1.00  0.00     0.012 C 
BRANCH  13  15
ATOM     15  C   UNL     1      49.267  31.468  30.096  1.00  0.00     0.039 C 
BRANCH  15  16
ATOM     16  C   UNL     1      49.514  30.070  29.473  1.00  0.00     0.032 CG0
ATOM     17  G   UNL     1      49.189  30.003  28.001  1.00  0.00     0.000 G0
ENDBRANCH  15  16
ENDBRANCH  13  15
ENDBRANCH   1  13
TORSDOF 1
ENDMDL
MODEL 7
REMARK VINA RESULT:    -2.240     18.846     21.207
REMARK INTER + INTRA:          -3.672
REMARK INTER:                  -3.318
REMARK INTRA:                  -0.355
REMARK UNBOUND:                -0.385
REMARK SMILES C=C1C=C[C@@H](C(C)C)CCC(C)=CCC1
REMARK SMILES IDX 3 1 4 2 5 3 9 4 10 5 11 6 12 7 13 8 6 10 7 11 8 12 2 13 1 14
REMARK SMILES IDX 15 15 14 16
REMARK H PARENT
REMARK Flexibility Score: 70.00
ROOT
ATOM      1  C   UNL     1      50.700  33.914  28.144  1.00  0.00    -0.001 C 
ATOM      2  C   UNL     1      50.666  33.155  27.035  1.00  0.00    -0.023 C 
ENDROOT
BRANCH   2   3
ATOM      3  C   UNL     1      50.110  31.753  26.817  1.00  0.00     0.014 C 
BRANCH   3   4
ATOM      4  C   UNL     1      50.897  30.594  27.487  1.00  0.00     0.012 C 
BRANCH   4   5
ATOM      5  C   UNL     1      50.463  30.171  28.899  1.00  0.00     0.031 C 
BRANCH   5   6
ATOM      6  C   UNL     1      48.970  29.921  28.923  1.00  0.00    -0.077 C 
ATOM      7  C   UNL     1      48.416  28.770  28.125  1.00  0.00     0.039 C 
ATOM      8  C   UNL     1      48.104  30.742  29.557  1.00  0.00    -0.028 CG0
ATOM      9  G   UNL     1      48.508  31.899  30.437  1.00  0.00     0.000 G0
ENDBRANCH   5   6
ENDBRANCH   4   5
ENDBRANCH   3   4
BRANCH   3  10
ATOM     10  C   UNL     1      49.493  31.537  25.399  1.00  0.00    -0.010 C 
ATOM     11  C   UNL     1      49.764  32.722  24.459  1.00  0.00     0.008 C 
ATOM     12  C   UNL     1      48.009  31.155  25.373  1.00  0.00     0.008 C 
ENDBRANCH   3  10
ENDBRANCH   2   3
BRANCH   1  13
ATOM     13  C   UNL     1      50.205  33.574  29.489  1.00  0.00    -0.055 C 
ATOM     14  C   UNL     1      50.914  34.019  30.534  1.00  0.00     0.012 C 
BRANCH  13  15
ATOM     15  C   UNL     1      48.742  33.218  29.668  1.00  0.00     0.039 C 
BRANCH  15  16
ATOM     16  C   UNL     1      48.492  31.897  30.438  1.00  0.00     0.032 CG0
ATOM     17  G   UNL     1      48.107  30.744  29.543  1.00  0.00     0.000 G0
ENDBRANCH  15  16
ENDBRANCH  13  15
ENDBRANCH   1  13
TORSDOF 1
ENDMDL
MODEL 8
REMARK VINA RESULT:    -2.184     21.853     23.484
REMARK INTER + INTRA:          -3.590
REMARK INTER:                  -3.223
REMARK INTRA:                  -0.367
REMARK UNBOUND:                -0.385
REMARK SMILES C=C1C=C[C@@H](C(C)C)CCC(C)=CCC1
REMARK SMILES IDX 3 1 4 2 5 3 9 4 10 5 11 6 12 7 13 8 6 10 7 11 8 12 2 13 1 14
REMARK SMILES IDX 15 15 14 16
REMARK H PARENT
REMARK Flexibility Score: 70.00
ROOT
ATOM      1  C   UNL     1      54.453  28.202  27.381  1.00  0.00    -0.001 C 
ATOM      2  C   UNL     1      53.120  28.340  27.268  1.00  0.00    -0.023 C 
ENDROOT
BRANCH   2   3
ATOM      3  C   UNL     1      52.296  29.258  26.373  1.00  0.00     0.014 C 
BRANCH   3   4
ATOM      4  C   UNL     1      52.241  30.752  26.792  1.00  0.00     0.012 C 
BRANCH   4   5
ATOM      5  C   UNL     1      53.292  31.694  26.184  1.00  0.00     0.031 C 
BRANCH   5   6
ATOM      6  C   UNL     1      53.271  31.581  24.675  1.00  0.00    -0.077 C 
ATOM      7  C   UNL     1      52.062  32.081  23.928  1.00  0.00     0.039 C 
ATOM      8  C   UNL     1      54.252  30.967  23.977  1.00  0.00    -0.028 CG0
ATOM      9  G   UNL     1      55.544  30.464  24.574  1.00  0.00     0.000 G0
ENDBRANCH   5   6
ENDBRANCH   4   5
ENDBRANCH   3   4
BRANCH   3  10
ATOM     10  C   UNL     1      51.016  28.580  25.790  1.00  0.00    -0.010 C 
ATOM     11  C   UNL     1      50.851  27.132  26.274  1.00  0.00     0.008 C 
ATOM     12  C   UNL     1      50.857  28.663  24.267  1.00  0.00     0.008 C 
ENDBRANCH   3  10
ENDBRANCH   2   3
BRANCH   1  13
ATOM     13  C   UNL     1      55.503  28.938  26.655  1.00  0.00    -0.055 C 
ATOM     14  C   UNL     1      56.676  29.105  27.279  1.00  0.00     0.012 C 
BRANCH  13  15
ATOM     15  C   UNL     1      55.436  29.017  25.142  1.00  0.00     0.039 C 
BRANCH  15  16
ATOM     16  C   UNL     1      55.543  30.453  24.571  1.00  0.00     0.032 CG0
ATOM     17  G   UNL     1      54.257  30.952  23.958  1.00  0.00     0.000 G0
ENDBRANCH  15  16
ENDBRANCH  13  15
ENDBRANCH   1  13
TORSDOF 1
ENDMDL
MODEL 9
REMARK VINA RESULT:    -2.132     19.657     21.990
REMARK INTER + INTRA:          -3.514
REMARK INTER:                  -3.289
REMARK INTRA:                  -0.225
REMARK UNBOUND:                -0.385
REMARK SMILES C=C1C=C[C@@H](C(C)C)CCC(C)=CCC1
REMARK SMILES IDX 3 1 4 2 5 3 9 4 10 5 11 6 12 7 13 8 6 10 7 11 8 12 2 13 1 14
REMARK SMILES IDX 15 15 14 16
REMARK H PARENT
REMARK Flexibility Score: 70.00
ROOT
ATOM      1  C   UNL     1      52.060  32.408  26.719  1.00  0.00    -0.001 C 
ATOM      2  C   UNL     1      51.390  32.709  27.845  1.00  0.00    -0.023 C 
ENDROOT
BRANCH   2   3
ATOM      3  C   UNL     1      50.434  31.865  28.679  1.00  0.00     0.014 C 
BRANCH   3   4
ATOM      4  C   UNL     1      49.051  31.565  28.037  1.00  0.00     0.012 C 
BRANCH   4   5
ATOM      5  C   UNL     1      48.960  30.357  27.091  1.00  0.00     0.031 C 
BRANCH   5   6
ATOM      6  C   UNL     1      49.343  29.094  27.832  1.00  0.00    -0.077 C 
ATOM      7  C   UNL     1      48.486  28.646  28.987  1.00  0.00     0.039 C 
ATOM      8  C   UNL     1      50.471  28.403  27.559  1.00  0.00    -0.028 CG0
ATOM      9  G   UNL     1      51.398  28.696  26.405  1.00  0.00     0.000 G0
ENDBRANCH   5   6
ENDBRANCH   4   5
ENDBRANCH   3   4
BRANCH   3  10
ATOM     10  C   UNL     1      50.518  32.150  30.211  1.00  0.00    -0.010 C 
ATOM     11  C   UNL     1      49.279  31.646  30.967  1.00  0.00     0.008 C 
ATOM     12  C   UNL     1      50.836  33.599  30.599  1.00  0.00     0.008 C 
ENDBRANCH   3  10
ENDBRANCH   2   3
BRANCH   1  13
ATOM     13  C   UNL     1      52.033  31.146  25.959  1.00  0.00    -0.055 C 
ATOM     14  C   UNL     1      52.147  31.230  24.628  1.00  0.00     0.012 C 
BRANCH  13  15
ATOM     15  C   UNL     1      52.388  29.853  26.667  1.00  0.00     0.039 C 
BRANCH  15  16
ATOM     16  C   UNL     1      51.407  28.684  26.397  1.00  0.00     0.032 CG0
ATOM     17  G   UNL     1      50.476  28.403  27.550  1.00  0.00     0.000 G0
ENDBRANCH  15  16
ENDBRANCH  13  15
ENDBRANCH   1  13
TORSDOF 1
ENDMDL
