MODEL 1
REMARK VINA RESULT:    -3.378      0.000      0.000
REMARK INTER + INTRA:          -5.947
REMARK INTER:                  -5.156
REMARK INTRA:                  -0.791
REMARK UNBOUND:                -0.791
REMARK SMILES CCCCCCCCCCC(=O)[O-]
REMARK SMILES IDX 7 1 8 2 9 3 10 4 11 5 12 6 13 7 6 8 5 9 4 10 3 11 2 12 1 13
REMARK H PARENT
REMARK Flexibility Score: inf
ROOT
ATOM      1  C   UNL     1      -4.474  -6.914  -7.911  1.00  0.00     0.000 C 
ENDROOT
BRANCH   1   2
ATOM      2  C   UNL     1      -4.872  -7.825  -9.081  1.00  0.00     0.000 C 
BRANCH   2   3
ATOM      3  C   UNL     1      -4.420  -9.285  -8.891  1.00  0.00     0.006 C 
BRANCH   3   4
ATOM      4  C   UNL     1      -5.112 -10.005  -7.719  1.00  0.00     0.053 C 
BRANCH   4   5
ATOM      5  C   UNL     1      -4.297  -9.979  -6.462  1.00  0.00     0.041 C 
ATOM      6  O   UNL     1      -4.852 -10.124  -5.341  1.00  0.00    -0.550 OA
ATOM      7  O   UNL     1      -2.918  -9.827  -6.531  1.00  0.00    -0.550 OA
ENDBRANCH   4   5
ENDBRANCH   3   4
ENDBRANCH   2   3
ENDBRANCH   1   2
BRANCH   1   8
ATOM      8  C   UNL     1      -5.709  -6.259  -7.279  1.00  0.00     0.000 C 
BRANCH   8   9
ATOM      9  C   UNL     1      -5.994  -6.846  -5.891  1.00  0.00    -0.000 C 
BRANCH   9  10
ATOM     10  C   UNL     1      -7.446  -7.326  -5.783  1.00  0.00    -0.000 C 
BRANCH  10  11
ATOM     11  C   UNL     1      -8.325  -6.663  -6.854  1.00  0.00    -0.000 C 
BRANCH  11  12
ATOM     12  C   UNL     1      -9.317  -5.652  -6.262  1.00  0.00    -0.003 C 
ATOM     13  C   UNL     1      -9.678  -4.534  -7.240  1.00  0.00     0.004 C 
ENDBRANCH  11  12
ENDBRANCH  10  11
ENDBRANCH   9  10
ENDBRANCH   8   9
ENDBRANCH   1   8
TORSDOF 9
ENDMDL
MODEL 2
REMARK VINA RESULT:    -3.316      1.793      2.773
REMARK INTER + INTRA:          -5.851
REMARK INTER:                  -4.803
REMARK INTRA:                  -1.048
REMARK UNBOUND:                -0.791
REMARK SMILES CCCCCCCCCCC(=O)[O-]
REMARK SMILES IDX 7 1 8 2 9 3 10 4 11 5 12 6 13 7 6 8 5 9 4 10 3 11 2 12 1 13
REMARK H PARENT
REMARK Flexibility Score: inf
ROOT
ATOM      1  C   UNL     1      -5.902  -7.854  -9.588  1.00  0.00     0.000 C 
ENDROOT
BRANCH   1   2
ATOM      2  C   UNL     1      -4.402  -7.856  -9.264  1.00  0.00     0.000 C 
BRANCH   2   3
ATOM      3  C   UNL     1      -4.069  -7.137  -7.943  1.00  0.00     0.006 C 
BRANCH   3   4
ATOM      4  C   UNL     1      -5.291  -6.509  -7.248  1.00  0.00     0.053 C 
BRANCH   4   5
ATOM      5  C   UNL     1      -5.766  -7.312  -6.077  1.00  0.00     0.041 C 
ATOM      6  O   UNL     1      -6.572  -6.812  -5.247  1.00  0.00    -0.550 OA
ATOM      7  O   UNL     1      -5.345  -8.627  -5.918  1.00  0.00    -0.550 OA
ENDBRANCH   4   5
ENDBRANCH   3   4
ENDBRANCH   2   3
ENDBRANCH   1   2
BRANCH   1   8
ATOM      8  C   UNL     1      -6.537  -9.213  -9.265  1.00  0.00     0.000 C 
BRANCH   8   9
ATOM      9  C   UNL     1      -7.954  -9.040  -8.704  1.00  0.00    -0.000 C 
BRANCH   9  10
ATOM     10  C   UNL     1      -8.449  -7.600  -8.891  1.00  0.00    -0.000 C 
BRANCH  10  11
ATOM     11  C   UNL     1      -9.192  -7.107  -7.642  1.00  0.00    -0.000 C 
BRANCH  11  12
ATOM     12  C   UNL     1      -9.055  -5.592  -7.433  1.00  0.00    -0.003 C 
ATOM     13  C   UNL     1      -9.997  -5.056  -6.354  1.00  0.00     0.004 C 
ENDBRANCH  11  12
ENDBRANCH  10  11
ENDBRANCH   9  10
ENDBRANCH   8   9
ENDBRANCH   1   8
TORSDOF 9
ENDMDL
MODEL 3
REMARK VINA RESULT:    -3.271      2.050      3.618
REMARK INTER + INTRA:          -5.783
REMARK INTER:                  -4.391
REMARK INTRA:                  -1.392
REMARK UNBOUND:                -0.791
REMARK SMILES CCCCCCCCCCC(=O)[O-]
REMARK SMILES IDX 7 1 8 2 9 3 10 4 11 5 12 6 13 7 6 8 5 9 4 10 3 11 2 12 1 13
REMARK H PARENT
REMARK Flexibility Score: inf
ROOT
ATOM      1  C   UNL     1      -8.220  -7.607  -9.668  1.00  0.00     0.000 C 
ENDROOT
BRANCH   1   2
ATOM      2  C   UNL     1      -7.628  -8.976  -9.303  1.00  0.00     0.000 C 
BRANCH   2   3
ATOM      3  C   UNL     1      -6.097  -9.032  -9.457  1.00  0.00     0.006 C 
BRANCH   3   4
ATOM      4  C   UNL     1      -5.404  -7.665  -9.305  1.00  0.00     0.053 C 
BRANCH   4   5
ATOM      5  C   UNL     1      -3.939  -7.789  -9.016  1.00  0.00     0.041 C 
ATOM      6  O   UNL     1      -3.449  -7.267  -7.980  1.00  0.00    -0.550 OA
ATOM      7  O   UNL     1      -3.120  -8.509  -9.876  1.00  0.00    -0.550 OA
ENDBRANCH   4   5
ENDBRANCH   3   4
ENDBRANCH   2   3
ENDBRANCH   1   2
BRANCH   1   8
ATOM      8  C   UNL     1      -9.146  -7.094  -8.558  1.00  0.00     0.000 C 
BRANCH   8   9
ATOM      9  C   UNL     1      -8.786  -7.722  -7.206  1.00  0.00    -0.000 C 
BRANCH   9  10
ATOM     10  C   UNL     1      -8.084  -6.706  -6.296  1.00  0.00    -0.000 C 
BRANCH  10  11
ATOM     11  C   UNL     1      -6.724  -7.238  -5.823  1.00  0.00    -0.000 C 
BRANCH  11  12
ATOM     12  C   UNL     1      -6.709  -8.766  -5.670  1.00  0.00    -0.003 C 
ATOM     13  C   UNL     1      -5.307  -9.361  -5.806  1.00  0.00     0.004 C 
ENDBRANCH  11  12
ENDBRANCH  10  11
ENDBRANCH   9  10
ENDBRANCH   8   9
ENDBRANCH   1   8
TORSDOF 9
ENDMDL
MODEL 4
REMARK VINA RESULT:    -3.132      2.964      5.075
REMARK INTER + INTRA:          -5.571
REMARK INTER:                  -4.535
REMARK INTRA:                  -1.036
REMARK UNBOUND:                -0.791
REMARK SMILES CCCCCCCCCCC(=O)[O-]
REMARK SMILES IDX 7 1 8 2 9 3 10 4 11 5 12 6 13 7 6 8 5 9 4 10 3 11 2 12 1 13
REMARK H PARENT
REMARK Flexibility Score: inf
ROOT
ATOM      1  C   UNL     1      -7.057  -9.012  -5.359  1.00  0.00     0.000 C 
ENDROOT
BRANCH   1   2
ATOM      2  C   UNL     1      -7.892  -9.785  -6.389  1.00  0.00     0.000 C 
BRANCH   2   3
ATOM      3  C   UNL     1      -8.631  -8.865  -7.379  1.00  0.00     0.006 C 
BRANCH   3   4
ATOM      4  C   UNL     1      -9.740  -8.014  -6.733  1.00  0.00     0.053 C 
BRANCH   4   5
ATOM      5  C   UNL     1      -9.459  -6.545  -6.810  1.00  0.00     0.041 C 
ATOM      6  O   UNL     1      -8.906  -6.055  -7.830  1.00  0.00    -0.550 OA
ATOM      7  O   UNL     1      -9.838  -5.709  -5.767  1.00  0.00    -0.550 OA
ENDBRANCH   4   5
ENDBRANCH   3   4
ENDBRANCH   2   3
ENDBRANCH   1   2
BRANCH   1   8
ATOM      8  C   UNL     1      -5.755  -8.493  -5.983  1.00  0.00     0.000 C 
BRANCH   8   9
ATOM      9  C   UNL     1      -5.744  -6.961  -6.038  1.00  0.00    -0.000 C 
BRANCH   9  10
ATOM     10  C   UNL     1      -5.222  -6.462  -7.392  1.00  0.00    -0.000 C 
BRANCH  10  11
ATOM     11  C   UNL     1      -4.032  -7.308  -7.868  1.00  0.00    -0.000 C 
BRANCH  11  12
ATOM     12  C   UNL     1      -4.261  -7.919  -9.258  1.00  0.00    -0.003 C 
ATOM     13  C   UNL     1      -5.725  -7.860  -9.697  1.00  0.00     0.004 C 
ENDBRANCH  11  12
ENDBRANCH  10  11
ENDBRANCH   9  10
ENDBRANCH   8   9
ENDBRANCH   1   8
TORSDOF 9
ENDMDL
MODEL 5
REMARK VINA RESULT:    -3.130      2.102      3.375
REMARK INTER + INTRA:          -5.568
REMARK INTER:                  -4.804
REMARK INTRA:                  -0.764
REMARK UNBOUND:                -0.791
REMARK SMILES CCCCCCCCCCC(=O)[O-]
REMARK SMILES IDX 7 1 8 2 9 3 10 4 11 5 12 6 13 7 6 8 5 9 4 10 3 11 2 12 1 13
REMARK H PARENT
REMARK Flexibility Score: inf
ROOT
ATOM      1  C   UNL     1      -7.466  -8.898  -6.632  1.00  0.00     0.000 C 
ENDROOT
BRANCH   1   2
ATOM      2  C   UNL     1      -6.649  -7.739  -6.041  1.00  0.00     0.000 C 
BRANCH   2   3
ATOM      3  C   UNL     1      -6.174  -6.732  -7.105  1.00  0.00     0.006 C 
BRANCH   3   4
ATOM      4  C   UNL     1      -4.697  -6.900  -7.508  1.00  0.00     0.053 C 
BRANCH   4   5
ATOM      5  C   UNL     1      -4.532  -7.603  -8.820  1.00  0.00     0.041 C 
ATOM      6  O   UNL     1      -5.443  -7.552  -9.689  1.00  0.00    -0.550 OA
ATOM      7  O   UNL     1      -3.357  -8.289  -9.098  1.00  0.00    -0.550 OA
ENDBRANCH   4   5
ENDBRANCH   3   4
ENDBRANCH   2   3
ENDBRANCH   1   2
BRANCH   1   8
ATOM      8  C   UNL     1      -8.936  -8.807  -6.207  1.00  0.00     0.000 C 
BRANCH   8   9
ATOM      9  C   UNL     1      -9.646  -7.650  -6.920  1.00  0.00    -0.000 C 
BRANCH   9  10
ATOM     10  C   UNL     1     -10.124  -6.594  -5.916  1.00  0.00    -0.000 C 
BRANCH  10  11
ATOM     11  C   UNL     1     -10.043  -5.185  -6.521  1.00  0.00    -0.000 C 
BRANCH  11  12
ATOM     12  C   UNL     1      -9.758  -5.205  -8.029  1.00  0.00    -0.003 C 
ATOM     13  C   UNL     1      -9.939  -3.835  -8.685  1.00  0.00     0.004 C 
ENDBRANCH  11  12
ENDBRANCH  10  11
ENDBRANCH   9  10
ENDBRANCH   8   9
ENDBRANCH   1   8
TORSDOF 9
ENDMDL
MODEL 6
REMARK VINA RESULT:    -3.106      3.091      5.077
REMARK INTER + INTRA:          -5.531
REMARK INTER:                  -4.511
REMARK INTRA:                  -1.020
REMARK UNBOUND:                -0.791
REMARK SMILES CCCCCCCCCCC(=O)[O-]
REMARK SMILES IDX 7 1 8 2 9 3 10 4 11 5 12 6 13 7 6 8 5 9 4 10 3 11 2 12 1 13
REMARK H PARENT
REMARK Flexibility Score: inf
ROOT
ATOM      1  C   UNL     1      -6.805  -8.657  -9.730  1.00  0.00     0.000 C 
ENDROOT
BRANCH   1   2
ATOM      2  C   UNL     1      -8.149  -7.917  -9.797  1.00  0.00     0.000 C 
BRANCH   2   3
ATOM      3  C   UNL     1      -8.690  -7.522  -8.410  1.00  0.00     0.006 C 
BRANCH   3   4
ATOM      4  C   UNL     1      -9.307  -6.112  -8.359  1.00  0.00     0.053 C 
BRANCH   4   5
ATOM      5  C   UNL     1      -9.310  -5.532  -6.978  1.00  0.00     0.041 C 
ATOM      6  O   UNL     1      -8.777  -6.158  -6.024  1.00  0.00    -0.550 OA
ATOM      7  O   UNL     1      -9.872  -4.282  -6.750  1.00  0.00    -0.550 OA
ENDBRANCH   4   5
ENDBRANCH   3   4
ENDBRANCH   2   3
ENDBRANCH   1   2
BRANCH   1   8
ATOM      8  C   UNL     1      -5.635  -7.695  -9.967  1.00  0.00     0.000 C 
BRANCH   8   9
ATOM      9  C   UNL     1      -4.449  -8.036  -9.057  1.00  0.00    -0.000 C 
BRANCH   9  10
ATOM     10  C   UNL     1      -4.268  -6.973  -7.966  1.00  0.00    -0.000 C 
BRANCH  10  11
ATOM     11  C   UNL     1      -5.353  -7.102  -6.887  1.00  0.00    -0.000 C 
BRANCH  11  12
ATOM     12  C   UNL     1      -5.322  -8.464  -6.179  1.00  0.00    -0.003 C 
ATOM     13  C   UNL     1      -6.697  -8.899  -5.670  1.00  0.00     0.004 C 
ENDBRANCH  11  12
ENDBRANCH  10  11
ENDBRANCH   9  10
ENDBRANCH   8   9
ENDBRANCH   1   8
TORSDOF 9
ENDMDL
MODEL 7
REMARK VINA RESULT:    -3.048      3.150      5.006
REMARK INTER + INTRA:          -5.442
REMARK INTER:                  -4.194
REMARK INTRA:                  -1.249
REMARK UNBOUND:                -0.791
REMARK SMILES CCCCCCCCCCC(=O)[O-]
REMARK SMILES IDX 7 1 8 2 9 3 10 4 11 5 12 6 13 7 6 8 5 9 4 10 3 11 2 12 1 13
REMARK H PARENT
REMARK Flexibility Score: inf
ROOT
ATOM      1  C   UNL     1      -7.494  -9.928  -7.676  1.00  0.00     0.000 C 
ENDROOT
BRANCH   1   2
ATOM      2  C   UNL     1      -8.081  -8.950  -8.704  1.00  0.00     0.000 C 
BRANCH   2   3
ATOM      3  C   UNL     1      -9.181  -8.046  -8.117  1.00  0.00     0.006 C 
BRANCH   3   4
ATOM      4  C   UNL     1      -8.961  -6.545  -8.378  1.00  0.00     0.053 C 
BRANCH   4   5
ATOM      5  C   UNL     1      -9.227  -5.702  -7.168  1.00  0.00     0.041 C 
ATOM      6  O   UNL     1      -9.223  -6.219  -6.020  1.00  0.00    -0.550 OA
ATOM      7  O   UNL     1      -9.447  -4.338  -7.306  1.00  0.00    -0.550 OA
ENDBRANCH   4   5
ENDBRANCH   3   4
ENDBRANCH   2   3
ENDBRANCH   1   2
BRANCH   1   8
ATOM      8  C   UNL     1      -8.082  -9.680  -6.282  1.00  0.00     0.000 C 
BRANCH   8   9
ATOM      9  C   UNL     1      -7.010  -9.158  -5.317  1.00  0.00    -0.000 C 
BRANCH   9  10
ATOM     10  C   UNL     1      -5.816  -8.575  -6.083  1.00  0.00    -0.000 C 
BRANCH  10  11
ATOM     11  C   UNL     1      -5.827  -7.040  -6.033  1.00  0.00    -0.000 C 
BRANCH  11  12
ATOM     12  C   UNL     1      -5.304  -6.404  -7.329  1.00  0.00    -0.003 C 
ATOM     13  C   UNL     1      -4.126  -7.171  -7.932  1.00  0.00     0.004 C 
ENDBRANCH  11  12
ENDBRANCH  10  11
ENDBRANCH   9  10
ENDBRANCH   8   9
ENDBRANCH   1   8
TORSDOF 9
ENDMDL
MODEL 8
REMARK VINA RESULT:    -3.045      2.035      3.674
REMARK INTER + INTRA:          -5.438
REMARK INTER:                  -4.396
REMARK INTRA:                  -1.042
REMARK UNBOUND:                -0.791
REMARK SMILES CCCCCCCCCCC(=O)[O-]
REMARK SMILES IDX 7 1 8 2 9 3 10 4 11 5 12 6 13 7 6 8 5 9 4 10 3 11 2 12 1 13
REMARK H PARENT
REMARK Flexibility Score: inf
ROOT
ATOM      1  C   UNL     1      -7.970  -7.415  -6.014  1.00  0.00     0.000 C 
ENDROOT
BRANCH   1   2
ATOM      2  C   UNL     1      -6.596  -7.912  -6.485  1.00  0.00     0.000 C 
BRANCH   2   3
ATOM      3  C   UNL     1      -5.519  -6.811  -6.469  1.00  0.00     0.006 C 
BRANCH   3   4
ATOM      4  C   UNL     1      -4.742  -6.677  -7.792  1.00  0.00     0.053 C 
BRANCH   4   5
ATOM      5  C   UNL     1      -3.801  -7.819  -8.028  1.00  0.00     0.041 C 
ATOM      6  O   UNL     1      -3.345  -8.479  -7.056  1.00  0.00    -0.550 OA
ATOM      7  O   UNL     1      -3.452  -8.175  -9.324  1.00  0.00    -0.550 OA
ENDBRANCH   4   5
ENDBRANCH   3   4
ENDBRANCH   2   3
ENDBRANCH   1   2
BRANCH   1   8
ATOM      8  C   UNL     1      -8.390  -6.151  -6.774  1.00  0.00     0.000 C 
BRANCH   8   9
ATOM      9  C   UNL     1      -9.100  -6.508  -8.086  1.00  0.00    -0.000 C 
BRANCH   9  10
ATOM     10  C   UNL     1      -9.696  -7.920  -8.024  1.00  0.00    -0.000 C 
BRANCH  10  11
ATOM     11  C   UNL     1      -9.331  -8.726  -9.279  1.00  0.00    -0.000 C 
BRANCH  11  12
ATOM     12  C   UNL     1      -8.238  -8.049 -10.118  1.00  0.00    -0.003 C 
ATOM     13  C   UNL     1      -6.904  -8.793 -10.065  1.00  0.00     0.004 C 
ENDBRANCH  11  12
ENDBRANCH  10  11
ENDBRANCH   9  10
ENDBRANCH   8   9
ENDBRANCH   1   8
TORSDOF 9
ENDMDL
MODEL 9
REMARK VINA RESULT:    -2.787      2.002      3.234
REMARK INTER + INTRA:          -5.044
REMARK INTER:                  -3.848
REMARK INTRA:                  -1.196
REMARK UNBOUND:                -0.791
REMARK SMILES CCCCCCCCCCC(=O)[O-]
REMARK SMILES IDX 7 1 8 2 9 3 10 4 11 5 12 6 13 7 6 8 5 9 4 10 3 11 2 12 1 13
REMARK H PARENT
REMARK Flexibility Score: inf
ROOT
ATOM      1  C   UNL     1      -6.701  -6.615  -6.980  1.00  0.00     0.000 C 
ENDROOT
BRANCH   1   2
ATOM      2  C   UNL     1      -6.459  -7.421  -5.696  1.00  0.00     0.000 C 
BRANCH   2   3
ATOM      3  C   UNL     1      -5.795  -8.786  -5.957  1.00  0.00     0.006 C 
BRANCH   3   4
ATOM      4  C   UNL     1      -5.400  -9.018  -7.427  1.00  0.00     0.053 C 
BRANCH   4   5
ATOM      5  C   UNL     1      -3.926  -8.882  -7.659  1.00  0.00     0.041 C 
ATOM      6  O   UNL     1      -3.464  -7.862  -8.236  1.00  0.00    -0.550 OA
ATOM      7  O   UNL     1      -3.058  -9.867  -7.206  1.00  0.00    -0.550 OA
ENDBRANCH   4   5
ENDBRANCH   3   4
ENDBRANCH   2   3
ENDBRANCH   1   2
BRANCH   1   8
ATOM      8  C   UNL     1      -8.186  -6.620  -7.362  1.00  0.00     0.000 C 
BRANCH   8   9
ATOM      9  C   UNL     1      -9.075  -6.495  -6.118  1.00  0.00    -0.000 C 
BRANCH   9  10
ATOM     10  C   UNL     1     -10.125  -7.612  -6.076  1.00  0.00    -0.000 C 
BRANCH  10  11
ATOM     11  C   UNL     1      -9.761  -8.745  -7.047  1.00  0.00    -0.000 C 
BRANCH  11  12
ATOM     12  C   UNL     1      -9.666 -10.110  -6.350  1.00  0.00    -0.003 C 
ATOM     13  C   UNL     1      -9.154 -10.007  -4.913  1.00  0.00     0.004 C 
ENDBRANCH  11  12
ENDBRANCH  10  11
ENDBRANCH   9  10
ENDBRANCH   8   9
ENDBRANCH   1   8
TORSDOF 9
ENDMDL
