MODEL 1
REMARK VINA RESULT:    -4.186      0.000      0.000
REMARK INTER + INTRA:          -6.506
REMARK INTER:                  -5.899
REMARK INTRA:                  -0.607
REMARK UNBOUND:                -0.607
REMARK SMILES CCCCCCCCC(=O)[O-]
REMARK SMILES IDX 6 1 7 2 8 3 9 4 10 5 11 6 5 7 4 8 3 9 2 10 1 11
REMARK H PARENT
REMARK Flexibility Score: inf
ROOT
ATOM      1  C   UNL     1     -29.392 -12.131  16.641  1.00  0.00     0.000 C 
ENDROOT
BRANCH   1   2
ATOM      2  C   UNL     1     -30.187 -13.199  17.409  1.00  0.00     0.006 C 
BRANCH   2   3
ATOM      3  C   UNL     1     -29.991 -14.607  16.832  1.00  0.00     0.053 C 
BRANCH   3   4
ATOM      4  C   UNL     1     -30.844 -14.796  15.617  1.00  0.00     0.041 C 
ATOM      5  O   UNL     1     -32.075 -14.537  15.660  1.00  0.00    -0.550 OA
ATOM      6  O   UNL     1     -30.270 -15.211  14.422  1.00  0.00    -0.550 OA
ENDBRANCH   3   4
ENDBRANCH   2   3
ENDBRANCH   1   2
BRANCH   1   7
ATOM      7  C   UNL     1     -29.028 -10.920  17.519  1.00  0.00     0.000 C 
BRANCH   7   8
ATOM      8  C   UNL     1     -27.528 -10.587  17.472  1.00  0.00    -0.000 C 
BRANCH   8   9
ATOM      9  C   UNL     1     -26.731 -11.575  16.608  1.00  0.00    -0.000 C 
BRANCH   9  10
ATOM     10  C   UNL     1     -25.627 -12.253  17.429  1.00  0.00    -0.003 C 
ATOM     11  C   UNL     1     -26.060 -13.639  17.899  1.00  0.00     0.004 C 
ENDBRANCH   9  10
ENDBRANCH   8   9
ENDBRANCH   7   8
ENDBRANCH   1   7
TORSDOF 7
ENDMDL
MODEL 2
REMARK VINA RESULT:    -4.169      0.227      1.003
REMARK INTER + INTRA:          -6.482
REMARK INTER:                  -5.829
REMARK INTRA:                  -0.653
REMARK UNBOUND:                -0.607
REMARK SMILES CCCCCCCCC(=O)[O-]
REMARK SMILES IDX 6 1 7 2 8 3 9 4 10 5 11 6 5 7 4 8 3 9 2 10 1 11
REMARK H PARENT
REMARK Flexibility Score: inf
ROOT
ATOM      1  C   UNL     1     -29.610 -12.157  16.589  1.00  0.00     0.000 C 
ENDROOT
BRANCH   1   2
ATOM      2  C   UNL     1     -30.117 -13.366  17.392  1.00  0.00     0.006 C 
BRANCH   2   3
ATOM      3  C   UNL     1     -29.854 -14.699  16.678  1.00  0.00     0.053 C 
BRANCH   3   4
ATOM      4  C   UNL     1     -30.744 -14.835  15.483  1.00  0.00     0.041 C 
ATOM      5  O   UNL     1     -30.281 -15.258  14.392  1.00  0.00    -0.550 OA
ATOM      6  O   UNL     1     -32.098 -14.540  15.588  1.00  0.00    -0.550 OA
ENDBRANCH   3   4
ENDBRANCH   2   3
ENDBRANCH   1   2
BRANCH   1   7
ATOM      7  C   UNL     1     -29.177 -10.988  17.491  1.00  0.00     0.000 C 
BRANCH   7   8
ATOM      8  C   UNL     1     -27.662 -10.974  17.753  1.00  0.00    -0.000 C 
BRANCH   8   9
ATOM      9  C   UNL     1     -26.862 -11.640  16.624  1.00  0.00    -0.000 C 
BRANCH   9  10
ATOM     10  C   UNL     1     -25.668 -12.420  17.186  1.00  0.00    -0.003 C 
ATOM     11  C   UNL     1     -26.120 -13.714  17.859  1.00  0.00     0.004 C 
ENDBRANCH   9  10
ENDBRANCH   8   9
ENDBRANCH   7   8
ENDBRANCH   1   7
TORSDOF 7
ENDMDL
MODEL 3
REMARK VINA RESULT:    -3.942      1.732      3.241
REMARK INTER + INTRA:          -6.163
REMARK INTER:                  -5.596
REMARK INTRA:                  -0.567
REMARK UNBOUND:                -0.607
REMARK SMILES CCCCCCCCC(=O)[O-]
REMARK SMILES IDX 6 1 7 2 8 3 9 4 10 5 11 6 5 7 4 8 3 9 2 10 1 11
REMARK H PARENT
REMARK Flexibility Score: inf
ROOT
ATOM      1  C   UNL     1     -26.496 -11.368  17.164  1.00  0.00     0.000 C 
ENDROOT
BRANCH   1   2
ATOM      2  C   UNL     1     -27.855 -11.753  17.771  1.00  0.00     0.006 C 
BRANCH   2   3
ATOM      3  C   UNL     1     -29.006 -11.628  16.764  1.00  0.00     0.053 C 
BRANCH   3   4
ATOM      4  C   UNL     1     -29.936 -12.794  16.888  1.00  0.00     0.041 C 
ATOM      5  O   UNL     1     -30.745 -12.861  17.850  1.00  0.00    -0.550 OA
ATOM      6  O   UNL     1     -29.943 -13.783  15.912  1.00  0.00    -0.550 OA
ENDBRANCH   3   4
ENDBRANCH   2   3
ENDBRANCH   1   2
BRANCH   1   7
ATOM      7  C   UNL     1     -25.527 -12.560  17.080  1.00  0.00     0.000 C 
BRANCH   7   8
ATOM      8  C   UNL     1     -25.834 -13.644  18.125  1.00  0.00    -0.000 C 
BRANCH   8   9
ATOM      9  C   UNL     1     -26.038 -15.030  17.495  1.00  0.00    -0.000 C 
BRANCH   9  10
ATOM     10  C   UNL     1     -27.461 -15.543  17.748  1.00  0.00    -0.003 C 
ATOM     11  C   UNL     1     -27.875 -16.566  16.694  1.00  0.00     0.004 C 
ENDBRANCH   9  10
ENDBRANCH   8   9
ENDBRANCH   7   8
ENDBRANCH   1   7
TORSDOF 7
ENDMDL
MODEL 4
REMARK VINA RESULT:    -3.923      1.080      1.534
REMARK INTER + INTRA:          -6.135
REMARK INTER:                  -5.573
REMARK INTRA:                  -0.562
REMARK UNBOUND:                -0.607
REMARK SMILES CCCCCCCCC(=O)[O-]
REMARK SMILES IDX 6 1 7 2 8 3 9 4 10 5 11 6 5 7 4 8 3 9 2 10 1 11
REMARK H PARENT
REMARK Flexibility Score: inf
ROOT
ATOM      1  C   UNL     1     -29.592 -12.659  16.398  1.00  0.00     0.000 C 
ENDROOT
BRANCH   1   2
ATOM      2  C   UNL     1     -29.688 -13.878  17.329  1.00  0.00     0.006 C 
BRANCH   2   3
ATOM      3  C   UNL     1     -30.734 -14.898  16.858  1.00  0.00     0.053 C 
BRANCH   3   4
ATOM      4  C   UNL     1     -32.061 -14.232  16.667  1.00  0.00     0.041 C 
ATOM      5  O   UNL     1     -32.627 -14.259  15.543  1.00  0.00    -0.550 OA
ATOM      6  O   UNL     1     -32.695 -13.625  17.743  1.00  0.00    -0.550 OA
ENDBRANCH   3   4
ENDBRANCH   2   3
ENDBRANCH   1   2
BRANCH   1   7
ATOM      7  C   UNL     1     -29.246 -11.364  17.154  1.00  0.00     0.000 C 
BRANCH   7   8
ATOM      8  C   UNL     1     -27.832 -11.392  17.757  1.00  0.00    -0.000 C 
BRANCH   8   9
ATOM      9  C   UNL     1     -26.734 -11.370  16.684  1.00  0.00    -0.000 C 
BRANCH   9  10
ATOM     10  C   UNL     1     -25.504 -12.163  17.144  1.00  0.00    -0.003 C 
ATOM     11  C   UNL     1     -25.906 -13.505  17.749  1.00  0.00     0.004 C 
ENDBRANCH   9  10
ENDBRANCH   8   9
ENDBRANCH   7   8
ENDBRANCH   1   7
TORSDOF 7
ENDMDL
MODEL 5
REMARK VINA RESULT:    -3.880      2.100      3.901
REMARK INTER + INTRA:          -6.075
REMARK INTER:                  -5.555
REMARK INTRA:                  -0.520
REMARK UNBOUND:                -0.607
REMARK SMILES CCCCCCCCC(=O)[O-]
REMARK SMILES IDX 6 1 7 2 8 3 9 4 10 5 11 6 5 7 4 8 3 9 2 10 1 11
REMARK H PARENT
REMARK Flexibility Score: inf
ROOT
ATOM      1  C   UNL     1     -25.728 -12.557  17.159  1.00  0.00     0.000 C 
ENDROOT
BRANCH   1   2
ATOM      2  C   UNL     1     -26.378 -13.703  17.952  1.00  0.00     0.006 C 
BRANCH   2   3
ATOM      3  C   UNL     1     -25.922 -15.086  17.470  1.00  0.00     0.053 C 
BRANCH   3   4
ATOM      4  C   UNL     1     -27.102 -15.985  17.276  1.00  0.00     0.041 C 
ATOM      5  O   UNL     1     -26.989 -17.045  16.605  1.00  0.00    -0.550 OA
ATOM      6  O   UNL     1     -28.316 -15.678  17.877  1.00  0.00    -0.550 OA
ENDBRANCH   3   4
ENDBRANCH   2   3
ENDBRANCH   1   2
BRANCH   1   7
ATOM      7  C   UNL     1     -26.702 -11.397  16.890  1.00  0.00     0.000 C 
BRANCH   7   8
ATOM      8  C   UNL     1     -27.900 -11.398  17.853  1.00  0.00    -0.000 C 
BRANCH   8   9
ATOM      9  C   UNL     1     -29.245 -11.274  17.122  1.00  0.00    -0.000 C 
BRANCH   9  10
ATOM     10  C   UNL     1     -29.743 -12.647  16.655  1.00  0.00    -0.003 C 
ATOM     11  C   UNL     1     -30.801 -13.203  17.604  1.00  0.00     0.004 C 
ENDBRANCH   9  10
ENDBRANCH   8   9
ENDBRANCH   7   8
ENDBRANCH   1   7
TORSDOF 7
ENDMDL
MODEL 6
REMARK VINA RESULT:    -3.660      2.717      5.081
REMARK INTER + INTRA:          -5.765
REMARK INTER:                  -5.320
REMARK INTRA:                  -0.444
REMARK UNBOUND:                -0.607
REMARK SMILES CCCCCCCCC(=O)[O-]
REMARK SMILES IDX 6 1 7 2 8 3 9 4 10 5 11 6 5 7 4 8 3 9 2 10 1 11
REMARK H PARENT
REMARK Flexibility Score: inf
ROOT
ATOM      1  C   UNL     1     -29.390 -12.244  16.729  1.00  0.00     0.000 C 
ENDROOT
BRANCH   1   2
ATOM      2  C   UNL     1     -28.256 -11.605  17.547  1.00  0.00     0.006 C 
BRANCH   2   3
ATOM      3  C   UNL     1     -26.955 -11.472  16.745  1.00  0.00     0.053 C 
BRANCH   3   4
ATOM      4  C   UNL     1     -25.950 -12.477  17.212  1.00  0.00     0.041 C 
ATOM      5  O   UNL     1     -24.748 -12.143  17.378  1.00  0.00    -0.550 OA
ATOM      6  O   UNL     1     -26.352 -13.773  17.512  1.00  0.00    -0.550 OA
ENDBRANCH   3   4
ENDBRANCH   2   3
ENDBRANCH   1   2
BRANCH   1   7
ATOM      7  C   UNL     1     -30.473 -12.881  17.617  1.00  0.00     0.000 C 
BRANCH   7   8
ATOM      8  C   UNL     1     -30.671 -14.377  17.326  1.00  0.00    -0.000 C 
BRANCH   8   9
ATOM      9  C   UNL     1     -29.796 -14.873  16.166  1.00  0.00    -0.000 C 
BRANCH   9  10
ATOM     10  C   UNL     1     -30.656 -15.255  14.956  1.00  0.00    -0.003 C 
ATOM     11  C   UNL     1     -32.135 -15.326  15.329  1.00  0.00     0.004 C 
ENDBRANCH   9  10
ENDBRANCH   8   9
ENDBRANCH   7   8
ENDBRANCH   1   7
TORSDOF 7
ENDMDL
MODEL 7
REMARK VINA RESULT:    -3.623      1.536      2.313
REMARK INTER + INTRA:          -5.713
REMARK INTER:                  -5.173
REMARK INTRA:                  -0.541
REMARK UNBOUND:                -0.607
REMARK SMILES CCCCCCCCC(=O)[O-]
REMARK SMILES IDX 6 1 7 2 8 3 9 4 10 5 11 6 5 7 4 8 3 9 2 10 1 11
REMARK H PARENT
REMARK Flexibility Score: inf
ROOT
ATOM      1  C   UNL     1     -29.309 -13.969  16.599  1.00  0.00     0.000 C 
ENDROOT
BRANCH   1   2
ATOM      2  C   UNL     1     -30.246 -13.012  17.353  1.00  0.00     0.006 C 
BRANCH   2   3
ATOM      3  C   UNL     1     -31.493 -13.718  17.901  1.00  0.00     0.053 C 
BRANCH   3   4
ATOM      4  C   UNL     1     -32.273 -14.338  16.785  1.00  0.00     0.041 C 
ATOM      5  O   UNL     1     -32.759 -13.618  15.873  1.00  0.00    -0.550 OA
ATOM      6  O   UNL     1     -32.422 -15.718  16.725  1.00  0.00    -0.550 OA
ENDBRANCH   3   4
ENDBRANCH   2   3
ENDBRANCH   1   2
BRANCH   1   7
ATOM      7  C   UNL     1     -28.243 -14.596  17.515  1.00  0.00     0.000 C 
BRANCH   7   8
ATOM      8  C   UNL     1     -27.299 -13.547  18.125  1.00  0.00    -0.000 C 
BRANCH   8   9
ATOM      9  C   UNL     1     -25.904 -13.564  17.484  1.00  0.00    -0.000 C 
BRANCH   9  10
ATOM     10  C   UNL     1     -25.494 -12.159  17.028  1.00  0.00    -0.003 C 
ATOM     11  C   UNL     1     -26.697 -11.219  16.982  1.00  0.00     0.004 C 
ENDBRANCH   9  10
ENDBRANCH   8   9
ENDBRANCH   7   8
ENDBRANCH   1   7
TORSDOF 7
ENDMDL
MODEL 8
REMARK VINA RESULT:    -3.576      3.016      5.532
REMARK INTER + INTRA:          -5.647
REMARK INTER:                  -5.356
REMARK INTRA:                  -0.291
REMARK UNBOUND:                -0.607
REMARK SMILES CCCCCCCCC(=O)[O-]
REMARK SMILES IDX 6 1 7 2 8 3 9 4 10 5 11 6 5 7 4 8 3 9 2 10 1 11
REMARK H PARENT
REMARK Flexibility Score: inf
ROOT
ATOM      1  C   UNL     1     -29.203 -12.081  16.799  1.00  0.00     0.000 C 
ENDROOT
BRANCH   1   2
ATOM      2  C   UNL     1     -28.079 -11.538  17.697  1.00  0.00     0.006 C 
BRANCH   2   3
ATOM      3  C   UNL     1     -26.758 -11.353  16.940  1.00  0.00     0.053 C 
BRANCH   3   4
ATOM      4  C   UNL     1     -25.788 -12.429  17.313  1.00  0.00     0.041 C 
ATOM      5  O   UNL     1     -26.176 -13.621  17.430  1.00  0.00    -0.550 OA
ATOM      6  O   UNL     1     -24.443 -12.124  17.484  1.00  0.00    -0.550 OA
ENDBRANCH   3   4
ENDBRANCH   2   3
ENDBRANCH   1   2
BRANCH   1   7
ATOM      7  C   UNL     1     -29.745 -13.437  17.283  1.00  0.00     0.000 C 
BRANCH   7   8
ATOM      8  C   UNL     1     -31.197 -13.349  17.778  1.00  0.00    -0.000 C 
BRANCH   8   9
ATOM      9  C   UNL     1     -32.060 -14.521  17.286  1.00  0.00    -0.000 C 
BRANCH   9  10
ATOM     10  C   UNL     1     -32.327 -14.409  15.781  1.00  0.00    -0.003 C 
ATOM     11  C   UNL     1     -33.732 -13.878  15.507  1.00  0.00     0.004 C 
ENDBRANCH   9  10
ENDBRANCH   8   9
ENDBRANCH   7   8
ENDBRANCH   1   7
TORSDOF 7
ENDMDL
