MODEL 1
REMARK VINA RESULT:    -4.734      0.000      0.000
REMARK INTER + INTRA:          -7.147
REMARK INTER:                  -6.395
REMARK INTRA:                  -0.752
REMARK UNBOUND:                -0.752
REMARK SMILES CCCCCCC=CC(=O)[O-]
REMARK SMILES IDX 5 1 6 2 7 3 8 4 9 5 10 6 11 7 4 8 3 9 2 10 1 11
REMARK H PARENT
REMARK Flexibility Score: inf
ROOT
ATOM      1  C   UNL     1     -29.943  -1.465  22.215  1.00  0.00     0.004 C 
ENDROOT
BRANCH   1   2
ATOM      2  C   UNL     1     -31.024  -1.024  23.209  1.00  0.00     0.027 C 
BRANCH   2   3
ATOM      3  C   UNL     1     -30.497  -1.007  24.615  1.00  0.00    -0.025 C 
ATOM      4  C   UNL     1     -30.189   0.139  25.232  1.00  0.00     0.020 C 
BRANCH   4   5
ATOM      5  C   UNL     1     -29.659   0.178  26.604  1.00  0.00     0.064 C 
ATOM      6  O   UNL     1     -28.772  -0.633  26.984  1.00  0.00    -0.545 OA
ATOM      7  O   UNL     1     -30.145   1.124  27.498  1.00  0.00    -0.545 OA
ENDBRANCH   4   5
ENDBRANCH   2   3
ENDBRANCH   1   2
BRANCH   1   8
ATOM      8  C   UNL     1     -29.156  -0.256  21.686  1.00  0.00     0.000 C 
BRANCH   8   9
ATOM      9  C   UNL     1     -27.636  -0.438  21.810  1.00  0.00    -0.000 C 
BRANCH   9  10
ATOM     10  C   UNL     1     -27.093   0.034  23.168  1.00  0.00    -0.003 C 
ATOM     11  C   UNL     1     -26.697  -1.152  24.042  1.00  0.00     0.004 C 
ENDBRANCH   9  10
ENDBRANCH   8   9
ENDBRANCH   1   8
TORSDOF 6
ENDMDL
MODEL 2
REMARK VINA RESULT:    -4.705      1.080      2.783
REMARK INTER + INTRA:          -7.108
REMARK INTER:                  -6.388
REMARK INTRA:                  -0.720
REMARK UNBOUND:                -0.752
REMARK SMILES CCCCCCC=CC(=O)[O-]
REMARK SMILES IDX 5 1 6 2 7 3 8 4 9 5 10 6 11 7 4 8 3 9 2 10 1 11
REMARK H PARENT
REMARK Flexibility Score: inf
ROOT
ATOM      1  C   UNL     1     -27.344  -0.789  22.288  1.00  0.00     0.004 C 
ENDROOT
BRANCH   1   2
ATOM      2  C   UNL     1     -26.563  -1.194  23.543  1.00  0.00     0.027 C 
BRANCH   2   3
ATOM      3  C   UNL     1     -27.419  -1.094  24.773  1.00  0.00    -0.025 C 
ATOM      4  C   UNL     1     -27.886   0.083  25.205  1.00  0.00     0.020 C 
BRANCH   4   5
ATOM      5  C   UNL     1     -28.715   0.206  26.415  1.00  0.00     0.064 C 
ATOM      6  O   UNL     1     -28.574  -0.586  27.385  1.00  0.00    -0.545 OA
ATOM      7  O   UNL     1     -29.669   1.212  26.489  1.00  0.00    -0.545 OA
ENDBRANCH   4   5
ENDBRANCH   2   3
ENDBRANCH   1   2
BRANCH   1   8
ATOM      8  C   UNL     1     -28.522  -1.743  22.040  1.00  0.00     0.000 C 
BRANCH   8   9
ATOM      9  C   UNL     1     -29.828  -1.002  21.713  1.00  0.00    -0.000 C 
BRANCH   9  10
ATOM     10  C   UNL     1     -30.753  -0.869  22.932  1.00  0.00    -0.003 C 
ATOM     11  C   UNL     1     -30.869  -2.193  23.680  1.00  0.00     0.004 C 
ENDBRANCH   9  10
ENDBRANCH   8   9
ENDBRANCH   1   8
TORSDOF 6
ENDMDL
MODEL 3
REMARK VINA RESULT:    -4.618      3.291      5.196
REMARK INTER + INTRA:          -6.990
REMARK INTER:                  -6.253
REMARK INTRA:                  -0.737
REMARK UNBOUND:                -0.752
REMARK SMILES CCCCCCC=CC(=O)[O-]
REMARK SMILES IDX 5 1 6 2 7 3 8 4 9 5 10 6 11 7 4 8 3 9 2 10 1 11
REMARK H PARENT
REMARK Flexibility Score: inf
ROOT
ATOM      1  C   UNL     1     -27.653  -0.581  25.099  1.00  0.00     0.004 C 
ENDROOT
BRANCH   1   2
ATOM      2  C   UNL     1     -26.812  -0.259  23.858  1.00  0.00     0.027 C 
BRANCH   2   3
ATOM      3  C   UNL     1     -27.230  -1.097  22.685  1.00  0.00    -0.025 C 
ATOM      4  C   UNL     1     -27.789  -0.550  21.599  1.00  0.00     0.020 C 
BRANCH   4   5
ATOM      5  C   UNL     1     -28.219  -1.353  20.444  1.00  0.00     0.064 C 
ATOM      6  O   UNL     1     -28.244  -0.864  19.282  1.00  0.00    -0.545 OA
ATOM      7  O   UNL     1     -28.604  -2.674  20.636  1.00  0.00    -0.545 OA
ENDBRANCH   4   5
ENDBRANCH   2   3
ENDBRANCH   1   2
BRANCH   1   8
ATOM      8  C   UNL     1     -28.839   0.388  25.226  1.00  0.00     0.000 C 
BRANCH   8   9
ATOM      9  C   UNL     1     -30.195  -0.335  25.262  1.00  0.00    -0.000 C 
BRANCH   9  10
ATOM     10  C   UNL     1     -30.737  -0.643  23.858  1.00  0.00    -0.003 C 
ATOM     11  C   UNL     1     -30.847  -2.148  23.631  1.00  0.00     0.004 C 
ENDBRANCH   9  10
ENDBRANCH   8   9
ENDBRANCH   1   8
TORSDOF 6
ENDMDL
MODEL 4
REMARK VINA RESULT:    -4.612      3.225      4.381
REMARK INTER + INTRA:          -6.982
REMARK INTER:                  -6.238
REMARK INTRA:                  -0.744
REMARK UNBOUND:                -0.752
REMARK SMILES CCCCCCC=CC(=O)[O-]
REMARK SMILES IDX 5 1 6 2 7 3 8 4 9 5 10 6 11 7 4 8 3 9 2 10 1 11
REMARK H PARENT
REMARK Flexibility Score: inf
ROOT
ATOM      1  C   UNL     1     -30.393  -0.913  24.551  1.00  0.00     0.004 C 
ENDROOT
BRANCH   1   2
ATOM      2  C   UNL     1     -31.196  -0.805  23.249  1.00  0.00     0.027 C 
BRANCH   2   3
ATOM      3  C   UNL     1     -30.302  -0.910  22.048  1.00  0.00    -0.025 C 
ATOM      4  C   UNL     1     -29.493  -1.961  21.868  1.00  0.00     0.020 C 
BRANCH   4   5
ATOM      5  C   UNL     1     -28.599  -2.079  20.706  1.00  0.00     0.064 C 
ATOM      6  O   UNL     1     -28.901  -2.807  19.722  1.00  0.00    -0.545 OA
ATOM      7  O   UNL     1     -27.401  -1.376  20.692  1.00  0.00    -0.545 OA
ENDBRANCH   4   5
ENDBRANCH   2   3
ENDBRANCH   1   2
BRANCH   1   8
ATOM      8  C   UNL     1     -29.555   0.352  24.788  1.00  0.00     0.000 C 
BRANCH   8   9
ATOM      9  C   UNL     1     -28.130   0.038  25.271  1.00  0.00    -0.000 C 
BRANCH   9  10
ATOM     10  C   UNL     1     -27.129  -0.092  24.113  1.00  0.00    -0.003 C 
ATOM     11  C   UNL     1     -26.480  -1.472  24.102  1.00  0.00     0.004 C 
ENDBRANCH   9  10
ENDBRANCH   8   9
ENDBRANCH   1   8
TORSDOF 6
ENDMDL
MODEL 5
REMARK VINA RESULT:    -4.549      2.602      3.832
REMARK INTER + INTRA:          -6.896
REMARK INTER:                  -6.328
REMARK INTRA:                  -0.568
REMARK UNBOUND:                -0.752
REMARK SMILES CCCCCCC=CC(=O)[O-]
REMARK SMILES IDX 5 1 6 2 7 3 8 4 9 5 10 6 11 7 4 8 3 9 2 10 1 11
REMARK H PARENT
REMARK Flexibility Score: inf
ROOT
ATOM      1  C   UNL     1     -28.765  -0.502  26.638  1.00  0.00     0.004 C 
ENDROOT
BRANCH   1   2
ATOM      2  C   UNL     1     -30.092   0.201  26.332  1.00  0.00     0.027 C 
BRANCH   2   3
ATOM      3  C   UNL     1     -30.384   0.197  24.859  1.00  0.00    -0.025 C 
ATOM      4  C   UNL     1     -30.795  -0.911  24.231  1.00  0.00     0.020 C 
BRANCH   4   5
ATOM      5  C   UNL     1     -31.074  -0.940  22.787  1.00  0.00     0.064 C 
ATOM      6  O   UNL     1     -31.907  -0.150  22.267  1.00  0.00    -0.545 OA
ATOM      7  O   UNL     1     -30.408  -1.856  21.982  1.00  0.00    -0.545 OA
ENDBRANCH   4   5
ENDBRANCH   2   3
ENDBRANCH   1   2
BRANCH   1   8
ATOM      8  C   UNL     1     -27.645   0.011  25.719  1.00  0.00     0.000 C 
BRANCH   8   9
ATOM      9  C   UNL     1     -27.054  -1.094  24.830  1.00  0.00    -0.000 C 
BRANCH   9  10
ATOM     10  C   UNL     1     -26.628  -0.576  23.448  1.00  0.00    -0.003 C 
ATOM     11  C   UNL     1     -27.018   0.887  23.267  1.00  0.00     0.004 C 
ENDBRANCH   9  10
ENDBRANCH   8   9
ENDBRANCH   1   8
TORSDOF 6
ENDMDL
MODEL 6
REMARK VINA RESULT:    -4.409      1.327      1.742
REMARK INTER + INTRA:          -6.708
REMARK INTER:                  -6.050
REMARK INTRA:                  -0.658
REMARK UNBOUND:                -0.752
REMARK SMILES CCCCCCC=CC(=O)[O-]
REMARK SMILES IDX 5 1 6 2 7 3 8 4 9 5 10 6 11 7 4 8 3 9 2 10 1 11
REMARK H PARENT
REMARK Flexibility Score: inf
ROOT
ATOM      1  C   UNL     1     -30.408  -2.164  22.903  1.00  0.00     0.004 C 
ENDROOT
BRANCH   1   2
ATOM      2  C   UNL     1     -31.229  -1.744  24.128  1.00  0.00     0.027 C 
BRANCH   2   3
ATOM      3  C   UNL     1     -30.421  -0.886  25.058  1.00  0.00    -0.025 C 
ATOM      4  C   UNL     1     -29.117  -1.111  25.261  1.00  0.00     0.020 C 
BRANCH   4   5
ATOM      5  C   UNL     1     -28.310  -0.292  26.178  1.00  0.00     0.064 C 
ATOM      6  O   UNL     1     -27.406   0.473  25.745  1.00  0.00    -0.545 OA
ATOM      7  O   UNL     1     -28.546  -0.362  27.545  1.00  0.00    -0.545 OA
ENDBRANCH   4   5
ENDBRANCH   2   3
ENDBRANCH   1   2
BRANCH   1   8
ATOM      8  C   UNL     1     -30.455  -1.084  21.812  1.00  0.00     0.000 C 
BRANCH   8   9
ATOM      9  C   UNL     1     -29.223  -1.113  20.895  1.00  0.00    -0.000 C 
BRANCH   9  10
ATOM     10  C   UNL     1     -27.904  -1.199  21.678  1.00  0.00    -0.003 C 
ATOM     11  C   UNL     1     -27.513   0.164  22.242  1.00  0.00     0.004 C 
ENDBRANCH   9  10
ENDBRANCH   8   9
ENDBRANCH   1   8
TORSDOF 6
ENDMDL
MODEL 7
REMARK VINA RESULT:    -4.313      2.330      4.084
REMARK INTER + INTRA:          -6.578
REMARK INTER:                  -6.062
REMARK INTRA:                  -0.517
REMARK UNBOUND:                -0.752
REMARK SMILES CCCCCCC=CC(=O)[O-]
REMARK SMILES IDX 5 1 6 2 7 3 8 4 9 5 10 6 11 7 4 8 3 9 2 10 1 11
REMARK H PARENT
REMARK Flexibility Score: inf
ROOT
ATOM      1  C   UNL     1     -26.722   0.593  23.636  1.00  0.00     0.004 C 
ENDROOT
BRANCH   1   2
ATOM      2  C   UNL     1     -27.497   0.239  22.361  1.00  0.00     0.027 C 
BRANCH   2   3
ATOM      3  C   UNL     1     -28.977   0.213  22.613  1.00  0.00    -0.025 C 
ATOM      4  C   UNL     1     -29.637  -0.938  22.790  1.00  0.00     0.020 C 
BRANCH   4   5
ATOM      5  C   UNL     1     -31.088  -0.987  23.024  1.00  0.00     0.064 C 
ATOM      6  O   UNL     1     -31.868  -0.173  22.460  1.00  0.00    -0.545 OA
ATOM      7  O   UNL     1     -31.609  -1.946  23.883  1.00  0.00    -0.545 OA
ENDBRANCH   4   5
ENDBRANCH   2   3
ENDBRANCH   1   2
BRANCH   1   8
ATOM      8  C   UNL     1     -26.997  -0.430  24.749  1.00  0.00     0.000 C 
BRANCH   8   9
ATOM      9  C   UNL     1     -27.643   0.203  25.991  1.00  0.00    -0.000 C 
BRANCH   9  10
ATOM     10  C   UNL     1     -28.884  -0.565  26.468  1.00  0.00    -0.003 C 
ATOM     11  C   UNL     1     -30.137   0.301  26.369  1.00  0.00     0.004 C 
ENDBRANCH   9  10
ENDBRANCH   8   9
ENDBRANCH   1   8
TORSDOF 6
ENDMDL
MODEL 8
REMARK VINA RESULT:    -4.294      3.325      5.086
REMARK INTER + INTRA:          -6.552
REMARK INTER:                  -5.928
REMARK INTRA:                  -0.624
REMARK UNBOUND:                -0.752
REMARK SMILES CCCCCCC=CC(=O)[O-]
REMARK SMILES IDX 5 1 6 2 7 3 8 4 9 5 10 6 11 7 4 8 3 9 2 10 1 11
REMARK H PARENT
REMARK Flexibility Score: inf
ROOT
ATOM      1  C   UNL     1     -26.648  -0.696  23.430  1.00  0.00     0.004 C 
ENDROOT
BRANCH   1   2
ATOM      2  C   UNL     1     -27.363   0.458  22.717  1.00  0.00     0.027 C 
BRANCH   2   3
ATOM      3  C   UNL     1     -28.454  -0.048  21.818  1.00  0.00    -0.025 C 
ATOM      4  C   UNL     1     -28.415  -1.280  21.297  1.00  0.00     0.020 C 
BRANCH   4   5
ATOM      5  C   UNL     1     -29.465  -1.792  20.404  1.00  0.00     0.064 C 
ATOM      6  O   UNL     1     -30.651  -1.373  20.484  1.00  0.00    -0.545 OA
ATOM      7  O   UNL     1     -29.146  -2.754  19.455  1.00  0.00    -0.545 OA
ENDBRANCH   4   5
ENDBRANCH   2   3
ENDBRANCH   1   2
BRANCH   1   8
ATOM      8  C   UNL     1     -27.315  -1.008  24.778  1.00  0.00     0.000 C 
BRANCH   8   9
ATOM      9  C   UNL     1     -27.708   0.260  25.553  1.00  0.00    -0.000 C 
BRANCH   9  10
ATOM     10  C   UNL     1     -29.174   0.241  26.012  1.00  0.00    -0.003 C 
ATOM     11  C   UNL     1     -29.962  -0.845  25.286  1.00  0.00     0.004 C 
ENDBRANCH   9  10
ENDBRANCH   8   9
ENDBRANCH   1   8
TORSDOF 6
ENDMDL
MODEL 9
REMARK VINA RESULT:    -4.229      1.883      2.811
REMARK INTER + INTRA:          -6.464
REMARK INTER:                  -5.955
REMARK INTRA:                  -0.509
REMARK UNBOUND:                -0.752
REMARK SMILES CCCCCCC=CC(=O)[O-]
REMARK SMILES IDX 5 1 6 2 7 3 8 4 9 5 10 6 11 7 4 8 3 9 2 10 1 11
REMARK H PARENT
REMARK Flexibility Score: inf
ROOT
ATOM      1  C   UNL     1     -27.758  -1.133  20.610  1.00  0.00     0.004 C 
ENDROOT
BRANCH   1   2
ATOM      2  C   UNL     1     -29.252  -1.475  20.626  1.00  0.00     0.027 C 
BRANCH   2   3
ATOM      3  C   UNL     1     -29.714  -1.837  22.008  1.00  0.00    -0.025 C 
ATOM      4  C   UNL     1     -30.550  -1.049  22.694  1.00  0.00     0.020 C 
BRANCH   4   5
ATOM      5  C   UNL     1     -31.004  -1.376  24.054  1.00  0.00     0.064 C 
ATOM      6  O   UNL     1     -30.886  -0.550  24.999  1.00  0.00    -0.545 OA
ATOM      7  O   UNL     1     -31.573  -2.619  24.303  1.00  0.00    -0.545 OA
ENDBRANCH   4   5
ENDBRANCH   2   3
ENDBRANCH   1   2
BRANCH   1   8
ATOM      8  C   UNL     1     -27.193  -1.066  22.037  1.00  0.00     0.000 C 
BRANCH   8   9
ATOM      9  C   UNL     1     -27.146   0.368  22.589  1.00  0.00    -0.000 C 
BRANCH   9  10
ATOM     10  C   UNL     1     -27.206   0.413  24.123  1.00  0.00    -0.003 C 
ATOM     11  C   UNL     1     -27.254  -0.994  24.712  1.00  0.00     0.004 C 
ENDBRANCH   9  10
ENDBRANCH   8   9
ENDBRANCH   1   8
TORSDOF 6
ENDMDL
