MODEL 1
REMARK VINA RESULT:    -4.542      0.000      0.000
REMARK INTER + INTRA:          -6.974
REMARK INTER:                  -6.534
REMARK INTRA:                  -0.440
REMARK UNBOUND:                -0.440
REMARK SMILES O=C(CO)[C@@H](O)[C@@H](O)[C@@H](O)CO
REMARK SMILES IDX 7 1 9 2 11 3 12 4 10 6 5 8 2 9 1 10 3 11 4 12 6 14 8 16
REMARK H PARENT 12 5 10 7 4 13 6 15 8 17
REMARK Flexibility Score: inf
ROOT
ATOM      1  C   UNL     1     -20.452  -0.867   9.020  1.00  0.00     0.181 C 
ENDROOT
BRANCH   1   2
ATOM      2  C   UNL     1     -19.854  -2.003   9.902  1.00  0.00     0.171 C 
BRANCH   2   3
ATOM      3  C   UNL     1     -19.127  -3.117   9.116  1.00  0.00     0.190 C 
BRANCH   3   4
ATOM      4  O   UNL     1     -19.859  -3.501   7.983  1.00  0.00    -0.394 OA
ATOM      5  H   UNL     1     -20.440  -4.257   8.263  1.00  0.00     0.210 HD
ENDBRANCH   3   4
ENDBRANCH   2   3
BRANCH   2   6
ATOM      6  O   UNL     1     -20.822  -2.544  10.768  1.00  0.00    -0.388 OA
ATOM      7  H   UNL     1     -21.162  -3.383  10.364  1.00  0.00     0.211 HD
ENDBRANCH   2   6
ENDBRANCH   1   2
BRANCH   1   8
ATOM      8  C   UNL     1     -20.471   0.537   9.682  1.00  0.00     0.214 C 
BRANCH   8   9
ATOM      9  C   UNL     1     -21.060   1.565   8.738  1.00  0.00     0.189 C 
ATOM     10  O   UNL     1     -20.856   1.464   7.538  1.00  0.00    -0.294 OA
BRANCH   9  11
ATOM     11  C   UNL     1     -21.906   2.701   9.246  1.00  0.00     0.234 C 
BRANCH  11  12
ATOM     12  O   UNL     1     -21.499   3.907   8.659  1.00  0.00    -0.388 OA
ATOM     13  H   UNL     1     -21.803   4.633   9.264  1.00  0.00     0.211 HD
ENDBRANCH  11  12
ENDBRANCH   9  11
ENDBRANCH   8   9
BRANCH   8  14
ATOM     14  O   UNL     1     -21.230   0.509  10.862  1.00  0.00    -0.382 OA
ATOM     15  H   UNL     1     -21.945  -0.166  10.727  1.00  0.00     0.211 HD
ENDBRANCH   8  14
ENDBRANCH   1   8
BRANCH   1  16
ATOM     16  O   UNL     1     -19.763  -0.822   7.794  1.00  0.00    -0.387 OA
ATOM     17  H   UNL     1     -19.395   0.095   7.689  1.00  0.00     0.211 HD
ENDBRANCH   1  16
TORSDOF 10
ENDMDL
MODEL 2
REMARK VINA RESULT:    -4.469      0.986      4.753
REMARK INTER + INTRA:          -6.868
REMARK INTER:                  -6.478
REMARK INTRA:                  -0.390
REMARK UNBOUND:                -0.440
REMARK SMILES O=C(CO)[C@@H](O)[C@@H](O)[C@@H](O)CO
REMARK SMILES IDX 7 1 9 2 11 3 12 4 10 6 5 8 2 9 1 10 3 11 4 12 6 14 8 16
REMARK H PARENT 12 5 10 7 4 13 6 15 8 17
REMARK Flexibility Score: inf
ROOT
ATOM      1  C   UNL     1     -20.652   0.727   9.108  1.00  0.00     0.181 C 
ENDROOT
BRANCH   1   2
ATOM      2  C   UNL     1     -21.456   1.740   9.976  1.00  0.00     0.171 C 
BRANCH   2   3
ATOM      3  C   UNL     1     -22.038   2.940   9.196  1.00  0.00     0.190 C 
BRANCH   3   4
ATOM      4  O   UNL     1     -21.085   3.492   8.327  1.00  0.00    -0.394 OA
ATOM      5  H   UNL     1     -20.900   2.803   7.635  1.00  0.00     0.210 HD
ENDBRANCH   3   4
ENDBRANCH   2   3
BRANCH   2   6
ATOM      6  O   UNL     1     -20.707   2.173  11.086  1.00  0.00    -0.388 OA
ATOM      7  H   UNL     1     -21.342   2.435  11.801  1.00  0.00     0.211 HD
ENDBRANCH   2   6
ENDBRANCH   1   2
BRANCH   1   8
ATOM      8  C   UNL     1     -20.756  -0.754   9.562  1.00  0.00     0.214 C 
BRANCH   8   9
ATOM      9  C   UNL     1     -20.003  -1.659   8.608  1.00  0.00     0.189 C 
ATOM     10  O   UNL     1     -20.003  -1.405   7.413  1.00  0.00    -0.294 OA
BRANCH   9  11
ATOM     11  C   UNL     1     -19.242  -2.859   9.103  1.00  0.00     0.234 C 
BRANCH  11  12
ATOM     12  O   UNL     1     -19.561  -3.986   8.333  1.00  0.00    -0.388 OA
ATOM     13  H   UNL     1     -20.445  -4.306   8.652  1.00  0.00     0.211 HD
ENDBRANCH  11  12
ENDBRANCH   9  11
ENDBRANCH   8   9
BRANCH   8  14
ATOM     14  O   UNL     1     -20.227  -0.906  10.852  1.00  0.00    -0.382 OA
ATOM     15  H   UNL     1     -20.165   0.004  11.246  1.00  0.00     0.211 HD
ENDBRANCH   8  14
ENDBRANCH   1   8
BRANCH   1  16
ATOM     16  O   UNL     1     -21.044   0.856   7.762  1.00  0.00    -0.387 OA
ATOM     17  H   UNL     1     -21.535   1.715   7.674  1.00  0.00     0.211 HD
ENDBRANCH   1  16
TORSDOF 10
ENDMDL
MODEL 3
REMARK VINA RESULT:    -4.411      0.946      5.258
REMARK INTER + INTRA:          -6.785
REMARK INTER:                  -6.713
REMARK INTRA:                  -0.072
REMARK UNBOUND:                -0.440
REMARK SMILES O=C(CO)[C@@H](O)[C@@H](O)[C@@H](O)CO
REMARK SMILES IDX 7 1 9 2 11 3 12 4 10 6 5 8 2 9 1 10 3 11 4 12 6 14 8 16
REMARK H PARENT 12 5 10 7 4 13 6 15 8 17
REMARK Flexibility Score: inf
ROOT
ATOM      1  C   UNL     1     -20.737  -0.373   9.099  1.00  0.00     0.181 C 
ENDROOT
BRANCH   1   2
ATOM      2  C   UNL     1     -20.539   1.059   8.520  1.00  0.00     0.171 C 
BRANCH   2   3
ATOM      3  C   UNL     1     -21.435   2.144   9.158  1.00  0.00     0.190 C 
BRANCH   3   4
ATOM      4  O   UNL     1     -21.368   3.346   8.440  1.00  0.00    -0.394 OA
ATOM      5  H   UNL     1     -22.304   3.643   8.294  1.00  0.00     0.210 HD
ENDBRANCH   3   4
ENDBRANCH   2   3
BRANCH   2   6
ATOM      6  O   UNL     1     -20.655   1.067   7.118  1.00  0.00    -0.388 OA
ATOM      7  H   UNL     1     -20.733   0.128   6.810  1.00  0.00     0.211 HD
ENDBRANCH   2   6
ENDBRANCH   1   2
BRANCH   1   8
ATOM      8  C   UNL     1     -19.901  -1.483   8.406  1.00  0.00     0.214 C 
BRANCH   8   9
ATOM      9  C   UNL     1     -19.756  -2.688   9.313  1.00  0.00     0.189 C 
ATOM     10  O   UNL     1     -20.248  -2.660  10.431  1.00  0.00    -0.294 OA
BRANCH   9  11
ATOM     11  C   UNL     1     -19.031  -3.926   8.860  1.00  0.00     0.234 C 
BRANCH  11  12
ATOM     12  O   UNL     1     -19.938  -4.844   8.313  1.00  0.00    -0.388 OA
ATOM     13  H   UNL     1     -19.615  -5.747   8.568  1.00  0.00     0.211 HD
ENDBRANCH  11  12
ENDBRANCH   9  11
ENDBRANCH   8   9
BRANCH   8  14
ATOM     14  O   UNL     1     -20.517  -1.881   7.210  1.00  0.00    -0.382 OA
ATOM     15  H   UNL     1     -19.788  -2.083   6.566  1.00  0.00     0.211 HD
ENDBRANCH   8  14
ENDBRANCH   1   8
BRANCH   1  16
ATOM     16  O   UNL     1     -20.477  -0.355  10.482  1.00  0.00    -0.387 OA
ATOM     17  H   UNL     1     -19.928   0.451  10.673  1.00  0.00     0.211 HD
ENDBRANCH   1  16
TORSDOF 10
ENDMDL
MODEL 4
REMARK VINA RESULT:    -4.319      1.038      2.301
REMARK INTER + INTRA:          -6.653
REMARK INTER:                  -6.615
REMARK INTRA:                  -0.037
REMARK UNBOUND:                -0.440
REMARK SMILES O=C(CO)[C@@H](O)[C@@H](O)[C@@H](O)CO
REMARK SMILES IDX 7 1 9 2 11 3 12 4 10 6 5 8 2 9 1 10 3 11 4 12 6 14 8 16
REMARK H PARENT 12 5 10 7 4 13 6 15 8 17
REMARK Flexibility Score: inf
ROOT
ATOM      1  C   UNL     1     -20.359   0.205   9.084  1.00  0.00     0.181 C 
ENDROOT
BRANCH   1   2
ATOM      2  C   UNL     1     -20.392  -1.121   8.269  1.00  0.00     0.171 C 
BRANCH   2   3
ATOM      3  C   UNL     1     -19.674  -2.312   8.942  1.00  0.00     0.190 C 
BRANCH   3   4
ATOM      4  O   UNL     1     -19.676  -3.443   8.112  1.00  0.00    -0.394 OA
ATOM      5  H   UNL     1     -20.595  -3.816   8.144  1.00  0.00     0.210 HD
ENDBRANCH   3   4
ENDBRANCH   2   3
BRANCH   2   6
ATOM      6  O   UNL     1     -19.927  -0.928   6.955  1.00  0.00    -0.388 OA
ATOM      7  H   UNL     1     -18.951  -0.759   6.995  1.00  0.00     0.211 HD
ENDBRANCH   2   6
ENDBRANCH   1   2
BRANCH   1   8
ATOM      8  C   UNL     1     -21.079   1.406   8.414  1.00  0.00     0.214 C 
BRANCH   8   9
ATOM      9  C   UNL     1     -21.500   2.425   9.453  1.00  0.00     0.189 C 
ATOM     10  O   UNL     1     -21.338   2.176  10.638  1.00  0.00    -0.294 OA
BRANCH   9  11
ATOM     11  C   UNL     1     -22.102   3.746   9.056  1.00  0.00     0.234 C 
BRANCH  11  12
ATOM     12  O   UNL     1     -21.091   4.657   8.723  1.00  0.00    -0.388 OA
ATOM     13  H   UNL     1     -21.543   5.512   8.499  1.00  0.00     0.211 HD
ENDBRANCH  11  12
ENDBRANCH   9  11
ENDBRANCH   8   9
BRANCH   8  14
ATOM     14  O   UNL     1     -20.231   2.024   7.482  1.00  0.00    -0.382 OA
ATOM     15  H   UNL     1     -20.557   2.956   7.372  1.00  0.00     0.211 HD
ENDBRANCH   8  14
ENDBRANCH   1   8
BRANCH   1  16
ATOM     16  O   UNL     1     -20.885  -0.027  10.369  1.00  0.00    -0.387 OA
ATOM     17  H   UNL     1     -20.138  -0.331  10.949  1.00  0.00     0.211 HD
ENDBRANCH   1  16
TORSDOF 10
ENDMDL
MODEL 5
REMARK VINA RESULT:    -4.233     11.529     13.394
REMARK INTER + INTRA:          -6.528
REMARK INTER:                  -5.849
REMARK INTRA:                  -0.679
REMARK UNBOUND:                -0.440
REMARK SMILES O=C(CO)[C@@H](O)[C@@H](O)[C@@H](O)CO
REMARK SMILES IDX 7 1 9 2 11 3 12 4 10 6 5 8 2 9 1 10 3 11 4 12 6 14 8 16
REMARK H PARENT 12 5 10 7 4 13 6 15 8 17
REMARK Flexibility Score: inf
ROOT
ATOM      1  C   UNL     1     -12.866  10.575  11.980  1.00  0.00     0.181 C 
ENDROOT
BRANCH   1   2
ATOM      2  C   UNL     1     -12.499  10.812  13.475  1.00  0.00     0.171 C 
BRANCH   2   3
ATOM      3  C   UNL     1     -11.003  11.095  13.737  1.00  0.00     0.190 C 
BRANCH   3   4
ATOM      4  O   UNL     1     -10.234   9.929  13.611  1.00  0.00    -0.394 OA
ATOM      5  H   UNL     1      -9.289  10.220  13.520  1.00  0.00     0.210 HD
ENDBRANCH   3   4
ENDBRANCH   2   3
BRANCH   2   6
ATOM      6  O   UNL     1     -12.965   9.764  14.291  1.00  0.00    -0.388 OA
ATOM      7  H   UNL     1     -13.614   9.229  13.764  1.00  0.00     0.211 HD
ENDBRANCH   2   6
ENDBRANCH   1   2
BRANCH   1   8
ATOM      8  C   UNL     1     -14.260  11.109  11.554  1.00  0.00     0.214 C 
BRANCH   8   9
ATOM      9  C   UNL     1     -14.757  10.382  10.322  1.00  0.00     0.189 C 
ATOM     10  O   UNL     1     -14.243  10.616   9.238  1.00  0.00    -0.294 OA
BRANCH   9  11
ATOM     11  C   UNL     1     -15.861   9.363  10.405  1.00  0.00     0.234 C 
BRANCH  11  12
ATOM     12  O   UNL     1     -15.939   8.635   9.211  1.00  0.00    -0.388 OA
ATOM     13  H   UNL     1     -16.012   9.300   8.477  1.00  0.00     0.211 HD
ENDBRANCH  11  12
ENDBRANCH   9  11
ENDBRANCH   8   9
BRANCH   8  14
ATOM     14  O   UNL     1     -15.186  10.937  12.593  1.00  0.00    -0.382 OA
ATOM     15  H   UNL     1     -14.863  10.174  13.142  1.00  0.00     0.211 HD
ENDBRANCH   8  14
ENDBRANCH   1   8
BRANCH   1  16
ATOM     16  O   UNL     1     -11.859  11.125  11.164  1.00  0.00    -0.387 OA
ATOM     17  H   UNL     1     -11.324  11.746  11.724  1.00  0.00     0.211 HD
ENDBRANCH   1  16
TORSDOF 10
ENDMDL
MODEL 6
REMARK VINA RESULT:    -4.215      1.606      2.577
REMARK INTER + INTRA:          -6.502
REMARK INTER:                  -5.979
REMARK INTRA:                  -0.523
REMARK UNBOUND:                -0.440
REMARK SMILES O=C(CO)[C@@H](O)[C@@H](O)[C@@H](O)CO
REMARK SMILES IDX 7 1 9 2 11 3 12 4 10 6 5 8 2 9 1 10 3 11 4 12 6 14 8 16
REMARK H PARENT 12 5 10 7 4 13 6 15 8 17
REMARK Flexibility Score: inf
ROOT
ATOM      1  C   UNL     1     -20.319  -1.841   9.657  1.00  0.00     0.181 C 
ENDROOT
BRANCH   1   2
ATOM      2  C   UNL     1     -19.772  -2.316  11.036  1.00  0.00     0.171 C 
BRANCH   2   3
ATOM      3  C   UNL     1     -20.744  -2.116  12.221  1.00  0.00     0.190 C 
BRANCH   3   4
ATOM      4  O   UNL     1     -20.484  -0.913  12.894  1.00  0.00    -0.394 OA
ATOM      5  H   UNL     1     -21.029  -0.928  13.724  1.00  0.00     0.210 HD
ENDBRANCH   3   4
ENDBRANCH   2   3
BRANCH   2   6
ATOM      6  O   UNL     1     -18.514  -1.750  11.313  1.00  0.00    -0.388 OA
ATOM      7  H   UNL     1     -18.273  -1.153  10.559  1.00  0.00     0.211 HD
ENDBRANCH   2   6
ENDBRANCH   1   2
BRANCH   1   8
ATOM      8  C   UNL     1     -20.229  -0.312   9.407  1.00  0.00     0.214 C 
BRANCH   8   9
ATOM      9  C   UNL     1     -20.453   0.004   7.943  1.00  0.00     0.189 C 
ATOM     10  O   UNL     1     -20.990  -0.825   7.225  1.00  0.00    -0.294 OA
BRANCH   9  11
ATOM     11  C   UNL     1     -20.040   1.327   7.355  1.00  0.00     0.234 C 
BRANCH  11  12
ATOM     12  O   UNL     1     -20.827   2.358   7.884  1.00  0.00    -0.388 OA
ATOM     13  H   UNL     1     -21.723   1.969   8.061  1.00  0.00     0.211 HD
ENDBRANCH  11  12
ENDBRANCH   9  11
ENDBRANCH   8   9
BRANCH   8  14
ATOM     14  O   UNL     1     -21.190   0.364  10.175  1.00  0.00    -0.382 OA
ATOM     15  H   UNL     1     -20.874   1.301  10.271  1.00  0.00     0.211 HD
ENDBRANCH   8  14
ENDBRANCH   1   8
BRANCH   1  16
ATOM     16  O   UNL     1     -19.662  -2.545   8.631  1.00  0.00    -0.387 OA
ATOM     17  H   UNL     1     -19.625  -3.501   8.898  1.00  0.00     0.211 HD
ENDBRANCH   1  16
TORSDOF 10
ENDMDL
MODEL 7
REMARK VINA RESULT:    -4.166      1.862      4.150
REMARK INTER + INTRA:          -6.432
REMARK INTER:                  -5.984
REMARK INTRA:                  -0.448
REMARK UNBOUND:                -0.440
REMARK SMILES O=C(CO)[C@@H](O)[C@@H](O)[C@@H](O)CO
REMARK SMILES IDX 7 1 9 2 11 3 12 4 10 6 5 8 2 9 1 10 3 11 4 12 6 14 8 16
REMARK H PARENT 12 5 10 7 4 13 6 15 8 17
REMARK Flexibility Score: inf
ROOT
ATOM      1  C   UNL     1     -21.165   0.643   9.516  1.00  0.00     0.181 C 
ENDROOT
BRANCH   1   2
ATOM      2  C   UNL     1     -21.711   1.700  10.521  1.00  0.00     0.171 C 
BRANCH   2   3
ATOM      3  C   UNL     1     -21.071   1.649  11.926  1.00  0.00     0.190 C 
BRANCH   3   4
ATOM      4  O   UNL     1     -21.541   0.549  12.659  1.00  0.00    -0.394 OA
ATOM      5  H   UNL     1     -20.743   0.106  13.049  1.00  0.00     0.210 HD
ENDBRANCH   3   4
ENDBRANCH   2   3
BRANCH   2   6
ATOM      6  O   UNL     1     -23.115   1.654  10.603  1.00  0.00    -0.388 OA
ATOM      7  H   UNL     1     -23.456   2.585  10.580  1.00  0.00     0.211 HD
ENDBRANCH   2   6
ENDBRANCH   1   2
BRANCH   1   8
ATOM      8  C   UNL     1     -20.349   1.224   8.330  1.00  0.00     0.214 C 
BRANCH   8   9
ATOM      9  C   UNL     1     -20.493   0.349   7.103  1.00  0.00     0.189 C 
ATOM     10  O   UNL     1     -21.186   0.730   6.172  1.00  0.00    -0.294 OA
BRANCH   9  11
ATOM     11  C   UNL     1     -19.787  -0.976   6.998  1.00  0.00     0.234 C 
BRANCH  11  12
ATOM     12  O   UNL     1     -20.520  -1.968   7.663  1.00  0.00    -0.388 OA
ATOM     13  H   UNL     1     -21.465  -1.860   7.380  1.00  0.00     0.211 HD
ENDBRANCH  11  12
ENDBRANCH   9  11
ENDBRANCH   8   9
BRANCH   8  14
ATOM     14  O   UNL     1     -20.790   2.520   8.025  1.00  0.00    -0.382 OA
ATOM     15  H   UNL     1     -20.011   3.124   8.145  1.00  0.00     0.211 HD
ENDBRANCH   8  14
ENDBRANCH   1   8
BRANCH   1  16
ATOM     16  O   UNL     1     -20.402  -0.310  10.217  1.00  0.00    -0.387 OA
ATOM     17  H   UNL     1     -19.444  -0.094  10.071  1.00  0.00     0.211 HD
ENDBRANCH   1  16
TORSDOF 10
ENDMDL
MODEL 8
REMARK VINA RESULT:    -4.098      1.580      2.751
REMARK INTER + INTRA:          -6.334
REMARK INTER:                  -6.085
REMARK INTRA:                  -0.249
REMARK UNBOUND:                -0.440
REMARK SMILES O=C(CO)[C@@H](O)[C@@H](O)[C@@H](O)CO
REMARK SMILES IDX 7 1 9 2 11 3 12 4 10 6 5 8 2 9 1 10 3 11 4 12 6 14 8 16
REMARK H PARENT 12 5 10 7 4 13 6 15 8 17
REMARK Flexibility Score: inf
ROOT
ATOM      1  C   UNL     1     -20.252  -0.722   9.126  1.00  0.00     0.181 C 
ENDROOT
BRANCH   1   2
ATOM      2  C   UNL     1     -20.192  -2.027   9.974  1.00  0.00     0.171 C 
BRANCH   2   3
ATOM      3  C   UNL     1     -19.651  -1.842  11.409  1.00  0.00     0.190 C 
BRANCH   3   4
ATOM      4  O   UNL     1     -20.596  -1.212  12.232  1.00  0.00    -0.394 OA
ATOM      5  H   UNL     1     -21.470  -1.285  11.767  1.00  0.00     0.210 HD
ENDBRANCH   3   4
ENDBRANCH   2   3
BRANCH   2   6
ATOM      6  O   UNL     1     -19.497  -3.047   9.299  1.00  0.00    -0.388 OA
ATOM      7  H   UNL     1     -20.093  -3.413   8.596  1.00  0.00     0.211 HD
ENDBRANCH   2   6
ENDBRANCH   1   2
BRANCH   1   8
ATOM      8  C   UNL     1     -20.746  -0.909   7.666  1.00  0.00     0.214 C 
BRANCH   8   9
ATOM      9  C   UNL     1     -20.650   0.392   6.898  1.00  0.00     0.189 C 
ATOM     10  O   UNL     1     -21.196   0.489   5.809  1.00  0.00    -0.294 OA
BRANCH   9  11
ATOM     11  C   UNL     1     -19.906   1.577   7.454  1.00  0.00     0.234 C 
BRANCH  11  12
ATOM     12  O   UNL     1     -20.811   2.559   7.879  1.00  0.00    -0.388 OA
ATOM     13  H   UNL     1     -21.557   2.082   8.327  1.00  0.00     0.211 HD
ENDBRANCH  11  12
ENDBRANCH   9  11
ENDBRANCH   8   9
BRANCH   8  14
ATOM     14  O   UNL     1     -19.978  -1.885   7.013  1.00  0.00    -0.382 OA
ATOM     15  H   UNL     1     -20.309  -1.933   6.078  1.00  0.00     0.211 HD
ENDBRANCH   8  14
ENDBRANCH   1   8
BRANCH   1  16
ATOM     16  O   UNL     1     -21.045   0.229   9.794  1.00  0.00    -0.387 OA
ATOM     17  H   UNL     1     -20.703   1.129   9.552  1.00  0.00     0.211 HD
ENDBRANCH   1  16
TORSDOF 10
ENDMDL
MODEL 9
REMARK VINA RESULT:    -3.893     11.290     13.341
REMARK INTER + INTRA:          -6.039
REMARK INTER:                  -5.811
REMARK INTRA:                  -0.229
REMARK UNBOUND:                -0.440
REMARK SMILES O=C(CO)[C@@H](O)[C@@H](O)[C@@H](O)CO
REMARK SMILES IDX 7 1 9 2 11 3 12 4 10 6 5 8 2 9 1 10 3 11 4 12 6 14 8 16
REMARK H PARENT 12 5 10 7 4 13 6 15 8 17
REMARK Flexibility Score: inf
ROOT
ATOM      1  C   UNL     1     -14.287  10.173  11.553  1.00  0.00     0.181 C 
ENDROOT
BRANCH   1   2
ATOM      2  C   UNL     1     -15.169  10.053  10.275  1.00  0.00     0.171 C 
BRANCH   2   3
ATOM      3  C   UNL     1     -16.208   8.910  10.311  1.00  0.00     0.190 C 
BRANCH   3   4
ATOM      4  O   UNL     1     -16.172   8.152   9.132  1.00  0.00    -0.394 OA
ATOM      5  H   UNL     1     -17.034   7.661   9.083  1.00  0.00     0.210 HD
ENDBRANCH   3   4
ENDBRANCH   2   3
BRANCH   2   6
ATOM      6  O   UNL     1     -14.380   9.982   9.111  1.00  0.00    -0.388 OA
ATOM      7  H   UNL     1     -13.907   9.111   9.114  1.00  0.00     0.211 HD
ENDBRANCH   2   6
ENDBRANCH   1   2
BRANCH   1   8
ATOM      8  C   UNL     1     -13.067  11.125  11.422  1.00  0.00     0.214 C 
BRANCH   8   9
ATOM      9  C   UNL     1     -12.187  11.038  12.651  1.00  0.00     0.189 C 
ATOM     10  O   UNL     1     -12.694  11.125  13.759  1.00  0.00    -0.294 OA
BRANCH   9  11
ATOM     11  C   UNL     1     -10.701  10.832  12.538  1.00  0.00     0.234 C 
BRANCH  11  12
ATOM     12  O   UNL     1     -10.310   9.710  13.282  1.00  0.00    -0.388 OA
ATOM     13  H   UNL     1     -10.893   9.686  14.085  1.00  0.00     0.211 HD
ENDBRANCH  11  12
ENDBRANCH   9  11
ENDBRANCH   8   9
BRANCH   8  14
ATOM     14  O   UNL     1     -12.309  10.790  10.290  1.00  0.00    -0.382 OA
ATOM     15  H   UNL     1     -11.371  10.676  10.596  1.00  0.00     0.211 HD
ENDBRANCH   8  14
ENDBRANCH   1   8
BRANCH   1  16
ATOM     16  O   UNL     1     -15.096  10.560  12.638  1.00  0.00    -0.387 OA
ATOM     17  H   UNL     1     -14.605  11.260  13.144  1.00  0.00     0.211 HD
ENDBRANCH   1  16
TORSDOF 10
ENDMDL
