MODEL 1
REMARK VINA RESULT:    -3.242      0.000      0.000
REMARK INTER + INTRA:          -3.630
REMARK INTER:                  -3.621
REMARK INTRA:                  -0.009
REMARK UNBOUND:                -0.009
REMARK SMILES CCCC(=O)[O-]
REMARK SMILES IDX 3 1 4 2 5 3 6 4 2 5 1 6
REMARK H PARENT
REMARK Flexibility Score: inf
ROOT
ATOM      1  C   UNL     1       3.119 -37.124  17.449  1.00  0.00     0.052 C 
ENDROOT
BRANCH   1   2
ATOM      2  C   UNL     1       2.498 -37.468  18.767  1.00  0.00     0.041 C 
ATOM      3  O   UNL     1       3.198 -37.476  19.814  1.00  0.00    -0.550 OA
ATOM      4  O   UNL     1       1.158 -37.828  18.831  1.00  0.00    -0.550 OA
ENDBRANCH   1   2
BRANCH   1   5
ATOM      5  C   UNL     1       2.049 -36.654  16.461  1.00  0.00     0.003 C 
ATOM      6  C   UNL     1       2.656 -36.362  15.090  1.00  0.00     0.004 C 
ENDBRANCH   1   5
TORSDOF 2
ENDMDL
MODEL 2
REMARK VINA RESULT:    -3.233      0.110      1.326
REMARK INTER + INTRA:          -3.620
REMARK INTER:                  -3.609
REMARK INTRA:                  -0.011
REMARK UNBOUND:                -0.009
REMARK SMILES CCCC(=O)[O-]
REMARK SMILES IDX 3 1 4 2 5 3 6 4 2 5 1 6
REMARK H PARENT
REMARK Flexibility Score: inf
ROOT
ATOM      1  C   UNL     1       3.129 -37.126  17.385  1.00  0.00     0.052 C 
ENDROOT
BRANCH   1   2
ATOM      2  C   UNL     1       2.510 -37.452  18.708  1.00  0.00     0.041 C 
ATOM      3  O   UNL     1       1.288 -37.749  18.779  1.00  0.00    -0.550 OA
ATOM      4  O   UNL     1       3.270 -37.380  19.868  1.00  0.00    -0.550 OA
ENDBRANCH   1   2
BRANCH   1   5
ATOM      5  C   UNL     1       2.054 -36.706  16.380  1.00  0.00     0.003 C 
ATOM      6  C   UNL     1       2.662 -36.431  15.006  1.00  0.00     0.004 C 
ENDBRANCH   1   5
TORSDOF 2
ENDMDL
MODEL 3
REMARK VINA RESULT:    -3.199      2.912      3.821
REMARK INTER + INTRA:          -3.582
REMARK INTER:                  -3.561
REMARK INTRA:                  -0.021
REMARK UNBOUND:                -0.009
REMARK SMILES CCCC(=O)[O-]
REMARK SMILES IDX 3 1 4 2 5 3 6 4 2 5 1 6
REMARK H PARENT
REMARK Flexibility Score: inf
ROOT
ATOM      1  C   UNL     1       3.270 -36.261  16.560  1.00  0.00     0.052 C 
ENDROOT
BRANCH   1   2
ATOM      2  C   UNL     1       3.139 -36.898  15.213  1.00  0.00     0.041 C 
ATOM      3  O   UNL     1       2.365 -36.405  14.351  1.00  0.00    -0.550 OA
ATOM      4  O   UNL     1       3.837 -38.064  14.925  1.00  0.00    -0.550 OA
ENDBRANCH   1   2
BRANCH   1   5
ATOM      5  C   UNL     1       2.848 -37.240  17.658  1.00  0.00     0.003 C 
ATOM      6  C   UNL     1       3.806 -37.183  18.846  1.00  0.00     0.004 C 
ENDBRANCH   1   5
TORSDOF 2
ENDMDL
MODEL 4
REMARK VINA RESULT:    -3.066      1.903      2.185
REMARK INTER + INTRA:          -3.434
REMARK INTER:                  -3.409
REMARK INTRA:                  -0.024
REMARK UNBOUND:                -0.009
REMARK SMILES CCCC(=O)[O-]
REMARK SMILES IDX 3 1 4 2 5 3 6 4 2 5 1 6
REMARK H PARENT
REMARK Flexibility Score: inf
ROOT
ATOM      1  C   UNL     1       2.957 -37.296  18.412  1.00  0.00     0.052 C 
ENDROOT
BRANCH   1   2
ATOM      2  C   UNL     1       4.182 -36.885  19.167  1.00  0.00     0.041 C 
ATOM      3  O   UNL     1       4.446 -35.664  19.329  1.00  0.00    -0.550 OA
ATOM      4  O   UNL     1       5.056 -37.849  19.650  1.00  0.00    -0.550 OA
ENDBRANCH   1   2
BRANCH   1   5
ATOM      5  C   UNL     1       3.205 -37.211  16.904  1.00  0.00     0.003 C 
ATOM      6  C   UNL     1       2.111 -36.403  16.210  1.00  0.00     0.004 C 
ENDBRANCH   1   5
TORSDOF 2
ENDMDL
MODEL 5
REMARK VINA RESULT:    -2.994      2.794      4.040
REMARK INTER + INTRA:          -3.353
REMARK INTER:                  -3.332
REMARK INTRA:                  -0.021
REMARK UNBOUND:                -0.009
REMARK SMILES CCCC(=O)[O-]
REMARK SMILES IDX 3 1 4 2 5 3 6 4 2 5 1 6
REMARK H PARENT
REMARK Flexibility Score: inf
ROOT
ATOM      1  C   UNL     1       4.582 -36.153  19.522  1.00  0.00     0.052 C 
ENDROOT
BRANCH   1   2
ATOM      2  C   UNL     1       3.463 -37.023  19.041  1.00  0.00     0.041 C 
ATOM      3  O   UNL     1       2.594 -37.442  19.850  1.00  0.00    -0.550 OA
ATOM      4  O   UNL     1       3.407 -37.409  17.708  1.00  0.00    -0.550 OA
ENDBRANCH   1   2
BRANCH   1   5
ATOM      5  C   UNL     1       5.350 -36.845  20.651  1.00  0.00     0.003 C 
ATOM      6  C   UNL     1       5.766 -35.844  21.727  1.00  0.00     0.004 C 
ENDBRANCH   1   5
TORSDOF 2
ENDMDL
MODEL 6
REMARK VINA RESULT:    -2.979      2.654      3.859
REMARK INTER + INTRA:          -3.336
REMARK INTER:                  -3.306
REMARK INTRA:                  -0.031
REMARK UNBOUND:                -0.009
REMARK SMILES CCCC(=O)[O-]
REMARK SMILES IDX 3 1 4 2 5 3 6 4 2 5 1 6
REMARK H PARENT
REMARK Flexibility Score: inf
ROOT
ATOM      1  C   UNL     1       4.509 -36.078  19.241  1.00  0.00     0.052 C 
ENDROOT
BRANCH   1   2
ATOM      2  C   UNL     1       3.459 -37.067  18.844  1.00  0.00     0.041 C 
ATOM      3  O   UNL     1       3.378 -37.460  17.650  1.00  0.00    -0.550 OA
ATOM      4  O   UNL     1       2.540 -37.518  19.782  1.00  0.00    -0.550 OA
ENDBRANCH   1   2
BRANCH   1   5
ATOM      5  C   UNL     1       4.355 -35.696  20.715  1.00  0.00     0.003 C 
ATOM      6  C   UNL     1       5.631 -35.995  21.498  1.00  0.00     0.004 C 
ENDBRANCH   1   5
TORSDOF 2
ENDMDL
MODEL 7
REMARK VINA RESULT:    -2.954      3.553      4.861
REMARK INTER + INTRA:          -3.309
REMARK INTER:                  -3.281
REMARK INTRA:                  -0.028
REMARK UNBOUND:                -0.009
REMARK SMILES CCCC(=O)[O-]
REMARK SMILES IDX 3 1 4 2 5 3 6 4 2 5 1 6
REMARK H PARENT
REMARK Flexibility Score: inf
ROOT
ATOM      1  C   UNL     1       4.589 -35.832  20.595  1.00  0.00     0.052 C 
ENDROOT
BRANCH   1   2
ATOM      2  C   UNL     1       4.619 -37.095  19.793  1.00  0.00     0.041 C 
ATOM      3  O   UNL     1       5.441 -38.005  20.075  1.00  0.00    -0.550 OA
ATOM      4  O   UNL     1       3.771 -37.246  18.703  1.00  0.00    -0.550 OA
ENDBRANCH   1   2
BRANCH   1   5
ATOM      5  C   UNL     1       5.883 -35.676  21.397  1.00  0.00     0.003 C 
ATOM      6  C   UNL     1       5.594 -35.237  22.830  1.00  0.00     0.004 C 
ENDBRANCH   1   5
TORSDOF 2
ENDMDL
MODEL 8
REMARK VINA RESULT:    -2.948      2.614      3.629
REMARK INTER + INTRA:          -3.302
REMARK INTER:                  -3.281
REMARK INTRA:                  -0.021
REMARK UNBOUND:                -0.009
REMARK SMILES CCCC(=O)[O-]
REMARK SMILES IDX 3 1 4 2 5 3 6 4 2 5 1 6
REMARK H PARENT
REMARK Flexibility Score: inf
ROOT
ATOM      1  C   UNL     1       4.509 -36.067  19.501  1.00  0.00     0.052 C 
ENDROOT
BRANCH   1   2
ATOM      2  C   UNL     1       5.376 -36.534  20.627  1.00  0.00     0.041 C 
ATOM      3  O   UNL     1       5.398 -37.752  20.946  1.00  0.00    -0.550 OA
ATOM      4  O   UNL     1       6.125 -35.618  21.354  1.00  0.00    -0.550 OA
ENDBRANCH   1   2
BRANCH   1   5
ATOM      5  C   UNL     1       3.446 -37.118  19.173  1.00  0.00     0.003 C 
ATOM      6  C   UNL     1       3.129 -37.132  17.679  1.00  0.00     0.004 C 
ENDBRANCH   1   5
TORSDOF 2
ENDMDL
MODEL 9
REMARK VINA RESULT:    -2.787      5.342      6.290
REMARK INTER + INTRA:          -3.122
REMARK INTER:                  -3.116
REMARK INTRA:                  -0.006
REMARK UNBOUND:                -0.009
REMARK SMILES CCCC(=O)[O-]
REMARK SMILES IDX 3 1 4 2 5 3 6 4 2 5 1 6
REMARK H PARENT
REMARK Flexibility Score: inf
ROOT
ATOM      1  C   UNL     1       6.071 -36.056  22.546  1.00  0.00     0.052 C 
ENDROOT
BRANCH   1   2
ATOM      2  C   UNL     1       5.727 -35.287  23.783  1.00  0.00     0.041 C 
ATOM      3  O   UNL     1       5.417 -35.896  24.841  1.00  0.00    -0.550 OA
ATOM      4  O   UNL     1       5.701 -33.899  23.753  1.00  0.00    -0.550 OA
ENDBRANCH   1   2
BRANCH   1   5
ATOM      5  C   UNL     1       5.121 -35.685  21.404  1.00  0.00     0.003 C 
ATOM      6  C   UNL     1       5.212 -36.695  20.262  1.00  0.00     0.004 C 
ENDBRANCH   1   5
TORSDOF 2
ENDMDL
