MODEL 1
REMARK VINA RESULT:    -3.770      0.000      0.000
REMARK INTER + INTRA:          -6.357
REMARK INTER:                  -5.753
REMARK INTRA:                  -0.604
REMARK UNBOUND:                -0.604
REMARK SMILES O=C([O-])CCCCCCCCC(=O)[O-]
REMARK SMILES IDX 7 1 6 2 5 3 4 4 2 5 1 6 3 7 8 8 9 9 10 10 11 11 12 12 13 13
REMARK SMILES IDX 14 14
REMARK H PARENT
REMARK Flexibility Score: inf
ROOT
ATOM      1  C   UNL     1      -5.080  -4.753   7.353  1.00  0.00     0.000 C 
ENDROOT
BRANCH   1   2
ATOM      2  C   UNL     1      -5.960  -3.501   7.515  1.00  0.00     0.000 C 
BRANCH   2   3
ATOM      3  C   UNL     1      -7.461  -3.827   7.492  1.00  0.00     0.006 C 
BRANCH   3   4
ATOM      4  C   UNL     1      -7.790  -5.030   6.598  1.00  0.00     0.053 C 
BRANCH   4   5
ATOM      5  C   UNL     1      -8.598  -4.595   5.416  1.00  0.00     0.041 C 
ATOM      6  O   UNL     1      -8.203  -4.854   4.249  1.00  0.00    -0.550 OA
ATOM      7  O   UNL     1      -9.811  -3.944   5.605  1.00  0.00    -0.550 OA
ENDBRANCH   4   5
ENDBRANCH   3   4
ENDBRANCH   2   3
ENDBRANCH   1   2
BRANCH   1   8
ATOM      8  C   UNL     1      -4.484  -5.231   8.686  1.00  0.00     0.000 C 
BRANCH   8   9
ATOM      9  C   UNL     1      -3.760  -6.582   8.558  1.00  0.00     0.000 C 
BRANCH   9  10
ATOM     10  C   UNL     1      -4.508  -7.568   7.645  1.00  0.00     0.006 C 
BRANCH  10  11
ATOM     11  C   UNL     1      -3.570  -8.582   6.978  1.00  0.00     0.053 C 
BRANCH  11  12
ATOM     12  C   UNL     1      -2.453  -7.877   6.277  1.00  0.00     0.041 C 
ATOM     13  O   UNL     1      -1.258  -8.086   6.616  1.00  0.00    -0.550 OA
ATOM     14  O   UNL     1      -2.733  -6.949   5.281  1.00  0.00    -0.550 OA
ENDBRANCH  11  12
ENDBRANCH  10  11
ENDBRANCH   9  10
ENDBRANCH   8   9
ENDBRANCH   1   8
TORSDOF 9
ENDMDL
MODEL 2
REMARK VINA RESULT:    -3.711      0.713      5.937
REMARK INTER + INTRA:          -6.267
REMARK INTER:                  -5.817
REMARK INTRA:                  -0.450
REMARK UNBOUND:                -0.604
REMARK SMILES O=C([O-])CCCCCCCCC(=O)[O-]
REMARK SMILES IDX 7 1 6 2 5 3 4 4 2 5 1 6 3 7 8 8 9 9 10 10 11 11 12 12 13 13
REMARK SMILES IDX 14 14
REMARK H PARENT
REMARK Flexibility Score: inf
ROOT
ATOM      1  C   UNL     1      -4.514  -5.291   8.151  1.00  0.00     0.000 C 
ENDROOT
BRANCH   1   2
ATOM      2  C   UNL     1      -3.953  -6.334   9.134  1.00  0.00     0.000 C 
BRANCH   2   3
ATOM      3  C   UNL     1      -2.933  -7.277   8.475  1.00  0.00     0.006 C 
BRANCH   3   4
ATOM      4  C   UNL     1      -3.505  -8.000   7.248  1.00  0.00     0.053 C 
BRANCH   4   5
ATOM      5  C   UNL     1      -2.610  -7.806   6.065  1.00  0.00     0.041 C 
ATOM      6  O   UNL     1      -2.769  -6.813   5.307  1.00  0.00    -0.550 OA
ATOM      7  O   UNL     1      -1.569  -8.695   5.828  1.00  0.00    -0.550 OA
ENDBRANCH   4   5
ENDBRANCH   3   4
ENDBRANCH   2   3
ENDBRANCH   1   2
BRANCH   1   8
ATOM      8  C   UNL     1      -5.216  -4.126   8.867  1.00  0.00     0.000 C 
BRANCH   8   9
ATOM      9  C   UNL     1      -6.151  -3.339   7.933  1.00  0.00     0.000 C 
BRANCH   9  10
ATOM     10  C   UNL     1      -6.509  -4.122   6.659  1.00  0.00     0.006 C 
BRANCH  10  11
ATOM     11  C   UNL     1      -7.912  -4.741   6.723  1.00  0.00     0.053 C 
BRANCH  11  12
ATOM     12  C   UNL     1      -8.651  -4.490   5.447  1.00  0.00     0.041 C 
ATOM     13  O   UNL     1      -9.744  -3.862   5.460  1.00  0.00    -0.550 OA
ATOM     14  O   UNL     1      -8.161  -4.993   4.249  1.00  0.00    -0.550 OA
ENDBRANCH  11  12
ENDBRANCH  10  11
ENDBRANCH   9  10
ENDBRANCH   8   9
ENDBRANCH   1   8
TORSDOF 9
ENDMDL
MODEL 3
REMARK VINA RESULT:    -3.657      2.476      3.046
REMARK INTER + INTRA:          -6.185
REMARK INTER:                  -5.588
REMARK INTRA:                  -0.597
REMARK UNBOUND:                -0.604
REMARK SMILES O=C([O-])CCCCCCCCC(=O)[O-]
REMARK SMILES IDX 7 1 6 2 5 3 4 4 2 5 1 6 3 7 8 8 9 9 10 10 11 11 12 12 13 13
REMARK SMILES IDX 14 14
REMARK H PARENT
REMARK Flexibility Score: inf
ROOT
ATOM      1  C   UNL     1      -4.435  -5.553   8.791  1.00  0.00     0.000 C 
ENDROOT
BRANCH   1   2
ATOM      2  C   UNL     1      -5.282  -5.217   7.552  1.00  0.00     0.000 C 
BRANCH   2   3
ATOM      3  C   UNL     1      -5.721  -3.745   7.517  1.00  0.00     0.006 C 
BRANCH   3   4
ATOM      4  C   UNL     1      -5.765  -3.110   8.914  1.00  0.00     0.053 C 
BRANCH   4   5
ATOM      5  C   UNL     1      -6.770  -2.003   8.952  1.00  0.00     0.041 C 
ATOM      6  O   UNL     1      -7.984  -2.257   9.172  1.00  0.00    -0.550 OA
ATOM      7  O   UNL     1      -6.360  -0.686   8.790  1.00  0.00    -0.550 OA
ENDBRANCH   4   5
ENDBRANCH   3   4
ENDBRANCH   2   3
ENDBRANCH   1   2
BRANCH   1   8
ATOM      8  C   UNL     1      -4.802  -6.914   9.405  1.00  0.00     0.000 C 
BRANCH   8   9
ATOM      9  C   UNL     1      -3.892  -8.050   8.905  1.00  0.00     0.000 C 
BRANCH   9  10
ATOM     10  C   UNL     1      -2.545  -7.537   8.371  1.00  0.00     0.006 C 
BRANCH  10  11
ATOM     11  C   UNL     1      -2.089  -8.281   7.109  1.00  0.00     0.053 C 
BRANCH  11  12
ATOM     12  C   UNL     1      -2.953  -7.914   5.945  1.00  0.00     0.041 C 
ATOM     13  O   UNL     1      -3.782  -8.743   5.483  1.00  0.00    -0.550 OA
ATOM     14  O   UNL     1      -2.810  -6.673   5.337  1.00  0.00    -0.550 OA
ENDBRANCH  11  12
ENDBRANCH  10  11
ENDBRANCH   9  10
ENDBRANCH   8   9
ENDBRANCH   1   8
TORSDOF 9
ENDMDL
MODEL 4
REMARK VINA RESULT:    -3.627      2.616      6.555
REMARK INTER + INTRA:          -6.139
REMARK INTER:                  -5.598
REMARK INTRA:                  -0.541
REMARK UNBOUND:                -0.604
REMARK SMILES O=C([O-])CCCCCCCCC(=O)[O-]
REMARK SMILES IDX 7 1 6 2 5 3 4 4 2 5 1 6 3 7 8 8 9 9 10 10 11 11 12 12 13 13
REMARK SMILES IDX 14 14
REMARK H PARENT
REMARK Flexibility Score: inf
ROOT
ATOM      1  C   UNL     1      -4.264  -5.534   8.753  1.00  0.00     0.000 C 
ENDROOT
BRANCH   1   2
ATOM      2  C   UNL     1      -4.361  -7.069   8.801  1.00  0.00     0.000 C 
BRANCH   2   3
ATOM      3  C   UNL     1      -4.364  -7.705   7.403  1.00  0.00     0.006 C 
BRANCH   3   4
ATOM      4  C   UNL     1      -3.152  -8.616   7.166  1.00  0.00     0.053 C 
BRANCH   4   5
ATOM      5  C   UNL     1      -2.425  -8.203   5.925  1.00  0.00     0.041 C 
ATOM      6  O   UNL     1      -2.723  -7.125   5.346  1.00  0.00    -0.550 OA
ATOM      7  O   UNL     1      -1.386  -8.985   5.435  1.00  0.00    -0.550 OA
ENDBRANCH   4   5
ENDBRANCH   3   4
ENDBRANCH   2   3
ENDBRANCH   1   2
BRANCH   1   8
ATOM      8  C   UNL     1      -4.899  -4.943   7.485  1.00  0.00     0.000 C 
BRANCH   8   9
ATOM      9  C   UNL     1      -5.735  -3.685   7.776  1.00  0.00     0.000 C 
BRANCH   9  10
ATOM     10  C   UNL     1      -6.043  -3.513   9.273  1.00  0.00     0.006 C 
BRANCH  10  11
ATOM     11  C   UNL     1      -5.591  -2.151   9.815  1.00  0.00     0.053 C 
BRANCH  11  12
ATOM     12  C   UNL     1      -6.588  -1.093   9.465  1.00  0.00     0.041 C 
ATOM     13  O   UNL     1      -6.248  -0.112   8.751  1.00  0.00    -0.550 OA
ATOM     14  O   UNL     1      -7.881  -1.163   9.968  1.00  0.00    -0.550 OA
ENDBRANCH  11  12
ENDBRANCH  10  11
ENDBRANCH   9  10
ENDBRANCH   8   9
ENDBRANCH   1   8
TORSDOF 9
ENDMDL
MODEL 5
REMARK VINA RESULT:    -3.564      2.020      5.488
REMARK INTER + INTRA:          -6.044
REMARK INTER:                  -5.344
REMARK INTRA:                  -0.700
REMARK UNBOUND:                -0.604
REMARK SMILES O=C([O-])CCCCCCCCC(=O)[O-]
REMARK SMILES IDX 7 1 6 2 5 3 4 4 2 5 1 6 3 7 8 8 9 9 10 10 11 11 12 12 13 13
REMARK SMILES IDX 14 14
REMARK H PARENT
REMARK Flexibility Score: inf
ROOT
ATOM      1  C   UNL     1      -2.945  -7.132   9.627  1.00  0.00     0.000 C 
ENDROOT
BRANCH   1   2
ATOM      2  C   UNL     1      -1.792  -7.829   8.882  1.00  0.00     0.000 C 
BRANCH   2   3
ATOM      3  C   UNL     1      -2.274  -8.995   8.005  1.00  0.00     0.006 C 
BRANCH   3   4
ATOM      4  C   UNL     1      -1.893  -8.820   6.529  1.00  0.00     0.053 C 
BRANCH   4   5
ATOM      5  C   UNL     1      -2.980  -8.104   5.791  1.00  0.00     0.041 C 
ATOM      6  O   UNL     1      -4.130  -8.610   5.710  1.00  0.00    -0.550 OA
ATOM      7  O   UNL     1      -2.736  -6.855   5.234  1.00  0.00    -0.550 OA
ENDBRANCH   4   5
ENDBRANCH   3   4
ENDBRANCH   2   3
ENDBRANCH   1   2
BRANCH   1   8
ATOM      8  C   UNL     1      -3.747  -6.187   8.718  1.00  0.00     0.000 C 
BRANCH   8   9
ATOM      9  C   UNL     1      -5.262  -6.272   8.971  1.00  0.00     0.000 C 
BRANCH   9  10
ATOM     10  C   UNL     1      -6.077  -6.307   7.668  1.00  0.00     0.006 C 
BRANCH  10  11
ATOM     11  C   UNL     1      -6.930  -5.047   7.472  1.00  0.00     0.053 C 
BRANCH  11  12
ATOM     12  C   UNL     1      -6.086  -3.917   6.975  1.00  0.00     0.041 C 
ATOM     13  O   UNL     1      -5.403  -4.050   5.924  1.00  0.00    -0.550 OA
ATOM     14  O   UNL     1      -6.012  -2.733   7.697  1.00  0.00    -0.550 OA
ENDBRANCH  11  12
ENDBRANCH  10  11
ENDBRANCH   9  10
ENDBRANCH   8   9
ENDBRANCH   1   8
TORSDOF 9
ENDMDL
MODEL 6
REMARK VINA RESULT:    -3.544     14.352     16.042
REMARK INTER + INTRA:          -6.013
REMARK INTER:                  -5.342
REMARK INTRA:                  -0.671
REMARK UNBOUND:                -0.604
REMARK SMILES O=C([O-])CCCCCCCCC(=O)[O-]
REMARK SMILES IDX 7 1 6 2 5 3 4 4 2 5 1 6 3 7 8 8 9 9 10 10 11 11 12 12 13 13
REMARK SMILES IDX 14 14
REMARK H PARENT
REMARK Flexibility Score: inf
ROOT
ATOM      1  C   UNL     1      -4.783   8.287   5.935  1.00  0.00     0.000 C 
ENDROOT
BRANCH   1   2
ATOM      2  C   UNL     1      -4.806   8.862   7.362  1.00  0.00     0.000 C 
BRANCH   2   3
ATOM      3  C   UNL     1      -3.736   9.943   7.580  1.00  0.00     0.006 C 
BRANCH   3   4
ATOM      4  C   UNL     1      -2.339   9.487   7.139  1.00  0.00     0.053 C 
BRANCH   4   5
ATOM      5  C   UNL     1      -1.381   9.563   8.286  1.00  0.00     0.041 C 
ATOM      6  O   UNL     1      -0.139   9.570   8.075  1.00  0.00    -0.550 OA
ATOM      7  O   UNL     1      -1.859   9.673   9.585  1.00  0.00    -0.550 OA
ENDBRANCH   4   5
ENDBRANCH   3   4
ENDBRANCH   2   3
ENDBRANCH   1   2
BRANCH   1   8
ATOM      8  C   UNL     1      -5.845   8.924   5.025  1.00  0.00     0.000 C 
BRANCH   8   9
ATOM      9  C   UNL     1      -5.293  10.109   4.215  1.00  0.00     0.000 C 
BRANCH   9  10
ATOM     10  C   UNL     1      -4.173   9.692   3.248  1.00  0.00     0.006 C 
BRANCH  10  11
ATOM     11  C   UNL     1      -4.632   9.682   1.784  1.00  0.00     0.053 C 
BRANCH  11  12
ATOM     12  C   UNL     1      -5.068   8.309   1.383  1.00  0.00     0.041 C 
ATOM     13  O   UNL     1      -4.713   7.307   2.060  1.00  0.00    -0.550 OA
ATOM     14  O   UNL     1      -5.826   8.128   0.233  1.00  0.00    -0.550 OA
ENDBRANCH  11  12
ENDBRANCH  10  11
ENDBRANCH   9  10
ENDBRANCH   8   9
ENDBRANCH   1   8
TORSDOF 9
ENDMDL
MODEL 7
REMARK VINA RESULT:    -3.533      3.416      7.046
REMARK INTER + INTRA:          -5.996
REMARK INTER:                  -5.772
REMARK INTRA:                  -0.224
REMARK UNBOUND:                -0.604
REMARK SMILES O=C([O-])CCCCCCCCC(=O)[O-]
REMARK SMILES IDX 7 1 6 2 5 3 4 4 2 5 1 6 3 7 8 8 9 9 10 10 11 11 12 12 13 13
REMARK SMILES IDX 14 14
REMARK H PARENT
REMARK Flexibility Score: inf
ROOT
ATOM      1  C   UNL     1      -4.875  -5.233   9.714  1.00  0.00     0.000 C 
ENDROOT
BRANCH   1   2
ATOM      2  C   UNL     1      -4.443  -5.778   8.341  1.00  0.00     0.000 C 
BRANCH   2   3
ATOM      3  C   UNL     1      -3.421  -6.919   8.453  1.00  0.00     0.006 C 
BRANCH   3   4
ATOM      4  C   UNL     1      -3.575  -7.961   7.336  1.00  0.00     0.053 C 
BRANCH   4   5
ATOM      5  C   UNL     1      -2.529  -7.756   6.286  1.00  0.00     0.041 C 
ATOM      6  O   UNL     1      -1.429  -8.364   6.361  1.00  0.00    -0.550 OA
ATOM      7  O   UNL     1      -2.788  -6.931   5.199  1.00  0.00    -0.550 OA
ENDBRANCH   4   5
ENDBRANCH   3   4
ENDBRANCH   2   3
ENDBRANCH   1   2
BRANCH   1   8
ATOM      8  C   UNL     1      -4.901  -3.697   9.757  1.00  0.00     0.000 C 
BRANCH   8   9
ATOM      9  C   UNL     1      -6.332  -3.131   9.729  1.00  0.00     0.000 C 
BRANCH   9  10
ATOM     10  C   UNL     1      -6.414  -1.771   9.018  1.00  0.00     0.006 C 
BRANCH  10  11
ATOM     11  C   UNL     1      -6.730  -0.620   9.982  1.00  0.00     0.053 C 
BRANCH  11  12
ATOM     12  C   UNL     1      -6.275   0.683   9.407  1.00  0.00     0.041 C 
ATOM     13  O   UNL     1      -7.090   1.431   8.804  1.00  0.00    -0.550 OA
ATOM     14  O   UNL     1      -4.937   1.051   9.491  1.00  0.00    -0.550 OA
ENDBRANCH  11  12
ENDBRANCH  10  11
ENDBRANCH   9  10
ENDBRANCH   8   9
ENDBRANCH   1   8
TORSDOF 9
ENDMDL
MODEL 8
REMARK VINA RESULT:    -3.455     18.342     19.600
REMARK INTER + INTRA:          -5.876
REMARK INTER:                  -5.044
REMARK INTRA:                  -0.833
REMARK UNBOUND:                -0.604
REMARK SMILES O=C([O-])CCCCCCCCC(=O)[O-]
REMARK SMILES IDX 7 1 6 2 5 3 4 4 2 5 1 6 3 7 8 8 9 9 10 10 11 11 12 12 13 13
REMARK SMILES IDX 14 14
REMARK H PARENT
REMARK Flexibility Score: inf
ROOT
ATOM      1  C   UNL     1       8.286   2.846  -7.150  1.00  0.00     0.000 C 
ENDROOT
BRANCH   1   2
ATOM      2  C   UNL     1       8.061   4.369  -7.140  1.00  0.00     0.000 C 
BRANCH   2   3
ATOM      3  C   UNL     1       6.623   4.756  -7.519  1.00  0.00     0.006 C 
BRANCH   3   4
ATOM      4  C   UNL     1       5.666   4.716  -6.320  1.00  0.00     0.053 C 
BRANCH   4   5
ATOM      5  C   UNL     1       4.620   3.666  -6.523  1.00  0.00     0.041 C 
ATOM      6  O   UNL     1       4.230   3.376  -7.685  1.00  0.00    -0.550 OA
ATOM      7  O   UNL     1       4.108   2.974  -5.432  1.00  0.00    -0.550 OA
ENDBRANCH   4   5
ENDBRANCH   3   4
ENDBRANCH   2   3
ENDBRANCH   1   2
BRANCH   1   8
ATOM      8  C   UNL     1       7.619   2.160  -8.352  1.00  0.00     0.000 C 
BRANCH   8   9
ATOM      9  C   UNL     1       6.926   0.841  -7.968  1.00  0.00     0.000 C 
BRANCH   9  10
ATOM     10  C   UNL     1       6.813   0.655  -6.446  1.00  0.00     0.006 C 
BRANCH  10  11
ATOM     11  C   UNL     1       7.497  -0.628  -5.957  1.00  0.00     0.053 C 
BRANCH  11  12
ATOM     12  C   UNL     1       6.492  -1.721  -5.781  1.00  0.00     0.041 C 
ATOM     13  O   UNL     1       6.587  -2.522  -4.812  1.00  0.00    -0.550 OA
ATOM     14  O   UNL     1       5.476  -1.889  -6.714  1.00  0.00    -0.550 OA
ENDBRANCH  11  12
ENDBRANCH  10  11
ENDBRANCH   9  10
ENDBRANCH   8   9
ENDBRANCH   1   8
TORSDOF 9
ENDMDL
MODEL 9
REMARK VINA RESULT:    -3.436     18.364     20.178
REMARK INTER + INTRA:          -5.848
REMARK INTER:                  -5.025
REMARK INTRA:                  -0.823
REMARK UNBOUND:                -0.604
REMARK SMILES O=C([O-])CCCCCCCCC(=O)[O-]
REMARK SMILES IDX 7 1 6 2 5 3 4 4 2 5 1 6 3 7 8 8 9 9 10 10 11 11 12 12 13 13
REMARK SMILES IDX 14 14
REMARK H PARENT
REMARK Flexibility Score: inf
ROOT
ATOM      1  C   UNL     1       7.221   1.919  -8.667  1.00  0.00     0.000 C 
ENDROOT
BRANCH   1   2
ATOM      2  C   UNL     1       6.704   0.475  -8.546  1.00  0.00     0.000 C 
BRANCH   2   3
ATOM      3  C   UNL     1       5.909   0.240  -7.252  1.00  0.00     0.006 C 
BRANCH   3   4
ATOM      4  C   UNL     1       5.887  -1.237  -6.834  1.00  0.00     0.053 C 
BRANCH   4   5
ATOM      5  C   UNL     1       6.788  -1.460  -5.661  1.00  0.00     0.041 C 
ATOM      6  O   UNL     1       6.652  -2.486  -4.945  1.00  0.00    -0.550 OA
ATOM      7  O   UNL     1       7.808  -0.558  -5.387  1.00  0.00    -0.550 OA
ENDBRANCH   4   5
ENDBRANCH   3   4
ENDBRANCH   2   3
ENDBRANCH   1   2
BRANCH   1   8
ATOM      8  C   UNL     1       8.143   2.315  -7.503  1.00  0.00     0.000 C 
BRANCH   8   9
ATOM      9  C   UNL     1       8.026   3.805  -7.138  1.00  0.00     0.000 C 
BRANCH   9  10
ATOM     10  C   UNL     1       6.709   4.430  -7.625  1.00  0.00     0.006 C 
BRANCH  10  11
ATOM     11  C   UNL     1       5.693   4.623  -6.492  1.00  0.00     0.053 C 
BRANCH  11  12
ATOM     12  C   UNL     1       4.552   3.669  -6.645  1.00  0.00     0.041 C 
ATOM     13  O   UNL     1       4.088   3.413  -7.788  1.00  0.00    -0.550 OA
ATOM     14  O   UNL     1       3.965   3.099  -5.522  1.00  0.00    -0.550 OA
ENDBRANCH  11  12
ENDBRANCH  10  11
ENDBRANCH   9  10
ENDBRANCH   8   9
ENDBRANCH   1   8
TORSDOF 9
ENDMDL
