MODEL 1
REMARK VINA RESULT:    -5.471      0.000      0.000
REMARK INTER + INTRA:         -11.982
REMARK INTER:                  -9.949
REMARK INTRA:                  -2.033
REMARK UNBOUND:                -2.033
REMARK SMILES CCCCCCCCCCCCCC[C@@H](C)C(=O)[O-]
REMARK SMILES IDX 9 1 10 2 11 3 12 4 13 5 14 6 15 7 16 8 17 9 18 10 19 11 8 12
REMARK SMILES IDX 7 13 6 14 5 15 4 16 3 17 2 18 1 19
REMARK H PARENT
REMARK Flexibility Score: inf
ROOT
ATOM      1  C   UNL     1       4.600   7.322  10.003  1.00  0.00     0.000 C 
ENDROOT
BRANCH   1   2
ATOM      2  C   UNL     1       3.352   6.983  10.834  1.00  0.00     0.000 C 
BRANCH   2   3
ATOM      3  C   UNL     1       2.605   8.234  11.319  1.00  0.00     0.000 C 
BRANCH   3   4
ATOM      4  C   UNL     1       3.284   8.833  12.557  1.00  0.00     0.000 C 
BRANCH   4   5
ATOM      5  C   UNL     1       3.662   7.735  13.563  1.00  0.00     0.001 C 
BRANCH   5   6
ATOM      6  C   UNL     1       5.180   7.646  13.810  1.00  0.00     0.009 C 
BRANCH   6   7
ATOM      7  C   UNL     1       5.627   6.372  14.563  1.00  0.00     0.032 C 
ATOM      8  C   UNL     1       7.153   6.337  14.696  1.00  0.00     0.014 C 
BRANCH   7   9
ATOM      9  C   UNL     1       4.999   6.290  15.927  1.00  0.00     0.044 C 
ATOM     10  O   UNL     1       4.955   7.310  16.665  1.00  0.00    -0.550 OA
ATOM     11  O   UNL     1       4.464   5.091  16.385  1.00  0.00    -0.550 OA
ENDBRANCH   7   9
ENDBRANCH   6   7
ENDBRANCH   5   6
ENDBRANCH   4   5
ENDBRANCH   3   4
ENDBRANCH   2   3
ENDBRANCH   1   2
BRANCH   1  12
ATOM     12  C   UNL     1       4.406   8.574   9.130  1.00  0.00     0.000 C 
BRANCH  12  13
ATOM     13  C   UNL     1       5.509   9.629   9.337  1.00  0.00    -0.000 C 
BRANCH  13  14
ATOM     14  C   UNL     1       6.204   9.589  10.709  1.00  0.00    -0.000 C 
BRANCH  14  15
ATOM     15  C   UNL     1       7.718   9.332  10.608  1.00  0.00    -0.000 C 
BRANCH  15  16
ATOM     16  C   UNL     1       8.201   8.264  11.603  1.00  0.00    -0.000 C 
BRANCH  16  17
ATOM     17  C   UNL     1       7.924   6.833  11.112  1.00  0.00    -0.000 C 
BRANCH  17  18
ATOM     18  C   UNL     1       9.190   5.962  11.092  1.00  0.00    -0.003 C 
ATOM     19  C   UNL     1       9.622   5.573   9.678  1.00  0.00     0.004 C 
ENDBRANCH  17  18
ENDBRANCH  16  17
ENDBRANCH  15  16
ENDBRANCH  14  15
ENDBRANCH  13  14
ENDBRANCH  12  13
ENDBRANCH   1  12
TORSDOF 14
ENDMDL
MODEL 2
REMARK VINA RESULT:    -5.379      1.428      2.462
REMARK INTER + INTRA:         -11.813
REMARK INTER:                  -9.766
REMARK INTRA:                  -2.048
REMARK UNBOUND:                -2.033
REMARK SMILES CCCCCCCCCCCCCC[C@@H](C)C(=O)[O-]
REMARK SMILES IDX 9 1 10 2 11 3 12 4 13 5 14 6 15 7 16 8 17 9 18 10 19 11 8 12
REMARK SMILES IDX 7 13 6 14 5 15 4 16 3 17 2 18 1 19
REMARK H PARENT
REMARK Flexibility Score: inf
ROOT
ATOM      1  C   UNL     1       4.396   6.768  11.313  1.00  0.00     0.000 C 
ENDROOT
BRANCH   1   2
ATOM      2  C   UNL     1       4.028   7.661  12.509  1.00  0.00     0.000 C 
BRANCH   2   3
ATOM      3  C   UNL     1       5.096   7.643  13.613  1.00  0.00     0.000 C 
BRANCH   3   4
ATOM      4  C   UNL     1       5.776   6.270  13.696  1.00  0.00     0.000 C 
BRANCH   4   5
ATOM      5  C   UNL     1       5.672   5.689  15.115  1.00  0.00     0.001 C 
BRANCH   5   6
ATOM      6  C   UNL     1       5.092   6.691  16.131  1.00  0.00     0.009 C 
BRANCH   6   7
ATOM      7  C   UNL     1       3.704   6.299  16.686  1.00  0.00     0.032 C 
ATOM      8  C   UNL     1       3.722   4.857  17.202  1.00  0.00     0.014 C 
BRANCH   7   9
ATOM      9  C   UNL     1       3.270   7.225  17.789  1.00  0.00     0.044 C 
ATOM     10  O   UNL     1       3.037   8.438  17.542  1.00  0.00    -0.550 OA
ATOM     11  O   UNL     1       3.127   6.752  19.089  1.00  0.00    -0.550 OA
ENDBRANCH   7   9
ENDBRANCH   6   7
ENDBRANCH   5   6
ENDBRANCH   4   5
ENDBRANCH   3   4
ENDBRANCH   2   3
ENDBRANCH   1   2
BRANCH   1  12
ATOM     12  C   UNL     1       4.447   7.548   9.988  1.00  0.00     0.000 C 
BRANCH  12  13
ATOM     13  C   UNL     1       4.626   9.064  10.189  1.00  0.00    -0.000 C 
BRANCH  13  14
ATOM     14  C   UNL     1       5.731   9.713   9.337  1.00  0.00    -0.000 C 
BRANCH  14  15
ATOM     15  C   UNL     1       7.117   9.091   9.576  1.00  0.00    -0.000 C 
BRANCH  15  16
ATOM     16  C   UNL     1       7.559   9.184  11.047  1.00  0.00    -0.000 C 
BRANCH  16  17
ATOM     17  C   UNL     1       8.303   7.924  11.519  1.00  0.00    -0.000 C 
BRANCH  17  18
ATOM     18  C   UNL     1       8.002   6.699  10.643  1.00  0.00    -0.003 C 
ATOM     19  C   UNL     1       9.240   5.845  10.368  1.00  0.00     0.004 C 
ENDBRANCH  17  18
ENDBRANCH  16  17
ENDBRANCH  15  16
ENDBRANCH  14  15
ENDBRANCH  13  14
ENDBRANCH  12  13
ENDBRANCH   1  12
TORSDOF 14
ENDMDL
MODEL 3
REMARK VINA RESULT:    -5.289      1.710      4.003
REMARK INTER + INTRA:         -11.651
REMARK INTER:                 -10.071
REMARK INTRA:                  -1.580
REMARK UNBOUND:                -2.033
REMARK SMILES CCCCCCCCCCCCCC[C@@H](C)C(=O)[O-]
REMARK SMILES IDX 9 1 10 2 11 3 12 4 13 5 14 6 15 7 16 8 17 9 18 10 19 11 8 12
REMARK SMILES IDX 7 13 6 14 5 15 4 16 3 17 2 18 1 19
REMARK H PARENT
REMARK Flexibility Score: inf
ROOT
ATOM      1  C   UNL     1       8.300   6.420  11.885  1.00  0.00     0.000 C 
ENDROOT
BRANCH   1   2
ATOM      2  C   UNL     1       7.597   7.023  13.111  1.00  0.00     0.000 C 
BRANCH   2   3
ATOM      3  C   UNL     1       7.464   6.023  14.270  1.00  0.00     0.000 C 
BRANCH   3   4
ATOM      4  C   UNL     1       5.990   5.709  14.558  1.00  0.00     0.000 C 
BRANCH   4   5
ATOM      5  C   UNL     1       5.535   6.362  15.872  1.00  0.00     0.001 C 
BRANCH   5   6
ATOM      6  C   UNL     1       4.078   6.858  15.821  1.00  0.00     0.009 C 
BRANCH   6   7
ATOM      7  C   UNL     1       3.173   6.287  16.936  1.00  0.00     0.032 C 
ATOM      8  C   UNL     1       3.731   4.954  17.446  1.00  0.00     0.014 C 
BRANCH   7   9
ATOM      9  C   UNL     1       3.038   7.250  18.084  1.00  0.00     0.044 C 
ATOM     10  O   UNL     1       3.041   8.492  17.871  1.00  0.00    -0.550 OA
ATOM     11  O   UNL     1       2.912   6.779  19.386  1.00  0.00    -0.550 OA
ENDBRANCH   7   9
ENDBRANCH   6   7
ENDBRANCH   5   6
ENDBRANCH   4   5
ENDBRANCH   3   4
ENDBRANCH   2   3
ENDBRANCH   1   2
BRANCH   1  12
ATOM     12  C   UNL     1       8.479   7.439  10.746  1.00  0.00     0.000 C 
BRANCH  12  13
ATOM     13  C   UNL     1       8.264   8.894  11.203  1.00  0.00    -0.000 C 
BRANCH  13  14
ATOM     14  C   UNL     1       7.579   9.811  10.174  1.00  0.00    -0.000 C 
BRANCH  14  15
ATOM     15  C   UNL     1       6.058   9.910  10.376  1.00  0.00    -0.000 C 
BRANCH  15  16
ATOM     16  C   UNL     1       5.268   9.506   9.120  1.00  0.00    -0.000 C 
BRANCH  16  17
ATOM     17  C   UNL     1       4.304   8.336   9.380  1.00  0.00    -0.000 C 
BRANCH  17  18
ATOM     18  C   UNL     1       4.983   7.165  10.107  1.00  0.00    -0.003 C 
ATOM     19  C   UNL     1       4.278   6.785  11.409  1.00  0.00     0.004 C 
ENDBRANCH  17  18
ENDBRANCH  16  17
ENDBRANCH  15  16
ENDBRANCH  14  15
ENDBRANCH  13  14
ENDBRANCH  12  13
ENDBRANCH   1  12
TORSDOF 14
ENDMDL
MODEL 4
REMARK VINA RESULT:    -5.126      2.661      5.052
REMARK INTER + INTRA:         -11.355
REMARK INTER:                  -9.257
REMARK INTRA:                  -2.098
REMARK UNBOUND:                -2.033
REMARK SMILES CCCCCCCCCCCCCC[C@@H](C)C(=O)[O-]
REMARK SMILES IDX 9 1 10 2 11 3 12 4 13 5 14 6 15 7 16 8 17 9 18 10 19 11 8 12
REMARK SMILES IDX 7 13 6 14 5 15 4 16 3 17 2 18 1 19
REMARK H PARENT
REMARK Flexibility Score: inf
ROOT
ATOM      1  C   UNL     1       4.398   6.989  16.796  1.00  0.00     0.000 C 
ENDROOT
BRANCH   1   2
ATOM      2  C   UNL     1       3.496   7.656  15.745  1.00  0.00     0.000 C 
BRANCH   2   3
ATOM      3  C   UNL     1       4.113   8.936  15.160  1.00  0.00     0.000 C 
BRANCH   3   4
ATOM      4  C   UNL     1       3.759   9.087  13.676  1.00  0.00     0.000 C 
BRANCH   4   5
ATOM      5  C   UNL     1       3.347   7.738  13.068  1.00  0.00     0.001 C 
BRANCH   5   6
ATOM      6  C   UNL     1       4.381   7.191  12.065  1.00  0.00     0.009 C 
BRANCH   6   7
ATOM      7  C   UNL     1       3.888   7.157  10.601  1.00  0.00     0.032 C 
ATOM      8  C   UNL     1       2.358   7.119  10.552  1.00  0.00     0.014 C 
BRANCH   7   9
ATOM      9  C   UNL     1       4.389   8.343   9.823  1.00  0.00     0.044 C 
ATOM     10  O   UNL     1       4.162   8.430   8.587  1.00  0.00    -0.550 OA
ATOM     11  O   UNL     1       5.108   9.349  10.459  1.00  0.00    -0.550 OA
ENDBRANCH   7   9
ENDBRANCH   6   7
ENDBRANCH   5   6
ENDBRANCH   4   5
ENDBRANCH   3   4
ENDBRANCH   2   3
ENDBRANCH   1   2
BRANCH   1  12
ATOM     12  C   UNL     1       4.814   5.562  16.397  1.00  0.00     0.000 C 
BRANCH  12  13
ATOM     13  C   UNL     1       5.667   5.521  15.117  1.00  0.00    -0.000 C 
BRANCH  13  14
ATOM     14  C   UNL     1       7.000   6.286  15.191  1.00  0.00    -0.000 C 
BRANCH  14  15
ATOM     15  C   UNL     1       7.234   7.205  13.980  1.00  0.00    -0.000 C 
BRANCH  15  16
ATOM     16  C   UNL     1       7.992   6.500  12.843  1.00  0.00    -0.000 C 
BRANCH  16  17
ATOM     17  C   UNL     1       8.093   7.367  11.576  1.00  0.00    -0.000 C 
BRANCH  17  18
ATOM     18  C   UNL     1       8.038   6.534  10.287  1.00  0.00    -0.003 C 
ATOM     19  C   UNL     1       9.203   5.551  10.164  1.00  0.00     0.004 C 
ENDBRANCH  17  18
ENDBRANCH  16  17
ENDBRANCH  15  16
ENDBRANCH  14  15
ENDBRANCH  13  14
ENDBRANCH  12  13
ENDBRANCH   1  12
TORSDOF 14
ENDMDL
MODEL 5
REMARK VINA RESULT:    -5.034      2.799      6.450
REMARK INTER + INTRA:         -11.186
REMARK INTER:                  -9.200
REMARK INTRA:                  -1.986
REMARK UNBOUND:                -2.033
REMARK SMILES CCCCCCCCCCCCCC[C@@H](C)C(=O)[O-]
REMARK SMILES IDX 9 1 10 2 11 3 12 4 13 5 14 6 15 7 16 8 17 9 18 10 19 11 8 12
REMARK SMILES IDX 7 13 6 14 5 15 4 16 3 17 2 18 1 19
REMARK H PARENT
REMARK Flexibility Score: inf
ROOT
ATOM      1  C   UNL     1       5.537   7.248  14.949  1.00  0.00     0.000 C 
ENDROOT
BRANCH   1   2
ATOM      2  C   UNL     1       5.996   5.954  14.258  1.00  0.00     0.000 C 
BRANCH   2   3
ATOM      3  C   UNL     1       7.449   6.028  13.765  1.00  0.00     0.000 C 
BRANCH   3   4
ATOM      4  C   UNL     1       7.661   7.252  12.865  1.00  0.00     0.000 C 
BRANCH   4   5
ATOM      5  C   UNL     1       8.171   6.833  11.477  1.00  0.00     0.001 C 
BRANCH   5   6
ATOM      6  C   UNL     1       7.081   6.905  10.392  1.00  0.00     0.009 C 
BRANCH   6   7
ATOM      7  C   UNL     1       6.049   8.037  10.603  1.00  0.00     0.032 C 
ATOM      8  C   UNL     1       6.306   9.184   9.621  1.00  0.00     0.014 C 
BRANCH   7   9
ATOM      9  C   UNL     1       4.641   7.536  10.437  1.00  0.00     0.044 C 
ATOM     10  O   UNL     1       3.848   8.125   9.655  1.00  0.00    -0.550 OA
ATOM     11  O   UNL     1       4.201   6.424  11.147  1.00  0.00    -0.550 OA
ENDBRANCH   7   9
ENDBRANCH   6   7
ENDBRANCH   5   6
ENDBRANCH   4   5
ENDBRANCH   3   4
ENDBRANCH   2   3
ENDBRANCH   1   2
BRANCH   1  12
ATOM     12  C   UNL     1       4.368   7.927  14.215  1.00  0.00     0.000 C 
BRANCH  12  13
ATOM     13  C   UNL     1       3.621   8.949  15.092  1.00  0.00    -0.000 C 
BRANCH  13  14
ATOM     14  C   UNL     1       4.086   9.021  16.557  1.00  0.00    -0.000 C 
BRANCH  14  15
ATOM     15  C   UNL     1       2.927   8.897  17.561  1.00  0.00    -0.000 C 
BRANCH  15  16
ATOM     16  C   UNL     1       2.862   7.507  18.218  1.00  0.00    -0.000 C 
BRANCH  16  17
ATOM     17  C   UNL     1       2.299   6.434  17.270  1.00  0.00    -0.000 C 
BRANCH  17  18
ATOM     18  C   UNL     1       3.232   5.221  17.135  1.00  0.00    -0.003 C 
ATOM     19  C   UNL     1       4.543   5.391  17.903  1.00  0.00     0.004 C 
ENDBRANCH  17  18
ENDBRANCH  16  17
ENDBRANCH  15  16
ENDBRANCH  14  15
ENDBRANCH  13  14
ENDBRANCH  12  13
ENDBRANCH   1  12
TORSDOF 14
ENDMDL
MODEL 6
REMARK VINA RESULT:    -5.015      2.523      6.358
REMARK INTER + INTRA:         -11.152
REMARK INTER:                  -9.230
REMARK INTRA:                  -1.922
REMARK UNBOUND:                -2.033
REMARK SMILES CCCCCCCCCCCCCC[C@@H](C)C(=O)[O-]
REMARK SMILES IDX 9 1 10 2 11 3 12 4 13 5 14 6 15 7 16 8 17 9 18 10 19 11 8 12
REMARK SMILES IDX 7 13 6 14 5 15 4 16 3 17 2 18 1 19
REMARK H PARENT
REMARK Flexibility Score: inf
ROOT
ATOM      1  C   UNL     1       7.230   6.004  14.044  1.00  0.00     0.000 C 
ENDROOT
BRANCH   1   2
ATOM      2  C   UNL     1       7.453   7.183  13.084  1.00  0.00     0.000 C 
BRANCH   2   3
ATOM      3  C   UNL     1       8.241   6.784  11.827  1.00  0.00     0.000 C 
BRANCH   3   4
ATOM      4  C   UNL     1       7.720   7.531  10.593  1.00  0.00     0.000 C 
BRANCH   4   5
ATOM      5  C   UNL     1       6.470   6.845  10.021  1.00  0.00     0.001 C 
BRANCH   5   6
ATOM      6  C   UNL     1       5.397   7.848   9.557  1.00  0.00     0.009 C 
BRANCH   6   7
ATOM      7  C   UNL     1       4.128   7.874  10.439  1.00  0.00     0.032 C 
ATOM      8  C   UNL     1       4.038   6.598  11.283  1.00  0.00     0.014 C 
BRANCH   7   9
ATOM      9  C   UNL     1       4.108   9.078  11.341  1.00  0.00     0.044 C 
ATOM     10  O   UNL     1       5.112   9.837  11.404  1.00  0.00    -0.550 OA
ATOM     11  O   UNL     1       2.986   9.361  12.112  1.00  0.00    -0.550 OA
ENDBRANCH   7   9
ENDBRANCH   6   7
ENDBRANCH   5   6
ENDBRANCH   4   5
ENDBRANCH   3   4
ENDBRANCH   2   3
ENDBRANCH   1   2
BRANCH   1  12
ATOM     12  C   UNL     1       5.845   6.042  14.714  1.00  0.00     0.000 C 
BRANCH  12  13
ATOM     13  C   UNL     1       5.244   7.459  14.772  1.00  0.00    -0.000 C 
BRANCH  13  14
ATOM     14  C   UNL     1       3.707   7.518  14.820  1.00  0.00    -0.000 C 
BRANCH  14  15
ATOM     15  C   UNL     1       3.173   8.234  16.072  1.00  0.00    -0.000 C 
BRANCH  15  16
ATOM     16  C   UNL     1       3.699   7.612  17.377  1.00  0.00    -0.000 C 
BRANCH  16  17
ATOM     17  C   UNL     1       2.577   7.003  18.234  1.00  0.00    -0.000 C 
BRANCH  17  18
ATOM     18  C   UNL     1       2.515   5.472  18.120  1.00  0.00    -0.003 C 
ATOM     19  C   UNL     1       3.795   4.867  17.545  1.00  0.00     0.004 C 
ENDBRANCH  17  18
ENDBRANCH  16  17
ENDBRANCH  15  16
ENDBRANCH  14  15
ENDBRANCH  13  14
ENDBRANCH  12  13
ENDBRANCH   1  12
TORSDOF 14
ENDMDL
MODEL 7
REMARK VINA RESULT:    -4.993      1.386      2.285
REMARK INTER + INTRA:         -11.112
REMARK INTER:                  -9.226
REMARK INTRA:                  -1.885
REMARK UNBOUND:                -2.033
REMARK SMILES CCCCCCCCCCCCCC[C@@H](C)C(=O)[O-]
REMARK SMILES IDX 9 1 10 2 11 3 12 4 13 5 14 6 15 7 16 8 17 9 18 10 19 11 8 12
REMARK SMILES IDX 7 13 6 14 5 15 4 16 3 17 2 18 1 19
REMARK H PARENT
REMARK Flexibility Score: inf
ROOT
ATOM      1  C   UNL     1       3.561   7.343  12.169  1.00  0.00     0.000 C 
ENDROOT
BRANCH   1   2
ATOM      2  C   UNL     1       3.780   8.830  12.489  1.00  0.00     0.000 C 
BRANCH   2   3
ATOM      3  C   UNL     1       3.390   9.191  13.930  1.00  0.00     0.000 C 
BRANCH   3   4
ATOM      4  C   UNL     1       2.353   8.204  14.481  1.00  0.00     0.000 C 
BRANCH   4   5
ATOM      5  C   UNL     1       2.753   7.707  15.878  1.00  0.00     0.001 C 
BRANCH   5   6
ATOM      6  C   UNL     1       4.240   7.953  16.198  1.00  0.00     0.009 C 
BRANCH   6   7
ATOM      7  C   UNL     1       5.077   6.663  16.353  1.00  0.00     0.032 C 
ATOM      8  C   UNL     1       4.169   5.472  16.677  1.00  0.00     0.014 C 
BRANCH   7   9
ATOM      9  C   UNL     1       5.871   6.369  15.109  1.00  0.00     0.044 C 
ATOM     10  O   UNL     1       6.020   5.180  14.721  1.00  0.00    -0.550 OA
ATOM     11  O   UNL     1       6.448   7.404  14.382  1.00  0.00    -0.550 OA
ENDBRANCH   7   9
ENDBRANCH   6   7
ENDBRANCH   5   6
ENDBRANCH   4   5
ENDBRANCH   3   4
ENDBRANCH   2   3
ENDBRANCH   1   2
BRANCH   1  12
ATOM     12  C   UNL     1       3.283   7.095  10.676  1.00  0.00     0.000 C 
BRANCH  12  13
ATOM     13  C   UNL     1       4.137   7.981   9.751  1.00  0.00    -0.000 C 
BRANCH  13  14
ATOM     14  C   UNL     1       5.609   7.553   9.608  1.00  0.00    -0.000 C 
BRANCH  14  15
ATOM     15  C   UNL     1       6.598   8.681   9.948  1.00  0.00    -0.000 C 
BRANCH  15  16
ATOM     16  C   UNL     1       7.521   8.321  11.124  1.00  0.00    -0.000 C 
BRANCH  16  17
ATOM     17  C   UNL     1       7.642   6.802  11.335  1.00  0.00    -0.000 C 
BRANCH  17  18
ATOM     18  C   UNL     1       9.087   6.301  11.185  1.00  0.00    -0.003 C 
ATOM     19  C   UNL     1       9.318   5.538   9.880  1.00  0.00     0.004 C 
ENDBRANCH  17  18
ENDBRANCH  16  17
ENDBRANCH  15  16
ENDBRANCH  14  15
ENDBRANCH  13  14
ENDBRANCH  12  13
ENDBRANCH   1  12
TORSDOF 14
ENDMDL
MODEL 8
REMARK VINA RESULT:    -4.978      1.901      5.090
REMARK INTER + INTRA:         -11.084
REMARK INTER:                  -9.309
REMARK INTRA:                  -1.775
REMARK UNBOUND:                -2.033
REMARK SMILES CCCCCCCCCCCCCC[C@@H](C)C(=O)[O-]
REMARK SMILES IDX 9 1 10 2 11 3 12 4 13 5 14 6 15 7 16 8 17 9 18 10 19 11 8 12
REMARK SMILES IDX 7 13 6 14 5 15 4 16 3 17 2 18 1 19
REMARK H PARENT
REMARK Flexibility Score: inf
ROOT
ATOM      1  C   UNL     1       3.626   7.502  12.459  1.00  0.00     0.000 C 
ENDROOT
BRANCH   1   2
ATOM      2  C   UNL     1       3.972   6.696  11.196  1.00  0.00     0.000 C 
BRANCH   2   3
ATOM      3  C   UNL     1       4.470   7.583  10.045  1.00  0.00     0.000 C 
BRANCH   3   4
ATOM      4  C   UNL     1       5.933   7.273   9.707  1.00  0.00     0.000 C 
BRANCH   4   5
ATOM      5  C   UNL     1       6.845   8.456  10.066  1.00  0.00     0.001 C 
BRANCH   5   6
ATOM      6  C   UNL     1       7.705   8.192  11.316  1.00  0.00     0.009 C 
BRANCH   6   7
ATOM      7  C   UNL     1       7.728   6.715  11.770  1.00  0.00     0.032 C 
ATOM      8  C   UNL     1       9.042   6.047  11.354  1.00  0.00     0.014 C 
BRANCH   7   9
ATOM      9  C   UNL     1       7.548   6.593  13.258  1.00  0.00     0.044 C 
ATOM     10  O   UNL     1       6.840   7.430  13.880  1.00  0.00    -0.550 OA
ATOM     11  O   UNL     1       8.161   5.560  13.959  1.00  0.00    -0.550 OA
ENDBRANCH   7   9
ENDBRANCH   6   7
ENDBRANCH   5   6
ENDBRANCH   4   5
ENDBRANCH   3   4
ENDBRANCH   2   3
ENDBRANCH   1   2
BRANCH   1  12
ATOM     12  C   UNL     1       4.096   8.964  12.373  1.00  0.00     0.000 C 
BRANCH  12  13
ATOM     13  C   UNL     1       3.602   9.824  13.551  1.00  0.00    -0.000 C 
BRANCH  13  14
ATOM     14  C   UNL     1       3.120   9.036  14.782  1.00  0.00    -0.000 C 
BRANCH  14  15
ATOM     15  C   UNL     1       4.221   8.839  15.838  1.00  0.00    -0.000 C 
BRANCH  15  16
ATOM     16  C   UNL     1       3.958   7.624  16.744  1.00  0.00    -0.000 C 
BRANCH  16  17
ATOM     17  C   UNL     1       4.587   6.332  16.194  1.00  0.00    -0.000 C 
BRANCH  17  18
ATOM     18  C   UNL     1       4.065   5.075  16.906  1.00  0.00    -0.003 C 
ATOM     19  C   UNL     1       3.005   5.386  17.962  1.00  0.00     0.004 C 
ENDBRANCH  17  18
ENDBRANCH  16  17
ENDBRANCH  15  16
ENDBRANCH  14  15
ENDBRANCH  13  14
ENDBRANCH  12  13
ENDBRANCH   1  12
TORSDOF 14
ENDMDL
MODEL 9
REMARK VINA RESULT:    -4.943      2.754      5.504
REMARK INTER + INTRA:         -11.022
REMARK INTER:                  -9.344
REMARK INTRA:                  -1.678
REMARK UNBOUND:                -2.033
REMARK SMILES CCCCCCCCCCCCCC[C@@H](C)C(=O)[O-]
REMARK SMILES IDX 9 1 10 2 11 3 12 4 13 5 14 6 15 7 16 8 17 9 18 10 19 11 8 12
REMARK SMILES IDX 7 13 6 14 5 15 4 16 3 17 2 18 1 19
REMARK H PARENT
REMARK Flexibility Score: inf
ROOT
ATOM      1  C   UNL     1       3.173   6.735  11.073  1.00  0.00     0.000 C 
ENDROOT
BRANCH   1   2
ATOM      2  C   UNL     1       4.448   7.073  10.284  1.00  0.00     0.000 C 
BRANCH   2   3
ATOM      3  C   UNL     1       4.300   8.343   9.433  1.00  0.00     0.000 C 
BRANCH   3   4
ATOM      4  C   UNL     1       5.507   9.271   9.618  1.00  0.00     0.000 C 
BRANCH   4   5
ATOM      5  C   UNL     1       6.244   8.961  10.930  1.00  0.00     0.001 C 
BRANCH   5   6
ATOM      6  C   UNL     1       7.758   8.756  10.732  1.00  0.00     0.009 C 
BRANCH   6   7
ATOM      7  C   UNL     1       8.314   7.469  11.384  1.00  0.00     0.032 C 
ATOM      8  C   UNL     1       7.392   7.001  12.514  1.00  0.00     0.014 C 
BRANCH   7   9
ATOM      9  C   UNL     1       8.477   6.366  10.374  1.00  0.00     0.044 C 
ATOM     10  O   UNL     1       7.480   5.953   9.723  1.00  0.00    -0.550 OA
ATOM     11  O   UNL     1       9.724   5.793  10.153  1.00  0.00    -0.550 OA
ENDBRANCH   7   9
ENDBRANCH   6   7
ENDBRANCH   5   6
ENDBRANCH   4   5
ENDBRANCH   3   4
ENDBRANCH   2   3
ENDBRANCH   1   2
BRANCH   1  12
ATOM     12  C   UNL     1       2.394   7.991  11.502  1.00  0.00     0.000 C 
BRANCH  12  13
ATOM     13  C   UNL     1       2.352   8.178  13.030  1.00  0.00    -0.000 C 
BRANCH  13  14
ATOM     14  C   UNL     1       3.726   8.264  13.718  1.00  0.00    -0.000 C 
BRANCH  14  15
ATOM     15  C   UNL     1       3.750   7.580  15.096  1.00  0.00    -0.000 C 
BRANCH  15  16
ATOM     16  C   UNL     1       5.149   7.065  15.474  1.00  0.00    -0.000 C 
BRANCH  16  17
ATOM     17  C   UNL     1       5.153   6.290  16.803  1.00  0.00    -0.000 C 
BRANCH  17  18
ATOM     18  C   UNL     1       4.128   5.146  16.820  1.00  0.00    -0.003 C 
ATOM     19  C   UNL     1       3.091   5.294  17.933  1.00  0.00     0.004 C 
ENDBRANCH  17  18
ENDBRANCH  16  17
ENDBRANCH  15  16
ENDBRANCH  14  15
ENDBRANCH  13  14
ENDBRANCH  12  13
ENDBRANCH   1  12
TORSDOF 14
ENDMDL
