MODEL 1
REMARK VINA RESULT:    -3.299      0.000      0.000
REMARK INTER + INTRA:          -3.508
REMARK INTER:                  -3.492
REMARK INTRA:                  -0.016
REMARK UNBOUND:                -0.016
REMARK SMILES O=C([O-])c1cccnc1
REMARK SMILES IDX 4 1 5 2 9 3 6 4 8 5 7 6 2 7 1 8 3 9
REMARK H PARENT
REMARK Flexibility Score: inf
ROOT
ATOM      1  C   UNL     1     -16.610 -14.612 -13.197  1.00  0.00     0.016 A 
ATOM      2  C   UNL     1     -16.177 -13.287 -13.023  1.00  0.00     0.013 A 
ATOM      3  C   UNL     1     -17.491 -14.893 -14.255  1.00  0.00     0.120 A 
ATOM      4  C   UNL     1     -16.622 -12.285 -13.888  1.00  0.00     0.021 A 
ATOM      5  N   UNL     1     -17.909 -13.897 -15.083  1.00  0.00    -0.264 NA
ATOM      6  C   UNL     1     -17.497 -12.613 -14.923  1.00  0.00     0.111 A 
ENDROOT
BRANCH   1   7
ATOM      7  C   UNL     1     -16.146 -15.682 -12.287  1.00  0.00     0.073 C 
ATOM      8  O   UNL     1     -16.799 -15.966 -11.248  1.00  0.00    -0.545 OA
ATOM      9  O   UNL     1     -14.983 -16.390 -12.568  1.00  0.00    -0.545 OA
ENDBRANCH   1   7
TORSDOF 1
ENDMDL
MODEL 2
REMARK VINA RESULT:    -3.267     10.033     10.646
REMARK INTER + INTRA:          -3.474
REMARK INTER:                  -3.458
REMARK INTRA:                  -0.016
REMARK UNBOUND:                -0.016
REMARK SMILES O=C([O-])c1cccnc1
REMARK SMILES IDX 4 1 5 2 9 3 6 4 8 5 7 6 2 7 1 8 3 9
REMARK H PARENT
REMARK Flexibility Score: inf
ROOT
ATOM      1  C   UNL     1     -12.486 -19.773 -20.869  1.00  0.00     0.016 A 
ATOM      2  C   UNL     1     -12.597 -20.388 -19.611  1.00  0.00     0.013 A 
ATOM      3  C   UNL     1     -13.192 -20.331 -21.949  1.00  0.00     0.120 A 
ATOM      4  C   UNL     1     -13.391 -21.526 -19.454  1.00  0.00     0.021 A 
ATOM      5  N   UNL     1     -13.958 -21.441 -21.768  1.00  0.00    -0.264 NA
ATOM      6  C   UNL     1     -14.072 -22.043 -20.556  1.00  0.00     0.111 A 
ENDROOT
BRANCH   1   7
ATOM      7  C   UNL     1     -11.648 -18.568 -21.048  1.00  0.00     0.073 C 
ATOM      8  O   UNL     1     -12.163 -17.419 -21.013  1.00  0.00    -0.545 OA
ATOM      9  O   UNL     1     -10.278 -18.688 -21.257  1.00  0.00    -0.545 OA
ENDBRANCH   1   7
TORSDOF 1
ENDMDL
MODEL 3
REMARK VINA RESULT:    -3.079     16.768     17.512
REMARK INTER + INTRA:          -3.275
REMARK INTER:                  -3.259
REMARK INTRA:                  -0.016
REMARK UNBOUND:                -0.016
REMARK SMILES O=C([O-])c1cccnc1
REMARK SMILES IDX 4 1 5 2 9 3 6 4 8 5 7 6 2 7 1 8 3 9
REMARK H PARENT
REMARK Flexibility Score: inf
ROOT
ATOM      1  C   UNL     1      -2.866 -19.203  -4.627  1.00  0.00     0.016 A 
ATOM      2  C   UNL     1      -4.042 -18.974  -3.893  1.00  0.00     0.013 A 
ATOM      3  C   UNL     1      -2.189 -20.420  -4.441  1.00  0.00     0.120 A 
ATOM      4  C   UNL     1      -4.512 -19.941  -3.004  1.00  0.00     0.021 A 
ATOM      5  N   UNL     1      -2.670 -21.346  -3.567  1.00  0.00    -0.264 NA
ATOM      6  C   UNL     1      -3.805 -21.134  -2.853  1.00  0.00     0.111 A 
ENDROOT
BRANCH   1   7
ATOM      7  C   UNL     1      -2.358 -18.185  -5.572  1.00  0.00     0.073 C 
ATOM      8  O   UNL     1      -2.826 -18.104  -6.739  1.00  0.00    -0.545 OA
ATOM      9  O   UNL     1      -1.355 -17.303  -5.185  1.00  0.00    -0.545 OA
ENDBRANCH   1   7
TORSDOF 1
ENDMDL
MODEL 4
REMARK VINA RESULT:    -3.064      9.566     10.096
REMARK INTER + INTRA:          -3.259
REMARK INTER:                  -3.238
REMARK INTRA:                  -0.022
REMARK UNBOUND:                -0.016
REMARK SMILES O=C([O-])c1cccnc1
REMARK SMILES IDX 4 1 5 2 9 3 6 4 8 5 7 6 2 7 1 8 3 9
REMARK H PARENT
REMARK Flexibility Score: inf
ROOT
ATOM      1  C   UNL     1     -13.112 -20.184 -20.754  1.00  0.00     0.016 A 
ATOM      2  C   UNL     1     -12.152 -19.556 -19.943  1.00  0.00     0.013 A 
ATOM      3  C   UNL     1     -13.618 -19.478 -21.858  1.00  0.00     0.120 A 
ATOM      4  C   UNL     1     -11.723 -18.262 -20.240  1.00  0.00     0.021 A 
ATOM      5  N   UNL     1     -13.182 -18.217 -22.125  1.00  0.00    -0.264 NA
ATOM      6  C   UNL     1     -12.255 -17.601 -21.347  1.00  0.00     0.111 A 
ENDROOT
BRANCH   1   7
ATOM      7  C   UNL     1     -13.575 -21.556 -20.449  1.00  0.00     0.073 C 
ATOM      8  O   UNL     1     -13.961 -22.321 -21.372  1.00  0.00    -0.545 OA
ATOM      9  O   UNL     1     -13.590 -22.019 -19.138  1.00  0.00    -0.545 OA
ENDBRANCH   1   7
TORSDOF 1
ENDMDL
MODEL 5
REMARK VINA RESULT:    -2.990     16.617     17.555
REMARK INTER + INTRA:          -3.181
REMARK INTER:                  -3.165
REMARK INTRA:                  -0.016
REMARK UNBOUND:                -0.016
REMARK SMILES O=C([O-])c1cccnc1
REMARK SMILES IDX 4 1 5 2 9 3 6 4 8 5 7 6 2 7 1 8 3 9
REMARK H PARENT
REMARK Flexibility Score: inf
ROOT
ATOM      1  C   UNL     1      -2.914 -19.233  -4.471  1.00  0.00     0.016 A 
ATOM      2  C   UNL     1      -2.243 -20.457  -4.313  1.00  0.00     0.013 A 
ATOM      3  C   UNL     1      -4.118 -19.036  -3.774  1.00  0.00     0.120 A 
ATOM      4  C   UNL     1      -2.773 -21.445  -3.480  1.00  0.00     0.021 A 
ATOM      5  N   UNL     1      -4.612 -20.016  -2.969  1.00  0.00    -0.264 NA
ATOM      6  C   UNL     1      -3.972 -21.202  -2.809  1.00  0.00     0.111 A 
ENDROOT
BRANCH   1   7
ATOM      7  C   UNL     1      -2.362 -18.180  -5.351  1.00  0.00     0.073 C 
ATOM      8  O   UNL     1      -2.755 -18.071  -6.543  1.00  0.00    -0.545 OA
ATOM      9  O   UNL     1      -1.401 -17.295  -4.873  1.00  0.00    -0.545 OA
ENDBRANCH   1   7
TORSDOF 1
ENDMDL
MODEL 6
REMARK VINA RESULT:    -2.962      4.153      5.041
REMARK INTER + INTRA:          -3.151
REMARK INTER:                  -3.135
REMARK INTRA:                  -0.016
REMARK UNBOUND:                -0.016
REMARK SMILES O=C([O-])c1cccnc1
REMARK SMILES IDX 4 1 5 2 9 3 6 4 8 5 7 6 2 7 1 8 3 9
REMARK H PARENT
REMARK Flexibility Score: inf
ROOT
ATOM      1  C   UNL     1     -14.176 -18.261 -11.650  1.00  0.00     0.016 A 
ATOM      2  C   UNL     1     -14.293 -17.175 -12.534  1.00  0.00     0.013 A 
ATOM      3  C   UNL     1     -15.259 -18.552 -10.804  1.00  0.00     0.120 A 
ATOM      4  C   UNL     1     -15.463 -16.413 -12.557  1.00  0.00     0.021 A 
ATOM      5  N   UNL     1     -16.388 -17.794 -10.847  1.00  0.00    -0.264 NA
ATOM      6  C   UNL     1     -16.511 -16.742 -11.697  1.00  0.00     0.111 A 
ENDROOT
BRANCH   1   7
ATOM      7  C   UNL     1     -12.942 -19.075 -11.616  1.00  0.00     0.073 C 
ATOM      8  O   UNL     1     -12.898 -20.196 -12.187  1.00  0.00    -0.545 OA
ATOM      9  O   UNL     1     -11.811 -18.611 -10.952  1.00  0.00    -0.545 OA
ENDBRANCH   1   7
TORSDOF 1
ENDMDL
MODEL 7
REMARK VINA RESULT:    -2.940      2.733      4.077
REMARK INTER + INTRA:          -3.128
REMARK INTER:                  -3.112
REMARK INTRA:                  -0.016
REMARK UNBOUND:                -0.016
REMARK SMILES O=C([O-])c1cccnc1
REMARK SMILES IDX 4 1 5 2 9 3 6 4 8 5 7 6 2 7 1 8 3 9
REMARK H PARENT
REMARK Flexibility Score: inf
ROOT
ATOM      1  C   UNL     1     -16.237 -15.293 -12.531  1.00  0.00     0.016 A 
ATOM      2  C   UNL     1     -15.466 -16.201 -13.275  1.00  0.00     0.013 A 
ATOM      3  C   UNL     1     -16.876 -15.756 -11.367  1.00  0.00     0.120 A 
ATOM      4  C   UNL     1     -15.348 -17.528 -12.857  1.00  0.00     0.021 A 
ATOM      5  N   UNL     1     -16.744 -17.055 -10.982  1.00  0.00    -0.264 NA
ATOM      6  C   UNL     1     -16.001 -17.940 -11.695  1.00  0.00     0.111 A 
ENDROOT
BRANCH   1   7
ATOM      7  C   UNL     1     -16.370 -13.885 -12.964  1.00  0.00     0.073 C 
ATOM      8  O   UNL     1     -15.665 -12.984 -12.437  1.00  0.00    -0.545 OA
ATOM      9  O   UNL     1     -17.277 -13.538 -13.960  1.00  0.00    -0.545 OA
ENDBRANCH   1   7
TORSDOF 1
ENDMDL
MODEL 8
REMARK VINA RESULT:    -2.934     10.981     12.508
REMARK INTER + INTRA:          -3.121
REMARK INTER:                  -3.102
REMARK INTRA:                  -0.019
REMARK UNBOUND:                -0.016
REMARK SMILES O=C([O-])c1cccnc1
REMARK SMILES IDX 4 1 5 2 9 3 6 4 8 5 7 6 2 7 1 8 3 9
REMARK H PARENT
REMARK Flexibility Score: inf
ROOT
ATOM      1  C   UNL     1     -15.881 -22.585  -5.022  1.00  0.00     0.016 A 
ATOM      2  C   UNL     1     -15.780 -21.686  -3.947  1.00  0.00     0.013 A 
ATOM      3  C   UNL     1     -15.988 -23.957  -4.736  1.00  0.00     0.120 A 
ATOM      4  C   UNL     1     -15.786 -22.159  -2.634  1.00  0.00     0.021 A 
ATOM      5  N   UNL     1     -15.992 -24.391  -3.447  1.00  0.00    -0.264 NA
ATOM      6  C   UNL     1     -15.894 -23.530  -2.401  1.00  0.00     0.111 A 
ENDROOT
BRANCH   1   7
ATOM      7  C   UNL     1     -15.875 -22.095  -6.417  1.00  0.00     0.073 C 
ATOM      8  O   UNL     1     -15.155 -22.652  -7.288  1.00  0.00    -0.545 OA
ATOM      9  O   UNL     1     -16.666 -21.013  -6.787  1.00  0.00    -0.545 OA
ENDBRANCH   1   7
TORSDOF 1
ENDMDL
MODEL 9
REMARK VINA RESULT:    -2.923     16.814     17.400
REMARK INTER + INTRA:          -3.110
REMARK INTER:                  -3.089
REMARK INTRA:                  -0.021
REMARK UNBOUND:                -0.016
REMARK SMILES O=C([O-])c1cccnc1
REMARK SMILES IDX 4 1 5 2 9 3 6 4 8 5 7 6 2 7 1 8 3 9
REMARK H PARENT
REMARK Flexibility Score: inf
ROOT
ATOM      1  C   UNL     1      -3.445 -19.633  -3.666  1.00  0.00     0.016 A 
ATOM      2  C   UNL     1      -3.624 -18.619  -4.622  1.00  0.00     0.013 A 
ATOM      3  C   UNL     1      -2.466 -20.612  -3.907  1.00  0.00     0.120 A 
ATOM      4  C   UNL     1      -2.841 -18.599  -5.777  1.00  0.00     0.021 A 
ATOM      5  N   UNL     1      -1.717 -20.569  -5.041  1.00  0.00    -0.264 NA
ATOM      6  C   UNL     1      -1.882 -19.593  -5.971  1.00  0.00     0.111 A 
ENDROOT
BRANCH   1   7
ATOM      7  C   UNL     1      -4.269 -19.665  -2.438  1.00  0.00     0.073 C 
ATOM      8  O   UNL     1      -4.621 -18.595  -1.875  1.00  0.00    -0.545 OA
ATOM      9  O   UNL     1      -4.667 -20.879  -1.889  1.00  0.00    -0.545 OA
ENDBRANCH   1   7
TORSDOF 1
ENDMDL
