MODEL 1
REMARK VINA RESULT:    -3.383      0.000      0.000
REMARK INTER + INTRA:          -5.132
REMARK INTER:                  -5.163
REMARK INTRA:                   0.031
REMARK UNBOUND:                 0.031
REMARK SMILES CC1=CCC[C@H](C)C(=O)C[C@@H](C(C)C)C(=O)C1
REMARK SMILES IDX 8 1 9 2 6 3 7 4 5 5 4 6 3 7 2 8 1 9 10 11 11 12 15 13 16 14
REMARK SMILES IDX 17 15 12 17 13 18 14 19
REMARK H PARENT
REMARK Flexibility Score: 70.00
ROOT
ATOM      1  C   UNL     1       5.172  20.642   3.638  1.00  0.00     0.136 C 
ATOM      2  O   UNL     1       5.779  19.645   3.274  1.00  0.00    -0.299 OA
ENDROOT
BRANCH   1   3
ATOM      3  C   UNL     1       4.346  21.425   2.636  1.00  0.00     0.053 C 
ATOM      4  C   UNL     1       5.001  21.382   1.247  1.00  0.00     0.016 C 
BRANCH   3   5
ATOM      5  C   UNL     1       2.903  20.873   2.584  1.00  0.00     0.015 C 
BRANCH   5   6
ATOM      6  C   UNL     1       1.848  21.982   2.775  1.00  0.00     0.028 C 
BRANCH   6   7
ATOM      7  C   UNL     1       2.495  23.333   2.941  1.00  0.00    -0.028 C 
ATOM      8  C   UNL     1       2.720  23.948   4.124  1.00  0.00    -0.070 CG0
ATOM      9  C   UNL     1       3.323  25.330   4.099  1.00  0.00     0.039 C 
ATOM     10  G   UNL     1       2.383  23.322   5.469  1.00  0.00     0.000 G0
ENDBRANCH   6   7
ENDBRANCH   5   6
ENDBRANCH   3   5
ENDBRANCH   1   3
BRANCH   1  11
ATOM     11  C   UNL     1       5.261  21.072   5.084  1.00  0.00     0.087 C 
BRANCH  11  12
ATOM     12  C   UNL     1       3.869  21.169   5.762  1.00  0.00     0.066 C 
BRANCH  12  13
ATOM     13  C   UNL     1       3.536  22.615   6.113  1.00  0.00     0.140 C 
ATOM     14  O   UNL     1       4.271  23.216   6.884  1.00  0.00    -0.299 OA
BRANCH  13  15
ATOM     15  C   UNL     1       2.372  23.345   5.484  1.00  0.00     0.106 CG0
ATOM     16  G   UNL     1       2.726  23.935   4.127  1.00  0.00     0.000 G0
ENDBRANCH  13  15
ENDBRANCH  12  13
BRANCH  12  17
ATOM     17  C   UNL     1       3.727  20.230   7.003  1.00  0.00    -0.006 C 
ATOM     18  C   UNL     1       3.759  18.740   6.617  1.00  0.00     0.008 C 
ATOM     19  C   UNL     1       2.419  20.515   7.764  1.00  0.00     0.008 C 
ENDBRANCH  12  17
ENDBRANCH  11  12
ENDBRANCH   1  11
TORSDOF 1
ENDMDL
MODEL 2
REMARK VINA RESULT:    -3.196      1.886      4.158
REMARK INTER + INTRA:          -4.847
REMARK INTER:                  -4.646
REMARK INTRA:                  -0.201
REMARK UNBOUND:                 0.031
REMARK SMILES CC1=CCC[C@H](C)C(=O)C[C@@H](C(C)C)C(=O)C1
REMARK SMILES IDX 8 1 9 2 6 3 7 4 5 5 4 6 3 7 2 8 1 9 10 11 11 12 15 13 16 14
REMARK SMILES IDX 17 15 12 17 13 18 14 19
REMARK H PARENT
REMARK Flexibility Score: 70.00
ROOT
ATOM      1  C   UNL     1       4.238  21.689   1.749  1.00  0.00     0.136 C 
ATOM      2  O   UNL     1       4.741  22.464   0.949  1.00  0.00    -0.299 OA
ENDROOT
BRANCH   1   3
ATOM      3  C   UNL     1       4.878  20.334   1.985  1.00  0.00     0.053 C 
ATOM      4  C   UNL     1       5.020  19.568   0.662  1.00  0.00     0.016 C 
BRANCH   3   5
ATOM      5  C   UNL     1       6.249  20.504   2.677  1.00  0.00     0.015 C 
BRANCH   5   6
ATOM      6  C   UNL     1       6.108  20.809   4.182  1.00  0.00     0.028 C 
BRANCH   6   7
ATOM      7  C   UNL     1       5.233  19.793   4.870  1.00  0.00    -0.028 C 
ATOM      8  C   UNL     1       4.216  20.084   5.713  1.00  0.00    -0.070 CG0
ATOM      9  C   UNL     1       3.484  18.936   6.360  1.00  0.00     0.039 C 
ATOM     10  G   UNL     1       3.788  21.505   6.047  1.00  0.00     0.000 G0
ENDBRANCH   6   7
ENDBRANCH   5   6
ENDBRANCH   3   5
ENDBRANCH   1   3
BRANCH   1  11
ATOM     11  C   UNL     1       2.985  22.101   2.486  1.00  0.00     0.087 C 
BRANCH  11  12
ATOM     12  C   UNL     1       3.294  22.862   3.802  1.00  0.00     0.066 C 
BRANCH  12  13
ATOM     13  C   UNL     1       2.817  22.067   5.013  1.00  0.00     0.140 C 
ATOM     14  O   UNL     1       1.624  21.819   5.120  1.00  0.00    -0.299 OA
BRANCH  13  15
ATOM     15  C   UNL     1       3.780  21.517   6.041  1.00  0.00     0.106 CG0
ATOM     16  G   UNL     1       4.207  20.092   5.726  1.00  0.00     0.000 G0
ENDBRANCH  13  15
ENDBRANCH  12  13
BRANCH  12  17
ATOM     17  C   UNL     1       2.728  24.319   3.814  1.00  0.00    -0.006 C 
ATOM     18  C   UNL     1       2.959  25.049   2.479  1.00  0.00     0.008 C 
ATOM     19  C   UNL     1       3.361  25.148   4.947  1.00  0.00     0.008 C 
ENDBRANCH  12  17
ENDBRANCH  11  12
ENDBRANCH   1  11
TORSDOF 1
ENDMDL
MODEL 3
REMARK VINA RESULT:    -3.135      1.723      3.790
REMARK INTER + INTRA:          -4.753
REMARK INTER:                  -4.837
REMARK INTRA:                   0.083
REMARK UNBOUND:                 0.031
REMARK SMILES CC1=CCC[C@H](C)C(=O)C[C@@H](C(C)C)C(=O)C1
REMARK SMILES IDX 8 1 9 2 6 3 7 4 5 5 4 6 3 7 2 8 1 9 10 11 11 12 15 13 16 14
REMARK SMILES IDX 17 15 12 17 13 18 14 19
REMARK H PARENT
REMARK Flexibility Score: 70.00
ROOT
ATOM      1  C   UNL     1       2.830  21.021   6.100  1.00  0.00     0.136 C 
ATOM      2  O   UNL     1       1.637  20.801   5.947  1.00  0.00    -0.299 OA
ENDROOT
BRANCH   1   3
ATOM      3  C   UNL     1       3.273  22.182   6.969  1.00  0.00     0.053 C 
ATOM      4  C   UNL     1       4.795  22.374   6.875  1.00  0.00     0.016 C 
BRANCH   3   5
ATOM      5  C   UNL     1       2.526  23.471   6.561  1.00  0.00     0.015 C 
BRANCH   5   6
ATOM      6  C   UNL     1       3.013  24.021   5.204  1.00  0.00     0.028 C 
BRANCH   6   7
ATOM      7  C   UNL     1       1.983  23.810   4.124  1.00  0.00    -0.028 C 
ATOM      8  C   UNL     1       2.210  23.191   2.943  1.00  0.00    -0.070 CG0
ATOM      9  C   UNL     1       1.076  23.122   1.952  1.00  0.00     0.039 C 
ATOM     10  G   UNL     1       3.549  22.576   2.565  1.00  0.00     0.000 G0
ENDBRANCH   6   7
ENDBRANCH   5   6
ENDBRANCH   3   5
ENDBRANCH   1   3
BRANCH   1  11
ATOM     11  C   UNL     1       3.837  20.126   5.416  1.00  0.00     0.087 C 
BRANCH  11  12
ATOM     12  C   UNL     1       4.626  20.863   4.301  1.00  0.00     0.066 C 
BRANCH  12  13
ATOM     13  C   UNL     1       3.726  21.162   3.107  1.00  0.00     0.140 C 
ATOM     14  O   UNL     1       3.070  20.250   2.623  1.00  0.00    -0.299 OA
BRANCH  13  15
ATOM     15  C   UNL     1       3.566  22.560   2.554  1.00  0.00     0.106 CG0
ATOM     16  G   UNL     1       2.232  23.183   2.937  1.00  0.00     0.000 G0
ENDBRANCH  13  15
ENDBRANCH  12  13
BRANCH  12  17
ATOM     17  C   UNL     1       5.922  20.106   3.867  1.00  0.00    -0.006 C 
ATOM     18  C   UNL     1       6.150  18.819   4.679  1.00  0.00     0.008 C 
ATOM     19  C   UNL     1       7.162  21.007   4.011  1.00  0.00     0.008 C 
ENDBRANCH  12  17
ENDBRANCH  11  12
ENDBRANCH   1  11
TORSDOF 1
ENDMDL
MODEL 4
REMARK VINA RESULT:    -3.104      1.563      4.010
REMARK INTER + INTRA:          -4.706
REMARK INTER:                  -4.646
REMARK INTRA:                  -0.060
REMARK UNBOUND:                 0.031
REMARK SMILES CC1=CCC[C@H](C)C(=O)C[C@@H](C(C)C)C(=O)C1
REMARK SMILES IDX 8 1 9 2 6 3 7 4 5 5 4 6 3 7 2 8 1 9 10 11 11 12 15 13 16 14
REMARK SMILES IDX 17 15 12 17 13 18 14 19
REMARK H PARENT
REMARK Flexibility Score: 70.00
ROOT
ATOM      1  C   UNL     1       3.679  20.416   5.169  1.00  0.00     0.136 C 
ATOM      2  O   UNL     1       4.873  20.649   5.292  1.00  0.00    -0.299 OA
ENDROOT
BRANCH   1   3
ATOM      3  C   UNL     1       2.979  19.533   6.183  1.00  0.00     0.053 C 
ATOM      4  C   UNL     1       3.820  18.282   6.478  1.00  0.00     0.016 C 
BRANCH   3   5
ATOM      5  C   UNL     1       2.695  20.327   7.478  1.00  0.00     0.015 C 
BRANCH   5   6
ATOM      6  C   UNL     1       1.582  21.377   7.285  1.00  0.00     0.028 C 
BRANCH   6   7
ATOM      7  C   UNL     1       2.116  22.778   7.431  1.00  0.00    -0.028 C 
ATOM      8  C   UNL     1       2.198  23.688   6.434  1.00  0.00    -0.070 CG0
ATOM      9  C   UNL     1       2.819  25.026   6.747  1.00  0.00     0.039 C 
ATOM     10  G   UNL     1       1.710  23.422   5.018  1.00  0.00     0.000 G0
ENDBRANCH   6   7
ENDBRANCH   5   6
ENDBRANCH   3   5
ENDBRANCH   1   3
BRANCH   1  11
ATOM     11  C   UNL     1       2.927  21.017   4.004  1.00  0.00     0.087 C 
BRANCH  11  12
ATOM     12  C   UNL     1       3.578  22.329   3.490  1.00  0.00     0.066 C 
BRANCH  12  13
ATOM     13  C   UNL     1       2.804  23.547   3.983  1.00  0.00     0.140 C 
ATOM     14  O   UNL     1       3.047  24.637   3.484  1.00  0.00    -0.299 OA
BRANCH  13  15
ATOM     15  C   UNL     1       1.702  23.436   5.011  1.00  0.00     0.106 CG0
ATOM     16  G   UNL     1       2.204  23.684   6.425  1.00  0.00     0.000 G0
ENDBRANCH  13  15
ENDBRANCH  12  13
BRANCH  12  17
ATOM     17  C   UNL     1       3.760  22.354   1.939  1.00  0.00    -0.006 C 
ATOM     18  C   UNL     1       2.425  22.194   1.188  1.00  0.00     0.008 C 
ATOM     19  C   UNL     1       4.722  21.244   1.478  1.00  0.00     0.008 C 
ENDBRANCH  12  17
ENDBRANCH  11  12
ENDBRANCH   1  11
TORSDOF 1
ENDMDL
MODEL 5
REMARK VINA RESULT:    -3.096      1.971      3.238
REMARK INTER + INTRA:          -4.694
REMARK INTER:                  -4.601
REMARK INTRA:                  -0.093
REMARK UNBOUND:                 0.031
REMARK SMILES CC1=CCC[C@H](C)C(=O)C[C@@H](C(C)C)C(=O)C1
REMARK SMILES IDX 8 1 9 2 6 3 7 4 5 5 4 6 3 7 2 8 1 9 10 11 11 12 15 13 16 14
REMARK SMILES IDX 17 15 12 17 13 18 14 19
REMARK H PARENT
REMARK Flexibility Score: 70.00
ROOT
ATOM      1  C   UNL     1       4.411  21.096   4.619  1.00  0.00     0.136 C 
ATOM      2  O   UNL     1       3.898  20.137   5.179  1.00  0.00    -0.299 OA
ENDROOT
BRANCH   1   3
ATOM      3  C   UNL     1       5.514  20.869   3.603  1.00  0.00     0.053 C 
ATOM      4  C   UNL     1       6.469  19.766   4.083  1.00  0.00     0.016 C 
BRANCH   3   5
ATOM      5  C   UNL     1       4.908  20.517   2.226  1.00  0.00     0.015 C 
BRANCH   5   6
ATOM      6  C   UNL     1       4.994  21.696   1.234  1.00  0.00     0.028 C 
BRANCH   6   7
ATOM      7  C   UNL     1       3.640  22.038   0.668  1.00  0.00    -0.028 C 
ATOM      8  C   UNL     1       2.774  22.927   1.206  1.00  0.00    -0.070 CG0
ATOM      9  C   UNL     1       1.433  23.100   0.538  1.00  0.00     0.039 C 
ATOM     10  G   UNL     1       3.081  23.744   2.451  1.00  0.00     0.000 G0
ENDBRANCH   6   7
ENDBRANCH   5   6
ENDBRANCH   3   5
ENDBRANCH   1   3
BRANCH   1  11
ATOM     11  C   UNL     1       3.931  22.489   4.956  1.00  0.00     0.087 C 
BRANCH  11  12
ATOM     12  C   UNL     1       2.397  22.646   4.783  1.00  0.00     0.066 C 
BRANCH  12  13
ATOM     13  C   UNL     1       2.075  23.521   3.576  1.00  0.00     0.140 C 
ATOM     14  O   UNL     1       0.996  24.097   3.540  1.00  0.00    -0.299 OA
BRANCH  13  15
ATOM     15  C   UNL     1       3.072  23.754   2.465  1.00  0.00     0.106 CG0
ATOM     16  G   UNL     1       2.767  22.917   1.231  1.00  0.00     0.000 G0
ENDBRANCH  13  15
ENDBRANCH  12  13
BRANCH  12  17
ATOM     17  C   UNL     1       1.687  23.165   6.074  1.00  0.00    -0.006 C 
ATOM     18  C   UNL     1       2.529  24.210   6.828  1.00  0.00     0.008 C 
ATOM     19  C   UNL     1       1.366  22.004   7.033  1.00  0.00     0.008 C 
ENDBRANCH  12  17
ENDBRANCH  11  12
ENDBRANCH   1  11
TORSDOF 1
ENDMDL
MODEL 6
REMARK VINA RESULT:    -3.080      2.135      4.025
REMARK INTER + INTRA:          -4.670
REMARK INTER:                  -4.616
REMARK INTRA:                  -0.054
REMARK UNBOUND:                 0.031
REMARK SMILES CC1=CCC[C@H](C)C(=O)C[C@@H](C(C)C)C(=O)C1
REMARK SMILES IDX 8 1 9 2 6 3 7 4 5 5 4 6 3 7 2 8 1 9 10 11 11 12 15 13 16 14
REMARK SMILES IDX 17 15 12 17 13 18 14 19
REMARK H PARENT
REMARK Flexibility Score: 70.00
ROOT
ATOM      1  C   UNL     1       3.100  24.752   2.825  1.00  0.00     0.136 C 
ATOM      2  O   UNL     1       3.729  25.785   3.007  1.00  0.00    -0.299 OA
ENDROOT
BRANCH   1   3
ATOM      3  C   UNL     1       2.889  24.243   1.412  1.00  0.00     0.053 C 
ATOM      4  C   UNL     1       2.708  25.416   0.438  1.00  0.00     0.016 C 
BRANCH   3   5
ATOM      5  C   UNL     1       4.073  23.347   0.984  1.00  0.00     0.015 C 
BRANCH   5   6
ATOM      6  C   UNL     1       3.768  21.847   1.178  1.00  0.00     0.028 C 
BRANCH   6   7
ATOM      7  C   UNL     1       4.852  21.162   1.969  1.00  0.00    -0.028 C 
ATOM      8  C   UNL     1       4.823  20.943   3.303  1.00  0.00    -0.070 CG0
ATOM      9  C   UNL     1       6.027  20.297   3.940  1.00  0.00     0.039 C 
ATOM     10  G   UNL     1       3.647  21.328   4.188  1.00  0.00     0.000 G0
ENDBRANCH   6   7
ENDBRANCH   5   6
ENDBRANCH   3   5
ENDBRANCH   1   3
BRANCH   1  11
ATOM     11  C   UNL     1       2.545  24.007   4.016  1.00  0.00     0.087 C 
BRANCH  11  12
ATOM     12  C   UNL     1       3.600  23.808   5.136  1.00  0.00     0.066 C 
BRANCH  12  13
ATOM     13  C   UNL     1       4.005  22.342   5.246  1.00  0.00     0.140 C 
ATOM     14  O   UNL     1       4.592  21.970   6.253  1.00  0.00    -0.299 OA
BRANCH  13  15
ATOM     15  C   UNL     1       3.639  21.328   4.187  1.00  0.00     0.106 CG0
ATOM     16  G   UNL     1       4.827  20.952   3.314  1.00  0.00     0.000 G0
ENDBRANCH  13  15
ENDBRANCH  12  13
BRANCH  12  17
ATOM     17  C   UNL     1       3.142  24.382   6.516  1.00  0.00    -0.006 C 
ATOM     18  C   UNL     1       1.746  23.881   6.925  1.00  0.00     0.008 C 
ATOM     19  C   UNL     1       3.128  25.922   6.496  1.00  0.00     0.008 C 
ENDBRANCH  12  17
ENDBRANCH  11  12
ENDBRANCH   1  11
TORSDOF 1
ENDMDL
MODEL 7
REMARK VINA RESULT:    -3.072      2.139      4.197
REMARK INTER + INTRA:          -4.657
REMARK INTER:                  -4.470
REMARK INTRA:                  -0.187
REMARK UNBOUND:                 0.031
REMARK SMILES CC1=CCC[C@H](C)C(=O)C[C@@H](C(C)C)C(=O)C1
REMARK SMILES IDX 8 1 9 2 6 3 7 4 5 5 4 6 3 7 2 8 1 9 10 11 11 12 15 13 16 14
REMARK SMILES IDX 17 15 12 17 13 18 14 19
REMARK H PARENT
REMARK Flexibility Score: 70.00
ROOT
ATOM      1  C   UNL     1       3.203  24.881   4.025  1.00  0.00     0.136 C 
ATOM      2  O   UNL     1       4.069  25.546   4.576  1.00  0.00    -0.299 OA
ENDROOT
BRANCH   1   3
ATOM      3  C   UNL     1       2.638  25.340   2.695  1.00  0.00     0.053 C 
ATOM      4  C   UNL     1       2.066  26.761   2.815  1.00  0.00     0.016 C 
BRANCH   3   5
ATOM      5  C   UNL     1       3.725  25.272   1.600  1.00  0.00     0.015 C 
BRANCH   5   6
ATOM      6  C   UNL     1       3.378  24.249   0.498  1.00  0.00     0.028 C 
BRANCH   6   7
ATOM      7  C   UNL     1       4.267  23.035   0.575  1.00  0.00    -0.028 C 
ATOM      8  C   UNL     1       3.964  21.888   1.224  1.00  0.00    -0.070 CG0
ATOM      9  C   UNL     1       5.001  20.794   1.249  1.00  0.00     0.039 C 
ATOM     10  G   UNL     1       2.641  21.656   1.938  1.00  0.00     0.000 G0
ENDBRANCH   6   7
ENDBRANCH   5   6
ENDBRANCH   3   5
ENDBRANCH   1   3
BRANCH   1  11
ATOM     11  C   UNL     1       2.715  23.613   4.686  1.00  0.00     0.087 C 
BRANCH  11  12
ATOM     12  C   UNL     1       3.588  22.382   4.326  1.00  0.00     0.066 C 
BRANCH  12  13
ATOM     13  C   UNL     1       2.818  21.412   3.437  1.00  0.00     0.140 C 
ATOM     14  O   UNL     1       2.280  20.442   3.955  1.00  0.00    -0.299 OA
BRANCH  13  15
ATOM     15  C   UNL     1       2.639  21.651   1.956  1.00  0.00     0.106 CG0
ATOM     16  G   UNL     1       3.964  21.875   1.243  1.00  0.00     0.000 G0
ENDBRANCH  13  15
ENDBRANCH  12  13
BRANCH  12  17
ATOM     17  C   UNL     1       4.180  21.663   5.581  1.00  0.00    -0.006 C 
ATOM     18  C   UNL     1       4.412  22.631   6.756  1.00  0.00     0.008 C 
ATOM     19  C   UNL     1       5.512  20.969   5.243  1.00  0.00     0.008 C 
ENDBRANCH  12  17
ENDBRANCH  11  12
ENDBRANCH   1  11
TORSDOF 1
ENDMDL
MODEL 8
REMARK VINA RESULT:    -2.955      1.524      3.672
REMARK INTER + INTRA:          -4.479
REMARK INTER:                  -4.685
REMARK INTRA:                   0.206
REMARK UNBOUND:                 0.031
REMARK SMILES CC1=CCC[C@H](C)C(=O)C[C@@H](C(C)C)C(=O)C1
REMARK SMILES IDX 8 1 9 2 6 3 7 4 5 5 4 6 3 7 2 8 1 9 10 11 11 12 15 13 16 14
REMARK SMILES IDX 17 15 12 17 13 18 14 19
REMARK H PARENT
REMARK Flexibility Score: 70.00
ROOT
ATOM      1  C   UNL     1       3.416  23.601   6.155  1.00  0.00     0.136 C 
ATOM      2  O   UNL     1       4.333  23.571   6.964  1.00  0.00    -0.299 OA
ENDROOT
BRANCH   1   3
ATOM      3  C   UNL     1       2.964  24.931   5.583  1.00  0.00     0.053 C 
ATOM      4  C   UNL     1       3.361  26.082   6.519  1.00  0.00     0.016 C 
BRANCH   3   5
ATOM      5  C   UNL     1       3.557  25.136   4.172  1.00  0.00     0.015 C 
BRANCH   5   6
ATOM      6  C   UNL     1       2.603  24.647   3.062  1.00  0.00     0.028 C 
BRANCH   6   7
ATOM      7  C   UNL     1       3.356  23.958   1.954  1.00  0.00    -0.028 C 
ATOM      8  C   UNL     1       3.571  22.625   1.869  1.00  0.00    -0.070 CG0
ATOM      9  C   UNL     1       4.401  22.114   0.719  1.00  0.00     0.039 C 
ATOM     10  G   UNL     1       3.030  21.626   2.880  1.00  0.00     0.000 G0
ENDBRANCH   6   7
ENDBRANCH   5   6
ENDBRANCH   3   5
ENDBRANCH   1   3
BRANCH   1  11
ATOM     11  C   UNL     1       2.753  22.307   5.744  1.00  0.00     0.087 C 
BRANCH  11  12
ATOM     12  C   UNL     1       3.781  21.201   5.386  1.00  0.00     0.066 C 
BRANCH  12  13
ATOM     13  C   UNL     1       4.055  21.179   3.887  1.00  0.00     0.140 C 
ATOM     14  O   UNL     1       5.125  20.737   3.492  1.00  0.00    -0.299 OA
BRANCH  13  15
ATOM     15  C   UNL     1       3.020  21.617   2.876  1.00  0.00     0.106 CG0
ATOM     16  G   UNL     1       3.577  22.620   1.877  1.00  0.00     0.000 G0
ENDBRANCH  13  15
ENDBRANCH  12  13
BRANCH  12  17
ATOM     17  C   UNL     1       3.369  19.790   5.915  1.00  0.00    -0.006 C 
ATOM     18  C   UNL     1       1.964  19.374   5.444  1.00  0.00     0.008 C 
ATOM     19  C   UNL     1       3.408  19.743   7.454  1.00  0.00     0.008 C 
ENDBRANCH  12  17
ENDBRANCH  11  12
ENDBRANCH   1  11
TORSDOF 1
ENDMDL
MODEL 9
REMARK VINA RESULT:    -2.913      2.189      4.583
REMARK INTER + INTRA:          -4.415
REMARK INTER:                  -4.361
REMARK INTRA:                  -0.054
REMARK UNBOUND:                 0.031
REMARK SMILES CC1=CCC[C@H](C)C(=O)C[C@@H](C(C)C)C(=O)C1
REMARK SMILES IDX 8 1 9 2 6 3 7 4 5 5 4 6 3 7 2 8 1 9 10 11 11 12 15 13 16 14
REMARK SMILES IDX 17 15 12 17 13 18 14 19
REMARK H PARENT
REMARK Flexibility Score: 70.00
ROOT
ATOM      1  C   UNL     1       4.605  20.986   3.101  1.00  0.00     0.136 C 
ATOM      2  O   UNL     1       5.378  21.573   2.357  1.00  0.00    -0.299 OA
ENDROOT
BRANCH   1   3
ATOM      3  C   UNL     1       5.078  20.537   4.470  1.00  0.00     0.053 C 
ATOM      4  C   UNL     1       6.507  19.980   4.390  1.00  0.00     0.016 C 
BRANCH   3   5
ATOM      5  C   UNL     1       4.996  21.708   5.476  1.00  0.00     0.015 C 
BRANCH   5   6
ATOM      6  C   UNL     1       4.072  21.387   6.669  1.00  0.00     0.028 C 
BRANCH   6   7
ATOM      7  C   UNL     1       3.776  19.912   6.754  1.00  0.00    -0.028 C 
ATOM      8  C   UNL     1       2.597  19.334   6.428  1.00  0.00    -0.070 CG0
ATOM      9  C   UNL     1       2.458  17.847   6.634  1.00  0.00     0.039 C 
ATOM     10  G   UNL     1       1.409  20.110   5.880  1.00  0.00     0.000 G0
ENDBRANCH   6   7
ENDBRANCH   5   6
ENDBRANCH   3   5
ENDBRANCH   1   3
BRANCH   1  11
ATOM     11  C   UNL     1       3.191  20.723   2.637  1.00  0.00     0.087 C 
BRANCH  11  12
ATOM     12  C   UNL     1       2.129  21.305   3.606  1.00  0.00     0.066 C 
BRANCH  12  13
ATOM     13  C   UNL     1       1.412  20.190   4.358  1.00  0.00     0.140 C 
ATOM     14  O   UNL     1       0.879  19.296   3.715  1.00  0.00    -0.299 OA
BRANCH  13  15
ATOM     15  C   UNL     1       1.402  20.117   5.868  1.00  0.00     0.106 CG0
ATOM     16  G   UNL     1       2.585  19.332   6.415  1.00  0.00     0.000 G0
ENDBRANCH  13  15
ENDBRANCH  12  13
BRANCH  12  17
ATOM     17  C   UNL     1       1.117  22.264   2.900  1.00  0.00    -0.006 C 
ATOM     18  C   UNL     1       1.135  22.110   1.368  1.00  0.00     0.008 C 
ATOM     19  C   UNL     1       1.411  23.734   3.252  1.00  0.00     0.008 C 
ENDBRANCH  12  17
ENDBRANCH  11  12
ENDBRANCH   1  11
TORSDOF 1
ENDMDL
