MODEL 1
REMARK VINA RESULT:    48.701      0.000      0.000
REMARK INTER + INTRA:          57.516
REMARK INTER:                  57.243
REMARK INTRA:                   0.273
REMARK UNBOUND:                 0.273
REMARK SMILES O=c1c(O)c(-c2ccc(O)cc2)oc2cc(O)cc(O)c12
REMARK SMILES IDX 5 1 3 2 2 3 1 4 21 5 19 6 18 7 16 8 15 9 14 10 13 11 6 12
REMARK SMILES IDX 7 13 8 14 9 15 12 16 11 17 10 18 4 20 20 22 17 24
REMARK H PARENT 10 19 4 21 20 23 17 25
REMARK Flexibility Score: inf
ROOT
ATOM      1  C   UNL     1      18.072  21.757  11.630  1.00  0.00     0.180 A 
ATOM      2  C   UNL     1      17.812  21.534  10.265  1.00  0.00     0.208 A 
ATOM      3  C   UNL     1      18.864  21.115   9.434  1.00  0.00     0.238 A 
ATOM      4  O   UNL     1      18.646  20.922   8.206  1.00  0.00    -0.285 OA
ATOM      5  C   UNL     1      20.146  20.908   9.983  1.00  0.00     0.111 A 
ATOM      6  C   UNL     1      21.258  20.482   9.217  1.00  0.00     0.134 A 
ATOM      7  C   UNL     1      22.499  20.289   9.839  1.00  0.00     0.093 A 
ATOM      8  C   UNL     1      22.652  20.512  11.209  1.00  0.00     0.123 A 
ATOM      9  C   UNL     1      21.557  20.932  11.973  1.00  0.00     0.094 A 
ATOM     10  C   UNL     1      20.311  21.131  11.370  1.00  0.00     0.146 A 
ATOM     11  O   UNL     1      19.290  21.536  12.116  1.00  0.00    -0.452 OA
ENDROOT
BRANCH   1  12
ATOM     12  C   UNL     1      17.021  22.217  12.566  1.00  0.00     0.021 A 
ATOM     13  C   UNL     1      15.676  21.835  12.403  1.00  0.00     0.016 A 
ATOM     14  C   UNL     1      14.697  22.303  13.286  1.00  0.00     0.047 A 
ATOM     15  C   UNL     1      15.045  23.163  14.331  1.00  0.00     0.115 A 
ATOM     16  C   UNL     1      17.359  23.098  13.607  1.00  0.00     0.016 A 
ATOM     17  C   UNL     1      16.379  23.562  14.489  1.00  0.00     0.047 A 
BRANCH  15  18
ATOM     18  O   UNL     1      14.060  23.618  15.204  1.00  0.00    -0.508 OA
ATOM     19  H   UNL     1      14.295  24.107  16.061  1.00  0.00     0.293 HD
ENDBRANCH  15  18
ENDBRANCH   1  12
BRANCH   2  20
ATOM     20  O   UNL     1      16.523  21.698   9.755  1.00  0.00    -0.502 OA
ATOM     21  H   UNL     1      15.942  22.493   9.992  1.00  0.00     0.293 HD
ENDBRANCH   2  20
BRANCH   6  22
ATOM     22  O   UNL     1      21.138  20.251   7.845  1.00  0.00    -0.507 OA
ATOM     23  H   UNL     1      20.760  19.383   7.481  1.00  0.00     0.293 HD
ENDBRANCH   6  22
BRANCH   8  24
ATOM     24  O   UNL     1      23.896  20.312  11.804  1.00  0.00    -0.508 OA
ATOM     25  H   UNL     1      24.748  20.290  11.256  1.00  0.00     0.293 HD
ENDBRANCH   8  24
TORSDOF 5
ENDMDL
