MODEL 1
REMARK VINA RESULT:    -5.595      0.000      0.000
REMARK INTER + INTRA:          -5.922
REMARK INTER:                  -5.922
REMARK INTRA:                   0.000
REMARK UNBOUND:                 0.000
REMARK SMILES O=c1ccc2cc(O)c(O)cc2o1
REMARK SMILES IDX 4 1 3 2 2 3 1 4 13 5 12 6 11 7 9 8 7 9 6 10 5 11 8 12 10 14
REMARK H PARENT 8 13 10 15
REMARK Flexibility Score: inf
ROOT
ATOM      1  C   UNL     1      -8.628 -23.374 -18.040  1.00  0.00     0.019 A 
ATOM      2  C   UNL     1      -7.780 -22.592 -17.258  1.00  0.00     0.094 A 
ATOM      3  C   UNL     1      -6.418 -22.544 -17.575  1.00  0.00     0.336 A 
ATOM      4  O   UNL     1      -5.636 -21.845 -16.881  1.00  0.00    -0.246 OA
ATOM      5  O   UNL     1      -5.942 -23.236 -18.608  1.00  0.00    -0.423 OA
ATOM      6  C   UNL     1      -6.718 -23.994 -19.380  1.00  0.00     0.142 A 
ATOM      7  C   UNL     1      -6.161 -24.698 -20.452  1.00  0.00     0.098 A 
ATOM      8  C   UNL     1      -6.974 -25.498 -21.269  1.00  0.00     0.161 A 
ATOM      9  C   UNL     1      -8.348 -25.595 -21.012  1.00  0.00     0.158 A 
ATOM     10  C   UNL     1      -8.912 -24.891 -19.937  1.00  0.00     0.062 A 
ATOM     11  C   UNL     1      -8.102 -24.090 -19.121  1.00  0.00     0.022 A 
ENDROOT
BRANCH   9  12
ATOM     12  O   UNL     1      -9.149 -26.393 -21.828  1.00  0.00    -0.504 OA
ATOM     13  H   UNL     1      -9.806 -27.058 -21.439  1.00  0.00     0.293 HD
ENDBRANCH   9  12
BRANCH   8  14
ATOM     14  O   UNL     1      -6.421 -26.202 -22.339  1.00  0.00    -0.504 OA
ATOM     15  H   UNL     1      -6.538 -25.888 -23.295  1.00  0.00     0.293 HD
ENDBRANCH   8  14
TORSDOF 2
ENDMDL
MODEL 2
REMARK VINA RESULT:    -5.517      1.774      4.712
REMARK INTER + INTRA:          -5.839
REMARK INTER:                  -5.839
REMARK INTRA:                   0.000
REMARK UNBOUND:                 0.000
REMARK SMILES O=c1ccc2cc(O)c(O)cc2o1
REMARK SMILES IDX 4 1 3 2 2 3 1 4 13 5 12 6 11 7 9 8 7 9 6 10 5 11 8 12 10 14
REMARK H PARENT 8 13 10 15
REMARK Flexibility Score: inf
ROOT
ATOM      1  C   UNL     1      -8.664 -24.037 -19.571  1.00  0.00     0.019 A 
ATOM      2  C   UNL     1      -8.297 -24.094 -20.915  1.00  0.00     0.094 A 
ATOM      3  C   UNL     1      -7.105 -23.485 -21.318  1.00  0.00     0.336 A 
ATOM      4  O   UNL     1      -6.756 -23.525 -22.527  1.00  0.00    -0.246 OA
ATOM      5  O   UNL     1      -6.333 -22.862 -20.431  1.00  0.00    -0.423 OA
ATOM      6  C   UNL     1      -6.646 -22.784 -19.140  1.00  0.00     0.142 A 
ATOM      7  C   UNL     1      -5.795 -22.115 -18.254  1.00  0.00     0.098 A 
ATOM      8  C   UNL     1      -6.121 -22.030 -16.892  1.00  0.00     0.161 A 
ATOM      9  C   UNL     1      -7.301 -22.617 -16.414  1.00  0.00     0.158 A 
ATOM     10  C   UNL     1      -8.158 -23.290 -17.299  1.00  0.00     0.062 A 
ATOM     11  C   UNL     1      -7.834 -23.375 -18.660  1.00  0.00     0.022 A 
ENDROOT
BRANCH   9  12
ATOM     12  O   UNL     1      -7.617 -22.529 -15.059  1.00  0.00    -0.504 OA
ATOM     13  H   UNL     1      -6.960 -22.156 -14.385  1.00  0.00     0.293 HD
ENDBRANCH   9  12
BRANCH   8  14
ATOM     14  O   UNL     1      -5.275 -21.363 -16.006  1.00  0.00    -0.504 OA
ATOM     15  H   UNL     1      -4.643 -20.637 -16.323  1.00  0.00     0.293 HD
ENDBRANCH   8  14
TORSDOF 2
ENDMDL
MODEL 3
REMARK VINA RESULT:    -5.169      1.643      5.160
REMARK INTER + INTRA:          -5.471
REMARK INTER:                  -5.471
REMARK INTRA:                   0.000
REMARK UNBOUND:                 0.000
REMARK SMILES O=c1ccc2cc(O)c(O)cc2o1
REMARK SMILES IDX 4 1 3 2 2 3 1 4 13 5 12 6 11 7 9 8 7 9 6 10 5 11 8 12 10 14
REMARK H PARENT 8 13 10 15
REMARK Flexibility Score: inf
ROOT
ATOM      1  C   UNL     1      -6.606 -23.256 -20.636  1.00  0.00     0.019 A 
ATOM      2  C   UNL     1      -7.576 -24.079 -21.206  1.00  0.00     0.094 A 
ATOM      3  C   UNL     1      -8.596 -24.586 -20.395  1.00  0.00     0.336 A 
ATOM      4  O   UNL     1      -9.481 -25.331 -20.890  1.00  0.00    -0.246 OA
ATOM      5  O   UNL     1      -8.638 -24.287 -19.099  1.00  0.00    -0.423 OA
ATOM      6  C   UNL     1      -7.732 -23.506 -18.515  1.00  0.00     0.142 A 
ATOM      7  C   UNL     1      -7.828 -23.226 -17.148  1.00  0.00     0.098 A 
ATOM      8  C   UNL     1      -6.876 -22.403 -16.528  1.00  0.00     0.161 A 
ATOM      9  C   UNL     1      -5.824 -21.857 -17.279  1.00  0.00     0.158 A 
ATOM     10  C   UNL     1      -5.724 -22.135 -18.650  1.00  0.00     0.062 A 
ATOM     11  C   UNL     1      -6.674 -22.957 -19.271  1.00  0.00     0.022 A 
ENDROOT
BRANCH   9  12
ATOM     12  O   UNL     1      -4.882 -21.041 -16.655  1.00  0.00    -0.504 OA
ATOM     13  H   UNL     1      -4.916 -20.032 -16.740  1.00  0.00     0.293 HD
ENDBRANCH   9  12
BRANCH   8  14
ATOM     14  O   UNL     1      -6.968 -22.122 -15.166  1.00  0.00    -0.504 OA
ATOM     15  H   UNL     1      -6.510 -22.704 -14.473  1.00  0.00     0.293 HD
ENDBRANCH   8  14
TORSDOF 2
ENDMDL
MODEL 4
REMARK VINA RESULT:    -5.136      2.638      4.921
REMARK INTER + INTRA:          -5.436
REMARK INTER:                  -5.436
REMARK INTRA:                   0.000
REMARK UNBOUND:                 0.000
REMARK SMILES O=c1ccc2cc(O)c(O)cc2o1
REMARK SMILES IDX 4 1 3 2 2 3 1 4 13 5 12 6 11 7 9 8 7 9 6 10 5 11 8 12 10 14
REMARK H PARENT 8 13 10 15
REMARK Flexibility Score: inf
ROOT
ATOM      1  C   UNL     1      -5.800 -21.371 -19.290  1.00  0.00     0.019 A 
ATOM      2  C   UNL     1      -6.286 -21.422 -20.596  1.00  0.00     0.094 A 
ATOM      3  C   UNL     1      -7.376 -22.250 -20.881  1.00  0.00     0.336 A 
ATOM      4  O   UNL     1      -7.829 -22.311 -22.054  1.00  0.00    -0.246 OA
ATOM      5  O   UNL     1      -7.940 -22.977 -19.919  1.00  0.00    -0.423 OA
ATOM      6  C   UNL     1      -7.508 -22.957 -18.660  1.00  0.00     0.142 A 
ATOM      7  C   UNL     1      -8.141 -23.743 -17.692  1.00  0.00     0.098 A 
ATOM      8  C   UNL     1      -7.689 -23.725 -16.364  1.00  0.00     0.161 A 
ATOM      9  C   UNL     1      -6.601 -22.919 -16.003  1.00  0.00     0.158 A 
ATOM     10  C   UNL     1      -5.962 -22.129 -16.971  1.00  0.00     0.062 A 
ATOM     11  C   UNL     1      -6.412 -22.145 -18.298  1.00  0.00     0.022 A 
ENDROOT
BRANCH   9  12
ATOM     12  O   UNL     1      -6.158 -22.907 -14.681  1.00  0.00    -0.504 OA
ATOM     13  H   UNL     1      -5.703 -22.096 -14.282  1.00  0.00     0.293 HD
ENDBRANCH   9  12
BRANCH   8  14
ATOM     14  O   UNL     1      -8.318 -24.508 -15.396  1.00  0.00    -0.504 OA
ATOM     15  H   UNL     1      -9.328 -24.552 -15.324  1.00  0.00     0.293 HD
ENDBRANCH   8  14
TORSDOF 2
ENDMDL
MODEL 5
REMARK VINA RESULT:    -5.094      1.633      2.470
REMARK INTER + INTRA:          -5.392
REMARK INTER:                  -5.392
REMARK INTRA:                   0.000
REMARK UNBOUND:                 0.000
REMARK SMILES O=c1ccc2cc(O)c(O)cc2o1
REMARK SMILES IDX 4 1 3 2 2 3 1 4 13 5 12 6 11 7 9 8 7 9 6 10 5 11 8 12 10 14
REMARK H PARENT 8 13 10 15
REMARK Flexibility Score: inf
ROOT
ATOM      1  C   UNL     1      -6.024 -21.776 -18.365  1.00  0.00     0.019 A 
ATOM      2  C   UNL     1      -6.261 -21.704 -16.993  1.00  0.00     0.094 A 
ATOM      3  C   UNL     1      -7.254 -22.514 -16.433  1.00  0.00     0.336 A 
ATOM      4  O   UNL     1      -7.483 -22.462 -15.197  1.00  0.00    -0.246 OA
ATOM      5  O   UNL     1      -7.961 -23.340 -17.200  1.00  0.00    -0.423 OA
ATOM      6  C   UNL     1      -7.767 -23.441 -18.513  1.00  0.00     0.142 A 
ATOM      7  C   UNL     1      -8.540 -24.328 -19.268  1.00  0.00     0.098 A 
ATOM      8  C   UNL     1      -8.339 -24.437 -20.652  1.00  0.00     0.161 A 
ATOM      9  C   UNL     1      -7.361 -23.656 -21.283  1.00  0.00     0.158 A 
ATOM     10  C   UNL     1      -6.582 -22.765 -20.531  1.00  0.00     0.062 A 
ATOM     11  C   UNL     1      -6.781 -22.655 -19.148  1.00  0.00     0.022 A 
ENDROOT
BRANCH   9  12
ATOM     12  O   UNL     1      -7.168 -23.771 -22.659  1.00  0.00    -0.504 OA
ATOM     13  H   UNL     1      -6.853 -22.987 -23.218  1.00  0.00     0.293 HD
ENDBRANCH   9  12
BRANCH   8  14
ATOM     14  O   UNL     1      -9.110 -25.320 -21.408  1.00  0.00    -0.504 OA
ATOM     15  H   UNL     1      -8.964 -26.322 -21.363  1.00  0.00     0.293 HD
ENDBRANCH   8  14
TORSDOF 2
ENDMDL
MODEL 6
REMARK VINA RESULT:    -4.981      3.625      4.390
REMARK INTER + INTRA:          -5.273
REMARK INTER:                  -5.273
REMARK INTRA:                   0.000
REMARK UNBOUND:                 0.000
REMARK SMILES O=c1ccc2cc(O)c(O)cc2o1
REMARK SMILES IDX 4 1 3 2 2 3 1 4 13 5 12 6 11 7 9 8 7 9 6 10 5 11 8 12 10 14
REMARK H PARENT 8 13 10 15
REMARK Flexibility Score: inf
ROOT
ATOM      1  C   UNL     1      -5.981 -23.587 -20.729  1.00  0.00     0.019 A 
ATOM      2  C   UNL     1      -6.783 -23.763 -19.601  1.00  0.00     0.094 A 
ATOM      3  C   UNL     1      -8.113 -23.335 -19.642  1.00  0.00     0.336 A 
ATOM      4  O   UNL     1      -8.853 -23.483 -18.635  1.00  0.00    -0.246 OA
ATOM      5  O   UNL     1      -8.606 -22.769 -20.742  1.00  0.00    -0.423 OA
ATOM      6  C   UNL     1      -7.875 -22.583 -21.839  1.00  0.00     0.142 A 
ATOM      7  C   UNL     1      -8.447 -21.983 -22.965  1.00  0.00     0.098 A 
ATOM      8  C   UNL     1      -7.682 -21.785 -24.124  1.00  0.00     0.161 A 
ATOM      9  C   UNL     1      -6.340 -22.189 -24.157  1.00  0.00     0.158 A 
ATOM     10  C   UNL     1      -5.761 -22.792 -23.030  1.00  0.00     0.062 A 
ATOM     11  C   UNL     1      -6.525 -22.991 -21.871  1.00  0.00     0.022 A 
ENDROOT
BRANCH   9  12
ATOM     12  O   UNL     1      -5.586 -21.989 -25.313  1.00  0.00    -0.504 OA
ATOM     13  H   UNL     1      -5.372 -22.750 -25.945  1.00  0.00     0.293 HD
ENDBRANCH   9  12
BRANCH   8  14
ATOM     14  O   UNL     1      -8.249 -21.186 -25.249  1.00  0.00    -0.504 OA
ATOM     15  H   UNL     1      -7.917 -21.394 -26.184  1.00  0.00     0.293 HD
ENDBRANCH   8  14
TORSDOF 2
ENDMDL
MODEL 7
REMARK VINA RESULT:    -4.931      3.458      5.020
REMARK INTER + INTRA:          -5.219
REMARK INTER:                  -5.219
REMARK INTRA:                   0.000
REMARK UNBOUND:                 0.000
REMARK SMILES O=c1ccc2cc(O)c(O)cc2o1
REMARK SMILES IDX 4 1 3 2 2 3 1 4 13 5 12 6 11 7 9 8 7 9 6 10 5 11 8 12 10 14
REMARK H PARENT 8 13 10 15
REMARK Flexibility Score: inf
ROOT
ATOM      1  C   UNL     1      -6.119 -22.850 -23.537  1.00  0.00     0.019 A 
ATOM      2  C   UNL     1      -6.816 -22.004 -24.399  1.00  0.00     0.094 A 
ATOM      3  C   UNL     1      -8.067 -21.519 -24.007  1.00  0.00     0.336 A 
ATOM      4  O   UNL     1      -8.712 -20.755 -24.771  1.00  0.00    -0.246 OA
ATOM      5  O   UNL     1      -8.584 -21.861 -22.829  1.00  0.00    -0.423 OA
ATOM      6  C   UNL     1      -7.953 -22.665 -21.977  1.00  0.00     0.142 A 
ATOM      7  C   UNL     1      -8.545 -22.989 -20.752  1.00  0.00     0.098 A 
ATOM      8  C   UNL     1      -7.883 -23.837 -19.851  1.00  0.00     0.161 A 
ATOM      9  C   UNL     1      -6.625 -24.362 -20.175  1.00  0.00     0.158 A 
ATOM     10  C   UNL     1      -6.026 -24.040 -21.403  1.00  0.00     0.062 A 
ATOM     11  C   UNL     1      -6.685 -23.193 -22.304  1.00  0.00     0.022 A 
ENDROOT
BRANCH   9  12
ATOM     12  O   UNL     1      -5.974 -25.203 -19.274  1.00  0.00    -0.504 OA
ATOM     13  H   UNL     1      -5.359 -25.944 -19.589  1.00  0.00     0.293 HD
ENDBRANCH   9  12
BRANCH   8  14
ATOM     14  O   UNL     1      -8.472 -24.163 -18.629  1.00  0.00    -0.504 OA
ATOM     15  H   UNL     1      -7.974 -24.047 -17.754  1.00  0.00     0.293 HD
ENDBRANCH   8  14
TORSDOF 2
ENDMDL
MODEL 8
REMARK VINA RESULT:    -4.844      2.153      2.452
REMARK INTER + INTRA:          -5.127
REMARK INTER:                  -5.127
REMARK INTRA:                   0.000
REMARK UNBOUND:                 0.000
REMARK SMILES O=c1ccc2cc(O)c(O)cc2o1
REMARK SMILES IDX 4 1 3 2 2 3 1 4 13 5 12 6 11 7 9 8 7 9 6 10 5 11 8 12 10 14
REMARK H PARENT 8 13 10 15
REMARK Flexibility Score: inf
ROOT
ATOM      1  C   UNL     1      -8.625 -23.635 -18.301  1.00  0.00     0.019 A 
ATOM      2  C   UNL     1      -8.231 -23.426 -16.980  1.00  0.00     0.094 A 
ATOM      3  C   UNL     1      -7.031 -22.752 -16.730  1.00  0.00     0.336 A 
ATOM      4  O   UNL     1      -6.657 -22.554 -15.544  1.00  0.00    -0.246 OA
ATOM      5  O   UNL     1      -6.278 -22.319 -17.738  1.00  0.00    -0.423 OA
ATOM      6  C   UNL     1      -6.617 -22.498 -19.013  1.00  0.00     0.142 A 
ATOM      7  C   UNL     1      -5.786 -22.019 -20.031  1.00  0.00     0.098 A 
ATOM      8  C   UNL     1      -6.140 -22.205 -21.375  1.00  0.00     0.161 A 
ATOM      9  C   UNL     1      -7.329 -22.871 -21.703  1.00  0.00     0.158 A 
ATOM     10  C   UNL     1      -8.166 -23.353 -20.686  1.00  0.00     0.062 A 
ATOM     11  C   UNL     1      -7.815 -23.168 -19.342  1.00  0.00     0.022 A 
ENDROOT
BRANCH   9  12
ATOM     12  O   UNL     1      -7.672 -23.052 -23.042  1.00  0.00    -0.504 OA
ATOM     13  H   UNL     1      -8.390 -23.711 -23.322  1.00  0.00     0.293 HD
ENDBRANCH   9  12
BRANCH   8  14
ATOM     14  O   UNL     1      -5.312 -21.731 -22.393  1.00  0.00    -0.504 OA
ATOM     15  H   UNL     1      -5.012 -22.329 -23.154  1.00  0.00     0.293 HD
ENDBRANCH   8  14
TORSDOF 2
ENDMDL
MODEL 9
REMARK VINA RESULT:    -4.824      3.520      3.848
REMARK INTER + INTRA:          -5.106
REMARK INTER:                  -5.106
REMARK INTRA:                   0.000
REMARK UNBOUND:                 0.000
REMARK SMILES O=c1ccc2cc(O)c(O)cc2o1
REMARK SMILES IDX 4 1 3 2 2 3 1 4 13 5 12 6 11 7 9 8 7 9 6 10 5 11 8 12 10 14
REMARK H PARENT 8 13 10 15
REMARK Flexibility Score: inf
ROOT
ATOM      1  C   UNL     1      -8.692 -22.714 -20.704  1.00  0.00     0.019 A 
ATOM      2  C   UNL     1      -8.112 -23.350 -19.607  1.00  0.00     0.094 A 
ATOM      3  C   UNL     1      -6.795 -23.810 -19.708  1.00  0.00     0.336 A 
ATOM      4  O   UNL     1      -6.254 -24.387 -18.729  1.00  0.00    -0.246 OA
ATOM      5  O   UNL     1      -6.108 -23.641 -20.835  1.00  0.00    -0.423 OA
ATOM      6  C   UNL     1      -6.623 -23.040 -21.905  1.00  0.00     0.142 A 
ATOM      7  C   UNL     1      -5.852 -22.892 -23.063  1.00  0.00     0.098 A 
ATOM      8  C   UNL     1      -6.391 -22.259 -24.192  1.00  0.00     0.161 A 
ATOM      9  C   UNL     1      -7.706 -21.772 -24.165  1.00  0.00     0.158 A 
ATOM     10  C   UNL     1      -8.483 -21.918 -23.006  1.00  0.00     0.062 A 
ATOM     11  C   UNL     1      -7.946 -22.550 -21.876  1.00  0.00     0.022 A 
ENDROOT
BRANCH   9  12
ATOM     12  O   UNL     1      -8.234 -21.144 -25.292  1.00  0.00    -0.504 OA
ATOM     13  H   UNL     1      -7.652 -20.598 -25.916  1.00  0.00     0.293 HD
ENDBRANCH   9  12
BRANCH   8  14
ATOM     14  O   UNL     1      -5.626 -22.110 -25.348  1.00  0.00    -0.504 OA
ATOM     15  H   UNL     1      -6.006 -22.313 -26.265  1.00  0.00     0.293 HD
ENDBRANCH   8  14
TORSDOF 2
ENDMDL
