MODEL 1
REMARK VINA RESULT:    -1.954      0.000      0.000
REMARK INTER + INTRA:          -2.594
REMARK INTER:                  -2.297
REMARK INTRA:                  -0.297
REMARK UNBOUND:                -0.297
REMARK SMILES O=c1c(O)c(-c2ccc(O)c(O)c2)oc2cc(O)ccc12
REMARK SMILES IDX 5 1 3 2 2 3 1 4 21 5 15 6 14 7 16 8 17 9 19 10 20 11 6 12
REMARK SMILES IDX 7 13 8 14 9 15 13 16 11 17 10 18 12 20 4 22 18 24
REMARK H PARENT 10 19 12 21 4 23 18 25
REMARK Flexibility Score: inf
ROOT
ATOM      1  C   UNL     1     -10.084 -20.375  13.385  1.00  0.00     0.180 A 
ATOM      2  C   UNL     1      -9.251 -21.302  14.045  1.00  0.00     0.208 A 
ATOM      3  C   UNL     1      -9.831 -22.228  14.926  1.00  0.00     0.235 A 
ATOM      4  O   UNL     1      -9.106 -23.060  15.536  1.00  0.00    -0.285 OA
ATOM      5  C   UNL     1     -11.223 -22.222  15.114  1.00  0.00     0.069 A 
ATOM      6  C   UNL     1     -11.991 -21.278  14.398  1.00  0.00     0.142 A 
ATOM      7  O   UNL     1     -11.401 -20.413  13.579  1.00  0.00    -0.452 OA
ATOM      8  C   UNL     1     -13.382 -21.247  14.551  1.00  0.00     0.094 A 
ATOM      9  C   UNL     1     -14.017 -22.149  15.414  1.00  0.00     0.119 A 
ATOM     10  C   UNL     1     -13.257 -23.085  16.125  1.00  0.00     0.047 A 
ATOM     11  C   UNL     1     -11.868 -23.125  15.978  1.00  0.00     0.020 A 
ENDROOT
BRANCH   1  12
ATOM     12  C   UNL     1      -9.546 -19.357  12.455  1.00  0.00     0.025 A 
ATOM     13  C   UNL     1      -8.988 -18.179  12.969  1.00  0.00     0.016 A 
ATOM     14  C   UNL     1      -8.456 -17.216  12.111  1.00  0.00     0.051 A 
ATOM     15  C   UNL     1      -8.455 -17.415  10.726  1.00  0.00     0.157 A 
ATOM     16  C   UNL     1      -9.526 -19.573  11.065  1.00  0.00     0.062 A 
ATOM     17  C   UNL     1      -8.991 -18.613  10.197  1.00  0.00     0.158 A 
BRANCH  15  18
ATOM     18  O   UNL     1      -7.915 -16.409   9.922  1.00  0.00    -0.504 OA
ATOM     19  H   UNL     1      -6.934 -16.169   9.898  1.00  0.00     0.293 HD
ENDBRANCH  15  18
BRANCH  17  20
ATOM     20  O   UNL     1      -9.007 -18.891   8.828  1.00  0.00    -0.504 OA
ATOM     21  H   UNL     1      -9.457 -18.307   8.138  1.00  0.00     0.293 HD
ENDBRANCH  17  20
ENDBRANCH   1  12
BRANCH   2  22
ATOM     22  O   UNL     1      -7.875 -21.316  13.800  1.00  0.00    -0.502 OA
ATOM     23  H   UNL     1      -7.491 -21.266  12.864  1.00  0.00     0.293 HD
ENDBRANCH   2  22
BRANCH   9  24
ATOM     24  O   UNL     1     -15.400 -22.125  15.572  1.00  0.00    -0.508 OA
ATOM     25  H   UNL     1     -16.019 -22.545  14.888  1.00  0.00     0.293 HD
ENDBRANCH   9  24
TORSDOF 5
ENDMDL
MODEL 2
REMARK VINA RESULT:    -1.517     12.269     15.388
REMARK INTER + INTRA:          -2.080
REMARK INTER:                  -2.600
REMARK INTRA:                   0.520
REMARK UNBOUND:                -0.297
REMARK SMILES O=c1c(O)c(-c2ccc(O)c(O)c2)oc2cc(O)ccc12
REMARK SMILES IDX 5 1 3 2 2 3 1 4 21 5 15 6 14 7 16 8 17 9 19 10 20 11 6 12
REMARK SMILES IDX 7 13 8 14 9 15 13 16 11 17 10 18 12 20 4 22 18 24
REMARK H PARENT 10 19 12 21 4 23 18 25
REMARK Flexibility Score: inf
ROOT
ATOM      1  C   UNL     1      -8.133 -18.373  -1.773  1.00  0.00     0.180 A 
ATOM      2  C   UNL     1      -8.338 -19.328  -2.790  1.00  0.00     0.208 A 
ATOM      3  C   UNL     1      -8.390 -20.687  -2.443  1.00  0.00     0.235 A 
ATOM      4  O   UNL     1      -8.561 -21.561  -3.337  1.00  0.00    -0.285 OA
ATOM      5  C   UNL     1      -8.257 -21.060  -1.096  1.00  0.00     0.069 A 
ATOM      6  C   UNL     1      -8.079 -20.042  -0.134  1.00  0.00     0.142 A 
ATOM      7  O   UNL     1      -8.027 -18.767  -0.506  1.00  0.00    -0.452 OA
ATOM      8  C   UNL     1      -7.952 -20.373   1.220  1.00  0.00     0.094 A 
ATOM      9  C   UNL     1      -8.000 -21.713   1.626  1.00  0.00     0.119 A 
ATOM     10  C   UNL     1      -8.176 -22.723   0.674  1.00  0.00     0.047 A 
ATOM     11  C   UNL     1      -8.304 -22.403  -0.681  1.00  0.00     0.020 A 
ENDROOT
BRANCH   1  12
ATOM     12  C   UNL     1      -8.049 -16.923  -2.061  1.00  0.00     0.025 A 
ATOM     13  C   UNL     1      -7.981 -16.487  -3.392  1.00  0.00     0.016 A 
ATOM     14  C   UNL     1      -7.922 -15.124  -3.686  1.00  0.00     0.051 A 
ATOM     15  C   UNL     1      -7.946 -14.170  -2.664  1.00  0.00     0.157 A 
ATOM     16  C   UNL     1      -8.097 -15.967  -1.031  1.00  0.00     0.062 A 
ATOM     17  C   UNL     1      -8.041 -14.597  -1.318  1.00  0.00     0.158 A 
BRANCH  15  18
ATOM     18  O   UNL     1      -7.876 -12.823  -3.025  1.00  0.00    -0.504 OA
ATOM     19  H   UNL     1      -7.857 -12.061  -2.363  1.00  0.00     0.293 HD
ENDBRANCH  15  18
BRANCH  17  20
ATOM     20  O   UNL     1      -8.089 -13.704  -0.245  1.00  0.00    -0.504 OA
ATOM     21  H   UNL     1      -8.909 -13.549   0.323  1.00  0.00     0.293 HD
ENDBRANCH  17  20
ENDBRANCH   1  12
BRANCH   2  22
ATOM     22  O   UNL     1      -8.516 -18.923  -4.116  1.00  0.00    -0.502 OA
ATOM     23  H   UNL     1      -7.736 -18.742  -4.736  1.00  0.00     0.293 HD
ENDBRANCH   2  22
BRANCH   9  24
ATOM     24  O   UNL     1      -7.875 -22.052   2.971  1.00  0.00    -0.508 OA
ATOM     25  H   UNL     1      -6.972 -22.251   3.385  1.00  0.00     0.293 HD
ENDBRANCH   9  24
TORSDOF 5
ENDMDL
MODEL 3
REMARK VINA RESULT:    -0.016      3.387      4.119
REMARK INTER + INTRA:          -0.316
REMARK INTER:                  -0.645
REMARK INTRA:                   0.329
REMARK UNBOUND:                -0.297
REMARK SMILES O=c1c(O)c(-c2ccc(O)c(O)c2)oc2cc(O)ccc12
REMARK SMILES IDX 5 1 3 2 2 3 1 4 21 5 15 6 14 7 16 8 17 9 19 10 20 11 6 12
REMARK SMILES IDX 7 13 8 14 9 15 13 16 11 17 10 18 12 20 4 22 18 24
REMARK H PARENT 10 19 12 21 4 23 18 25
REMARK Flexibility Score: inf
ROOT
ATOM      1  C   UNL     1      -9.139 -19.319  12.095  1.00  0.00     0.180 A 
ATOM      2  C   UNL     1      -8.648 -20.086  13.172  1.00  0.00     0.208 A 
ATOM      3  C   UNL     1      -8.973 -19.700  14.482  1.00  0.00     0.235 A 
ATOM      4  O   UNL     1      -8.537 -20.363  15.462  1.00  0.00    -0.285 OA
ATOM      5  C   UNL     1      -9.792 -18.578  14.687  1.00  0.00     0.069 A 
ATOM      6  C   UNL     1     -10.262 -17.877  13.556  1.00  0.00     0.142 A 
ATOM      7  O   UNL     1      -9.924 -18.271  12.332  1.00  0.00    -0.452 OA
ATOM      8  C   UNL     1     -11.089 -16.759  13.718  1.00  0.00     0.094 A 
ATOM      9  C   UNL     1     -11.450 -16.330  15.002  1.00  0.00     0.119 A 
ATOM     10  C   UNL     1     -10.983 -17.023  16.125  1.00  0.00     0.047 A 
ATOM     11  C   UNL     1     -10.159 -18.141  15.973  1.00  0.00     0.020 A 
ENDROOT
BRANCH   1  12
ATOM     12  C   UNL     1      -8.825 -19.651  10.686  1.00  0.00     0.025 A 
ATOM     13  C   UNL     1      -8.788 -18.629   9.728  1.00  0.00     0.016 A 
ATOM     14  C   UNL     1      -8.474 -18.917   8.400  1.00  0.00     0.051 A 
ATOM     15  C   UNL     1      -8.176 -20.225   8.003  1.00  0.00     0.157 A 
ATOM     16  C   UNL     1      -8.503 -20.964  10.298  1.00  0.00     0.062 A 
ATOM     17  C   UNL     1      -8.184 -21.262   8.967  1.00  0.00     0.158 A 
BRANCH  15  18
ATOM     18  O   UNL     1      -7.878 -20.449   6.657  1.00  0.00    -0.504 OA
ATOM     19  H   UNL     1      -7.020 -20.156   6.212  1.00  0.00     0.293 HD
ENDBRANCH  15  18
BRANCH  17  20
ATOM     20  O   UNL     1      -7.878 -22.588   8.651  1.00  0.00    -0.504 OA
ATOM     21  H   UNL     1      -8.566 -23.322   8.569  1.00  0.00     0.293 HD
ENDBRANCH  17  20
ENDBRANCH   1  12
BRANCH   2  22
ATOM     22  O   UNL     1      -7.876 -21.226  12.935  1.00  0.00    -0.502 OA
ATOM     23  H   UNL     1      -8.115 -21.903  12.220  1.00  0.00     0.293 HD
ENDBRANCH   2  22
BRANCH   9  24
ATOM     24  O   UNL     1     -12.272 -15.219  15.173  1.00  0.00    -0.508 OA
ATOM     25  H   UNL     1     -12.389 -14.529  14.441  1.00  0.00     0.293 HD
ENDBRANCH   9  24
TORSDOF 5
ENDMDL
