MODEL 1
REMARK VINA RESULT:    -3.960      0.000      0.000
REMARK INTER + INTRA:          -4.756
REMARK INTER:                  -4.655
REMARK INTRA:                  -0.101
REMARK UNBOUND:                -0.101
REMARK SMILES O=C([O-])CCC(=O)[O-]
REMARK SMILES IDX 4 1 2 2 1 3 3 4 5 5 6 6 7 7 8 8
REMARK H PARENT
REMARK Flexibility Score: inf
ROOT
ATOM      1  C   UNL     1       0.939   6.996  20.370  1.00  0.00     0.059 C 
ENDROOT
BRANCH   1   2
ATOM      2  C   UNL     1       1.312   8.361  19.883  1.00  0.00     0.042 C 
ATOM      3  O   UNL     1       0.769   8.835  18.850  1.00  0.00    -0.550 OA
ATOM      4  O   UNL     1       2.295   9.089  20.540  1.00  0.00    -0.550 OA
ENDBRANCH   1   2
BRANCH   1   5
ATOM      5  C   UNL     1      -0.381   7.047  21.142  1.00  0.00     0.059 C 
BRANCH   5   6
ATOM      6  C   UNL     1      -0.148   6.769  22.594  1.00  0.00     0.042 C 
ATOM      7  O   UNL     1      -1.121   6.713  23.392  1.00  0.00    -0.550 OA
ATOM      8  O   UNL     1       1.147   6.622  23.075  1.00  0.00    -0.550 OA
ENDBRANCH   5   6
ENDBRANCH   1   5
TORSDOF 3
ENDMDL
MODEL 2
REMARK VINA RESULT:    -3.944      0.099      3.760
REMARK INTER + INTRA:          -4.736
REMARK INTER:                  -4.639
REMARK INTRA:                  -0.097
REMARK UNBOUND:                -0.101
REMARK SMILES O=C([O-])CCC(=O)[O-]
REMARK SMILES IDX 4 1 2 2 1 3 3 4 5 5 6 6 7 7 8 8
REMARK H PARENT
REMARK Flexibility Score: inf
ROOT
ATOM      1  C   UNL     1      -0.371   7.035  21.150  1.00  0.00     0.059 C 
ENDROOT
BRANCH   1   2
ATOM      2  C   UNL     1      -0.130   6.824  22.611  1.00  0.00     0.042 C 
ATOM      3  O   UNL     1      -1.075   6.954  23.434  1.00  0.00    -0.550 OA
ATOM      4  O   UNL     1       1.148   6.531  23.070  1.00  0.00    -0.550 OA
ENDBRANCH   1   2
BRANCH   1   5
ATOM      5  C   UNL     1       0.950   6.987  20.379  1.00  0.00     0.059 C 
BRANCH   5   6
ATOM      6  C   UNL     1       1.316   8.352  19.884  1.00  0.00     0.042 C 
ATOM      7  O   UNL     1       0.740   8.835  18.874  1.00  0.00    -0.550 OA
ATOM      8  O   UNL     1       2.328   9.069  20.509  1.00  0.00    -0.550 OA
ENDBRANCH   5   6
ENDBRANCH   1   5
TORSDOF 3
ENDMDL
MODEL 3
REMARK VINA RESULT:    -3.890      1.669      4.444
REMARK INTER + INTRA:          -4.673
REMARK INTER:                  -4.623
REMARK INTRA:                  -0.050
REMARK UNBOUND:                -0.101
REMARK SMILES O=C([O-])CCC(=O)[O-]
REMARK SMILES IDX 4 1 2 2 1 3 3 4 5 5 6 6 7 7 8 8
REMARK H PARENT
REMARK Flexibility Score: inf
ROOT
ATOM      1  C   UNL     1       0.297   7.365  19.641  1.00  0.00     0.059 C 
ENDROOT
BRANCH   1   2
ATOM      2  C   UNL     1       0.525   7.080  21.092  1.00  0.00     0.042 C 
ATOM      3  O   UNL     1       1.696   7.046  21.554  1.00  0.00    -0.550 OA
ATOM      4  O   UNL     1      -0.552   6.804  21.924  1.00  0.00    -0.550 OA
ENDBRANCH   1   2
BRANCH   1   5
ATOM      5  C   UNL     1       1.047   8.630  19.221  1.00  0.00     0.059 C 
BRANCH   5   6
ATOM      6  C   UNL     1       1.437   8.553  17.778  1.00  0.00     0.042 C 
ATOM      7  O   UNL     1       1.074   7.572  17.076  1.00  0.00    -0.550 OA
ATOM      8  O   UNL     1       2.243   9.537  17.222  1.00  0.00    -0.550 OA
ENDBRANCH   5   6
ENDBRANCH   1   5
TORSDOF 3
ENDMDL
MODEL 4
REMARK VINA RESULT:    -3.889      1.709      2.143
REMARK INTER + INTRA:          -4.672
REMARK INTER:                  -4.625
REMARK INTRA:                  -0.047
REMARK UNBOUND:                -0.101
REMARK SMILES O=C([O-])CCC(=O)[O-]
REMARK SMILES IDX 4 1 2 2 1 3 3 4 5 5 6 6 7 7 8 8
REMARK H PARENT
REMARK Flexibility Score: inf
ROOT
ATOM      1  C   UNL     1       1.016   8.615  19.176  1.00  0.00     0.059 C 
ENDROOT
BRANCH   1   2
ATOM      2  C   UNL     1       1.432   8.549  17.741  1.00  0.00     0.042 C 
ATOM      3  O   UNL     1       1.090   7.569  17.027  1.00  0.00    -0.550 OA
ATOM      4  O   UNL     1       2.237   9.545  17.203  1.00  0.00    -0.550 OA
ENDBRANCH   1   2
BRANCH   1   5
ATOM      5  C   UNL     1       0.268   7.342  19.575  1.00  0.00     0.059 C 
BRANCH   5   6
ATOM      6  C   UNL     1       0.471   7.049  21.028  1.00  0.00     0.042 C 
ATOM      7  O   UNL     1      -0.520   6.840  21.777  1.00  0.00    -0.550 OA
ATOM      8  O   UNL     1       1.751   7.056  21.567  1.00  0.00    -0.550 OA
ENDBRANCH   5   6
ENDBRANCH   1   5
TORSDOF 3
ENDMDL
MODEL 5
REMARK VINA RESULT:    -3.836     16.220     16.814
REMARK INTER + INTRA:          -4.610
REMARK INTER:                  -4.488
REMARK INTRA:                  -0.122
REMARK UNBOUND:                -0.101
REMARK SMILES O=C([O-])CCC(=O)[O-]
REMARK SMILES IDX 4 1 2 2 1 3 3 4 5 5 6 6 7 7 8 8
REMARK H PARENT
REMARK Flexibility Score: inf
ROOT
ATOM      1  C   UNL     1      -4.605  -3.605  10.209  1.00  0.00     0.059 C 
ENDROOT
BRANCH   1   2
ATOM      2  C   UNL     1      -4.369  -2.749  11.413  1.00  0.00     0.042 C 
ATOM      3  O   UNL     1      -4.829  -3.094  12.534  1.00  0.00    -0.550 OA
ATOM      4  O   UNL     1      -3.685  -1.547  11.290  1.00  0.00    -0.550 OA
ENDBRANCH   1   2
BRANCH   1   5
ATOM      5  C   UNL     1      -3.742  -4.866  10.273  1.00  0.00     0.059 C 
BRANCH   5   6
ATOM      6  C   UNL     1      -4.604  -6.085  10.375  1.00  0.00     0.042 C 
ATOM      7  O   UNL     1      -5.722  -6.024  10.953  1.00  0.00    -0.550 OA
ATOM      8  O   UNL     1      -4.153  -7.300   9.876  1.00  0.00    -0.550 OA
ENDBRANCH   5   6
ENDBRANCH   1   5
TORSDOF 3
ENDMDL
MODEL 6
REMARK VINA RESULT:    -3.432     16.037     16.798
REMARK INTER + INTRA:          -4.134
REMARK INTER:                  -4.101
REMARK INTRA:                  -0.033
REMARK UNBOUND:                -0.101
REMARK SMILES O=C([O-])CCC(=O)[O-]
REMARK SMILES IDX 4 1 2 2 1 3 3 4 5 5 6 6 7 7 8 8
REMARK H PARENT
REMARK Flexibility Score: inf
ROOT
ATOM      1  C   UNL     1      -4.200  -4.903  11.347  1.00  0.00     0.059 C 
ENDROOT
BRANCH   1   2
ATOM      2  C   UNL     1      -4.151  -6.085  10.431  1.00  0.00     0.042 C 
ATOM      3  O   UNL     1      -3.044  -6.604  10.126  1.00  0.00    -0.550 OA
ATOM      4  O   UNL     1      -5.322  -6.584   9.875  1.00  0.00    -0.550 OA
ENDBRANCH   1   2
BRANCH   1   5
ATOM      5  C   UNL     1      -3.976  -3.610  10.561  1.00  0.00     0.059 C 
BRANCH   5   6
ATOM      6  C   UNL     1      -4.451  -2.430  11.349  1.00  0.00     0.042 C 
ATOM      7  O   UNL     1      -3.876  -1.316  11.231  1.00  0.00    -0.550 OA
ATOM      8  O   UNL     1      -5.498  -2.573  12.252  1.00  0.00    -0.550 OA
ENDBRANCH   5   6
ENDBRANCH   1   5
TORSDOF 3
ENDMDL
MODEL 7
REMARK VINA RESULT:    -3.402      2.319      3.385
REMARK INTER + INTRA:          -4.099
REMARK INTER:                  -4.036
REMARK INTRA:                  -0.063
REMARK UNBOUND:                -0.101
REMARK SMILES O=C([O-])CCC(=O)[O-]
REMARK SMILES IDX 4 1 2 2 1 3 3 4 5 5 6 6 7 7 8 8
REMARK H PARENT
REMARK Flexibility Score: inf
ROOT
ATOM      1  C   UNL     1       0.039   6.282  19.353  1.00  0.00     0.059 C 
ENDROOT
BRANCH   1   2
ATOM      2  C   UNL     1       0.066   5.882  17.912  1.00  0.00     0.042 C 
ATOM      3  O   UNL     1      -0.504   4.823  17.538  1.00  0.00    -0.550 OA
ATOM      4  O   UNL     1       0.762   6.653  16.989  1.00  0.00    -0.550 OA
ENDBRANCH   1   2
BRANCH   1   5
ATOM      5  C   UNL     1       0.383   7.765  19.503  1.00  0.00     0.059 C 
BRANCH   5   6
ATOM      6  C   UNL     1       1.463   7.951  20.522  1.00  0.00     0.042 C 
ATOM      7  O   UNL     1       1.579   7.139  21.478  1.00  0.00    -0.550 OA
ATOM      8  O   UNL     1       2.311   9.049  20.444  1.00  0.00    -0.550 OA
ENDBRANCH   5   6
ENDBRANCH   1   5
TORSDOF 3
ENDMDL
MODEL 8
REMARK VINA RESULT:    -3.360      7.006      7.898
REMARK INTER + INTRA:          -4.050
REMARK INTER:                  -3.940
REMARK INTRA:                  -0.111
REMARK UNBOUND:                -0.101
REMARK SMILES O=C([O-])CCC(=O)[O-]
REMARK SMILES IDX 4 1 2 2 1 3 3 4 5 5 6 6 7 7 8 8
REMARK H PARENT
REMARK Flexibility Score: inf
ROOT
ATOM      1  C   UNL     1      -3.703   4.702  16.235  1.00  0.00     0.059 C 
ENDROOT
BRANCH   1   2
ATOM      2  C   UNL     1      -4.927   3.846  16.320  1.00  0.00     0.042 C 
ATOM      3  O   UNL     1      -6.050   4.312  15.989  1.00  0.00    -0.550 OA
ATOM      4  O   UNL     1      -4.837   2.550  16.811  1.00  0.00    -0.550 OA
ENDBRANCH   1   2
BRANCH   1   5
ATOM      5  C   UNL     1      -2.581   3.958  15.508  1.00  0.00     0.059 C 
BRANCH   5   6
ATOM      6  C   UNL     1      -1.450   3.674  16.445  1.00  0.00     0.042 C 
ATOM      7  O   UNL     1      -1.298   2.519  16.923  1.00  0.00    -0.550 OA
ATOM      8  O   UNL     1      -0.591   4.697  16.829  1.00  0.00    -0.550 OA
ENDBRANCH   5   6
ENDBRANCH   1   5
TORSDOF 3
ENDMDL
MODEL 9
REMARK VINA RESULT:    -3.343      7.029      7.713
REMARK INTER + INTRA:          -4.030
REMARK INTER:                  -3.926
REMARK INTRA:                  -0.104
REMARK UNBOUND:                -0.101
REMARK SMILES O=C([O-])CCC(=O)[O-]
REMARK SMILES IDX 4 1 2 2 1 3 3 4 5 5 6 6 7 7 8 8
REMARK H PARENT
REMARK Flexibility Score: inf
ROOT
ATOM      1  C   UNL     1      -2.570   3.957  15.512  1.00  0.00     0.059 C 
ENDROOT
BRANCH   1   2
ATOM      2  C   UNL     1      -1.427   3.680  16.435  1.00  0.00     0.042 C 
ATOM      3  O   UNL     1      -0.593   4.586  16.701  1.00  0.00    -0.550 OA
ATOM      4  O   UNL     1      -1.254   2.407  16.965  1.00  0.00    -0.550 OA
ENDBRANCH   1   2
BRANCH   1   5
ATOM      5  C   UNL     1      -3.684   4.702  16.249  1.00  0.00     0.059 C 
BRANCH   5   6
ATOM      6  C   UNL     1      -4.916   3.856  16.329  1.00  0.00     0.042 C 
ATOM      7  O   UNL     1      -4.834   2.650  16.684  1.00  0.00    -0.550 OA
ATOM      8  O   UNL     1      -6.148   4.384  15.964  1.00  0.00    -0.550 OA
ENDBRANCH   5   6
ENDBRANCH   1   5
TORSDOF 3
ENDMDL
