MODEL 1
REMARK VINA RESULT:    -5.079      0.000      0.000
REMARK INTER + INTRA:          -8.123
REMARK INTER:                  -7.009
REMARK INTRA:                  -1.114
REMARK UNBOUND:                -1.114
REMARK SMILES CCCCc1cccc(O)c1CCCC
REMARK SMILES IDX 5 1 11 2 9 3 8 4 7 5 6 6 4 7 3 8 2 9 1 10 12 11 13 12 14 13
REMARK SMILES IDX 15 14 10 15
REMARK H PARENT 10 16
REMARK Flexibility Score: inf
ROOT
ATOM      1  C   UNL     1      -0.269  -0.816  -0.072  1.00  0.00    -0.041 A 
ATOM      2  C   UNL     1      -0.944  -1.859  -0.775  1.00  0.00    -0.003 A 
ATOM      3  C   UNL     1      -0.841  -1.912  -2.186  1.00  0.00     0.119 A 
ATOM      4  C   UNL     1      -0.129  -0.927  -2.881  1.00  0.00     0.046 A 
ATOM      5  C   UNL     1       0.491   0.110  -2.192  1.00  0.00     0.004 A 
ATOM      6  C   UNL     1       0.427   0.165  -0.803  1.00  0.00     0.004 A 
ENDROOT
BRANCH   1   7
ATOM      7  C   UNL     1      -0.219  -0.721   1.442  1.00  0.00     0.036 C 
BRANCH   7   8
ATOM      8  C   UNL     1      -1.024   0.490   1.944  1.00  0.00     0.004 C 
BRANCH   8   9
ATOM      9  C   UNL     1      -1.839   0.177   3.207  1.00  0.00    -0.003 C 
ATOM     10  C   UNL     1      -2.755  -1.033   3.031  1.00  0.00     0.004 C 
ENDBRANCH   8   9
ENDBRANCH   7   8
ENDBRANCH   1   7
BRANCH   2  11
ATOM     11  C   UNL     1      -1.759  -2.923  -0.062  1.00  0.00     0.040 C 
BRANCH  11  12
ATOM     12  C   UNL     1      -0.867  -4.080   0.410  1.00  0.00     0.005 C 
BRANCH  12  13
ATOM     13  C   UNL     1      -1.349  -4.694   1.733  1.00  0.00    -0.003 C 
ATOM     14  C   UNL     1      -0.663  -4.077   2.951  1.00  0.00     0.004 C 
ENDBRANCH  12  13
ENDBRANCH  11  12
ENDBRANCH   2  11
BRANCH   3  15
ATOM     15  O   UNL     1      -1.445  -2.948  -2.899  1.00  0.00    -0.508 OA
ATOM     16  H   UNL     1      -2.448  -3.089  -2.888  1.00  0.00     0.293 HD
ENDBRANCH   3  15
TORSDOF 7
ENDMDL
MODEL 2
REMARK VINA RESULT:    -4.925      1.631      3.619
REMARK INTER + INTRA:          -7.910
REMARK INTER:                  -6.739
REMARK INTRA:                  -1.171
REMARK UNBOUND:                -1.114
REMARK SMILES CCCCc1cccc(O)c1CCCC
REMARK SMILES IDX 5 1 11 2 9 3 8 4 7 5 6 6 4 7 3 8 2 9 1 10 12 11 13 12 14 13
REMARK SMILES IDX 15 14 10 15
REMARK H PARENT 10 16
REMARK Flexibility Score: inf
ROOT
ATOM      1  C   UNL     1      -0.948  -2.463  -1.340  1.00  0.00    -0.041 A 
ATOM      2  C   UNL     1      -0.426  -1.392  -0.553  1.00  0.00    -0.003 A 
ATOM      3  C   UNL     1       0.263  -0.339  -1.201  1.00  0.00     0.119 A 
ATOM      4  C   UNL     1       0.470  -0.376  -2.585  1.00  0.00     0.046 A 
ATOM      5  C   UNL     1      -0.005  -1.443  -3.340  1.00  0.00     0.004 A 
ATOM      6  C   UNL     1      -0.710  -2.475  -2.726  1.00  0.00     0.004 A 
ENDROOT
BRANCH   1   7
ATOM      7  C   UNL     1      -1.794  -3.587  -0.770  1.00  0.00     0.036 C 
BRANCH   7   8
ATOM      8  C   UNL     1      -0.987  -4.894  -0.685  1.00  0.00     0.004 C 
BRANCH   8   9
ATOM      9  C   UNL     1      -0.349  -5.107   0.696  1.00  0.00    -0.003 C 
ATOM     10  C   UNL     1      -1.349  -4.939   1.838  1.00  0.00     0.004 C 
ENDBRANCH   8   9
ENDBRANCH   7   8
ENDBRANCH   1   7
BRANCH   2  11
ATOM     11  C   UNL     1      -0.595  -1.335   0.954  1.00  0.00     0.040 C 
BRANCH  11  12
ATOM     12  C   UNL     1      -1.916  -0.654   1.338  1.00  0.00     0.005 C 
BRANCH  12  13
ATOM     13  C   UNL     1      -2.690  -1.431   2.414  1.00  0.00    -0.003 C 
ATOM     14  C   UNL     1      -1.839  -1.733   3.647  1.00  0.00     0.004 C 
ENDBRANCH  12  13
ENDBRANCH  11  12
ENDBRANCH   2  11
BRANCH   3  15
ATOM     15  O   UNL     1       0.740   0.749  -0.469  1.00  0.00    -0.508 OA
ATOM     16  H   UNL     1       0.210   1.148   0.298  1.00  0.00     0.293 HD
ENDBRANCH   3  15
TORSDOF 7
ENDMDL
MODEL 3
REMARK VINA RESULT:    -4.828      1.355      4.113
REMARK INTER + INTRA:          -7.776
REMARK INTER:                  -6.710
REMARK INTRA:                  -1.066
REMARK UNBOUND:                -1.114
REMARK SMILES CCCCc1cccc(O)c1CCCC
REMARK SMILES IDX 5 1 11 2 9 3 8 4 7 5 6 6 4 7 3 8 2 9 1 10 12 11 13 12 14 13
REMARK SMILES IDX 15 14 10 15
REMARK H PARENT 10 16
REMARK Flexibility Score: inf
ROOT
ATOM      1  C   UNL     1      -1.480  -2.148   0.646  1.00  0.00    -0.041 A 
ATOM      2  C   UNL     1      -1.290  -2.951  -0.519  1.00  0.00    -0.003 A 
ATOM      3  C   UNL     1      -1.281  -4.361  -0.384  1.00  0.00     0.119 A 
ATOM      4  C   UNL     1      -1.405  -4.951   0.879  1.00  0.00     0.046 A 
ATOM      5  C   UNL     1      -1.547  -4.161   2.014  1.00  0.00     0.004 A 
ATOM      6  C   UNL     1      -1.588  -2.774   1.901  1.00  0.00     0.004 A 
ENDROOT
BRANCH   1   7
ATOM      7  C   UNL     1      -1.616  -0.636   0.609  1.00  0.00     0.036 C 
BRANCH   7   8
ATOM      8  C   UNL     1      -0.926   0.008   1.824  1.00  0.00     0.004 C 
BRANCH   8   9
ATOM      9  C   UNL     1       0.026   1.147   1.429  1.00  0.00    -0.003 C 
ATOM     10  C   UNL     1       1.464   0.671   1.235  1.00  0.00     0.004 C 
ENDBRANCH   8   9
ENDBRANCH   7   8
ENDBRANCH   1   7
BRANCH   2  11
ATOM     11  C   UNL     1      -1.113  -2.349  -1.900  1.00  0.00     0.040 C 
BRANCH  11  12
ATOM     12  C   UNL     1       0.373  -2.187  -2.249  1.00  0.00     0.005 C 
BRANCH  12  13
ATOM     13  C   UNL     1       0.656  -0.907  -3.050  1.00  0.00    -0.003 C 
ATOM     14  C   UNL     1       0.177   0.353  -2.331  1.00  0.00     0.004 C 
ENDBRANCH  12  13
ENDBRANCH  11  12
ENDBRANCH   2  11
BRANCH   3  15
ATOM     15  O   UNL     1      -1.151  -5.176  -1.509  1.00  0.00    -0.508 OA
ATOM     16  H   UNL     1      -0.605  -6.029  -1.488  1.00  0.00     0.293 HD
ENDBRANCH   3  15
TORSDOF 7
ENDMDL
MODEL 4
REMARK VINA RESULT:    -4.809      1.389      2.005
REMARK INTER + INTRA:          -7.750
REMARK INTER:                  -6.454
REMARK INTRA:                  -1.297
REMARK UNBOUND:                -1.114
REMARK SMILES CCCCc1cccc(O)c1CCCC
REMARK SMILES IDX 5 1 11 2 9 3 8 4 7 5 6 6 4 7 3 8 2 9 1 10 12 11 13 12 14 13
REMARK SMILES IDX 15 14 10 15
REMARK H PARENT 10 16
REMARK Flexibility Score: inf
ROOT
ATOM      1  C   UNL     1      -0.912  -0.865  -0.425  1.00  0.00    -0.041 A 
ATOM      2  C   UNL     1      -0.686  -2.267  -0.569  1.00  0.00    -0.003 A 
ATOM      3  C   UNL     1       0.008  -2.735  -1.710  1.00  0.00     0.119 A 
ATOM      4  C   UNL     1       0.420  -1.840  -2.704  1.00  0.00     0.046 A 
ATOM      5  C   UNL     1       0.159  -0.480  -2.577  1.00  0.00     0.004 A 
ATOM      6  C   UNL     1      -0.496   0.005  -1.449  1.00  0.00     0.004 A 
ENDROOT
BRANCH   1   7
ATOM      7  C   UNL     1      -1.547  -0.239   0.804  1.00  0.00     0.036 C 
BRANCH   7   8
ATOM      8  C   UNL     1      -0.614   0.812   1.429  1.00  0.00     0.004 C 
BRANCH   8   9
ATOM      9  C   UNL     1       0.720   0.213   1.902  1.00  0.00    -0.003 C 
ATOM     10  C   UNL     1       1.928   0.867   1.233  1.00  0.00     0.004 C 
ENDBRANCH   8   9
ENDBRANCH   7   8
ENDBRANCH   1   7
BRANCH   2  11
ATOM     11  C   UNL     1      -1.152  -3.274   0.467  1.00  0.00     0.040 C 
BRANCH  11  12
ATOM     12  C   UNL     1      -0.126  -3.419   1.600  1.00  0.00     0.005 C 
BRANCH  12  13
ATOM     13  C   UNL     1      -0.783  -3.724   2.955  1.00  0.00    -0.003 C 
ATOM     14  C   UNL     1      -1.146  -2.458   3.730  1.00  0.00     0.004 C 
ENDBRANCH  12  13
ENDBRANCH  11  12
ENDBRANCH   2  11
BRANCH   3  15
ATOM     15  O   UNL     1       0.292  -4.094  -1.855  1.00  0.00    -0.508 OA
ATOM     16  H   UNL     1      -0.381  -4.739  -2.252  1.00  0.00     0.293 HD
ENDBRANCH   3  15
TORSDOF 7
ENDMDL
MODEL 5
REMARK VINA RESULT:    -4.794      2.256      5.468
REMARK INTER + INTRA:          -7.730
REMARK INTER:                  -6.588
REMARK INTRA:                  -1.142
REMARK UNBOUND:                -1.114
REMARK SMILES CCCCc1cccc(O)c1CCCC
REMARK SMILES IDX 5 1 11 2 9 3 8 4 7 5 6 6 4 7 3 8 2 9 1 10 12 11 13 12 14 13
REMARK SMILES IDX 15 14 10 15
REMARK H PARENT 10 16
REMARK Flexibility Score: inf
ROOT
ATOM      1  C   UNL     1      -1.266  -2.574   1.171  1.00  0.00    -0.041 A 
ATOM      2  C   UNL     1      -0.821  -1.281   1.584  1.00  0.00    -0.003 A 
ATOM      3  C   UNL     1      -0.332  -1.115   2.902  1.00  0.00     0.119 A 
ATOM      4  C   UNL     1      -0.333  -2.190   3.798  1.00  0.00     0.046 A 
ATOM      5  C   UNL     1      -0.807  -3.436   3.401  1.00  0.00     0.004 A 
ATOM      6  C   UNL     1      -1.265  -3.629   2.101  1.00  0.00     0.004 A 
ENDROOT
BRANCH   1   7
ATOM      7  C   UNL     1      -1.706  -2.895  -0.246  1.00  0.00     0.036 C 
BRANCH   7   8
ATOM      8  C   UNL     1      -0.819  -3.991  -0.862  1.00  0.00     0.004 C 
BRANCH   8   9
ATOM      9  C   UNL     1       0.161  -3.439  -1.909  1.00  0.00    -0.003 C 
ATOM     10  C   UNL     1      -0.549  -2.755  -3.076  1.00  0.00     0.004 C 
ENDBRANCH   8   9
ENDBRANCH   7   8
ENDBRANCH   1   7
BRANCH   2  11
ATOM     11  C   UNL     1      -0.841  -0.081   0.655  1.00  0.00     0.040 C 
BRANCH  11  12
ATOM     12  C   UNL     1       0.548   0.178   0.054  1.00  0.00     0.005 C 
BRANCH  12  13
ATOM     13  C   UNL     1       0.529   0.213  -1.482  1.00  0.00    -0.003 C 
ATOM     14  C   UNL     1      -0.788   0.751  -2.040  1.00  0.00     0.004 C 
ENDBRANCH  12  13
ENDBRANCH  11  12
ENDBRANCH   2  11
BRANCH   3  15
ATOM     15  O   UNL     1       0.159   0.122   3.321  1.00  0.00    -0.508 OA
ATOM     16  H   UNL     1       0.358   0.314   4.296  1.00  0.00     0.293 HD
ENDBRANCH   3  15
TORSDOF 7
ENDMDL
MODEL 6
REMARK VINA RESULT:    -4.766      2.262      4.215
REMARK INTER + INTRA:          -7.691
REMARK INTER:                  -6.615
REMARK INTRA:                  -1.076
REMARK UNBOUND:                -1.114
REMARK SMILES CCCCc1cccc(O)c1CCCC
REMARK SMILES IDX 5 1 11 2 9 3 8 4 7 5 6 6 4 7 3 8 2 9 1 10 12 11 13 12 14 13
REMARK SMILES IDX 15 14 10 15
REMARK H PARENT 10 16
REMARK Flexibility Score: inf
ROOT
ATOM      1  C   UNL     1      -0.441  -0.534   0.043  1.00  0.00    -0.041 A 
ATOM      2  C   UNL     1      -1.163  -0.572   1.275  1.00  0.00    -0.003 A 
ATOM      3  C   UNL     1      -0.720   0.232   2.353  1.00  0.00     0.119 A 
ATOM      4  C   UNL     1       0.435   1.012   2.226  1.00  0.00     0.046 A 
ATOM      5  C   UNL     1       1.156   1.012   1.037  1.00  0.00     0.004 A 
ATOM      6  C   UNL     1       0.723   0.251  -0.045  1.00  0.00     0.004 A 
ENDROOT
BRANCH   1   7
ATOM      7  C   UNL     1      -0.883  -1.267  -1.210  1.00  0.00     0.036 C 
BRANCH   7   8
ATOM      8  C   UNL     1      -0.084  -0.791  -2.435  1.00  0.00     0.004 C 
BRANCH   8   9
ATOM      9  C   UNL     1       0.686  -1.931  -3.120  1.00  0.00    -0.003 C 
ATOM     10  C   UNL     1       0.603  -3.245  -2.344  1.00  0.00     0.004 C 
ENDBRANCH   8   9
ENDBRANCH   7   8
ENDBRANCH   1   7
BRANCH   2  11
ATOM     11  C   UNL     1      -2.397  -1.434   1.466  1.00  0.00     0.040 C 
BRANCH  11  12
ATOM     12  C   UNL     1      -2.048  -2.757   2.162  1.00  0.00     0.005 C 
BRANCH  12  13
ATOM     13  C   UNL     1      -1.621  -3.851   1.171  1.00  0.00    -0.003 C 
ATOM     14  C   UNL     1      -0.124  -4.153   1.241  1.00  0.00     0.004 C 
ENDBRANCH  12  13
ENDBRANCH  11  12
ENDBRANCH   2  11
BRANCH   3  15
ATOM     15  O   UNL     1      -1.433   0.258   3.552  1.00  0.00    -0.508 OA
ATOM     16  H   UNL     1      -2.361   0.661   3.612  1.00  0.00     0.293 HD
ENDBRANCH   3  15
TORSDOF 7
ENDMDL
MODEL 7
REMARK VINA RESULT:    -4.754      1.855      4.625
REMARK INTER + INTRA:          -7.674
REMARK INTER:                  -6.533
REMARK INTRA:                  -1.141
REMARK UNBOUND:                -1.114
REMARK SMILES CCCCc1cccc(O)c1CCCC
REMARK SMILES IDX 5 1 11 2 9 3 8 4 7 5 6 6 4 7 3 8 2 9 1 10 12 11 13 12 14 13
REMARK SMILES IDX 15 14 10 15
REMARK H PARENT 10 16
REMARK Flexibility Score: inf
ROOT
ATOM      1  C   UNL     1      -1.644  -1.818   1.062  1.00  0.00    -0.041 A 
ATOM      2  C   UNL     1      -0.768  -0.774   0.637  1.00  0.00    -0.003 A 
ATOM      3  C   UNL     1      -0.661   0.395   1.428  1.00  0.00     0.119 A 
ATOM      4  C   UNL     1      -1.441   0.543   2.580  1.00  0.00     0.046 A 
ATOM      5  C   UNL     1      -2.324  -0.460   2.966  1.00  0.00     0.004 A 
ATOM      6  C   UNL     1      -2.423  -1.631   2.218  1.00  0.00     0.004 A 
ENDROOT
BRANCH   1   7
ATOM      7  C   UNL     1      -1.759  -3.156   0.356  1.00  0.00     0.036 C 
BRANCH   7   8
ATOM      8  C   UNL     1      -1.442  -4.314   1.318  1.00  0.00     0.004 C 
BRANCH   8   9
ATOM      9  C   UNL     1       0.018  -4.306   1.795  1.00  0.00    -0.003 C 
ATOM     10  C   UNL     1       0.141  -4.190   3.313  1.00  0.00     0.004 C 
ENDBRANCH   8   9
ENDBRANCH   7   8
ENDBRANCH   1   7
BRANCH   2  11
ATOM     11  C   UNL     1       0.065  -0.879  -0.628  1.00  0.00     0.040 C 
BRANCH  11  12
ATOM     12  C   UNL     1      -0.772  -0.554  -1.872  1.00  0.00     0.005 C 
BRANCH  12  13
ATOM     13  C   UNL     1      -0.667  -1.640  -2.954  1.00  0.00    -0.003 C 
ATOM     14  C   UNL     1       0.386  -2.697  -2.624  1.00  0.00     0.004 C 
ENDBRANCH  12  13
ENDBRANCH  11  12
ENDBRANCH   2  11
BRANCH   3  15
ATOM     15  O   UNL     1       0.225   1.411   1.069  1.00  0.00    -0.508 OA
ATOM     16  H   UNL     1      -0.054   2.385   1.064  1.00  0.00     0.293 HD
ENDBRANCH   3  15
TORSDOF 7
ENDMDL
MODEL 8
REMARK VINA RESULT:    -4.733      1.458      3.523
REMARK INTER + INTRA:          -7.645
REMARK INTER:                  -6.286
REMARK INTRA:                  -1.359
REMARK UNBOUND:                -1.114
REMARK SMILES CCCCc1cccc(O)c1CCCC
REMARK SMILES IDX 5 1 11 2 9 3 8 4 7 5 6 6 4 7 3 8 2 9 1 10 12 11 13 12 14 13
REMARK SMILES IDX 15 14 10 15
REMARK H PARENT 10 16
REMARK Flexibility Score: inf
ROOT
ATOM      1  C   UNL     1      -1.113  -2.305  -0.432  1.00  0.00    -0.041 A 
ATOM      2  C   UNL     1      -0.756  -0.936  -0.623  1.00  0.00    -0.003 A 
ATOM      3  C   UNL     1      -0.202  -0.539  -1.863  1.00  0.00     0.119 A 
ATOM      4  C   UNL     1       0.037  -1.485  -2.867  1.00  0.00     0.046 A 
ATOM      5  C   UNL     1      -0.274  -2.825  -2.659  1.00  0.00     0.004 A 
ATOM      6  C   UNL     1      -0.847  -3.232  -1.457  1.00  0.00     0.004 A 
ENDROOT
BRANCH   1   7
ATOM      7  C   UNL     1      -1.812  -2.824   0.811  1.00  0.00     0.036 C 
BRANCH   7   8
ATOM      8  C   UNL     1      -1.054  -4.023   1.407  1.00  0.00     0.004 C 
BRANCH   8   9
ATOM      9  C   UNL     1      -0.585  -3.770   2.848  1.00  0.00    -0.003 C 
ATOM     10  C   UNL     1       0.898  -3.410   2.928  1.00  0.00     0.004 C 
ENDBRANCH   8   9
ENDBRANCH   7   8
ENDBRANCH   1   7
BRANCH   2  11
ATOM     11  C   UNL     1      -0.963   0.114   0.454  1.00  0.00     0.040 C 
BRANCH  11  12
ATOM     12  C   UNL     1       0.242   0.180   1.403  1.00  0.00     0.005 C 
BRANCH  12  13
ATOM     13  C   UNL     1      -0.165   0.083   2.881  1.00  0.00    -0.003 C 
ATOM     14  C   UNL     1      -1.679   0.162   3.080  1.00  0.00     0.004 C 
ENDBRANCH  12  13
ENDBRANCH  11  12
ENDBRANCH   2  11
BRANCH   3  15
ATOM     15  O   UNL     1       0.109   0.801  -2.101  1.00  0.00    -0.508 OA
ATOM     16  H   UNL     1       0.675   1.084  -2.892  1.00  0.00     0.293 HD
ENDBRANCH   3  15
TORSDOF 7
ENDMDL
MODEL 9
REMARK VINA RESULT:    -4.716      8.968     10.229
REMARK INTER + INTRA:          -7.622
REMARK INTER:                  -6.754
REMARK INTRA:                  -0.868
REMARK UNBOUND:                -1.114
REMARK SMILES CCCCc1cccc(O)c1CCCC
REMARK SMILES IDX 5 1 11 2 9 3 8 4 7 5 6 6 4 7 3 8 2 9 1 10 12 11 13 12 14 13
REMARK SMILES IDX 15 14 10 15
REMARK H PARENT 10 16
REMARK Flexibility Score: inf
ROOT
ATOM      1  C   UNL     1      -6.257   4.870  -4.896  1.00  0.00    -0.041 A 
ATOM      2  C   UNL     1      -5.095   4.521  -5.648  1.00  0.00    -0.003 A 
ATOM      3  C   UNL     1      -4.413   5.534  -6.365  1.00  0.00     0.119 A 
ATOM      4  C   UNL     1      -4.903   6.845  -6.375  1.00  0.00     0.046 A 
ATOM      5  C   UNL     1      -6.059   7.169  -5.674  1.00  0.00     0.004 A 
ATOM      6  C   UNL     1      -6.728   6.195  -4.938  1.00  0.00     0.004 A 
ENDROOT
BRANCH   1   7
ATOM      7  C   UNL     1      -7.003   3.895  -4.004  1.00  0.00     0.036 C 
BRANCH   7   8
ATOM      8  C   UNL     1      -8.226   3.310  -4.732  1.00  0.00     0.004 C 
BRANCH   8   9
ATOM      9  C   UNL     1      -8.858   2.132  -3.975  1.00  0.00    -0.003 C 
ATOM     10  C   UNL     1      -8.997   0.882  -4.841  1.00  0.00     0.004 C 
ENDBRANCH   8   9
ENDBRANCH   7   8
ENDBRANCH   1   7
BRANCH   2  11
ATOM     11  C   UNL     1      -4.554   3.104  -5.695  1.00  0.00     0.040 C 
BRANCH  11  12
ATOM     12  C   UNL     1      -4.875   2.432  -7.038  1.00  0.00     0.005 C 
BRANCH  12  13
ATOM     13  C   UNL     1      -5.990   1.382  -6.921  1.00  0.00    -0.003 C 
ATOM     14  C   UNL     1      -6.464   0.875  -8.282  1.00  0.00     0.004 C 
ENDBRANCH  12  13
ENDBRANCH  11  12
ENDBRANCH   2  11
BRANCH   3  15
ATOM     15  O   UNL     1      -3.245   5.237  -7.067  1.00  0.00    -0.508 OA
ATOM     16  H   UNL     1      -2.984   4.283  -7.289  1.00  0.00     0.293 HD
ENDBRANCH   3  15
TORSDOF 7
ENDMDL
