MODEL 1
REMARK VINA RESULT:    -5.529      0.000      0.000
REMARK INTER + INTRA:          -7.586
REMARK INTER:                  -6.984
REMARK INTRA:                  -0.602
REMARK UNBOUND:                -0.602
REMARK SMILES O=C(C=Cc1ccc(O)cc1)c1ccc(O)cc1O
REMARK SMILES IDX 4 1 3 2 5 3 6 4 7 5 8 6 11 7 10 8 9 9 2 11 1 12 12 13 18 14
REMARK SMILES IDX 13 15 17 16 14 17 15 18 19 19 16 21
REMARK H PARENT 9 10 19 20 16 22
REMARK Flexibility Score: inf
ROOT
ATOM      1  C   UNL     1       3.247   8.396  -8.926  1.00  0.00     0.012 C 
ATOM      2  C   UNL     1       2.196   8.295  -8.099  1.00  0.00     0.053 C 
ENDROOT
BRANCH   1   3
ATOM      3  C   UNL     1       4.655   8.226  -8.493  1.00  0.00    -0.025 A 
ATOM      4  C   UNL     1       5.451   7.139  -8.911  1.00  0.00     0.012 A 
ATOM      5  C   UNL     1       6.771   7.017  -8.466  1.00  0.00     0.047 A 
ATOM      6  C   UNL     1       7.311   7.969  -7.592  1.00  0.00     0.115 A 
ATOM      7  C   UNL     1       5.204   9.166  -7.605  1.00  0.00     0.012 A 
ATOM      8  C   UNL     1       6.524   9.041  -7.162  1.00  0.00     0.047 A 
BRANCH   6   9
ATOM      9  O   UNL     1       8.626   7.858  -7.144  1.00  0.00    -0.508 OA
ATOM     10  H   UNL     1       9.095   6.960  -7.097  1.00  0.00     0.293 HD
ENDBRANCH   6   9
ENDBRANCH   1   3
BRANCH   2  11
ATOM     11  C   UNL     1       0.804   8.457  -8.569  1.00  0.00     0.189 C 
ATOM     12  O   UNL     1       0.358   9.604  -8.845  1.00  0.00    -0.289 OA
BRANCH  11  13
ATOM     13  C   UNL     1      -0.088   7.281  -8.689  1.00  0.00     0.064 A 
ATOM     14  C   UNL     1      -1.112   7.020  -7.747  1.00  0.00     0.130 A 
ATOM     15  C   UNL     1       0.115   6.377  -9.746  1.00  0.00     0.020 A 
ATOM     16  C   UNL     1      -1.881   5.855  -7.862  1.00  0.00     0.093 A 
ATOM     17  C   UNL     1      -0.670   5.227  -9.859  1.00  0.00     0.047 A 
ATOM     18  C   UNL     1      -1.666   4.960  -8.914  1.00  0.00     0.119 A 
BRANCH  14  19
ATOM     19  O   UNL     1      -1.412   7.902  -6.705  1.00  0.00    -0.507 OA
ATOM     20  H   UNL     1      -2.285   8.408  -6.643  1.00  0.00     0.293 HD
ENDBRANCH  14  19
BRANCH  18  21
ATOM     21  O   UNL     1      -2.448   3.813  -9.010  1.00  0.00    -0.508 OA
ATOM     22  H   UNL     1      -3.007   3.620  -9.834  1.00  0.00     0.293 HD
ENDBRANCH  18  21
ENDBRANCH  11  13
ENDBRANCH   2  11
TORSDOF 6
ENDMDL
MODEL 2
REMARK VINA RESULT:    -5.216     21.567     22.522
REMARK INTER + INTRA:          -7.190
REMARK INTER:                  -6.686
REMARK INTRA:                  -0.504
REMARK UNBOUND:                -0.602
REMARK SMILES O=C(C=Cc1ccc(O)cc1)c1ccc(O)cc1O
REMARK SMILES IDX 4 1 3 2 5 3 6 4 7 5 8 6 11 7 10 8 9 9 2 11 1 12 12 13 18 14
REMARK SMILES IDX 13 15 17 16 14 17 15 18 19 19 16 21
REMARK H PARENT 9 10 19 20 16 22
REMARK Flexibility Score: inf
ROOT
ATOM      1  C   UNL     1       4.563  -8.628   7.426  1.00  0.00     0.012 C 
ATOM      2  C   UNL     1       3.860  -7.511   7.662  1.00  0.00     0.053 C 
ENDROOT
BRANCH   1   3
ATOM      3  C   UNL     1       5.017  -9.046   6.077  1.00  0.00    -0.025 A 
ATOM      4  C   UNL     1       6.213  -9.764   5.868  1.00  0.00     0.012 A 
ATOM      5  C   UNL     1       6.604 -10.125   4.575  1.00  0.00     0.047 A 
ATOM      6  C   UNL     1       5.816  -9.767   3.474  1.00  0.00     0.115 A 
ATOM      7  C   UNL     1       4.243  -8.679   4.963  1.00  0.00     0.012 A 
ATOM      8  C   UNL     1       4.637  -9.043   3.672  1.00  0.00     0.047 A 
BRANCH   6   9
ATOM      9  O   UNL     1       6.196 -10.123   2.182  1.00  0.00    -0.508 OA
ATOM     10  H   UNL     1       5.734 -10.874   1.682  1.00  0.00     0.293 HD
ENDBRANCH   6   9
ENDBRANCH   1   3
BRANCH   2  11
ATOM     11  C   UNL     1       3.436  -7.119   9.023  1.00  0.00     0.189 C 
ATOM     12  O   UNL     1       4.295  -6.940   9.929  1.00  0.00    -0.289 OA
BRANCH  11  13
ATOM     13  C   UNL     1       1.998  -6.964   9.343  1.00  0.00     0.064 A 
ATOM     14  C   UNL     1       1.206  -8.055   9.775  1.00  0.00     0.130 A 
ATOM     15  C   UNL     1       1.394  -5.705   9.175  1.00  0.00     0.020 A 
ATOM     16  C   UNL     1      -0.165  -7.873   9.995  1.00  0.00     0.093 A 
ATOM     17  C   UNL     1       0.029  -5.534   9.413  1.00  0.00     0.047 A 
ATOM     18  C   UNL     1      -0.755  -6.618   9.818  1.00  0.00     0.119 A 
BRANCH  14  19
ATOM     19  O   UNL     1       1.746  -9.319  10.023  1.00  0.00    -0.507 OA
ATOM     20  H   UNL     1       2.717  -9.469  10.262  1.00  0.00     0.293 HD
ENDBRANCH  14  19
BRANCH  18  21
ATOM     21  O   UNL     1      -2.120  -6.462  10.049  1.00  0.00    -0.508 OA
ATOM     22  H   UNL     1      -2.466  -5.958  10.858  1.00  0.00     0.293 HD
ENDBRANCH  18  21
ENDBRANCH  11  13
ENDBRANCH   2  11
TORSDOF 6
ENDMDL
MODEL 3
REMARK VINA RESULT:    -5.181      1.552      7.320
REMARK INTER + INTRA:          -7.146
REMARK INTER:                  -6.428
REMARK INTRA:                  -0.718
REMARK UNBOUND:                -0.602
REMARK SMILES O=C(C=Cc1ccc(O)cc1)c1ccc(O)cc1O
REMARK SMILES IDX 4 1 3 2 5 3 6 4 7 5 8 6 11 7 10 8 9 9 2 11 1 12 12 13 18 14
REMARK SMILES IDX 13 15 17 16 14 17 15 18 19 19 16 21
REMARK H PARENT 9 10 19 20 16 22
REMARK Flexibility Score: inf
ROOT
ATOM      1  C   UNL     1       1.344   7.416  -8.694  1.00  0.00     0.012 C 
ATOM      2  C   UNL     1       2.173   7.649  -9.722  1.00  0.00     0.053 C 
ENDROOT
BRANCH   1   3
ATOM      3  C   UNL     1       0.182   6.496  -8.767  1.00  0.00    -0.025 A 
ATOM      4  C   UNL     1      -1.053   6.784  -8.149  1.00  0.00     0.012 A 
ATOM      5  C   UNL     1      -2.115   5.879  -8.237  1.00  0.00     0.047 A 
ATOM      6  C   UNL     1      -1.959   4.673  -8.930  1.00  0.00     0.115 A 
ATOM      7  C   UNL     1       0.332   5.276  -9.447  1.00  0.00     0.012 A 
ATOM      8  C   UNL     1      -0.733   4.374  -9.533  1.00  0.00     0.047 A 
BRANCH   6   9
ATOM      9  O   UNL     1      -3.011   3.765  -9.024  1.00  0.00    -0.508 OA
ATOM     10  H   UNL     1      -3.071   3.102  -9.788  1.00  0.00     0.293 HD
ENDBRANCH   6   9
ENDBRANCH   1   3
BRANCH   2  11
ATOM     11  C   UNL     1       3.330   8.563  -9.609  1.00  0.00     0.189 C 
ATOM     12  O   UNL     1       3.279   9.716 -10.117  1.00  0.00    -0.289 OA
BRANCH  11  13
ATOM     13  C   UNL     1       4.569   8.122  -8.928  1.00  0.00     0.064 A 
ATOM     14  C   UNL     1       5.211   8.921  -7.952  1.00  0.00     0.130 A 
ATOM     15  C   UNL     1       5.146   6.892  -9.291  1.00  0.00     0.020 A 
ATOM     16  C   UNL     1       6.420   8.494  -7.390  1.00  0.00     0.093 A 
ATOM     17  C   UNL     1       6.344   6.470  -8.711  1.00  0.00     0.047 A 
ATOM     18  C   UNL     1       6.987   7.272  -7.764  1.00  0.00     0.119 A 
BRANCH  14  19
ATOM     19  O   UNL     1       4.667  10.125  -7.496  1.00  0.00    -0.507 OA
ATOM     20  H   UNL     1       3.677  10.263  -7.343  1.00  0.00     0.293 HD
ENDBRANCH  14  19
BRANCH  18  21
ATOM     21  O   UNL     1       8.187   6.866  -7.185  1.00  0.00    -0.508 OA
ATOM     22  H   UNL     1       8.534   7.289  -6.331  1.00  0.00     0.293 HD
ENDBRANCH  18  21
ENDBRANCH  11  13
ENDBRANCH   2  11
TORSDOF 6
ENDMDL
MODEL 4
REMARK VINA RESULT:    -5.170     21.474     23.017
REMARK INTER + INTRA:          -7.132
REMARK INTER:                  -6.638
REMARK INTRA:                  -0.494
REMARK UNBOUND:                -0.602
REMARK SMILES O=C(C=Cc1ccc(O)cc1)c1ccc(O)cc1O
REMARK SMILES IDX 4 1 3 2 5 3 6 4 7 5 8 6 11 7 10 8 9 9 2 11 1 12 12 13 18 14
REMARK SMILES IDX 13 15 17 16 14 17 15 18 19 19 16 21
REMARK H PARENT 9 10 19 20 16 22
REMARK Flexibility Score: inf
ROOT
ATOM      1  C   UNL     1       2.653  -8.234   8.551  1.00  0.00     0.012 C 
ATOM      2  C   UNL     1       3.856  -7.725   8.248  1.00  0.00     0.053 C 
ENDROOT
BRANCH   1   3
ATOM      3  C   UNL     1       1.472  -7.406   8.898  1.00  0.00    -0.025 A 
ATOM      4  C   UNL     1       0.480  -7.841   9.802  1.00  0.00     0.012 A 
ATOM      5  C   UNL     1      -0.620  -7.027  10.088  1.00  0.00     0.047 A 
ATOM      6  C   UNL     1      -0.753  -5.778   9.471  1.00  0.00     0.115 A 
ATOM      7  C   UNL     1       1.320  -6.156   8.274  1.00  0.00     0.012 A 
ATOM      8  C   UNL     1       0.218  -5.346   8.563  1.00  0.00     0.047 A 
BRANCH   6   9
ATOM      9  O   UNL     1      -1.845  -4.959   9.750  1.00  0.00    -0.508 OA
ATOM     10  H   UNL     1      -2.542  -5.222  10.437  1.00  0.00     0.293 HD
ENDBRANCH   6   9
ENDBRANCH   1   3
BRANCH   2  11
ATOM     11  C   UNL     1       5.008  -8.581   7.893  1.00  0.00     0.189 C 
ATOM     12  O   UNL     1       5.826  -8.944   8.783  1.00  0.00    -0.289 OA
BRANCH  11  13
ATOM     13  C   UNL     1       5.231  -8.992   6.489  1.00  0.00     0.064 A 
ATOM     14  C   UNL     1       6.396  -9.692   6.090  1.00  0.00     0.130 A 
ATOM     15  C   UNL     1       4.277  -8.643   5.516  1.00  0.00     0.020 A 
ATOM     16  C   UNL     1       6.595  -9.993   4.737  1.00  0.00     0.093 A 
ATOM     17  C   UNL     1       4.481  -8.964   4.172  1.00  0.00     0.047 A 
ATOM     18  C   UNL     1       5.643  -9.635   3.779  1.00  0.00     0.119 A 
BRANCH  14  19
ATOM     19  O   UNL     1       7.357 -10.125   7.005  1.00  0.00    -0.507 OA
ATOM     20  H   UNL     1       7.271  -9.993   8.004  1.00  0.00     0.293 HD
ENDBRANCH  14  19
BRANCH  18  21
ATOM     21  O   UNL     1       5.861  -9.953   2.441  1.00  0.00    -0.508 OA
ATOM     22  H   UNL     1       5.176 -10.470   1.900  1.00  0.00     0.293 HD
ENDBRANCH  18  21
ENDBRANCH  11  13
ENDBRANCH   2  11
TORSDOF 6
ENDMDL
MODEL 5
REMARK VINA RESULT:    -4.897     21.360     22.283
REMARK INTER + INTRA:          -6.787
REMARK INTER:                  -6.279
REMARK INTRA:                  -0.507
REMARK UNBOUND:                -0.602
REMARK SMILES O=C(C=Cc1ccc(O)cc1)c1ccc(O)cc1O
REMARK SMILES IDX 4 1 3 2 5 3 6 4 7 5 8 6 11 7 10 8 9 9 2 11 1 12 12 13 18 14
REMARK SMILES IDX 13 15 17 16 14 17 15 18 19 19 16 21
REMARK H PARENT 9 10 19 20 16 22
REMARK Flexibility Score: inf
ROOT
ATOM      1  C   UNL     1       4.279  -8.988   6.977  1.00  0.00     0.012 C 
ATOM      2  C   UNL     1       4.543  -7.909   7.728  1.00  0.00     0.053 C 
ENDROOT
BRANCH   1   3
ATOM      3  C   UNL     1       4.874  -9.225   5.638  1.00  0.00    -0.025 A 
ATOM      4  C   UNL     1       4.220  -8.864   4.443  1.00  0.00     0.012 A 
ATOM      5  C   UNL     1       4.818  -9.119   3.205  1.00  0.00     0.047 A 
ATOM      6  C   UNL     1       6.068  -9.746   3.141  1.00  0.00     0.115 A 
ATOM      7  C   UNL     1       6.122  -9.868   5.561  1.00  0.00     0.012 A 
ATOM      8  C   UNL     1       6.716 -10.120   4.322  1.00  0.00     0.047 A 
BRANCH   6   9
ATOM      9  O   UNL     1       6.673 -10.003   1.913  1.00  0.00    -0.508 OA
ATOM     10  H   UNL     1       6.157 -10.419   1.145  1.00  0.00     0.293 HD
ENDBRANCH   6   9
ENDBRANCH   1   3
BRANCH   2  11
ATOM     11  C   UNL     1       3.942  -7.712   9.064  1.00  0.00     0.189 C 
ATOM     12  O   UNL     1       4.544  -8.117  10.096  1.00  0.00    -0.289 OA
BRANCH  11  13
ATOM     13  C   UNL     1       2.616  -7.068   9.201  1.00  0.00     0.064 A 
ATOM     14  C   UNL     1       2.481  -5.681   9.452  1.00  0.00     0.130 A 
ATOM     15  C   UNL     1       1.459  -7.863   9.119  1.00  0.00     0.020 A 
ATOM     16  C   UNL     1       1.208  -5.132   9.647  1.00  0.00     0.093 A 
ATOM     17  C   UNL     1       0.194  -7.300   9.299  1.00  0.00     0.047 A 
ATOM     18  C   UNL     1       0.066  -5.934   9.570  1.00  0.00     0.119 A 
BRANCH  14  19
ATOM     19  O   UNL     1       3.578  -4.817   9.487  1.00  0.00    -0.507 OA
ATOM     20  H   UNL     1       3.859  -4.311  10.316  1.00  0.00     0.293 HD
ENDBRANCH  14  19
BRANCH  18  21
ATOM     21  O   UNL     1      -1.190  -5.362   9.760  1.00  0.00    -0.508 OA
ATOM     22  H   UNL     1      -1.475  -4.530   9.256  1.00  0.00     0.293 HD
ENDBRANCH  18  21
ENDBRANCH  11  13
ENDBRANCH   2  11
TORSDOF 6
ENDMDL
MODEL 6
REMARK VINA RESULT:    -4.747      2.005      7.424
REMARK INTER + INTRA:          -6.597
REMARK INTER:                  -5.957
REMARK INTRA:                  -0.640
REMARK UNBOUND:                -0.602
REMARK SMILES O=C(C=Cc1ccc(O)cc1)c1ccc(O)cc1O
REMARK SMILES IDX 4 1 3 2 5 3 6 4 7 5 8 6 11 7 10 8 9 9 2 11 1 12 12 13 18 14
REMARK SMILES IDX 13 15 17 16 14 17 15 18 19 19 16 21
REMARK H PARENT 9 10 19 20 16 22
REMARK Flexibility Score: inf
ROOT
ATOM      1  C   UNL     1       3.148   8.684  -8.213  1.00  0.00     0.012 C 
ATOM      2  C   UNL     1       4.042   8.189  -9.081  1.00  0.00     0.053 C 
ENDROOT
BRANCH   1   3
ATOM      3  C   UNL     1       1.683   8.485  -8.335  1.00  0.00    -0.025 A 
ATOM      4  C   UNL     1       0.969   7.585  -7.517  1.00  0.00     0.012 A 
ATOM      5  C   UNL     1      -0.411   7.424  -7.679  1.00  0.00     0.047 A 
ATOM      6  C   UNL     1      -1.094   8.148  -8.663  1.00  0.00     0.115 A 
ATOM      7  C   UNL     1       0.989   9.194  -9.330  1.00  0.00     0.012 A 
ATOM      8  C   UNL     1      -0.391   9.031  -9.488  1.00  0.00     0.047 A 
BRANCH   6   9
ATOM      9  O   UNL     1      -2.468   7.996  -8.832  1.00  0.00    -0.508 OA
ATOM     10  H   UNL     1      -2.969   8.485  -9.565  1.00  0.00     0.293 HD
ENDBRANCH   6   9
ENDBRANCH   1   3
BRANCH   2  11
ATOM     11  C   UNL     1       5.496   8.397  -8.920  1.00  0.00     0.189 C 
ATOM     12  O   UNL     1       6.007   9.524  -9.164  1.00  0.00    -0.289 OA
BRANCH  11  13
ATOM     13  C   UNL     1       6.371   7.277  -8.501  1.00  0.00     0.064 A 
ATOM     14  C   UNL     1       7.571   7.494  -7.782  1.00  0.00     0.130 A 
ATOM     15  C   UNL     1       6.019   5.965  -8.863  1.00  0.00     0.020 A 
ATOM     16  C   UNL     1       8.401   6.409  -7.474  1.00  0.00     0.093 A 
ATOM     17  C   UNL     1       6.847   4.890  -8.535  1.00  0.00     0.047 A 
ATOM     18  C   UNL     1       8.043   5.110  -7.845  1.00  0.00     0.119 A 
BRANCH  14  19
ATOM     19  O   UNL     1       7.956   8.760  -7.336  1.00  0.00    -0.507 OA
ATOM     20  H   UNL     1       8.620   8.905  -6.586  1.00  0.00     0.293 HD
ENDBRANCH  14  19
BRANCH  18  21
ATOM     21  O   UNL     1       8.883   4.047  -7.521  1.00  0.00    -0.508 OA
ATOM     22  H   UNL     1       9.127   3.839  -6.559  1.00  0.00     0.293 HD
ENDBRANCH  18  21
ENDBRANCH  11  13
ENDBRANCH   2  11
TORSDOF 6
ENDMDL
MODEL 7
REMARK VINA RESULT:    -3.710     21.323     23.147
REMARK INTER + INTRA:          -5.287
REMARK INTER:                  -4.677
REMARK INTRA:                  -0.610
REMARK UNBOUND:                -0.602
REMARK SMILES O=C(C=Cc1ccc(O)cc1)c1ccc(O)cc1O
REMARK SMILES IDX 4 1 3 2 5 3 6 4 7 5 8 6 11 7 10 8 9 9 2 11 1 12 12 13 18 14
REMARK SMILES IDX 13 15 17 16 14 17 15 18 19 19 16 21
REMARK H PARENT 9 10 19 20 16 22
REMARK Flexibility Score: inf
ROOT
ATOM      1  C   UNL     1      -1.579  -4.946   9.741  1.00  0.00     0.012 C 
ATOM      2  C   UNL     1      -0.838  -6.014   9.411  1.00  0.00     0.053 C 
ENDROOT
BRANCH   1   3
ATOM      3  C   UNL     1      -3.061  -4.963   9.812  1.00  0.00    -0.025 A 
ATOM      4  C   UNL     1      -3.839  -3.792   9.695  1.00  0.00     0.012 A 
ATOM      5  C   UNL     1      -5.233  -3.858   9.781  1.00  0.00     0.047 A 
ATOM      6  C   UNL     1      -5.869  -5.087   9.994  1.00  0.00     0.115 A 
ATOM      7  C   UNL     1      -3.710  -6.188  10.041  1.00  0.00     0.012 A 
ATOM      8  C   UNL     1      -5.104  -6.250  10.125  1.00  0.00     0.047 A 
BRANCH   6   9
ATOM      9  O   UNL     1      -7.257  -5.164  10.079  1.00  0.00    -0.508 OA
ATOM     10  H   UNL     1      -7.753  -6.025   9.879  1.00  0.00     0.293 HD
ENDBRANCH   6   9
ENDBRANCH   1   3
BRANCH   2  11
ATOM     11  C   UNL     1       0.639  -5.965   9.363  1.00  0.00     0.189 C 
ATOM     12  O   UNL     1       1.272  -5.184  10.125  1.00  0.00    -0.289 OA
BRANCH  11  13
ATOM     13  C   UNL     1       1.385  -6.807   8.401  1.00  0.00     0.064 A 
ATOM     14  C   UNL     1       2.601  -6.377   7.817  1.00  0.00     0.130 A 
ATOM     15  C   UNL     1       0.851  -8.053   8.027  1.00  0.00     0.020 A 
ATOM     16  C   UNL     1       3.231  -7.178   6.856  1.00  0.00     0.093 A 
ATOM     17  C   UNL     1       1.498  -8.849   7.080  1.00  0.00     0.047 A 
ATOM     18  C   UNL     1       2.686  -8.411   6.487  1.00  0.00     0.119 A 
BRANCH  14  19
ATOM     19  O   UNL     1       3.224  -5.181   8.183  1.00  0.00    -0.507 OA
ATOM     20  H   UNL     1       2.893  -4.591   8.934  1.00  0.00     0.293 HD
ENDBRANCH  14  19
BRANCH  18  21
ATOM     21  O   UNL     1       3.336  -9.192   5.535  1.00  0.00    -0.508 OA
ATOM     22  H   UNL     1       4.296  -9.492   5.661  1.00  0.00     0.293 HD
ENDBRANCH  18  21
ENDBRANCH  11  13
ENDBRANCH   2  11
TORSDOF 6
ENDMDL
MODEL 8
REMARK VINA RESULT:    -3.387      1.457      7.414
REMARK INTER + INTRA:          -4.880
REMARK INTER:                  -4.702
REMARK INTRA:                  -0.178
REMARK UNBOUND:                -0.602
REMARK SMILES O=C(C=Cc1ccc(O)cc1)c1ccc(O)cc1O
REMARK SMILES IDX 4 1 3 2 5 3 6 4 7 5 8 6 11 7 10 8 9 9 2 11 1 12 12 13 18 14
REMARK SMILES IDX 13 15 17 16 14 17 15 18 19 19 16 21
REMARK H PARENT 9 10 19 20 16 22
REMARK Flexibility Score: inf
ROOT
ATOM      1  C   UNL     1       1.054   7.758  -8.465  1.00  0.00     0.012 C 
ATOM      2  C   UNL     1       2.036   7.912  -9.366  1.00  0.00     0.053 C 
ENDROOT
BRANCH   1   3
ATOM      3  C   UNL     1      -0.021   6.742  -8.585  1.00  0.00    -0.025 A 
ATOM      4  C   UNL     1      -1.258   6.865  -7.919  1.00  0.00     0.012 A 
ATOM      5  C   UNL     1      -2.235   5.874  -8.056  1.00  0.00     0.047 A 
ATOM      6  C   UNL     1      -1.989   4.745  -8.846  1.00  0.00     0.115 A 
ATOM      7  C   UNL     1       0.220   5.597  -9.364  1.00  0.00     0.012 A 
ATOM      8  C   UNL     1      -0.760   4.609  -9.498  1.00  0.00     0.047 A 
BRANCH   6   9
ATOM      9  O   UNL     1      -2.957   3.753  -8.990  1.00  0.00    -0.508 OA
ATOM     10  H   UNL     1      -3.333   3.260  -8.188  1.00  0.00     0.293 HD
ENDBRANCH   6   9
ENDBRANCH   1   3
BRANCH   2  11
ATOM     11  C   UNL     1       3.099   8.927  -9.207  1.00  0.00     0.189 C 
ATOM     12  O   UNL     1       2.892  10.122  -9.555  1.00  0.00    -0.289 OA
BRANCH  11  13
ATOM     13  C   UNL     1       4.424   8.545  -8.667  1.00  0.00     0.064 A 
ATOM     14  C   UNL     1       5.098   7.377  -9.098  1.00  0.00     0.130 A 
ATOM     15  C   UNL     1       5.010   9.345  -7.670  1.00  0.00     0.020 A 
ATOM     16  C   UNL     1       6.315   7.020  -8.504  1.00  0.00     0.093 A 
ATOM     17  C   UNL     1       6.232   8.985  -7.097  1.00  0.00     0.047 A 
ATOM     18  C   UNL     1       6.885   7.819  -7.508  1.00  0.00     0.119 A 
BRANCH  14  19
ATOM     19  O   UNL     1       4.609   6.567 -10.125  1.00  0.00    -0.507 OA
ATOM     20  H   UNL     1       4.636   6.832 -11.100  1.00  0.00     0.293 HD
ENDBRANCH  14  19
BRANCH  18  21
ATOM     21  O   UNL     1       8.099   7.445  -6.938  1.00  0.00    -0.508 OA
ATOM     22  H   UNL     1       8.982   7.794  -7.295  1.00  0.00     0.293 HD
ENDBRANCH  18  21
ENDBRANCH  11  13
ENDBRANCH   2  11
TORSDOF 6
ENDMDL
