MODEL 1
REMARK VINA RESULT:    -4.372      0.000      0.000
REMARK INTER + INTRA:          -5.232
REMARK INTER:                  -5.139
REMARK INTRA:                  -0.092
REMARK UNBOUND:                -0.092
REMARK SMILES CCCCC(=O)[O-]
REMARK SMILES IDX 4 1 5 2 6 3 7 4 3 5 2 6 1 7
REMARK H PARENT
REMARK Flexibility Score: inf
ROOT
ATOM      1  C   UNL     1      28.764   2.920   5.880  1.00  0.00     0.053 C 
ENDROOT
BRANCH   1   2
ATOM      2  C   UNL     1      27.766   2.615   4.809  1.00  0.00     0.041 C 
ATOM      3  O   UNL     1      27.316   1.446   4.676  1.00  0.00    -0.550 OA
ATOM      4  O   UNL     1      27.294   3.632   3.989  1.00  0.00    -0.550 OA
ENDBRANCH   1   2
BRANCH   1   5
ATOM      5  C   UNL     1      29.853   3.856   5.347  1.00  0.00     0.006 C 
BRANCH   5   6
ATOM      6  C   UNL     1      29.814   5.209   6.067  1.00  0.00    -0.003 C 
ATOM      7  C   UNL     1      29.026   5.117   7.371  1.00  0.00     0.004 C 
ENDBRANCH   5   6
ENDBRANCH   1   5
TORSDOF 3
ENDMDL
MODEL 2
REMARK VINA RESULT:    -4.353      0.096      1.227
REMARK INTER + INTRA:          -5.209
REMARK INTER:                  -5.116
REMARK INTRA:                  -0.093
REMARK UNBOUND:                -0.092
REMARK SMILES CCCCC(=O)[O-]
REMARK SMILES IDX 4 1 5 2 6 3 7 4 3 5 2 6 1 7
REMARK H PARENT
REMARK Flexibility Score: inf
ROOT
ATOM      1  C   UNL     1      28.838   2.968   5.859  1.00  0.00     0.053 C 
ENDROOT
BRANCH   1   2
ATOM      2  C   UNL     1      27.790   2.668   4.836  1.00  0.00     0.041 C 
ATOM      3  O   UNL     1      27.395   3.569   4.050  1.00  0.00    -0.550 OA
ATOM      4  O   UNL     1      27.283   1.380   4.718  1.00  0.00    -0.550 OA
ENDBRANCH   1   2
BRANCH   1   5
ATOM      5  C   UNL     1      29.854   3.972   5.307  1.00  0.00     0.006 C 
BRANCH   5   6
ATOM      6  C   UNL     1      29.802   5.292   6.086  1.00  0.00    -0.003 C 
ATOM      7  C   UNL     1      29.072   5.118   7.415  1.00  0.00     0.004 C 
ENDBRANCH   5   6
ENDBRANCH   1   5
TORSDOF 3
ENDMDL
MODEL 3
REMARK VINA RESULT:    -4.319      2.473      3.706
REMARK INTER + INTRA:          -5.169
REMARK INTER:                  -5.152
REMARK INTRA:                  -0.017
REMARK UNBOUND:                -0.092
REMARK SMILES CCCCC(=O)[O-]
REMARK SMILES IDX 4 1 5 2 6 3 7 4 3 5 2 6 1 7
REMARK H PARENT
REMARK Flexibility Score: inf
ROOT
ATOM      1  C   UNL     1      29.964   4.117   5.488  1.00  0.00     0.053 C 
ENDROOT
BRANCH   1   2
ATOM      2  C   UNL     1      29.616   5.254   6.394  1.00  0.00     0.041 C 
ATOM      3  O   UNL     1      29.935   6.433   6.083  1.00  0.00    -0.550 OA
ATOM      4  O   UNL     1      28.897   5.021   7.559  1.00  0.00    -0.550 OA
ENDBRANCH   1   2
BRANCH   1   5
ATOM      5  C   UNL     1      29.068   2.909   5.775  1.00  0.00     0.006 C 
BRANCH   5   6
ATOM      6  C   UNL     1      28.230   2.543   4.545  1.00  0.00    -0.003 C 
ATOM      7  C   UNL     1      27.535   3.772   3.966  1.00  0.00     0.004 C 
ENDBRANCH   5   6
ENDBRANCH   1   5
TORSDOF 3
ENDMDL
MODEL 4
REMARK VINA RESULT:    -4.284      1.508      1.817
REMARK INTER + INTRA:          -5.127
REMARK INTER:                  -5.044
REMARK INTRA:                  -0.083
REMARK UNBOUND:                -0.092
REMARK SMILES CCCCC(=O)[O-]
REMARK SMILES IDX 4 1 5 2 6 3 7 4 3 5 2 6 1 7
REMARK H PARENT
REMARK Flexibility Score: inf
ROOT
ATOM      1  C   UNL     1      27.601   3.584   4.124  1.00  0.00     0.053 C 
ENDROOT
BRANCH   1   2
ATOM      2  C   UNL     1      27.947   2.187   4.527  1.00  0.00     0.041 C 
ATOM      3  O   UNL     1      28.719   1.494   3.812  1.00  0.00    -0.550 OA
ATOM      4  O   UNL     1      27.458   1.664   5.717  1.00  0.00    -0.550 OA
ENDBRANCH   1   2
BRANCH   1   5
ATOM      5  C   UNL     1      27.917   4.564   5.258  1.00  0.00     0.006 C 
BRANCH   5   6
ATOM      6  C   UNL     1      29.427   4.642   5.511  1.00  0.00    -0.003 C 
ATOM      7  C   UNL     1      29.830   6.024   6.017  1.00  0.00     0.004 C 
ENDBRANCH   5   6
ENDBRANCH   1   5
TORSDOF 3
ENDMDL
MODEL 5
REMARK VINA RESULT:    -4.186      1.995      3.591
REMARK INTER + INTRA:          -5.012
REMARK INTER:                  -4.982
REMARK INTRA:                  -0.030
REMARK UNBOUND:                -0.092
REMARK SMILES CCCCC(=O)[O-]
REMARK SMILES IDX 4 1 5 2 6 3 7 4 3 5 2 6 1 7
REMARK H PARENT
REMARK Flexibility Score: inf
ROOT
ATOM      1  C   UNL     1      28.568   2.707   5.778  1.00  0.00     0.053 C 
ENDROOT
BRANCH   1   2
ATOM      2  C   UNL     1      27.978   3.820   4.973  1.00  0.00     0.041 C 
ATOM      3  O   UNL     1      27.312   3.566   3.934  1.00  0.00    -0.550 OA
ATOM      4  O   UNL     1      28.120   5.136   5.395  1.00  0.00    -0.550 OA
ENDBRANCH   1   2
BRANCH   1   5
ATOM      5  C   UNL     1      27.770   1.416   5.577  1.00  0.00     0.006 C 
BRANCH   5   6
ATOM      6  C   UNL     1      28.657   0.183   5.784  1.00  0.00    -0.003 C 
ATOM      7  C   UNL     1      28.724  -0.667   4.518  1.00  0.00     0.004 C 
ENDBRANCH   5   6
ENDBRANCH   1   5
TORSDOF 3
ENDMDL
MODEL 6
REMARK VINA RESULT:    -4.165      2.263      3.536
REMARK INTER + INTRA:          -4.988
REMARK INTER:                  -4.851
REMARK INTRA:                  -0.137
REMARK UNBOUND:                -0.092
REMARK SMILES CCCCC(=O)[O-]
REMARK SMILES IDX 4 1 5 2 6 3 7 4 3 5 2 6 1 7
REMARK H PARENT
REMARK Flexibility Score: inf
ROOT
ATOM      1  C   UNL     1      27.875   4.185   4.945  1.00  0.00     0.053 C 
ENDROOT
BRANCH   1   2
ATOM      2  C   UNL     1      29.024   4.416   5.873  1.00  0.00     0.041 C 
ATOM      3  O   UNL     1      28.824   4.885   7.025  1.00  0.00    -0.550 OA
ATOM      4  O   UNL     1      30.312   4.069   5.486  1.00  0.00    -0.550 OA
ENDBRANCH   1   2
BRANCH   1   5
ATOM      5  C   UNL     1      27.894   2.748   4.415  1.00  0.00     0.006 C 
BRANCH   5   6
ATOM      6  C   UNL     1      27.593   1.746   5.535  1.00  0.00    -0.003 C 
ATOM      7  C   UNL     1      28.597   0.597   5.531  1.00  0.00     0.004 C 
ENDBRANCH   5   6
ENDBRANCH   1   5
TORSDOF 3
ENDMDL
MODEL 7
REMARK VINA RESULT:    -2.636     17.083     17.577
REMARK INTER + INTRA:          -3.190
REMARK INTER:                  -3.150
REMARK INTRA:                  -0.040
REMARK UNBOUND:                -0.092
REMARK SMILES CCCCC(=O)[O-]
REMARK SMILES IDX 4 1 5 2 6 3 7 4 3 5 2 6 1 7
REMARK H PARENT
REMARK Flexibility Score: inf
ROOT
ATOM      1  C   UNL     1      27.691  11.003  21.931  1.00  0.00     0.053 C 
ENDROOT
BRANCH   1   2
ATOM      2  C   UNL     1      28.430   9.703  21.960  1.00  0.00     0.041 C 
ATOM      3  O   UNL     1      29.688   9.688  21.902  1.00  0.00    -0.550 OA
ATOM      4  O   UNL     1      27.733   8.510  22.100  1.00  0.00    -0.550 OA
ENDBRANCH   1   2
BRANCH   1   5
ATOM      5  C   UNL     1      27.623  11.550  20.502  1.00  0.00     0.006 C 
BRANCH   5   6
ATOM      6  C   UNL     1      28.111  13.001  20.445  1.00  0.00    -0.003 C 
ATOM      7  C   UNL     1      29.063  13.217  19.271  1.00  0.00     0.004 C 
ENDBRANCH   5   6
ENDBRANCH   1   5
TORSDOF 3
ENDMDL
MODEL 8
REMARK VINA RESULT:    -2.546     17.814     18.357
REMARK INTER + INTRA:          -3.084
REMARK INTER:                  -3.035
REMARK INTRA:                  -0.049
REMARK UNBOUND:                -0.092
REMARK SMILES CCCCC(=O)[O-]
REMARK SMILES IDX 4 1 5 2 6 3 7 4 3 5 2 6 1 7
REMARK H PARENT
REMARK Flexibility Score: inf
ROOT
ATOM      1  C   UNL     1      29.712  12.251  21.054  1.00  0.00     0.053 C 
ENDROOT
BRANCH   1   2
ATOM      2  C   UNL     1      31.135  12.707  21.008  1.00  0.00     0.041 C 
ATOM      3  O   UNL     1      31.852  12.653  22.042  1.00  0.00    -0.550 OA
ATOM      4  O   UNL     1      31.686  13.145  19.810  1.00  0.00    -0.550 OA
ENDBRANCH   1   2
BRANCH   1   5
ATOM      5  C   UNL     1      29.460  11.403  22.304  1.00  0.00     0.006 C 
BRANCH   5   6
ATOM      6  C   UNL     1      29.465   9.908  21.964  1.00  0.00    -0.003 C 
ATOM      7  C   UNL     1      28.086   9.291  22.177  1.00  0.00     0.004 C 
ENDBRANCH   5   6
ENDBRANCH   1   5
TORSDOF 3
ENDMDL
MODEL 9
REMARK VINA RESULT:    -2.481     17.575     18.019
REMARK INTER + INTRA:          -3.008
REMARK INTER:                  -2.936
REMARK INTRA:                  -0.072
REMARK UNBOUND:                -0.092
REMARK SMILES CCCCC(=O)[O-]
REMARK SMILES IDX 4 1 5 2 6 3 7 4 3 5 2 6 1 7
REMARK H PARENT
REMARK Flexibility Score: inf
ROOT
ATOM      1  C   UNL     1      46.183  -1.612   8.324  1.00  0.00     0.053 C 
ENDROOT
BRANCH   1   2
ATOM      2  C   UNL     1      45.220  -2.473   7.571  1.00  0.00     0.041 C 
ATOM      3  O   UNL     1      44.156  -2.865   8.121  1.00  0.00    -0.550 OA
ATOM      4  O   UNL     1      45.471  -2.804   6.245  1.00  0.00    -0.550 OA
ENDBRANCH   1   2
BRANCH   1   5
ATOM      5  C   UNL     1      45.634  -0.189   8.463  1.00  0.00     0.006 C 
BRANCH   5   6
ATOM      6  C   UNL     1      46.671   0.845   8.010  1.00  0.00    -0.003 C 
ATOM      7  C   UNL     1      46.726   0.940   6.487  1.00  0.00     0.004 C 
ENDBRANCH   5   6
ENDBRANCH   1   5
TORSDOF 3
ENDMDL
