MODEL 1
REMARK VINA RESULT:    34.039      0.000      0.000
REMARK INTER + INTRA:          91.473
REMARK INTER:                  89.758
REMARK INTRA:                   1.715
REMARK UNBOUND:                 1.715
REMARK SMILES CCCCCCCCCCCCCCCCCCCCCCCCCCCCCC(=O)[O-]
REMARK SMILES IDX 16 1 17 2 18 3 19 4 20 5 21 6 22 7 23 8 24 9 25 10 26 11
REMARK SMILES IDX 27 12 28 13 29 14 30 15 31 16 32 17 15 18 14 19 13 20 12 21
REMARK SMILES IDX 11 22 10 23 9 24 8 25 7 26 6 27 5 28 4 29 3 30 2 31 1 32
REMARK H PARENT
REMARK Flexibility Score: inf
ROOT
ATOM      1  C   UNL     1      16.623   7.108  10.475  1.00  0.00     0.000 C 
ENDROOT
BRANCH   1   2
ATOM      2  C   UNL     1      17.015   7.384   9.015  1.00  0.00     0.000 C 
BRANCH   2   3
ATOM      3  C   UNL     1      18.083   6.413   8.484  1.00  0.00     0.000 C 
BRANCH   3   4
ATOM      4  C   UNL     1      17.548   5.057   7.985  1.00  0.00     0.000 C 
BRANCH   4   5
ATOM      5  C   UNL     1      16.563   5.163   6.801  1.00  0.00     0.000 C 
BRANCH   5   6
ATOM      6  C   UNL     1      15.104   5.310   7.257  1.00  0.00     0.000 C 
BRANCH   6   7
ATOM      7  C   UNL     1      14.978   6.311   8.411  1.00  0.00     0.000 C 
BRANCH   7   8
ATOM      8  C   UNL     1      14.443   7.658   7.908  1.00  0.00     0.000 C 
BRANCH   8   9
ATOM      9  C   UNL     1      13.359   7.463   6.842  1.00  0.00     0.000 C 
BRANCH   9  10
ATOM     10  C   UNL     1      11.957   7.560   7.463  1.00  0.00     0.000 C 
BRANCH  10  11
ATOM     11  C   UNL     1      11.244   6.202   7.535  1.00  0.00     0.000 C 
BRANCH  11  12
ATOM     12  C   UNL     1      10.191   6.139   8.656  1.00  0.00     0.000 C 
BRANCH  12  13
ATOM     13  C   UNL     1      10.504   5.053   9.698  1.00  0.00     0.006 C 
BRANCH  13  14
ATOM     14  C   UNL     1       9.634   3.800   9.523  1.00  0.00     0.053 C 
BRANCH  14  15
ATOM     15  C   UNL     1      10.491   2.592   9.309  1.00  0.00     0.041 C 
ATOM     16  O   UNL     1      11.065   2.038  10.284  1.00  0.00    -0.550 OA
ATOM     17  O   UNL     1      10.629   2.056   8.035  1.00  0.00    -0.550 OA
ENDBRANCH  14  15
ENDBRANCH  13  14
ENDBRANCH  12  13
ENDBRANCH  11  12
ENDBRANCH  10  11
ENDBRANCH   9  10
ENDBRANCH   8   9
ENDBRANCH   7   8
ENDBRANCH   6   7
ENDBRANCH   5   6
ENDBRANCH   4   5
ENDBRANCH   3   4
ENDBRANCH   2   3
ENDBRANCH   1   2
BRANCH   1  18
ATOM     18  C   UNL     1      17.479   7.940  11.445  1.00  0.00     0.000 C 
BRANCH  18  19
ATOM     19  C   UNL     1      16.987   7.862  12.906  1.00  0.00     0.000 C 
BRANCH  19  20
ATOM     20  C   UNL     1      18.112   7.850  13.958  1.00  0.00     0.000 C 
BRANCH  20  21
ATOM     21  C   UNL     1      17.686   7.497  15.397  1.00  0.00     0.000 C 
BRANCH  21  22
ATOM     22  C   UNL     1      17.944   6.038  15.827  1.00  0.00     0.000 C 
BRANCH  22  23
ATOM     23  C   UNL     1      18.125   5.839  17.347  1.00  0.00     0.000 C 
BRANCH  23  24
ATOM     24  C   UNL     1      17.692   7.046  18.199  1.00  0.00    -0.000 C 
BRANCH  24  25
ATOM     25  C   UNL     1      16.931   6.666  19.485  1.00  0.00    -0.000 C 
BRANCH  25  26
ATOM     26  C   UNL     1      16.829   5.143  19.675  1.00  0.00    -0.000 C 
BRANCH  26  27
ATOM     27  C   UNL     1      15.375   4.644  19.735  1.00  0.00    -0.000 C 
BRANCH  27  28
ATOM     28  C   UNL     1      14.533   4.957  18.484  1.00  0.00    -0.000 C 
BRANCH  28  29
ATOM     29  C   UNL     1      13.031   4.693  18.691  1.00  0.00    -0.000 C 
BRANCH  29  30
ATOM     30  C   UNL     1      12.766   3.634  19.780  1.00  0.00    -0.000 C 
BRANCH  30  31
ATOM     31  C   UNL     1      11.685   2.611  19.391  1.00  0.00    -0.003 C 
ATOM     32  C   UNL     1      12.265   1.285  18.903  1.00  0.00     0.004 C 
ENDBRANCH  30  31
ENDBRANCH  29  30
ENDBRANCH  28  29
ENDBRANCH  27  28
ENDBRANCH  26  27
ENDBRANCH  25  26
ENDBRANCH  24  25
ENDBRANCH  23  24
ENDBRANCH  22  23
ENDBRANCH  21  22
ENDBRANCH  20  21
ENDBRANCH  19  20
ENDBRANCH  18  19
ENDBRANCH   1  18
TORSDOF 28
ENDMDL
MODEL 2
REMARK VINA RESULT:    34.680      1.464      3.057
REMARK INTER + INTRA:          93.163
REMARK INTER:                  94.153
REMARK INTRA:                  -0.989
REMARK UNBOUND:                 1.715
REMARK SMILES CCCCCCCCCCCCCCCCCCCCCCCCCCCCCC(=O)[O-]
REMARK SMILES IDX 16 1 17 2 18 3 19 4 20 5 21 6 22 7 23 8 24 9 25 10 26 11
REMARK SMILES IDX 27 12 28 13 29 14 30 15 31 16 32 17 15 18 14 19 13 20 12 21
REMARK SMILES IDX 11 22 10 23 9 24 8 25 7 26 6 27 5 28 4 29 3 30 2 31 1 32
REMARK H PARENT
REMARK Flexibility Score: inf
ROOT
ATOM      1  C   UNL     1      17.098   7.352  13.852  1.00  0.00     0.000 C 
ENDROOT
BRANCH   1   2
ATOM      2  C   UNL     1      18.059   7.522  12.664  1.00  0.00     0.000 C 
BRANCH   2   3
ATOM      3  C   UNL     1      17.338   7.889  11.356  1.00  0.00     0.000 C 
BRANCH   3   4
ATOM      4  C   UNL     1      18.125   7.592  10.065  1.00  0.00     0.000 C 
BRANCH   4   5
ATOM      5  C   UNL     1      18.018   6.131   9.581  1.00  0.00     0.000 C 
BRANCH   5   6
ATOM      6  C   UNL     1      16.991   5.954   8.452  1.00  0.00     0.000 C 
BRANCH   6   7
ATOM      7  C   UNL     1      16.463   7.307   7.962  1.00  0.00     0.000 C 
BRANCH   7   8
ATOM      8  C   UNL     1      14.931   7.348   8.022  1.00  0.00     0.000 C 
BRANCH   8   9
ATOM      9  C   UNL     1      14.332   5.939   7.933  1.00  0.00     0.000 C 
BRANCH   9  10
ATOM     10  C   UNL     1      13.024   5.849   8.734  1.00  0.00     0.000 C 
BRANCH  10  11
ATOM     11  C   UNL     1      11.903   6.715   8.140  1.00  0.00     0.000 C 
BRANCH  11  12
ATOM     12  C   UNL     1      11.321   6.127   6.841  1.00  0.00     0.000 C 
BRANCH  12  13
ATOM     13  C   UNL     1      10.466   4.875   7.093  1.00  0.00     0.006 C 
BRANCH  13  14
ATOM     14  C   UNL     1      10.296   4.568   8.588  1.00  0.00     0.053 C 
BRANCH  14  15
ATOM     15  C   UNL     1      10.629   3.137   8.872  1.00  0.00     0.041 C 
ATOM     16  O   UNL     1      11.157   2.419   7.981  1.00  0.00    -0.550 OA
ATOM     17  O   UNL     1      10.388   2.604  10.131  1.00  0.00    -0.550 OA
ENDBRANCH  14  15
ENDBRANCH  13  14
ENDBRANCH  12  13
ENDBRANCH  11  12
ENDBRANCH  10  11
ENDBRANCH   9  10
ENDBRANCH   8   9
ENDBRANCH   7   8
ENDBRANCH   6   7
ENDBRANCH   5   6
ENDBRANCH   4   5
ENDBRANCH   3   4
ENDBRANCH   2   3
ENDBRANCH   1   2
BRANCH   1  18
ATOM     18  C   UNL     1      17.854   7.428  15.190  1.00  0.00     0.000 C 
BRANCH  18  19
ATOM     19  C   UNL     1      17.527   6.255  16.137  1.00  0.00     0.000 C 
BRANCH  19  20
ATOM     20  C   UNL     1      18.021   6.445  17.584  1.00  0.00     0.000 C 
BRANCH  20  21
ATOM     21  C   UNL     1      16.951   6.859  18.613  1.00  0.00     0.000 C 
BRANCH  21  22
ATOM     22  C   UNL     1      16.077   8.067  18.215  1.00  0.00     0.000 C 
BRANCH  22  23
ATOM     23  C   UNL     1      14.763   8.200  19.014  1.00  0.00     0.000 C 
BRANCH  23  24
ATOM     24  C   UNL     1      13.489   8.118  18.154  1.00  0.00    -0.000 C 
BRANCH  24  25
ATOM     25  C   UNL     1      12.222   7.735  18.944  1.00  0.00    -0.000 C 
BRANCH  25  26
ATOM     26  C   UNL     1      12.185   6.239  19.301  1.00  0.00    -0.000 C 
BRANCH  26  27
ATOM     27  C   UNL     1      11.096   5.469  18.535  1.00  0.00    -0.000 C 
BRANCH  27  28
ATOM     28  C   UNL     1      11.103   3.946  18.760  1.00  0.00    -0.000 C 
BRANCH  28  29
ATOM     29  C   UNL     1      12.337   3.461  19.542  1.00  0.00    -0.000 C 
BRANCH  29  30
ATOM     30  C   UNL     1      12.054   2.178  20.348  1.00  0.00    -0.000 C 
BRANCH  30  31
ATOM     31  C   UNL     1      12.414   0.887  19.593  1.00  0.00    -0.003 C 
ATOM     32  C   UNL     1      12.615   1.108  18.095  1.00  0.00     0.004 C 
ENDBRANCH  30  31
ENDBRANCH  29  30
ENDBRANCH  28  29
ENDBRANCH  27  28
ENDBRANCH  26  27
ENDBRANCH  25  26
ENDBRANCH  24  25
ENDBRANCH  23  24
ENDBRANCH  22  23
ENDBRANCH  21  22
ENDBRANCH  20  21
ENDBRANCH  19  20
ENDBRANCH  18  19
ENDBRANCH   1  18
TORSDOF 28
ENDMDL
MODEL 3
REMARK VINA RESULT:    36.258      3.656     10.715
REMARK INTER + INTRA:          97.323
REMARK INTER:                  96.617
REMARK INTRA:                   0.706
REMARK UNBOUND:                 1.715
REMARK SMILES CCCCCCCCCCCCCCCCCCCCCCCCCCCCCC(=O)[O-]
REMARK SMILES IDX 16 1 17 2 18 3 19 4 20 5 21 6 22 7 23 8 24 9 25 10 26 11
REMARK SMILES IDX 27 12 28 13 29 14 30 15 31 16 32 17 15 18 14 19 13 20 12 21
REMARK SMILES IDX 11 22 10 23 9 24 8 25 7 26 6 27 5 28 4 29 3 30 2 31 1 32
REMARK H PARENT
REMARK Flexibility Score: inf
ROOT
ATOM      1  C   UNL     1      17.219   6.868  15.684  1.00  0.00     0.000 C 
ENDROOT
BRANCH   1   2
ATOM      2  C   UNL     1      18.055   6.778  16.971  1.00  0.00     0.000 C 
BRANCH   2   3
ATOM      3  C   UNL     1      17.229   6.359  18.198  1.00  0.00     0.000 C 
BRANCH   3   4
ATOM      4  C   UNL     1      16.026   5.442  17.900  1.00  0.00     0.000 C 
BRANCH   4   5
ATOM      5  C   UNL     1      14.850   5.602  18.885  1.00  0.00     0.000 C 
BRANCH   5   6
ATOM      6  C   UNL     1      13.916   4.381  18.896  1.00  0.00     0.000 C 
BRANCH   6   7
ATOM      7  C   UNL     1      13.821   3.765  20.296  1.00  0.00     0.000 C 
BRANCH   7   8
ATOM      8  C   UNL     1      12.382   3.332  20.604  1.00  0.00     0.000 C 
BRANCH   8   9
ATOM      9  C   UNL     1      11.688   2.778  19.354  1.00  0.00     0.000 C 
BRANCH   9  10
ATOM     10  C   UNL     1      10.715   3.811  18.765  1.00  0.00     0.000 C 
BRANCH  10  11
ATOM     11  C   UNL     1       9.341   3.210  18.433  1.00  0.00     0.000 C 
BRANCH  11  12
ATOM     12  C   UNL     1       8.445   3.048  19.675  1.00  0.00     0.000 C 
BRANCH  12  13
ATOM     13  C   UNL     1       8.937   1.936  20.615  1.00  0.00     0.006 C 
BRANCH  13  14
ATOM     14  C   UNL     1       8.494   2.153  22.068  1.00  0.00     0.053 C 
BRANCH  14  15
ATOM     15  C   UNL     1       7.280   3.027  22.122  1.00  0.00     0.041 C 
ATOM     16  O   UNL     1       6.260   2.741  21.440  1.00  0.00    -0.550 OA
ATOM     17  O   UNL     1       7.262   4.140  22.952  1.00  0.00    -0.550 OA
ENDBRANCH  14  15
ENDBRANCH  13  14
ENDBRANCH  12  13
ENDBRANCH  11  12
ENDBRANCH  10  11
ENDBRANCH   9  10
ENDBRANCH   8   9
ENDBRANCH   7   8
ENDBRANCH   6   7
ENDBRANCH   5   6
ENDBRANCH   4   5
ENDBRANCH   3   4
ENDBRANCH   2   3
ENDBRANCH   1   2
BRANCH   1  18
ATOM     18  C   UNL     1      18.089   7.285  14.486  1.00  0.00     0.000 C 
BRANCH  18  19
ATOM     19  C   UNL     1      17.282   7.457  13.183  1.00  0.00     0.000 C 
BRANCH  19  20
ATOM     20  C   UNL     1      18.124   7.376  11.895  1.00  0.00     0.000 C 
BRANCH  20  21
ATOM     21  C   UNL     1      18.115   8.633  11.004  1.00  0.00     0.000 C 
BRANCH  21  22
ATOM     22  C   UNL     1      16.900   8.773  10.063  1.00  0.00     0.000 C 
BRANCH  22  23
ATOM     23  C   UNL     1      16.326   7.435   9.552  1.00  0.00     0.000 C 
BRANCH  23  24
ATOM     24  C   UNL     1      17.243   6.687   8.567  1.00  0.00    -0.000 C 
BRANCH  24  25
ATOM     25  C   UNL     1      16.936   5.182   8.442  1.00  0.00    -0.000 C 
BRANCH  25  26
ATOM     26  C   UNL     1      15.476   4.915   8.039  1.00  0.00    -0.000 C 
BRANCH  26  27
ATOM     27  C   UNL     1      14.801   6.139   7.395  1.00  0.00    -0.000 C 
BRANCH  27  28
ATOM     28  C   UNL     1      13.801   6.877   8.304  1.00  0.00    -0.000 C 
BRANCH  28  29
ATOM     29  C   UNL     1      12.659   7.547   7.520  1.00  0.00    -0.000 C 
BRANCH  29  30
ATOM     30  C   UNL     1      11.309   6.830   7.723  1.00  0.00    -0.000 C 
BRANCH  30  31
ATOM     31  C   UNL     1      11.451   5.394   8.256  1.00  0.00    -0.003 C 
ATOM     32  C   UNL     1      10.370   4.452   7.730  1.00  0.00     0.004 C 
ENDBRANCH  30  31
ENDBRANCH  29  30
ENDBRANCH  28  29
ENDBRANCH  27  28
ENDBRANCH  26  27
ENDBRANCH  25  26
ENDBRANCH  24  25
ENDBRANCH  23  24
ENDBRANCH  22  23
ENDBRANCH  21  22
ENDBRANCH  20  21
ENDBRANCH  19  20
ENDBRANCH  18  19
ENDBRANCH   1  18
TORSDOF 28
ENDMDL
MODEL 4
REMARK VINA RESULT:    36.306      1.942      3.485
REMARK INTER + INTRA:          97.451
REMARK INTER:                  98.527
REMARK INTRA:                  -1.076
REMARK UNBOUND:                 1.715
REMARK SMILES CCCCCCCCCCCCCCCCCCCCCCCCCCCCCC(=O)[O-]
REMARK SMILES IDX 16 1 17 2 18 3 19 4 20 5 21 6 22 7 23 8 24 9 25 10 26 11
REMARK SMILES IDX 27 12 28 13 29 14 30 15 31 16 32 17 15 18 14 19 13 20 12 21
REMARK SMILES IDX 11 22 10 23 9 24 8 25 7 26 6 27 5 28 4 29 3 30 2 31 1 32
REMARK H PARENT
REMARK Flexibility Score: inf
ROOT
ATOM      1  C   UNL     1      17.167   7.327  13.364  1.00  0.00     0.000 C 
ENDROOT
BRANCH   1   2
ATOM      2  C   UNL     1      17.988   7.616  12.097  1.00  0.00     0.000 C 
BRANCH   2   3
ATOM      3  C   UNL     1      17.116   8.009  10.892  1.00  0.00     0.000 C 
BRANCH   3   4
ATOM      4  C   UNL     1      17.766   7.791   9.511  1.00  0.00     0.000 C 
BRANCH   4   5
ATOM      5  C   UNL     1      18.069   6.314   9.181  1.00  0.00     0.000 C 
BRANCH   5   6
ATOM      6  C   UNL     1      17.101   5.730   8.140  1.00  0.00     0.000 C 
BRANCH   6   7
ATOM      7  C   UNL     1      15.642   6.020   8.512  1.00  0.00     0.000 C 
BRANCH   7   8
ATOM      8  C   UNL     1      14.852   6.493   7.285  1.00  0.00     0.000 C 
BRANCH   8   9
ATOM      9  C   UNL     1      14.140   7.823   7.561  1.00  0.00     0.000 C 
BRANCH   9  10
ATOM     10  C   UNL     1      12.672   7.589   7.946  1.00  0.00     0.000 C 
BRANCH  10  11
ATOM     11  C   UNL     1      11.927   6.705   6.934  1.00  0.00     0.000 C 
BRANCH  11  12
ATOM     12  C   UNL     1      11.356   5.423   7.569  1.00  0.00     0.000 C 
BRANCH  12  13
ATOM     13  C   UNL     1      10.627   5.696   8.893  1.00  0.00     0.006 C 
BRANCH  13  14
ATOM     14  C   UNL     1       9.668   4.563   9.283  1.00  0.00     0.053 C 
BRANCH  14  15
ATOM     15  C   UNL     1      10.397   3.258   9.348  1.00  0.00     0.041 C 
ATOM     16  O   UNL     1       9.775   2.194   9.613  1.00  0.00    -0.550 OA
ATOM     17  O   UNL     1      11.760   3.209   9.083  1.00  0.00    -0.550 OA
ENDBRANCH  14  15
ENDBRANCH  13  14
ENDBRANCH  12  13
ENDBRANCH  11  12
ENDBRANCH  10  11
ENDBRANCH   9  10
ENDBRANCH   8   9
ENDBRANCH   7   8
ENDBRANCH   6   7
ENDBRANCH   5   6
ENDBRANCH   4   5
ENDBRANCH   3   4
ENDBRANCH   2   3
ENDBRANCH   1   2
BRANCH   1  18
ATOM     18  C   UNL     1      17.910   7.800  14.625  1.00  0.00     0.000 C 
BRANCH  18  19
ATOM     19  C   UNL     1      17.979   6.722  15.727  1.00  0.00     0.000 C 
BRANCH  19  20
ATOM     20  C   UNL     1      17.793   7.259  17.158  1.00  0.00     0.000 C 
BRANCH  20  21
ATOM     21  C   UNL     1      17.474   6.207  18.238  1.00  0.00     0.000 C 
BRANCH  21  22
ATOM     22  C   UNL     1      16.574   5.039  17.782  1.00  0.00     0.000 C 
BRANCH  22  23
ATOM     23  C   UNL     1      15.175   5.013  18.434  1.00  0.00     0.000 C 
BRANCH  23  24
ATOM     24  C   UNL     1      14.286   3.841  17.980  1.00  0.00    -0.000 C 
BRANCH  24  25
ATOM     25  C   UNL     1      12.841   3.907  18.510  1.00  0.00    -0.000 C 
BRANCH  25  26
ATOM     26  C   UNL     1      12.570   5.192  19.310  1.00  0.00    -0.000 C 
BRANCH  26  27
ATOM     27  C   UNL     1      11.103   5.650  19.227  1.00  0.00    -0.000 C 
BRANCH  27  28
ATOM     28  C   UNL     1      10.904   7.176  19.185  1.00  0.00    -0.000 C 
BRANCH  28  29
ATOM     29  C   UNL     1      11.818   7.871  18.160  1.00  0.00    -0.000 C 
BRANCH  29  30
ATOM     30  C   UNL     1      11.754   7.206  16.770  1.00  0.00    -0.000 C 
BRANCH  30  31
ATOM     31  C   UNL     1      11.478   8.198  15.628  1.00  0.00    -0.003 C 
ATOM     32  C   UNL     1      12.225   9.520  15.790  1.00  0.00     0.004 C 
ENDBRANCH  30  31
ENDBRANCH  29  30
ENDBRANCH  28  29
ENDBRANCH  27  28
ENDBRANCH  26  27
ENDBRANCH  25  26
ENDBRANCH  24  25
ENDBRANCH  23  24
ENDBRANCH  22  23
ENDBRANCH  21  22
ENDBRANCH  20  21
ENDBRANCH  19  20
ENDBRANCH  18  19
ENDBRANCH   1  18
TORSDOF 28
ENDMDL
MODEL 5
REMARK VINA RESULT:    36.536      1.464      2.459
REMARK INTER + INTRA:          98.056
REMARK INTER:                  99.333
REMARK INTRA:                  -1.277
REMARK UNBOUND:                 1.715
REMARK SMILES CCCCCCCCCCCCCCCCCCCCCCCCCCCCCC(=O)[O-]
REMARK SMILES IDX 16 1 17 2 18 3 19 4 20 5 21 6 22 7 23 8 24 9 25 10 26 11
REMARK SMILES IDX 27 12 28 13 29 14 30 15 31 16 32 17 15 18 14 19 13 20 12 21
REMARK SMILES IDX 11 22 10 23 9 24 8 25 7 26 6 27 5 28 4 29 3 30 2 31 1 32
REMARK H PARENT
REMARK Flexibility Score: inf
ROOT
ATOM      1  C   UNL     1      16.214   5.907   9.551  1.00  0.00     0.000 C 
ENDROOT
BRANCH   1   2
ATOM      2  C   UNL     1      17.500   5.471   8.829  1.00  0.00     0.000 C 
BRANCH   2   3
ATOM      3  C   UNL     1      17.255   5.034   7.376  1.00  0.00     0.000 C 
BRANCH   3   4
ATOM      4  C   UNL     1      16.780   6.149   6.424  1.00  0.00     0.000 C 
BRANCH   4   5
ATOM      5  C   UNL     1      15.283   6.070   6.055  1.00  0.00     0.000 C 
BRANCH   5   6
ATOM      6  C   UNL     1      14.381   5.861   7.280  1.00  0.00     0.000 C 
BRANCH   6   7
ATOM      7  C   UNL     1      13.335   6.975   7.399  1.00  0.00     0.000 C 
BRANCH   7   8
ATOM      8  C   UNL     1      12.275   6.617   8.448  1.00  0.00     0.000 C 
BRANCH   8   9
ATOM      9  C   UNL     1      11.064   5.931   7.804  1.00  0.00     0.000 C 
BRANCH   9  10
ATOM     10  C   UNL     1       9.996   5.604   8.858  1.00  0.00     0.000 C 
BRANCH  10  11
ATOM     11  C   UNL     1      10.130   4.180   9.417  1.00  0.00     0.000 C 
BRANCH  11  12
ATOM     12  C   UNL     1      10.169   3.107   8.313  1.00  0.00     0.000 C 
BRANCH  12  13
ATOM     13  C   UNL     1      10.630   1.738   8.838  1.00  0.00     0.006 C 
BRANCH  13  14
ATOM     14  C   UNL     1      11.591   1.030   7.873  1.00  0.00     0.053 C 
BRANCH  14  15
ATOM     15  C   UNL     1      11.150  -0.380   7.634  1.00  0.00     0.041 C 
ATOM     16  O   UNL     1       9.975  -0.622   7.249  1.00  0.00    -0.550 OA
ATOM     17  O   UNL     1      12.046  -1.427   7.805  1.00  0.00    -0.550 OA
ENDBRANCH  14  15
ENDBRANCH  13  14
ENDBRANCH  12  13
ENDBRANCH  11  12
ENDBRANCH  10  11
ENDBRANCH   9  10
ENDBRANCH   8   9
ENDBRANCH   7   8
ENDBRANCH   6   7
ENDBRANCH   5   6
ENDBRANCH   4   5
ENDBRANCH   3   4
ENDBRANCH   2   3
ENDBRANCH   1   2
BRANCH   1  18
ATOM     18  C   UNL     1      16.355   7.328  10.124  1.00  0.00     0.000 C 
BRANCH  18  19
ATOM     19  C   UNL     1      17.822   7.749  10.345  1.00  0.00     0.000 C 
BRANCH  19  20
ATOM     20  C   UNL     1      18.102   8.392  11.716  1.00  0.00     0.000 C 
BRANCH  20  21
ATOM     21  C   UNL     1      17.459   7.697  12.932  1.00  0.00     0.000 C 
BRANCH  21  22
ATOM     22  C   UNL     1      18.124   7.989  14.293  1.00  0.00     0.000 C 
BRANCH  22  23
ATOM     23  C   UNL     1      17.989   6.854  15.331  1.00  0.00     0.000 C 
BRANCH  23  24
ATOM     24  C   UNL     1      17.444   7.308  16.698  1.00  0.00    -0.000 C 
BRANCH  24  25
ATOM     25  C   UNL     1      17.937   6.458  17.884  1.00  0.00    -0.000 C 
BRANCH  25  26
ATOM     26  C   UNL     1      16.880   5.444  18.356  1.00  0.00    -0.000 C 
BRANCH  26  27
ATOM     27  C   UNL     1      15.446   5.995  18.276  1.00  0.00    -0.000 C 
BRANCH  27  28
ATOM     28  C   UNL     1      14.364   4.940  17.984  1.00  0.00    -0.000 C 
BRANCH  28  29
ATOM     29  C   UNL     1      13.105   5.116  18.852  1.00  0.00    -0.000 C 
BRANCH  29  30
ATOM     30  C   UNL     1      12.419   3.772  19.171  1.00  0.00    -0.000 C 
BRANCH  30  31
ATOM     31  C   UNL     1      12.255   3.510  20.678  1.00  0.00    -0.003 C 
ATOM     32  C   UNL     1      13.491   2.876  21.312  1.00  0.00     0.004 C 
ENDBRANCH  30  31
ENDBRANCH  29  30
ENDBRANCH  28  29
ENDBRANCH  27  28
ENDBRANCH  26  27
ENDBRANCH  25  26
ENDBRANCH  24  25
ENDBRANCH  23  24
ENDBRANCH  22  23
ENDBRANCH  21  22
ENDBRANCH  20  21
ENDBRANCH  19  20
ENDBRANCH  18  19
ENDBRANCH   1  18
TORSDOF 28
ENDMDL
MODEL 6
REMARK VINA RESULT:    36.665      8.614     12.513
REMARK INTER + INTRA:          98.397
REMARK INTER:                  98.993
REMARK INTRA:                  -0.596
REMARK UNBOUND:                 1.715
REMARK SMILES CCCCCCCCCCCCCCCCCCCCCCCCCCCCCC(=O)[O-]
REMARK SMILES IDX 16 1 17 2 18 3 19 4 20 5 21 6 22 7 23 8 24 9 25 10 26 11
REMARK SMILES IDX 27 12 28 13 29 14 30 15 31 16 32 17 15 18 14 19 13 20 12 21
REMARK SMILES IDX 11 22 10 23 9 24 8 25 7 26 6 27 5 28 4 29 3 30 2 31 1 32
REMARK H PARENT
REMARK Flexibility Score: inf
ROOT
ATOM      1  C   UNL     1      15.070   5.824  25.789  1.00  0.00     0.000 C 
ENDROOT
BRANCH   1   2
ATOM      2  C   UNL     1      16.600   5.895  25.915  1.00  0.00     0.000 C 
BRANCH   2   3
ATOM      3  C   UNL     1      17.332   5.163  24.778  1.00  0.00     0.000 C 
BRANCH   3   4
ATOM      4  C   UNL     1      16.795   3.757  24.446  1.00  0.00     0.000 C 
BRANCH   4   5
ATOM      5  C   UNL     1      15.275   3.596  24.654  1.00  0.00     0.000 C 
BRANCH   5   6
ATOM      6  C   UNL     1      14.493   3.602  23.331  1.00  0.00     0.000 C 
BRANCH   6   7
ATOM      7  C   UNL     1      14.328   2.184  22.774  1.00  0.00     0.000 C 
BRANCH   7   8
ATOM      8  C   UNL     1      12.931   1.995  22.170  1.00  0.00     0.000 C 
BRANCH   8   9
ATOM      9  C   UNL     1      13.013   1.446  20.740  1.00  0.00     0.000 C 
BRANCH   9  10
ATOM     10  C   UNL     1      12.140   2.274  19.785  1.00  0.00     0.000 C 
BRANCH  10  11
ATOM     11  C   UNL     1      12.378   3.785  19.924  1.00  0.00     0.000 C 
BRANCH  11  12
ATOM     12  C   UNL     1      12.665   4.470  18.575  1.00  0.00     0.000 C 
BRANCH  12  13
ATOM     13  C   UNL     1      11.646   5.572  18.246  1.00  0.00     0.006 C 
BRANCH  13  14
ATOM     14  C   UNL     1      11.011   6.183  19.502  1.00  0.00     0.053 C 
BRANCH  14  15
ATOM     15  C   UNL     1      11.021   7.678  19.421  1.00  0.00     0.041 C 
ATOM     16  O   UNL     1      10.003   8.339  19.757  1.00  0.00    -0.550 OA
ATOM     17  O   UNL     1      12.167   8.343  19.005  1.00  0.00    -0.550 OA
ENDBRANCH  14  15
ENDBRANCH  13  14
ENDBRANCH  12  13
ENDBRANCH  11  12
ENDBRANCH  10  11
ENDBRANCH   9  10
ENDBRANCH   8   9
ENDBRANCH   7   8
ENDBRANCH   6   7
ENDBRANCH   5   6
ENDBRANCH   4   5
ENDBRANCH   3   4
ENDBRANCH   2   3
ENDBRANCH   1   2
BRANCH   1  18
ATOM     18  C   UNL     1      14.426   7.190  26.083  1.00  0.00     0.000 C 
BRANCH  18  19
ATOM     19  C   UNL     1      12.884   7.137  26.119  1.00  0.00     0.000 C 
BRANCH  19  20
ATOM     20  C   UNL     1      12.197   8.515  26.076  1.00  0.00     0.000 C 
BRANCH  20  21
ATOM     21  C   UNL     1      10.674   8.503  25.842  1.00  0.00     0.000 C 
BRANCH  21  22
ATOM     22  C   UNL     1      10.202   7.751  24.580  1.00  0.00     0.000 C 
BRANCH  22  23
ATOM     23  C   UNL     1       9.155   6.647  24.843  1.00  0.00     0.000 C 
BRANCH  23  24
ATOM     24  C   UNL     1       8.852   5.759  23.623  1.00  0.00    -0.000 C 
BRANCH  24  25
ATOM     25  C   UNL     1       7.664   4.798  23.826  1.00  0.00    -0.000 C 
BRANCH  25  26
ATOM     26  C   UNL     1       7.208   4.146  22.510  1.00  0.00    -0.000 C 
BRANCH  26  27
ATOM     27  C   UNL     1       6.533   2.780  22.721  1.00  0.00    -0.000 C 
BRANCH  27  28
ATOM     28  C   UNL     1       7.444   1.564  22.473  1.00  0.00    -0.000 C 
BRANCH  28  29
ATOM     29  C   UNL     1       8.329   1.724  21.224  1.00  0.00    -0.000 C 
BRANCH  29  30
ATOM     30  C   UNL     1       7.756   2.749  20.226  1.00  0.00    -0.000 C 
BRANCH  30  31
ATOM     31  C   UNL     1       8.765   3.186  19.149  1.00  0.00    -0.003 C 
ATOM     32  C   UNL     1       8.128   3.368  17.772  1.00  0.00     0.004 C 
ENDBRANCH  30  31
ENDBRANCH  29  30
ENDBRANCH  28  29
ENDBRANCH  27  28
ENDBRANCH  26  27
ENDBRANCH  25  26
ENDBRANCH  24  25
ENDBRANCH  23  24
ENDBRANCH  22  23
ENDBRANCH  21  22
ENDBRANCH  20  21
ENDBRANCH  19  20
ENDBRANCH  18  19
ENDBRANCH   1  18
TORSDOF 28
ENDMDL
