MODEL 1
REMARK VINA RESULT:    -6.441      0.000      0.000
REMARK INTER + INTRA:          -7.657
REMARK INTER:                  -7.570
REMARK INTRA:                  -0.086
REMARK UNBOUND:                -0.086
REMARK SMILES O=c1c(O)c(-c2ccc(O)cc2)oc2cc(O)cc(O)c12
REMARK SMILES IDX 5 1 3 2 2 3 1 4 21 5 19 6 18 7 16 8 15 9 14 10 13 11 6 12
REMARK SMILES IDX 7 13 8 14 9 15 12 16 11 17 10 18 4 20 20 22 17 24
REMARK H PARENT 10 19 4 21 20 23 17 25
REMARK Flexibility Score: inf
ROOT
ATOM      1  C   UNL     1      31.458 -91.833  37.636  1.00  0.00     0.180 A 
ATOM      2  C   UNL     1      30.207 -92.402  37.339  1.00  0.00     0.208 A 
ATOM      3  C   UNL     1      30.041 -93.790  37.474  1.00  0.00     0.238 A 
ATOM      4  O   UNL     1      28.905 -94.287  37.259  1.00  0.00    -0.285 OA
ATOM      5  C   UNL     1      31.131 -94.593  37.889  1.00  0.00     0.111 A 
ATOM      6  C   UNL     1      31.088 -96.014  38.021  1.00  0.00     0.134 A 
ATOM      7  C   UNL     1      32.186 -96.691  38.564  1.00  0.00     0.093 A 
ATOM      8  C   UNL     1      33.350 -96.006  38.919  1.00  0.00     0.123 A 
ATOM      9  C   UNL     1      33.424 -94.627  38.739  1.00  0.00     0.094 A 
ATOM     10  C   UNL     1      32.332 -93.919  38.233  1.00  0.00     0.146 A 
ATOM     11  O   UNL     1      32.440 -92.604  38.086  1.00  0.00    -0.452 OA
ENDROOT
BRANCH   1  12
ATOM     12  C   UNL     1      31.716 -90.382  37.495  1.00  0.00     0.021 A 
ATOM     13  C   UNL     1      30.990 -89.432  38.238  1.00  0.00     0.016 A 
ATOM     14  C   UNL     1      31.234 -88.067  38.068  1.00  0.00     0.047 A 
ATOM     15  C   UNL     1      32.195 -87.631  37.146  1.00  0.00     0.115 A 
ATOM     16  C   UNL     1      32.663 -89.936  36.558  1.00  0.00     0.016 A 
ATOM     17  C   UNL     1      32.905 -88.569  36.391  1.00  0.00     0.047 A 
BRANCH  15  18
ATOM     18  O   UNL     1      32.447 -86.272  36.971  1.00  0.00    -0.508 OA
ATOM     19  H   UNL     1      32.586 -85.873  36.051  1.00  0.00     0.293 HD
ENDBRANCH  15  18
ENDBRANCH   1  12
BRANCH   2  20
ATOM     20  O   UNL     1      29.138 -91.589  36.953  1.00  0.00    -0.502 OA
ATOM     21  H   UNL     1      28.309 -91.957  36.503  1.00  0.00     0.293 HD
ENDBRANCH   2  20
BRANCH   6  22
ATOM     22  O   UNL     1      30.008 -96.803  37.611  1.00  0.00    -0.507 OA
ATOM     23  H   UNL     1      29.050 -96.490  37.571  1.00  0.00     0.293 HD
ENDBRANCH   6  22
BRANCH   8  24
ATOM     24  O   UNL     1      34.445 -96.690  39.444  1.00  0.00    -0.508 OA
ATOM     25  H   UNL     1      35.390 -96.340  39.337  1.00  0.00     0.293 HD
ENDBRANCH   8  24
TORSDOF 5
ENDMDL
MODEL 2
REMARK VINA RESULT:    -5.826      9.616     10.855
REMARK INTER + INTRA:          -6.934
REMARK INTER:                  -6.636
REMARK INTRA:                  -0.299
REMARK UNBOUND:                -0.086
REMARK SMILES O=c1c(O)c(-c2ccc(O)cc2)oc2cc(O)cc(O)c12
REMARK SMILES IDX 5 1 3 2 2 3 1 4 21 5 19 6 18 7 16 8 15 9 14 10 13 11 6 12
REMARK SMILES IDX 7 13 8 14 9 15 12 16 11 17 10 18 4 20 20 22 17 24
REMARK H PARENT 10 19 4 21 20 23 17 25
REMARK Flexibility Score: inf
ROOT
ATOM      1  C   UNL     1      36.599 -95.134  29.786  1.00  0.00     0.180 A 
ATOM      2  C   UNL     1      37.674 -95.536  28.973  1.00  0.00     0.208 A 
ATOM      3  C   UNL     1      38.973 -95.522  29.507  1.00  0.00     0.238 A 
ATOM      4  O   UNL     1      39.924 -95.934  28.792  1.00  0.00    -0.285 OA
ATOM      5  C   UNL     1      39.183 -95.094  30.839  1.00  0.00     0.111 A 
ATOM      6  C   UNL     1      40.461 -95.002  31.470  1.00  0.00     0.134 A 
ATOM      7  C   UNL     1      40.537 -94.689  32.832  1.00  0.00     0.093 A 
ATOM      8  C   UNL     1      39.388 -94.402  33.571  1.00  0.00     0.123 A 
ATOM      9  C   UNL     1      38.141 -94.432  32.951  1.00  0.00     0.094 A 
ATOM     10  C   UNL     1      38.030 -94.775  31.602  1.00  0.00     0.146 A 
ATOM     11  O   UNL     1      36.822 -94.800  31.051  1.00  0.00    -0.452 OA
ENDROOT
BRANCH   1  12
ATOM     12  C   UNL     1      35.206 -95.098  29.287  1.00  0.00     0.021 A 
ATOM     13  C   UNL     1      34.692 -93.965  28.628  1.00  0.00     0.016 A 
ATOM     14  C   UNL     1      33.366 -93.945  28.188  1.00  0.00     0.047 A 
ATOM     15  C   UNL     1      32.531 -95.048  28.413  1.00  0.00     0.115 A 
ATOM     16  C   UNL     1      34.357 -96.192  29.526  1.00  0.00     0.016 A 
ATOM     17  C   UNL     1      33.031 -96.168  29.085  1.00  0.00     0.047 A 
BRANCH  15  18
ATOM     18  O   UNL     1      31.208 -95.039  27.977  1.00  0.00    -0.508 OA
ATOM     19  H   UNL     1      30.486 -95.553  28.466  1.00  0.00     0.293 HD
ENDBRANCH  15  18
ENDBRANCH   1  12
BRANCH   2  20
ATOM     20  O   UNL     1      37.443 -95.977  27.668  1.00  0.00    -0.502 OA
ATOM     21  H   UNL     1      38.039 -95.718  26.892  1.00  0.00     0.293 HD
ENDBRANCH   2  20
BRANCH   6  22
ATOM     22  O   UNL     1      41.676 -95.179  30.801  1.00  0.00    -0.507 OA
ATOM     23  H   UNL     1      42.556 -95.377  31.251  1.00  0.00     0.293 HD
ENDBRANCH   6  22
BRANCH   8  24
ATOM     24  O   UNL     1      39.474 -94.077  34.923  1.00  0.00    -0.508 OA
ATOM     25  H   UNL     1      40.013 -93.281  35.244  1.00  0.00     0.293 HD
ENDBRANCH   8  24
TORSDOF 5
ENDMDL
MODEL 3
REMARK VINA RESULT:    -5.600      9.566     10.999
REMARK INTER + INTRA:          -6.668
REMARK INTER:                  -6.573
REMARK INTRA:                  -0.095
REMARK UNBOUND:                -0.086
REMARK SMILES O=c1c(O)c(-c2ccc(O)cc2)oc2cc(O)cc(O)c12
REMARK SMILES IDX 5 1 3 2 2 3 1 4 21 5 19 6 18 7 16 8 15 9 14 10 13 11 6 12
REMARK SMILES IDX 7 13 8 14 9 15 12 16 11 17 10 18 4 20 20 22 17 24
REMARK H PARENT 10 19 4 21 20 23 17 25
REMARK Flexibility Score: inf
ROOT
ATOM      1  C   UNL     1      37.989 -95.168  31.038  1.00  0.00     0.180 A 
ATOM      2  C   UNL     1      38.636 -95.802  29.962  1.00  0.00     0.208 A 
ATOM      3  C   UNL     1      37.949 -95.950  28.746  1.00  0.00     0.238 A 
ATOM      4  O   UNL     1      38.551 -96.468  27.771  1.00  0.00    -0.285 OA
ATOM      5  C   UNL     1      36.620 -95.476  28.626  1.00  0.00     0.111 A 
ATOM      6  C   UNL     1      35.815 -95.608  27.454  1.00  0.00     0.134 A 
ATOM      7  C   UNL     1      34.562 -94.988  27.404  1.00  0.00     0.093 A 
ATOM      8  C   UNL     1      34.056 -94.296  28.506  1.00  0.00     0.123 A 
ATOM      9  C   UNL     1      34.809 -94.211  29.675  1.00  0.00     0.094 A 
ATOM     10  C   UNL     1      36.078 -94.789  29.743  1.00  0.00     0.146 A 
ATOM     11  O   UNL     1      36.767 -94.677  30.872  1.00  0.00    -0.452 OA
ENDROOT
BRANCH   1  12
ATOM     12  C   UNL     1      38.639 -94.998  32.357  1.00  0.00     0.021 A 
ATOM     13  C   UNL     1      38.098 -95.577  33.521  1.00  0.00     0.016 A 
ATOM     14  C   UNL     1      38.716 -95.381  34.759  1.00  0.00     0.047 A 
ATOM     15  C   UNL     1      39.871 -94.594  34.855  1.00  0.00     0.115 A 
ATOM     16  C   UNL     1      39.786 -94.194  32.465  1.00  0.00     0.016 A 
ATOM     17  C   UNL     1      40.401 -93.999  33.705  1.00  0.00     0.047 A 
BRANCH  15  18
ATOM     18  O   UNL     1      40.496 -94.394  36.084  1.00  0.00    -0.508 OA
ATOM     19  H   UNL     1      41.189 -95.041  36.437  1.00  0.00     0.293 HD
ENDBRANCH  15  18
ENDBRANCH   1  12
BRANCH   2  20
ATOM     20  O   UNL     1      39.955 -96.241  30.095  1.00  0.00    -0.502 OA
ATOM     21  H   UNL     1      40.465 -96.673  29.333  1.00  0.00     0.293 HD
ENDBRANCH   2  20
BRANCH   6  22
ATOM     22  O   UNL     1      36.187 -96.356  26.332  1.00  0.00    -0.507 OA
ATOM     23  H   UNL     1      36.560 -97.293  26.364  1.00  0.00     0.293 HD
ENDBRANCH   6  22
BRANCH   8  24
ATOM     24  O   UNL     1      32.800 -93.694  28.453  1.00  0.00    -0.508 OA
ATOM     25  H   UNL     1      32.389 -93.252  29.267  1.00  0.00     0.293 HD
ENDBRANCH   8  24
TORSDOF 5
ENDMDL
MODEL 4
REMARK VINA RESULT:    -5.561      7.987     10.364
REMARK INTER + INTRA:          -6.622
REMARK INTER:                  -6.436
REMARK INTRA:                  -0.187
REMARK UNBOUND:                -0.086
REMARK SMILES O=c1c(O)c(-c2ccc(O)cc2)oc2cc(O)cc(O)c12
REMARK SMILES IDX 5 1 3 2 2 3 1 4 21 5 19 6 18 7 16 8 15 9 14 10 13 11 6 12
REMARK SMILES IDX 7 13 8 14 9 15 12 16 11 17 10 18 4 20 20 22 17 24
REMARK H PARENT 10 19 4 21 20 23 17 25
REMARK Flexibility Score: inf
ROOT
ATOM      1  C   UNL     1      40.448 -95.095  35.251  1.00  0.00     0.180 A 
ATOM      2  C   UNL     1      41.505 -94.736  36.105  1.00  0.00     0.208 A 
ATOM      3  C   UNL     1      41.299 -94.768  37.494  1.00  0.00     0.238 A 
ATOM      4  O   UNL     1      42.265 -94.498  38.255  1.00  0.00    -0.285 OA
ATOM      5  C   UNL     1      40.036 -95.143  38.011  1.00  0.00     0.111 A 
ATOM      6  C   UNL     1      39.703 -95.173  39.399  1.00  0.00     0.134 A 
ATOM      7  C   UNL     1      38.464 -95.684  39.801  1.00  0.00     0.093 A 
ATOM      8  C   UNL     1      37.520 -96.107  38.863  1.00  0.00     0.123 A 
ATOM      9  C   UNL     1      37.813 -96.028  37.503  1.00  0.00     0.094 A 
ATOM     10  C   UNL     1      39.054 -95.555  37.072  1.00  0.00     0.146 A 
ATOM     11  O   UNL     1      39.296 -95.505  35.768  1.00  0.00    -0.452 OA
ENDROOT
BRANCH   1  12
ATOM     12  C   UNL     1      40.581 -95.062  33.777  1.00  0.00     0.021 A 
ATOM     13  C   UNL     1      39.895 -94.110  33.000  1.00  0.00     0.016 A 
ATOM     14  C   UNL     1      40.016 -94.115  31.607  1.00  0.00     0.047 A 
ATOM     15  C   UNL     1      40.812 -95.077  30.972  1.00  0.00     0.115 A 
ATOM     16  C   UNL     1      41.361 -96.036  33.131  1.00  0.00     0.016 A 
ATOM     17  C   UNL     1      41.480 -96.038  31.738  1.00  0.00     0.047 A 
BRANCH  15  18
ATOM     18  O   UNL     1      40.942 -95.090  29.585  1.00  0.00    -0.508 OA
ATOM     19  H   UNL     1      41.154 -95.941  29.081  1.00  0.00     0.293 HD
ENDBRANCH  15  18
ENDBRANCH   1  12
BRANCH   2  20
ATOM     20  O   UNL     1      42.752 -94.391  35.576  1.00  0.00    -0.502 OA
ATOM     21  H   UNL     1      43.509 -95.057  35.487  1.00  0.00     0.293 HD
ENDBRANCH   2  20
BRANCH   6  22
ATOM     22  O   UNL     1      40.537 -94.688  40.411  1.00  0.00    -0.507 OA
ATOM     23  H   UNL     1      40.216 -94.230  41.250  1.00  0.00     0.293 HD
ENDBRANCH   6  22
BRANCH   8  24
ATOM     24  O   UNL     1      36.283 -96.601  39.271  1.00  0.00    -0.508 OA
ATOM     25  H   UNL     1      35.459 -96.514  38.689  1.00  0.00     0.293 HD
ENDBRANCH   8  24
TORSDOF 5
ENDMDL
MODEL 5
REMARK VINA RESULT:    -5.239      9.359     10.766
REMARK INTER + INTRA:          -6.245
REMARK INTER:                  -5.967
REMARK INTRA:                  -0.277
REMARK UNBOUND:                -0.086
REMARK SMILES O=c1c(O)c(-c2ccc(O)cc2)oc2cc(O)cc(O)c12
REMARK SMILES IDX 5 1 3 2 2 3 1 4 21 5 19 6 18 7 16 8 15 9 14 10 13 11 6 12
REMARK SMILES IDX 7 13 8 14 9 15 12 16 11 17 10 18 4 20 20 22 17 24
REMARK H PARENT 10 19 4 21 20 23 17 25
REMARK Flexibility Score: inf
ROOT
ATOM      1  C   UNL     1      31.634 -95.706  28.971  1.00  0.00     0.180 A 
ATOM      2  C   UNL     1      31.160 -95.846  30.287  1.00  0.00     0.208 A 
ATOM      3  C   UNL     1      29.778 -95.967  30.503  1.00  0.00     0.238 A 
ATOM      4  O   UNL     1      29.364 -96.146  31.678  1.00  0.00    -0.285 OA
ATOM      5  C   UNL     1      28.887 -95.932  29.404  1.00  0.00     0.111 A 
ATOM      6  C   UNL     1      27.465 -96.006  29.510  1.00  0.00     0.134 A 
ATOM      7  C   UNL     1      26.690 -96.093  28.348  1.00  0.00     0.093 A 
ATOM      8  C   UNL     1      27.279 -96.043  27.083  1.00  0.00     0.123 A 
ATOM      9  C   UNL     1      28.662 -95.912  26.969  1.00  0.00     0.094 A 
ATOM     10  C   UNL     1      29.465 -95.858  28.110  1.00  0.00     0.146 A 
ATOM     11  O   UNL     1      30.778 -95.743  27.957  1.00  0.00    -0.452 OA
ENDROOT
BRANCH   1  12
ATOM     12  C   UNL     1      33.074 -95.548  28.665  1.00  0.00     0.021 A 
ATOM     13  C   UNL     1      33.927 -96.664  28.557  1.00  0.00     0.016 A 
ATOM     14  C   UNL     1      35.289 -96.488  28.293  1.00  0.00     0.047 A 
ATOM     15  C   UNL     1      35.819 -95.199  28.148  1.00  0.00     0.115 A 
ATOM     16  C   UNL     1      33.618 -94.259  28.538  1.00  0.00     0.016 A 
ATOM     17  C   UNL     1      34.980 -94.088  28.274  1.00  0.00     0.047 A 
BRANCH  15  18
ATOM     18  O   UNL     1      37.174 -95.014  27.882  1.00  0.00    -0.508 OA
ATOM     19  H   UNL     1      37.562 -94.091  27.733  1.00  0.00     0.293 HD
ENDBRANCH  15  18
ENDBRANCH   1  12
BRANCH   2  20
ATOM     20  O   UNL     1      32.058 -95.901  31.356  1.00  0.00    -0.502 OA
ATOM     21  H   UNL     1      32.796 -96.592  31.412  1.00  0.00     0.293 HD
ENDBRANCH   2  20
BRANCH   6  22
ATOM     22  O   UNL     1      26.770 -95.970  30.723  1.00  0.00    -0.507 OA
ATOM     23  H   UNL     1      26.110 -95.253  30.985  1.00  0.00     0.293 HD
ENDBRANCH   6  22
BRANCH   8  24
ATOM     24  O   UNL     1      26.499 -96.115  25.931  1.00  0.00    -0.508 OA
ATOM     25  H   UNL     1      26.916 -96.131  25.008  1.00  0.00     0.293 HD
ENDBRANCH   8  24
TORSDOF 5
ENDMDL
MODEL 6
REMARK VINA RESULT:    -5.090     15.254     16.727
REMARK INTER + INTRA:          -6.069
REMARK INTER:                  -5.978
REMARK INTRA:                  -0.091
REMARK UNBOUND:                -0.086
REMARK SMILES O=c1c(O)c(-c2ccc(O)cc2)oc2cc(O)cc(O)c12
REMARK SMILES IDX 5 1 3 2 2 3 1 4 21 5 19 6 18 7 16 8 15 9 14 10 13 11 6 12
REMARK SMILES IDX 7 13 8 14 9 15 12 16 11 17 10 18 4 20 20 22 17 24
REMARK H PARENT 10 19 4 21 20 23 17 25
REMARK Flexibility Score: inf
ROOT
ATOM      1  C   UNL     1      37.925 -77.803  37.764  1.00  0.00     0.180 A 
ATOM      2  C   UNL     1      38.482 -77.609  36.488  1.00  0.00     0.208 A 
ATOM      3  C   UNL     1      37.625 -77.504  35.379  1.00  0.00     0.238 A 
ATOM      4  O   UNL     1      38.127 -77.275  34.248  1.00  0.00    -0.285 OA
ATOM      5  C   UNL     1      36.225 -77.609  35.559  1.00  0.00     0.111 A 
ATOM      6  C   UNL     1      35.266 -77.557  34.503  1.00  0.00     0.134 A 
ATOM      7  C   UNL     1      33.901 -77.541  34.810  1.00  0.00     0.093 A 
ATOM      8  C   UNL     1      33.458 -77.642  36.131  1.00  0.00     0.123 A 
ATOM      9  C   UNL     1      34.386 -77.752  37.164  1.00  0.00     0.094 A 
ATOM     10  C   UNL     1      35.755 -77.734  36.892  1.00  0.00     0.146 A 
ATOM     11  O   UNL     1      36.605 -77.832  37.907  1.00  0.00    -0.452 OA
ENDROOT
BRANCH   1  12
ATOM     12  C   UNL     1      38.764 -77.948  38.975  1.00  0.00     0.021 A 
ATOM     13  C   UNL     1      38.728 -79.119  39.756  1.00  0.00     0.016 A 
ATOM     14  C   UNL     1      39.510 -79.223  40.910  1.00  0.00     0.047 A 
ATOM     15  C   UNL     1      40.326 -78.155  41.307  1.00  0.00     0.115 A 
ATOM     16  C   UNL     1      39.569 -76.875  39.391  1.00  0.00     0.016 A 
ATOM     17  C   UNL     1      40.350 -76.982  40.546  1.00  0.00     0.047 A 
BRANCH  15  18
ATOM     18  O   UNL     1      41.111 -78.249  42.454  1.00  0.00    -0.508 OA
ATOM     19  H   UNL     1      40.719 -78.535  43.342  1.00  0.00     0.293 HD
ENDBRANCH  15  18
ENDBRANCH   1  12
BRANCH   2  20
ATOM     20  O   UNL     1      39.865 -77.485  36.335  1.00  0.00    -0.502 OA
ATOM     21  H   UNL     1      40.459 -78.267  36.088  1.00  0.00     0.293 HD
ENDBRANCH   2  20
BRANCH   6  22
ATOM     22  O   UNL     1      35.601 -77.548  33.145  1.00  0.00    -0.507 OA
ATOM     23  H   UNL     1      36.230 -76.889  32.713  1.00  0.00     0.293 HD
ENDBRANCH   6  22
BRANCH   8  24
ATOM     24  O   UNL     1      32.097 -77.641  36.427  1.00  0.00    -0.508 OA
ATOM     25  H   UNL     1      31.478 -76.920  36.076  1.00  0.00     0.293 HD
ENDBRANCH   8  24
TORSDOF 5
ENDMDL
MODEL 7
REMARK VINA RESULT:    -5.053     10.236     11.534
REMARK INTER + INTRA:          -6.025
REMARK INTER:                  -5.801
REMARK INTRA:                  -0.224
REMARK UNBOUND:                -0.086
REMARK SMILES O=c1c(O)c(-c2ccc(O)cc2)oc2cc(O)cc(O)c12
REMARK SMILES IDX 5 1 3 2 2 3 1 4 21 5 19 6 18 7 16 8 15 9 14 10 13 11 6 12
REMARK SMILES IDX 7 13 8 14 9 15 12 16 11 17 10 18 4 20 20 22 17 24
REMARK H PARENT 10 19 4 21 20 23 17 25
REMARK Flexibility Score: inf
ROOT
ATOM      1  C   UNL     1      40.262 -94.840  31.307  1.00  0.00     0.180 A 
ATOM      2  C   UNL     1      38.928 -95.051  31.699  1.00  0.00     0.208 A 
ATOM      3  C   UNL     1      38.631 -95.169  33.066  1.00  0.00     0.238 A 
ATOM      4  O   UNL     1      37.429 -95.302  33.414  1.00  0.00    -0.285 OA
ATOM      5  C   UNL     1      39.672 -95.090  34.023  1.00  0.00     0.111 A 
ATOM      6  C   UNL     1      39.491 -95.235  35.432  1.00  0.00     0.134 A 
ATOM      7  C   UNL     1      40.571 -95.010  36.293  1.00  0.00     0.093 A 
ATOM      8  C   UNL     1      41.840 -94.708  35.794  1.00  0.00     0.123 A 
ATOM      9  C   UNL     1      42.039 -94.622  34.418  1.00  0.00     0.094 A 
ATOM     10  C   UNL     1      40.974 -94.806  33.535  1.00  0.00     0.146 A 
ATOM     11  O   UNL     1      41.205 -94.706  32.232  1.00  0.00    -0.452 OA
ENDROOT
BRANCH   1  12
ATOM     12  C   UNL     1      40.657 -94.731  29.884  1.00  0.00     0.021 A 
ATOM     13  C   UNL     1      40.658 -95.854  29.035  1.00  0.00     0.016 A 
ATOM     14  C   UNL     1      41.059 -95.730  27.702  1.00  0.00     0.047 A 
ATOM     15  C   UNL     1      41.476 -94.489  27.203  1.00  0.00     0.115 A 
ATOM     16  C   UNL     1      41.096 -93.495  29.381  1.00  0.00     0.016 A 
ATOM     17  C   UNL     1      41.496 -93.375  28.047  1.00  0.00     0.047 A 
BRANCH  15  18
ATOM     18  O   UNL     1      41.876 -94.355  25.875  1.00  0.00    -0.508 OA
ATOM     19  H   UNL     1      41.782 -95.116  25.214  1.00  0.00     0.293 HD
ENDBRANCH  15  18
ENDBRANCH   1  12
BRANCH   2  20
ATOM     20  O   UNL     1      37.913 -95.102  30.740  1.00  0.00    -0.502 OA
ATOM     21  H   UNL     1      37.741 -95.922  30.172  1.00  0.00     0.293 HD
ENDBRANCH   2  20
BRANCH   6  22
ATOM     22  O   UNL     1      38.287 -95.624  36.028  1.00  0.00    -0.507 OA
ATOM     23  H   UNL     1      37.393 -95.635  35.562  1.00  0.00     0.293 HD
ENDBRANCH   6  22
BRANCH   8  24
ATOM     24  O   UNL     1      42.913 -94.500  36.658  1.00  0.00    -0.508 OA
ATOM     25  H   UNL     1      43.864 -94.433  36.316  1.00  0.00     0.293 HD
ENDBRANCH   8  24
TORSDOF 5
ENDMDL
MODEL 8
REMARK VINA RESULT:    -5.010      8.815     11.073
REMARK INTER + INTRA:          -5.976
REMARK INTER:                  -5.696
REMARK INTRA:                  -0.280
REMARK UNBOUND:                -0.086
REMARK SMILES O=c1c(O)c(-c2ccc(O)cc2)oc2cc(O)cc(O)c12
REMARK SMILES IDX 5 1 3 2 2 3 1 4 21 5 19 6 18 7 16 8 15 9 14 10 13 11 6 12
REMARK SMILES IDX 7 13 8 14 9 15 12 16 11 17 10 18 4 20 20 22 17 24
REMARK H PARENT 10 19 4 21 20 23 17 25
REMARK Flexibility Score: inf
ROOT
ATOM      1  C   UNL     1      40.570 -95.300  36.012  1.00  0.00     0.180 A 
ATOM      2  C   UNL     1      41.782 -95.212  35.305  1.00  0.00     0.208 A 
ATOM      3  C   UNL     1      41.747 -95.077  33.907  1.00  0.00     0.238 A 
ATOM      4  O   UNL     1      42.833 -94.944  33.285  1.00  0.00    -0.285 OA
ATOM      5  C   UNL     1      40.502 -95.047  33.233  1.00  0.00     0.111 A 
ATOM      6  C   UNL     1      40.348 -94.953  31.817  1.00  0.00     0.134 A 
ATOM      7  C   UNL     1      39.069 -94.801  31.270  1.00  0.00     0.093 A 
ATOM      8  C   UNL     1      37.933 -94.804  32.082  1.00  0.00     0.123 A 
ATOM      9  C   UNL     1      38.069 -94.953  33.460  1.00  0.00     0.094 A 
ATOM     10  C   UNL     1      39.334 -95.072  34.039  1.00  0.00     0.146 A 
ATOM     11  O   UNL     1      39.419 -95.203  35.357  1.00  0.00    -0.452 OA
ENDROOT
BRANCH   1  12
ATOM     12  C   UNL     1      40.527 -95.468  37.482  1.00  0.00     0.021 A 
ATOM     13  C   UNL     1      40.411 -94.360  38.343  1.00  0.00     0.016 A 
ATOM     14  C   UNL     1      40.398 -94.542  39.729  1.00  0.00     0.047 A 
ATOM     15  C   UNL     1      40.514 -95.828  40.273  1.00  0.00     0.115 A 
ATOM     16  C   UNL     1      40.664 -96.752  38.036  1.00  0.00     0.016 A 
ATOM     17  C   UNL     1      40.650 -96.930  39.423  1.00  0.00     0.047 A 
BRANCH  15  18
ATOM     18  O   UNL     1      40.501 -96.020  41.653  1.00  0.00    -0.508 OA
ATOM     19  H   UNL     1      39.639 -96.199  42.154  1.00  0.00     0.293 HD
ENDBRANCH  15  18
ENDBRANCH   1  12
BRANCH   2  20
ATOM     20  O   UNL     1      42.999 -95.220  35.991  1.00  0.00    -0.502 OA
ATOM     21  H   UNL     1      43.770 -95.820  35.724  1.00  0.00     0.293 HD
ENDBRANCH   2  20
BRANCH   6  22
ATOM     22  O   UNL     1      41.410 -95.033  30.910  1.00  0.00    -0.507 OA
ATOM     23  H   UNL     1      41.441 -95.653  30.115  1.00  0.00     0.293 HD
ENDBRANCH   6  22
BRANCH   8  24
ATOM     24  O   UNL     1      36.662 -94.667  31.528  1.00  0.00    -0.508 OA
ATOM     25  H   UNL     1      36.155 -95.463  31.160  1.00  0.00     0.293 HD
ENDBRANCH   8  24
TORSDOF 5
ENDMDL
