MODEL 1
REMARK VINA RESULT:    -5.817      0.000      0.000
REMARK INTER + INTRA:          -7.140
REMARK INTER:                  -6.837
REMARK INTRA:                  -0.303
REMARK UNBOUND:                -0.303
REMARK SMILES O=c1cc(-c2ccc(O)c(O)c2)oc2cc(O)cc(O)c12
REMARK SMILES IDX 4 1 3 2 2 3 1 4 21 5 19 6 18 7 16 8 15 9 14 10 13 11 5 12
REMARK SMILES IDX 6 13 7 14 8 15 12 16 10 17 9 18 11 20 20 22 17 24
REMARK H PARENT 9 19 11 21 20 23 17 25
REMARK Flexibility Score: inf
ROOT
ATOM      1  C   UNL     1     124.041 133.758 111.107  1.00  0.00     0.138 A 
ATOM      2  C   UNL     1     123.721 132.912 112.177  1.00  0.00     0.100 A 
ATOM      3  C   UNL     1     122.467 132.300 112.222  1.00  0.00     0.197 A 
ATOM      4  O   UNL     1     122.231 131.503 113.165  1.00  0.00    -0.289 OA
ATOM      5  C   UNL     1     121.518 132.567 111.208  1.00  0.00     0.107 A 
ATOM      6  C   UNL     1     120.195 132.028 111.167  1.00  0.00     0.134 A 
ATOM      7  C   UNL     1     119.378 132.287 110.059  1.00  0.00     0.093 A 
ATOM      8  C   UNL     1     119.813 133.112 109.019  1.00  0.00     0.123 A 
ATOM      9  C   UNL     1     121.082 133.684 109.074  1.00  0.00     0.094 A 
ATOM     10  C   UNL     1     121.934 133.417 110.147  1.00  0.00     0.146 A 
ATOM     11  O   UNL     1     123.143 133.968 110.150  1.00  0.00    -0.456 OA
ENDROOT
BRANCH   1  12
ATOM     12  C   UNL     1     125.359 134.437 111.011  1.00  0.00     0.021 A 
ATOM     13  C   UNL     1     126.507 133.789 111.499  1.00  0.00     0.016 A 
ATOM     14  C   UNL     1     127.757 134.408 111.426  1.00  0.00     0.051 A 
ATOM     15  C   UNL     1     127.882 135.687 110.878  1.00  0.00     0.157 A 
ATOM     16  C   UNL     1     125.488 135.732 110.471  1.00  0.00     0.062 A 
ATOM     17  C   UNL     1     126.743 136.355 110.400  1.00  0.00     0.158 A 
BRANCH  15  18
ATOM     18  O   UNL     1     129.144 136.278 110.818  1.00  0.00    -0.504 OA
ATOM     19  H   UNL     1     129.336 137.078 110.226  1.00  0.00     0.293 HD
ENDBRANCH  15  18
BRANCH  17  20
ATOM     20  O   UNL     1     126.860 137.635 109.861  1.00  0.00    -0.504 OA
ATOM     21  H   UNL     1     126.156 138.347 110.023  1.00  0.00     0.293 HD
ENDBRANCH  17  20
ENDBRANCH   1  12
BRANCH   6  22
ATOM     22  O   UNL     1     119.632 131.257 112.188  1.00  0.00    -0.507 OA
ATOM     23  H   UNL     1     119.973 130.358 112.491  1.00  0.00     0.293 HD
ENDBRANCH   6  22
BRANCH   8  24
ATOM     24  O   UNL     1     118.988 133.377 107.928  1.00  0.00    -0.508 OA
ATOM     25  H   UNL     1     118.093 132.912 107.816  1.00  0.00     0.293 HD
ENDBRANCH   8  24
TORSDOF 5
ENDMDL
MODEL 2
REMARK VINA RESULT:    -5.794      4.281      5.752
REMARK INTER + INTRA:          -7.112
REMARK INTER:                  -6.816
REMARK INTRA:                  -0.297
REMARK UNBOUND:                -0.303
REMARK SMILES O=c1cc(-c2ccc(O)c(O)c2)oc2cc(O)cc(O)c12
REMARK SMILES IDX 4 1 3 2 2 3 1 4 21 5 19 6 18 7 16 8 15 9 14 10 13 11 5 12
REMARK SMILES IDX 6 13 7 14 8 15 12 16 10 17 9 18 11 20 20 22 17 24
REMARK H PARENT 9 19 11 21 20 23 17 25
REMARK Flexibility Score: inf
ROOT
ATOM      1  C   UNL     1     125.752 130.667 112.969  1.00  0.00     0.138 A 
ATOM      2  C   UNL     1     126.076 130.845 111.617  1.00  0.00     0.100 A 
ATOM      3  C   UNL     1     125.124 131.370 110.742  1.00  0.00     0.197 A 
ATOM      4  O   UNL     1     125.464 131.570 109.547  1.00  0.00    -0.289 OA
ATOM      5  C   UNL     1     123.830 131.686 111.218  1.00  0.00     0.107 A 
ATOM      6  C   UNL     1     122.767 132.196 110.411  1.00  0.00     0.134 A 
ATOM      7  C   UNL     1     121.557 132.564 111.015  1.00  0.00     0.093 A 
ATOM      8  C   UNL     1     121.352 132.387 112.386  1.00  0.00     0.123 A 
ATOM      9  C   UNL     1     122.365 131.844 113.172  1.00  0.00     0.094 A 
ATOM     10  C   UNL     1     123.595 131.499 112.607  1.00  0.00     0.146 A 
ATOM     11  O   UNL     1     124.539 131.001 113.398  1.00  0.00    -0.456 OA
ENDROOT
BRANCH   1  12
ATOM     12  C   UNL     1     126.725 130.109 113.942  1.00  0.00     0.021 A 
ATOM     13  C   UNL     1     126.310 129.851 115.261  1.00  0.00     0.016 A 
ATOM     14  C   UNL     1     127.207 129.332 116.198  1.00  0.00     0.051 A 
ATOM     15  C   UNL     1     128.533 129.074 115.841  1.00  0.00     0.157 A 
ATOM     16  C   UNL     1     128.066 129.859 113.591  1.00  0.00     0.062 A 
ATOM     17  C   UNL     1     128.967 129.341 114.533  1.00  0.00     0.158 A 
BRANCH  15  18
ATOM     18  O   UNL     1     129.404 128.555 116.799  1.00  0.00    -0.504 OA
ATOM     19  H   UNL     1     129.930 127.703 116.643  1.00  0.00     0.293 HD
ENDBRANCH  15  18
BRANCH  17  20
ATOM     20  O   UNL     1     130.291 129.095 114.174  1.00  0.00    -0.504 OA
ATOM     21  H   UNL     1     131.063 129.571 114.629  1.00  0.00     0.293 HD
ENDBRANCH  17  20
ENDBRANCH   1  12
BRANCH   6  22
ATOM     22  O   UNL     1     122.837 132.339 109.022  1.00  0.00    -0.507 OA
ATOM     23  H   UNL     1     123.149 133.167 108.540  1.00  0.00     0.293 HD
ENDBRANCH   6  22
BRANCH   8  24
ATOM     24  O   UNL     1     120.141 132.741 112.975  1.00  0.00    -0.508 OA
ATOM     25  H   UNL     1     119.915 132.470 113.925  1.00  0.00     0.293 HD
ENDBRANCH   8  24
TORSDOF 5
ENDMDL
MODEL 3
REMARK VINA RESULT:    -5.783      1.328      1.912
REMARK INTER + INTRA:          -7.099
REMARK INTER:                  -6.833
REMARK INTRA:                  -0.266
REMARK UNBOUND:                -0.303
REMARK SMILES O=c1cc(-c2ccc(O)c(O)c2)oc2cc(O)cc(O)c12
REMARK SMILES IDX 4 1 3 2 2 3 1 4 21 5 19 6 18 7 16 8 15 9 14 10 13 11 5 12
REMARK SMILES IDX 6 13 7 14 8 15 12 16 10 17 9 18 11 20 20 22 17 24
REMARK H PARENT 9 19 11 21 20 23 17 25
REMARK Flexibility Score: inf
ROOT
ATOM      1  C   UNL     1     124.805 133.722 111.278  1.00  0.00     0.138 A 
ATOM      2  C   UNL     1     124.264 133.480 112.548  1.00  0.00     0.100 A 
ATOM      3  C   UNL     1     123.005 132.889 112.660  1.00  0.00     0.197 A 
ATOM      4  O   UNL     1     122.571 132.633 113.813  1.00  0.00    -0.289 OA
ATOM      5  C   UNL     1     122.270 132.571 111.494  1.00  0.00     0.107 A 
ATOM      6  C   UNL     1     120.962 131.997 111.485  1.00  0.00     0.134 A 
ATOM      7  C   UNL     1     120.374 131.637 110.265  1.00  0.00     0.093 A 
ATOM      8  C   UNL     1     121.022 131.881 109.052  1.00  0.00     0.123 A 
ATOM      9  C   UNL     1     122.276 132.487 109.047  1.00  0.00     0.094 A 
ATOM     10  C   UNL     1     122.904 132.827 110.248  1.00  0.00     0.146 A 
ATOM     11  O   UNL     1     124.108 133.387 110.197  1.00  0.00    -0.456 OA
ENDROOT
BRANCH   1  12
ATOM     12  C   UNL     1     126.139 134.352 111.100  1.00  0.00     0.021 A 
ATOM     13  C   UNL     1     126.227 135.628 110.519  1.00  0.00     0.016 A 
ATOM     14  C   UNL     1     127.469 136.240 110.334  1.00  0.00     0.051 A 
ATOM     15  C   UNL     1     128.643 135.586 110.714  1.00  0.00     0.157 A 
ATOM     16  C   UNL     1     127.326 133.690 111.470  1.00  0.00     0.062 A 
ATOM     17  C   UNL     1     128.574 134.304 111.282  1.00  0.00     0.158 A 
BRANCH  15  18
ATOM     18  O   UNL     1     129.869 136.223 110.518  1.00  0.00    -0.504 OA
ATOM     19  H   UNL     1     130.003 137.207 110.720  1.00  0.00     0.293 HD
ENDBRANCH  15  18
BRANCH  17  20
ATOM     20  O   UNL     1     129.743 133.642 111.654  1.00  0.00    -0.504 OA
ATOM     21  H   UNL     1     130.546 133.595 111.037  1.00  0.00     0.293 HD
ENDBRANCH  17  20
ENDBRANCH   1  12
BRANCH   6  22
ATOM     22  O   UNL     1     120.193 131.782 112.633  1.00  0.00    -0.507 OA
ATOM     23  H   UNL     1     120.470 132.031 113.570  1.00  0.00     0.293 HD
ENDBRANCH   6  22
BRANCH   8  24
ATOM     24  O   UNL     1     120.423 131.533 107.844  1.00  0.00    -0.508 OA
ATOM     25  H   UNL     1     120.976 131.284 107.031  1.00  0.00     0.293 HD
ENDBRANCH   8  24
TORSDOF 5
ENDMDL
MODEL 4
REMARK VINA RESULT:    -5.737      1.632      2.548
REMARK INTER + INTRA:          -7.045
REMARK INTER:                  -6.728
REMARK INTRA:                  -0.318
REMARK UNBOUND:                -0.303
REMARK SMILES O=c1cc(-c2ccc(O)c(O)c2)oc2cc(O)cc(O)c12
REMARK SMILES IDX 4 1 3 2 2 3 1 4 21 5 19 6 18 7 16 8 15 9 14 10 13 11 5 12
REMARK SMILES IDX 6 13 7 14 8 15 12 16 10 17 9 18 11 20 20 22 17 24
REMARK H PARENT 9 19 11 21 20 23 17 25
REMARK Flexibility Score: inf
ROOT
ATOM      1  C   UNL     1     126.036 134.401 111.169  1.00  0.00     0.138 A 
ATOM      2  C   UNL     1     126.383 133.423 112.110  1.00  0.00     0.100 A 
ATOM      3  C   UNL     1     125.411 132.532 112.570  1.00  0.00     0.197 A 
ATOM      4  O   UNL     1     125.766 131.630 113.371  1.00  0.00    -0.289 OA
ATOM      5  C   UNL     1     124.078 132.646 112.109  1.00  0.00     0.107 A 
ATOM      6  C   UNL     1     122.996 131.816 112.533  1.00  0.00     0.134 A 
ATOM      7  C   UNL     1     121.738 131.962 111.933  1.00  0.00     0.093 A 
ATOM      8  C   UNL     1     121.510 132.944 110.966  1.00  0.00     0.123 A 
ATOM      9  C   UNL     1     122.545 133.792 110.583  1.00  0.00     0.094 A 
ATOM     10  C   UNL     1     123.820 133.650 111.137  1.00  0.00     0.146 A 
ATOM     11  O   UNL     1     124.784 134.468 110.729  1.00  0.00    -0.456 OA
ENDROOT
BRANCH   1  12
ATOM     12  C   UNL     1     127.028 135.376 110.649  1.00  0.00     0.021 A 
ATOM     13  C   UNL     1     128.327 135.394 111.188  1.00  0.00     0.016 A 
ATOM     14  C   UNL     1     129.277 136.306 110.721  1.00  0.00     0.051 A 
ATOM     15  C   UNL     1     128.947 137.221 109.719  1.00  0.00     0.157 A 
ATOM     16  C   UNL     1     126.696 136.310 109.648  1.00  0.00     0.062 A 
ATOM     17  C   UNL     1     127.649 137.227 109.181  1.00  0.00     0.158 A 
BRANCH  15  18
ATOM     18  O   UNL     1     129.918 138.118 109.272  1.00  0.00    -0.504 OA
ATOM     19  H   UNL     1     130.891 137.855 109.179  1.00  0.00     0.293 HD
ENDBRANCH  15  18
BRANCH  17  20
ATOM     20  O   UNL     1     127.311 138.146 108.188  1.00  0.00    -0.504 OA
ATOM     21  H   UNL     1     127.189 139.131 108.395  1.00  0.00     0.293 HD
ENDBRANCH  17  20
ENDBRANCH   1  12
BRANCH   6  22
ATOM     22  O   UNL     1     123.094 130.858 113.546  1.00  0.00    -0.507 OA
ATOM     23  H   UNL     1     123.828 130.171 113.626  1.00  0.00     0.293 HD
ENDBRANCH   6  22
BRANCH   8  24
ATOM     24  O   UNL     1     120.252 133.091 110.386  1.00  0.00    -0.508 OA
ATOM     25  H   UNL     1     119.405 133.065 110.944  1.00  0.00     0.293 HD
ENDBRANCH   8  24
TORSDOF 5
ENDMDL
MODEL 5
REMARK VINA RESULT:    -5.619      1.844      7.225
REMARK INTER + INTRA:          -6.907
REMARK INTER:                  -6.641
REMARK INTRA:                  -0.266
REMARK UNBOUND:                -0.303
REMARK SMILES O=c1cc(-c2ccc(O)c(O)c2)oc2cc(O)cc(O)c12
REMARK SMILES IDX 4 1 3 2 2 3 1 4 21 5 19 6 18 7 16 8 15 9 14 10 13 11 5 12
REMARK SMILES IDX 6 13 7 14 8 15 12 16 10 17 9 18 11 20 20 22 17 24
REMARK H PARENT 9 19 11 21 20 23 17 25
REMARK Flexibility Score: inf
ROOT
ATOM      1  C   UNL     1     125.440 133.149 111.515  1.00  0.00     0.138 A 
ATOM      2  C   UNL     1     126.483 132.219 111.616  1.00  0.00     0.100 A 
ATOM      3  C   UNL     1     127.793 132.617 111.344  1.00  0.00     0.197 A 
ATOM      4  O   UNL     1     128.713 131.773 111.498  1.00  0.00    -0.289 OA
ATOM      5  C   UNL     1     128.053 133.946 110.935  1.00  0.00     0.107 A 
ATOM      6  C   UNL     1     129.344 134.457 110.598  1.00  0.00     0.134 A 
ATOM      7  C   UNL     1     129.491 135.818 110.301  1.00  0.00     0.093 A 
ATOM      8  C   UNL     1     128.388 136.674 110.273  1.00  0.00     0.123 A 
ATOM      9  C   UNL     1     127.118 136.175 110.550  1.00  0.00     0.094 A 
ATOM     10  C   UNL     1     126.942 134.830 110.884  1.00  0.00     0.146 A 
ATOM     11  O   UNL     1     125.715 134.400 111.159  1.00  0.00    -0.456 OA
ENDROOT
BRANCH   1  12
ATOM     12  C   UNL     1     124.028 132.779 111.790  1.00  0.00     0.021 A 
ATOM     13  C   UNL     1     123.572 132.737 113.119  1.00  0.00     0.016 A 
ATOM     14  C   UNL     1     122.250 132.386 113.405  1.00  0.00     0.051 A 
ATOM     15  C   UNL     1     121.366 132.059 112.374  1.00  0.00     0.157 A 
ATOM     16  C   UNL     1     123.137 132.436 110.754  1.00  0.00     0.062 A 
ATOM     17  C   UNL     1     121.811 132.081 111.042  1.00  0.00     0.158 A 
BRANCH  15  18
ATOM     18  O   UNL     1     120.052 131.714 112.691  1.00  0.00    -0.504 OA
ATOM     19  H   UNL     1     119.824 130.855 113.177  1.00  0.00     0.293 HD
ENDBRANCH  15  18
BRANCH  17  20
ATOM     20  O   UNL     1     120.936 131.746 110.010  1.00  0.00    -0.504 OA
ATOM     21  H   UNL     1     119.981 131.459 110.194  1.00  0.00     0.293 HD
ENDBRANCH  17  20
ENDBRANCH   1  12
BRANCH   6  22
ATOM     22  O   UNL     1     130.500 133.674 110.519  1.00  0.00    -0.507 OA
ATOM     23  H   UNL     1     131.053 133.377 111.307  1.00  0.00     0.293 HD
ENDBRANCH   6  22
BRANCH   8  24
ATOM     24  O   UNL     1     128.542 138.023 109.961  1.00  0.00    -0.508 OA
ATOM     25  H   UNL     1     129.426 138.392 109.629  1.00  0.00     0.293 HD
ENDBRANCH   8  24
TORSDOF 5
ENDMDL
MODEL 6
REMARK VINA RESULT:    -5.560      1.624      7.002
REMARK INTER + INTRA:          -6.838
REMARK INTER:                  -6.575
REMARK INTRA:                  -0.263
REMARK UNBOUND:                -0.303
REMARK SMILES O=c1cc(-c2ccc(O)c(O)c2)oc2cc(O)cc(O)c12
REMARK SMILES IDX 4 1 3 2 2 3 1 4 21 5 19 6 18 7 16 8 15 9 14 10 13 11 5 12
REMARK SMILES IDX 6 13 7 14 8 15 12 16 10 17 9 18 11 20 20 22 17 24
REMARK H PARENT 9 19 11 21 20 23 17 25
REMARK Flexibility Score: inf
ROOT
ATOM      1  C   UNL     1     124.198 132.900 110.959  1.00  0.00     0.138 A 
ATOM      2  C   UNL     1     125.235 132.073 111.409  1.00  0.00     0.100 A 
ATOM      3  C   UNL     1     126.527 132.590 111.530  1.00  0.00     0.197 A 
ATOM      4  O   UNL     1     127.424 131.838 111.989  1.00  0.00    -0.289 OA
ATOM      5  C   UNL     1     126.784 133.932 111.167  1.00  0.00     0.107 A 
ATOM      6  C   UNL     1     128.067 134.558 111.217  1.00  0.00     0.134 A 
ATOM      7  C   UNL     1     128.181 135.924 110.924  1.00  0.00     0.093 A 
ATOM      8  C   UNL     1     127.069 136.672 110.528  1.00  0.00     0.123 A 
ATOM      9  C   UNL     1     125.823 136.059 110.427  1.00  0.00     0.094 A 
ATOM     10  C   UNL     1     125.670 134.707 110.746  1.00  0.00     0.146 A 
ATOM     11  O   UNL     1     124.459 134.167 110.653  1.00  0.00    -0.456 OA
ENDROOT
BRANCH   1  12
ATOM     12  C   UNL     1     122.807 132.402 110.807  1.00  0.00     0.021 A 
ATOM     13  C   UNL     1     122.379 131.919 109.558  1.00  0.00     0.016 A 
ATOM     14  C   UNL     1     121.074 131.451 109.386  1.00  0.00     0.051 A 
ATOM     15  C   UNL     1     120.171 131.468 110.451  1.00  0.00     0.157 A 
ATOM     16  C   UNL     1     121.889 132.429 111.875  1.00  0.00     0.062 A 
ATOM     17  C   UNL     1     120.577 131.961 111.702  1.00  0.00     0.158 A 
BRANCH  15  18
ATOM     18  O   UNL     1     118.875 130.992 110.249  1.00  0.00    -0.504 OA
ATOM     19  H   UNL     1     118.650 130.343 109.505  1.00  0.00     0.293 HD
ENDBRANCH  15  18
BRANCH  17  20
ATOM     20  O   UNL     1     119.677 131.990 112.766  1.00  0.00    -0.504 OA
ATOM     21  H   UNL     1     119.681 132.743 113.445  1.00  0.00     0.293 HD
ENDBRANCH  17  20
ENDBRANCH   1  12
BRANCH   6  22
ATOM     22  O   UNL     1     129.255 133.887 111.523  1.00  0.00    -0.507 OA
ATOM     23  H   UNL     1     129.313 132.992 111.984  1.00  0.00     0.293 HD
ENDBRANCH   6  22
BRANCH   8  24
ATOM     24  O   UNL     1     127.195 138.025 110.224  1.00  0.00    -0.508 OA
ATOM     25  H   UNL     1     127.040 138.742 110.925  1.00  0.00     0.293 HD
ENDBRANCH   8  24
TORSDOF 5
ENDMDL
MODEL 7
REMARK VINA RESULT:    -5.536      3.221      8.115
REMARK INTER + INTRA:          -6.809
REMARK INTER:                  -6.537
REMARK INTRA:                  -0.272
REMARK UNBOUND:                -0.303
REMARK SMILES O=c1cc(-c2ccc(O)c(O)c2)oc2cc(O)cc(O)c12
REMARK SMILES IDX 4 1 3 2 2 3 1 4 21 5 19 6 18 7 16 8 15 9 14 10 13 11 5 12
REMARK SMILES IDX 6 13 7 14 8 15 12 16 10 17 9 18 11 20 20 22 17 24
REMARK H PARENT 9 19 11 21 20 23 17 25
REMARK Flexibility Score: inf
ROOT
ATOM      1  C   UNL     1     126.774 134.589 110.914  1.00  0.00     0.138 A 
ATOM      2  C   UNL     1     126.704 134.835 109.536  1.00  0.00     0.100 A 
ATOM      3  C   UNL     1     127.564 135.770 108.957  1.00  0.00     0.197 A 
ATOM      4  O   UNL     1     127.514 135.927 107.710  1.00  0.00    -0.289 OA
ATOM      5  C   UNL     1     128.474 136.486 109.769  1.00  0.00     0.107 A 
ATOM      6  C   UNL     1     129.376 137.487 109.295  1.00  0.00     0.134 A 
ATOM      7  C   UNL     1     130.300 138.059 110.180  1.00  0.00     0.093 A 
ATOM      8  C   UNL     1     130.317 137.708 111.531  1.00  0.00     0.123 A 
ATOM      9  C   UNL     1     129.408 136.770 112.014  1.00  0.00     0.094 A 
ATOM     10  C   UNL     1     128.497 136.156 111.151  1.00  0.00     0.146 A 
ATOM     11  O   UNL     1     127.660 135.253 111.650  1.00  0.00    -0.456 OA
ENDROOT
BRANCH   1  12
ATOM     12  C   UNL     1     125.881 133.609 111.583  1.00  0.00     0.021 A 
ATOM     13  C   UNL     1     124.543 133.955 111.836  1.00  0.00     0.016 A 
ATOM     14  C   UNL     1     123.683 133.054 112.470  1.00  0.00     0.051 A 
ATOM     15  C   UNL     1     124.146 131.799 112.872  1.00  0.00     0.157 A 
ATOM     16  C   UNL     1     126.347 132.348 112.002  1.00  0.00     0.062 A 
ATOM     17  C   UNL     1     125.485 131.443 112.641  1.00  0.00     0.158 A 
BRANCH  15  18
ATOM     18  O   UNL     1     123.264 130.921 113.501  1.00  0.00    -0.504 OA
ATOM     19  H   UNL     1     123.367 129.915 113.435  1.00  0.00     0.293 HD
ENDBRANCH  15  18
BRANCH  17  20
ATOM     20  O   UNL     1     125.956 130.196 113.050  1.00  0.00    -0.504 OA
ATOM     21  H   UNL     1     126.890 130.077 113.424  1.00  0.00     0.293 HD
ENDBRANCH  17  20
ENDBRANCH   1  12
BRANCH   6  22
ATOM     22  O   UNL     1     129.392 137.969 107.982  1.00  0.00    -0.507 OA
ATOM     23  H   UNL     1     130.211 138.300 107.496  1.00  0.00     0.293 HD
ENDBRANCH   6  22
BRANCH   8  24
ATOM     24  O   UNL     1     131.229 138.293 112.407  1.00  0.00    -0.508 OA
ATOM     25  H   UNL     1     131.824 139.061 112.115  1.00  0.00     0.293 HD
ENDBRANCH   8  24
TORSDOF 5
ENDMDL
MODEL 8
REMARK VINA RESULT:    -5.482      1.943      3.162
REMARK INTER + INTRA:          -6.746
REMARK INTER:                  -6.483
REMARK INTRA:                  -0.263
REMARK UNBOUND:                -0.303
REMARK SMILES O=c1cc(-c2ccc(O)c(O)c2)oc2cc(O)cc(O)c12
REMARK SMILES IDX 4 1 3 2 2 3 1 4 21 5 19 6 18 7 16 8 15 9 14 10 13 11 5 12
REMARK SMILES IDX 6 13 7 14 8 15 12 16 10 17 9 18 11 20 20 22 17 24
REMARK H PARENT 9 19 11 21 20 23 17 25
REMARK Flexibility Score: inf
ROOT
ATOM      1  C   UNL     1     124.486 132.737 110.390  1.00  0.00     0.138 A 
ATOM      2  C   UNL     1     124.157 132.262 109.114  1.00  0.00     0.100 A 
ATOM      3  C   UNL     1     122.854 131.837 108.849  1.00  0.00     0.197 A 
ATOM      4  O   UNL     1     122.578 131.469 107.678  1.00  0.00    -0.289 OA
ATOM      5  C   UNL     1     121.885 131.857 109.879  1.00  0.00     0.107 A 
ATOM      6  C   UNL     1     120.534 131.416 109.735  1.00  0.00     0.134 A 
ATOM      7  C   UNL     1     119.639 131.575 110.802  1.00  0.00     0.093 A 
ATOM      8  C   UNL     1     120.060 132.105 112.024  1.00  0.00     0.123 A 
ATOM      9  C   UNL     1     121.388 132.490 112.191  1.00  0.00     0.094 A 
ATOM     10  C   UNL     1     122.297 132.377 111.136  1.00  0.00     0.146 A 
ATOM     11  O   UNL     1     123.549 132.774 111.333  1.00  0.00    -0.456 OA
ENDROOT
BRANCH   1  12
ATOM     12  C   UNL     1     125.857 133.197 110.728  1.00  0.00     0.021 A 
ATOM     13  C   UNL     1     126.130 134.575 110.774  1.00  0.00     0.016 A 
ATOM     14  C   UNL     1     127.413 135.036 111.083  1.00  0.00     0.051 A 
ATOM     15  C   UNL     1     128.446 134.131 111.339  1.00  0.00     0.157 A 
ATOM     16  C   UNL     1     126.905 132.289 110.974  1.00  0.00     0.062 A 
ATOM     17  C   UNL     1     128.193 132.750 111.281  1.00  0.00     0.158 A 
BRANCH  15  18
ATOM     18  O   UNL     1     129.715 134.620 111.646  1.00  0.00    -0.504 OA
ATOM     19  H   UNL     1     129.855 135.535 112.060  1.00  0.00     0.293 HD
ENDBRANCH  15  18
BRANCH  17  20
ATOM     20  O   UNL     1     129.223 131.843 111.525  1.00  0.00    -0.504 OA
ATOM     21  H   UNL     1     129.477 131.132 110.848  1.00  0.00     0.293 HD
ENDBRANCH  17  20
ENDBRANCH   1  12
BRANCH   6  22
ATOM     22  O   UNL     1     120.029 130.801 108.586  1.00  0.00    -0.507 OA
ATOM     23  H   UNL     1     120.437 129.999 108.131  1.00  0.00     0.293 HD
ENDBRANCH   6  22
BRANCH   8  24
ATOM     24  O   UNL     1     119.166 132.245 113.083  1.00  0.00    -0.508 OA
ATOM     25  H   UNL     1     118.622 133.091 113.209  1.00  0.00     0.293 HD
ENDBRANCH   8  24
TORSDOF 5
ENDMDL
MODEL 9
REMARK VINA RESULT:    -5.442      2.342      7.409
REMARK INTER + INTRA:          -6.698
REMARK INTER:                  -6.402
REMARK INTRA:                  -0.297
REMARK UNBOUND:                -0.303
REMARK SMILES O=c1cc(-c2ccc(O)c(O)c2)oc2cc(O)cc(O)c12
REMARK SMILES IDX 4 1 3 2 2 3 1 4 21 5 19 6 18 7 16 8 15 9 14 10 13 11 5 12
REMARK SMILES IDX 6 13 7 14 8 15 12 16 10 17 9 18 11 20 20 22 17 24
REMARK H PARENT 9 19 11 21 20 23 17 25
REMARK Flexibility Score: inf
ROOT
ATOM      1  C   UNL     1     126.273 133.780 110.956  1.00  0.00     0.138 A 
ATOM      2  C   UNL     1     127.507 133.260 111.368  1.00  0.00     0.100 A 
ATOM      3  C   UNL     1     128.689 133.837 110.901  1.00  0.00     0.197 A 
ATOM      4  O   UNL     1     129.780 133.383 111.333  1.00  0.00    -0.289 OA
ATOM      5  C   UNL     1     128.633 134.917 109.990  1.00  0.00     0.107 A 
ATOM      6  C   UNL     1     129.773 135.563 109.421  1.00  0.00     0.134 A 
ATOM      7  C   UNL     1     129.593 136.688 108.605  1.00  0.00     0.093 A 
ATOM      8  C   UNL     1     128.315 137.154 108.291  1.00  0.00     0.123 A 
ATOM      9  C   UNL     1     127.195 136.501 108.800  1.00  0.00     0.094 A 
ATOM     10  C   UNL     1     127.341 135.398 109.645  1.00  0.00     0.146 A 
ATOM     11  O   UNL     1     126.247 134.816 110.123  1.00  0.00    -0.456 OA
ENDROOT
BRANCH   1  12
ATOM     12  C   UNL     1     124.984 133.204 111.418  1.00  0.00     0.021 A 
ATOM     13  C   UNL     1     123.779 133.696 110.888  1.00  0.00     0.016 A 
ATOM     14  C   UNL     1     122.552 133.176 111.310  1.00  0.00     0.051 A 
ATOM     15  C   UNL     1     122.507 132.166 112.274  1.00  0.00     0.157 A 
ATOM     16  C   UNL     1     124.933 132.195 112.399  1.00  0.00     0.062 A 
ATOM     17  C   UNL     1     123.702 131.674 112.825  1.00  0.00     0.158 A 
BRANCH  15  18
ATOM     18  O   UNL     1     121.268 131.666 112.675  1.00  0.00    -0.504 OA
ATOM     19  H   UNL     1     120.398 132.123 112.429  1.00  0.00     0.293 HD
ENDBRANCH  15  18
BRANCH  17  20
ATOM     20  O   UNL     1     123.662 130.674 113.796  1.00  0.00    -0.504 OA
ATOM     21  H   UNL     1     122.865 130.053 113.886  1.00  0.00     0.293 HD
ENDBRANCH  17  20
ENDBRANCH   1  12
BRANCH   6  22
ATOM     22  O   UNL     1     131.091 135.132 109.604  1.00  0.00    -0.507 OA
ATOM     23  H   UNL     1     131.546 135.024 110.497  1.00  0.00     0.293 HD
ENDBRANCH   6  22
BRANCH   8  24
ATOM     24  O   UNL     1     128.145 138.264 107.466  1.00  0.00    -0.508 OA
ATOM     25  H   UNL     1     128.673 139.117 107.611  1.00  0.00     0.293 HD
ENDBRANCH   8  24
TORSDOF 5
ENDMDL
