MODEL 1
REMARK VINA RESULT:    -3.911      0.000      0.000
REMARK INTER + INTRA:          -4.626
REMARK INTER:                  -4.483
REMARK INTRA:                  -0.144
REMARK UNBOUND:                -0.144
REMARK SMILES CC=Cc1ccc(O)c(OC)c1
REMARK SMILES IDX 4 1 12 2 9 3 7 4 6 5 5 6 3 7 1 8 2 9 10 10 11 11 8 12
REMARK H PARENT 8 13
REMARK Flexibility Score: inf
ROOT
ATOM      1  C   UNL     1     116.907 118.722 113.898  1.00  0.00    -0.022 A 
ATOM      2  C   UNL     1     117.095 118.855 115.289  1.00  0.00     0.058 A 
ATOM      3  C   UNL     1     116.135 119.510 116.087  1.00  0.00     0.161 A 
ATOM      4  C   UNL     1     114.985 120.045 115.478  1.00  0.00     0.157 A 
ATOM      5  C   UNL     1     114.807 119.929 114.097  1.00  0.00     0.051 A 
ATOM      6  C   UNL     1     115.760 119.279 113.313  1.00  0.00     0.012 A 
ENDROOT
BRANCH   1   7
ATOM      7  C   UNL     1     117.895 118.049 113.019  1.00  0.00     0.003 C 
ATOM      8  C   UNL     1     120.060 117.786 111.876  1.00  0.00     0.035 C 
ATOM      9  C   UNL     1     119.116 118.532 112.760  1.00  0.00    -0.030 C 
ENDBRANCH   1   7
BRANCH   3  10
ATOM     10  O   UNL     1     116.292 119.652 117.474  1.00  0.00    -0.493 OA
ATOM     11  C   UNL     1     117.494 119.376 118.185  1.00  0.00     0.278 C 
ENDBRANCH   3  10
BRANCH   4  12
ATOM     12  O   UNL     1     114.008 120.698 116.230  1.00  0.00    -0.504 OA
ATOM     13  H   UNL     1     114.060 120.766 117.240  1.00  0.00     0.293 HD
ENDBRANCH   4  12
TORSDOF 3
ENDMDL
MODEL 2
REMARK VINA RESULT:    -3.871      4.002      4.527
REMARK INTER + INTRA:          -4.580
REMARK INTER:                  -4.437
REMARK INTRA:                  -0.143
REMARK UNBOUND:                -0.144
REMARK SMILES CC=Cc1ccc(O)c(OC)c1
REMARK SMILES IDX 4 1 12 2 9 3 7 4 6 5 5 6 3 7 1 8 2 9 10 10 11 11 8 12
REMARK H PARENT 8 13
REMARK Flexibility Score: inf
ROOT
ATOM      1  C   UNL     1     114.468 116.837 113.846  1.00  0.00    -0.022 A 
ATOM      2  C   UNL     1     114.372 117.060 115.235  1.00  0.00     0.058 A 
ATOM      3  C   UNL     1     113.737 116.122 116.074  1.00  0.00     0.161 A 
ATOM      4  C   UNL     1     113.184 114.958 115.509  1.00  0.00     0.157 A 
ATOM      5  C   UNL     1     113.263 114.745 114.130  1.00  0.00     0.051 A 
ATOM      6  C   UNL     1     113.894 115.677 113.305  1.00  0.00     0.012 A 
ENDROOT
BRANCH   1   7
ATOM      7  C   UNL     1     115.120 117.800 112.925  1.00  0.00     0.003 C 
ATOM      8  C   UNL     1     115.482 119.998 111.875  1.00  0.00     0.035 C 
ATOM      9  C   UNL     1     114.765 119.086 112.816  1.00  0.00    -0.030 C 
ENDBRANCH   1   7
BRANCH   3  10
ATOM     10  O   UNL     1     113.631 116.315 117.460  1.00  0.00    -0.493 OA
ATOM     11  C   UNL     1     113.991 117.513 118.141  1.00  0.00     0.278 C 
ENDBRANCH   3  10
BRANCH   4  12
ATOM     12  O   UNL     1     112.549 114.003 116.302  1.00  0.00    -0.504 OA
ATOM     13  H   UNL     1     111.576 114.085 116.571  1.00  0.00     0.293 HD
ENDBRANCH   4  12
TORSDOF 3
ENDMDL
MODEL 3
REMARK VINA RESULT:    -3.868      4.020      4.593
REMARK INTER + INTRA:          -4.577
REMARK INTER:                  -4.434
REMARK INTRA:                  -0.143
REMARK UNBOUND:                -0.144
REMARK SMILES CC=Cc1ccc(O)c(OC)c1
REMARK SMILES IDX 4 1 12 2 9 3 7 4 6 5 5 6 3 7 1 8 2 9 10 10 11 11 8 12
REMARK H PARENT 8 13
REMARK Flexibility Score: inf
ROOT
ATOM      1  C   UNL     1     118.704 116.204 113.844  1.00  0.00    -0.022 A 
ATOM      2  C   UNL     1     118.862 116.025 115.233  1.00  0.00     0.058 A 
ATOM      3  C   UNL     1     119.520 116.996 116.015  1.00  0.00     0.161 A 
ATOM      4  C   UNL     1     120.032 118.149 115.391  1.00  0.00     0.157 A 
ATOM      5  C   UNL     1     119.892 118.318 114.012  1.00  0.00     0.051 A 
ATOM      6  C   UNL     1     119.239 117.354 113.243  1.00  0.00     0.012 A 
ENDROOT
BRANCH   1   7
ATOM      7  C   UNL     1     118.027 115.204 112.981  1.00  0.00     0.003 C 
ATOM      8  C   UNL     1     117.755 113.021 111.875  1.00  0.00     0.035 C 
ATOM      9  C   UNL     1     118.505 113.977 112.744  1.00  0.00    -0.030 C 
ENDBRANCH   1   7
BRANCH   3  10
ATOM     10  O   UNL     1     119.686 116.848 117.401  1.00  0.00    -0.493 OA
ATOM     11  C   UNL     1     119.430 115.648 118.123  1.00  0.00     0.278 C 
ENDBRANCH   3  10
BRANCH   4  12
ATOM     12  O   UNL     1     120.687 119.136 116.128  1.00  0.00    -0.504 OA
ATOM     13  H   UNL     1     120.216 119.975 116.445  1.00  0.00     0.293 HD
ENDBRANCH   4  12
TORSDOF 3
ENDMDL
MODEL 4
REMARK VINA RESULT:    -3.863      5.209      6.380
REMARK INTER + INTRA:          -4.572
REMARK INTER:                  -4.428
REMARK INTRA:                  -0.144
REMARK UNBOUND:                -0.144
REMARK SMILES CC=Cc1ccc(O)c(OC)c1
REMARK SMILES IDX 4 1 12 2 9 3 7 4 6 5 5 6 3 7 1 8 2 9 10 10 11 11 8 12
REMARK H PARENT 8 13
REMARK Flexibility Score: inf
ROOT
ATOM      1  C   UNL     1     116.230 114.571 113.861  1.00  0.00    -0.022 A 
ATOM      2  C   UNL     1     116.059 114.375 115.246  1.00  0.00     0.058 A 
ATOM      3  C   UNL     1     117.041 113.709 116.007  1.00  0.00     0.161 A 
ATOM      4  C   UNL     1     118.197 113.228 115.365  1.00  0.00     0.157 A 
ATOM      5  C   UNL     1     118.359 113.406 113.989  1.00  0.00     0.051 A 
ATOM      6  C   UNL     1     117.383 114.066 113.242  1.00  0.00     0.012 A 
ENDROOT
BRANCH   1   7
ATOM      7  C   UNL     1     115.219 115.258 113.020  1.00  0.00     0.003 C 
ATOM      8  C   UNL     1     113.051 115.501 111.875  1.00  0.00     0.035 C 
ATOM      9  C   UNL     1     114.023 114.739 112.716  1.00  0.00    -0.030 C 
ENDBRANCH   1   7
BRANCH   3  10
ATOM     10  O   UNL     1     116.901 113.505 117.389  1.00  0.00    -0.493 OA
ATOM     11  C   UNL     1     115.786 113.936 118.161  1.00  0.00     0.278 C 
ENDBRANCH   3  10
BRANCH   4  12
ATOM     12  O   UNL     1     119.195 112.566 116.080  1.00  0.00    -0.504 OA
ATOM     13  H   UNL     1     119.114 112.376 117.072  1.00  0.00     0.293 HD
ENDBRANCH   4  12
TORSDOF 3
ENDMDL
MODEL 5
REMARK VINA RESULT:    -3.804      3.476      4.864
REMARK INTER + INTRA:          -4.503
REMARK INTER:                  -4.318
REMARK INTRA:                  -0.185
REMARK UNBOUND:                -0.144
REMARK SMILES CC=Cc1ccc(O)c(OC)c1
REMARK SMILES IDX 4 1 12 2 9 3 7 4 6 5 5 6 3 7 1 8 2 9 10 10 11 11 8 12
REMARK H PARENT 8 13
REMARK Flexibility Score: inf
ROOT
ATOM      1  C   UNL     1     115.123 119.446 115.133  1.00  0.00    -0.022 A 
ATOM      2  C   UNL     1     115.092 118.045 115.281  1.00  0.00     0.058 A 
ATOM      3  C   UNL     1     114.730 117.213 114.202  1.00  0.00     0.161 A 
ATOM      4  C   UNL     1     114.385 117.798 112.970  1.00  0.00     0.157 A 
ATOM      5  C   UNL     1     114.397 119.188 112.827  1.00  0.00     0.051 A 
ATOM      6  C   UNL     1     114.757 120.005 113.899  1.00  0.00     0.012 A 
ENDROOT
BRANCH   1   7
ATOM      7  C   UNL     1     115.489 120.359 116.243  1.00  0.00     0.003 C 
ATOM      8  C   UNL     1     115.176 122.270 117.766  1.00  0.00     0.035 C 
ATOM      9  C   UNL     1     114.746 121.405 116.626  1.00  0.00    -0.030 C 
ENDBRANCH   1   7
BRANCH   3  10
ATOM     10  O   UNL     1     114.697 115.814 114.318  1.00  0.00    -0.493 OA
ATOM     11  C   UNL     1     113.595 115.070 114.826  1.00  0.00     0.278 C 
ENDBRANCH   3  10
BRANCH   4  12
ATOM     12  O   UNL     1     114.023 117.012 111.875  1.00  0.00    -0.504 OA
ATOM     13  H   UNL     1     113.825 116.023 111.962  1.00  0.00     0.293 HD
ENDBRANCH   4  12
TORSDOF 3
ENDMDL
MODEL 6
REMARK VINA RESULT:    -3.768      2.731      4.149
REMARK INTER + INTRA:          -4.462
REMARK INTER:                  -4.305
REMARK INTRA:                  -0.157
REMARK UNBOUND:                -0.144
REMARK SMILES CC=Cc1ccc(O)c(OC)c1
REMARK SMILES IDX 4 1 12 2 9 3 7 4 6 5 5 6 3 7 1 8 2 9 10 10 11 11 8 12
REMARK H PARENT 8 13
REMARK Flexibility Score: inf
ROOT
ATOM      1  C   UNL     1     116.405 117.670 112.933  1.00  0.00    -0.022 A 
ATOM      2  C   UNL     1     116.813 117.869 114.267  1.00  0.00     0.058 A 
ATOM      3  C   UNL     1     118.120 118.305 114.564  1.00  0.00     0.161 A 
ATOM      4  C   UNL     1     119.025 118.530 113.511  1.00  0.00     0.157 A 
ATOM      5  C   UNL     1     118.627 118.315 112.189  1.00  0.00     0.051 A 
ATOM      6  C   UNL     1     117.332 117.885 111.901  1.00  0.00     0.012 A 
ENDROOT
BRANCH   1   7
ATOM      7  C   UNL     1     115.043 117.204 112.575  1.00  0.00     0.003 C 
ATOM      8  C   UNL     1     113.352 115.553 111.879  1.00  0.00     0.035 C 
ATOM      9  C   UNL     1     114.755 115.949 112.209  1.00  0.00    -0.030 C 
ENDBRANCH   1   7
BRANCH   3  10
ATOM     10  O   UNL     1     118.553 118.517 115.883  1.00  0.00    -0.493 OA
ATOM     11  C   UNL     1     117.708 118.912 116.958  1.00  0.00     0.278 C 
ENDBRANCH   3  10
BRANCH   4  12
ATOM     12  O   UNL     1     120.328 118.964 113.759  1.00  0.00    -0.504 OA
ATOM     13  H   UNL     1     120.661 119.872 113.459  1.00  0.00     0.293 HD
ENDBRANCH   4  12
TORSDOF 3
ENDMDL
MODEL 7
REMARK VINA RESULT:    -3.745      2.823      3.182
REMARK INTER + INTRA:          -4.436
REMARK INTER:                  -4.278
REMARK INTRA:                  -0.157
REMARK UNBOUND:                -0.144
REMARK SMILES CC=Cc1ccc(O)c(OC)c1
REMARK SMILES IDX 4 1 12 2 9 3 7 4 6 5 5 6 3 7 1 8 2 9 10 10 11 11 8 12
REMARK H PARENT 8 13
REMARK Flexibility Score: inf
ROOT
ATOM      1  C   UNL     1     115.577 116.352 112.904  1.00  0.00    -0.022 A 
ATOM      2  C   UNL     1     115.495 116.780 114.244  1.00  0.00     0.058 A 
ATOM      3  C   UNL     1     115.046 118.078 114.561  1.00  0.00     0.161 A 
ATOM      4  C   UNL     1     114.689 118.954 113.520  1.00  0.00     0.157 A 
ATOM      5  C   UNL     1     114.787 118.537 112.190  1.00  0.00     0.051 A 
ATOM      6  C   UNL     1     115.232 117.250 111.883  1.00  0.00     0.012 A 
ENDROOT
BRANCH   1   7
ATOM      7  C   UNL     1     116.053 114.999 112.525  1.00  0.00     0.003 C 
ATOM      8  C   UNL     1     117.742 113.286 111.998  1.00  0.00     0.035 C 
ATOM      9  C   UNL     1     117.342 114.677 112.367  1.00  0.00    -0.030 C 
ENDBRANCH   1   7
BRANCH   3  10
ATOM     10  O   UNL     1     114.948 118.529 115.886  1.00  0.00    -0.493 OA
ATOM     11  C   UNL     1     114.348 117.796 116.949  1.00  0.00     0.278 C 
ENDBRANCH   3  10
BRANCH   4  12
ATOM     12  O   UNL     1     114.236 120.246 113.788  1.00  0.00    -0.504 OA
ATOM     13  H   UNL     1     114.441 121.028 113.177  1.00  0.00     0.293 HD
ENDBRANCH   4  12
TORSDOF 3
ENDMDL
MODEL 8
REMARK VINA RESULT:    -3.738      3.711      4.207
REMARK INTER + INTRA:          -4.427
REMARK INTER:                  -4.282
REMARK INTRA:                  -0.145
REMARK UNBOUND:                -0.144
REMARK SMILES CC=Cc1ccc(O)c(OC)c1
REMARK SMILES IDX 4 1 12 2 9 3 7 4 6 5 5 6 3 7 1 8 2 9 10 10 11 11 8 12
REMARK H PARENT 8 13
REMARK Flexibility Score: inf
ROOT
ATOM      1  C   UNL     1     116.422 116.039 112.544  1.00  0.00    -0.022 A 
ATOM      2  C   UNL     1     115.779 116.585 113.674  1.00  0.00     0.058 A 
ATOM      3  C   UNL     1     114.594 116.010 114.176  1.00  0.00     0.161 A 
ATOM      4  C   UNL     1     114.047 114.887 113.530  1.00  0.00     0.157 A 
ATOM      5  C   UNL     1     114.674 114.357 112.399  1.00  0.00     0.051 A 
ATOM      6  C   UNL     1     115.847 114.929 111.907  1.00  0.00     0.012 A 
ENDROOT
BRANCH   1   7
ATOM      7  C   UNL     1     117.665 116.617 111.976  1.00  0.00     0.003 C 
ATOM      8  C   UNL     1     119.791 117.859 112.045  1.00  0.00     0.035 C 
ATOM      9  C   UNL     1     118.552 117.324 112.687  1.00  0.00    -0.030 C 
ENDBRANCH   1   7
BRANCH   3  10
ATOM     10  O   UNL     1     113.935 116.528 115.303  1.00  0.00    -0.493 OA
ATOM     11  C   UNL     1     114.588 117.098 116.432  1.00  0.00     0.278 C 
ENDBRANCH   3  10
BRANCH   4  12
ATOM     12  O   UNL     1     112.878 114.285 113.995  1.00  0.00    -0.504 OA
ATOM     13  H   UNL     1     112.743 114.049 114.971  1.00  0.00     0.293 HD
ENDBRANCH   4  12
TORSDOF 3
ENDMDL
MODEL 9
REMARK VINA RESULT:    -3.723      3.916      5.498
REMARK INTER + INTRA:          -4.410
REMARK INTER:                  -4.268
REMARK INTRA:                  -0.142
REMARK UNBOUND:                -0.144
REMARK SMILES CC=Cc1ccc(O)c(OC)c1
REMARK SMILES IDX 4 1 12 2 9 3 7 4 6 5 5 6 3 7 1 8 2 9 10 10 11 11 8 12
REMARK H PARENT 8 13
REMARK Flexibility Score: inf
ROOT
ATOM      1  C   UNL     1     117.300 116.636 112.578  1.00  0.00    -0.022 A 
ATOM      2  C   UNL     1     116.729 115.935 113.659  1.00  0.00     0.058 A 
ATOM      3  C   UNL     1     117.235 114.680 114.052  1.00  0.00     0.161 A 
ATOM      4  C   UNL     1     118.317 114.123 113.346  1.00  0.00     0.157 A 
ATOM      5  C   UNL     1     118.872 114.809 112.263  1.00  0.00     0.051 A 
ATOM      6  C   UNL     1     118.367 116.051 111.878  1.00  0.00     0.012 A 
ENDROOT
BRANCH   1   7
ATOM      7  C   UNL     1     116.794 117.955 112.124  1.00  0.00     0.003 C 
ATOM      8  C   UNL     1     115.350 119.948 112.209  1.00  0.00     0.035 C 
ATOM      9  C   UNL     1     115.792 118.615 112.717  1.00  0.00    -0.030 C 
ENDBRANCH   1   7
BRANCH   3  10
ATOM     10  O   UNL     1     116.690 113.961 115.128  1.00  0.00    -0.493 OA
ATOM     11  C   UNL     1     115.752 114.488 116.061  1.00  0.00     0.278 C 
ENDBRANCH   3  10
BRANCH   4  12
ATOM     12  O   UNL     1     118.851 112.885 113.703  1.00  0.00    -0.504 OA
ATOM     13  H   UNL     1     119.814 112.636 113.511  1.00  0.00     0.293 HD
ENDBRANCH   4  12
TORSDOF 3
ENDMDL
