MODEL 1
REMARK VINA RESULT:    -4.157      0.000      0.000
REMARK INTER + INTRA:          -5.288
REMARK INTER:                  -5.129
REMARK INTRA:                  -0.159
REMARK UNBOUND:                -0.159
REMARK SMILES C=CC[C@H](C)C(=O)CC
REMARK SMILES IDX 4 1 5 2 6 3 7 4 8 5 9 6 3 7 2 8 1 9
REMARK H PARENT
REMARK Flexibility Score: inf
ROOT
ATOM      1  C   UNL     1       8.418 -25.021 -24.470  1.00  0.00     0.057 C 
ATOM      2  C   UNL     1       7.895 -26.125 -25.398  1.00  0.00     0.016 C 
ENDROOT
BRANCH   1   3
ATOM      3  C   UNL     1       7.265 -24.166 -23.989  1.00  0.00     0.135 C 
ATOM      4  O   UNL     1       7.417 -22.959 -23.862  1.00  0.00    -0.299 OA
BRANCH   3   5
ATOM      5  C   UNL     1       5.928 -24.775 -23.655  1.00  0.00     0.072 C 
ATOM      6  C   UNL     1       5.548 -24.484 -22.207  1.00  0.00     0.012 C 
ENDBRANCH   3   5
ENDBRANCH   1   3
BRANCH   1   7
ATOM      7  C   UNL     1       9.473 -24.140 -25.168  1.00  0.00     0.038 C 
BRANCH   7   8
ATOM      8  C   UNL     1      10.484 -24.971 -25.913  1.00  0.00    -0.034 C 
ATOM      9  C   UNL     1      11.674 -24.482 -26.272  1.00  0.00     0.004 C 
ENDBRANCH   7   8
ENDBRANCH   1   7
TORSDOF 4
ENDMDL
MODEL 2
REMARK VINA RESULT:    -4.018      8.809      9.825
REMARK INTER + INTRA:          -5.116
REMARK INTER:                  -4.638
REMARK INTRA:                  -0.478
REMARK UNBOUND:                -0.159
REMARK SMILES C=CC[C@H](C)C(=O)CC
REMARK SMILES IDX 4 1 5 2 6 3 7 4 8 5 9 6 3 7 2 8 1 9
REMARK H PARENT
REMARK Flexibility Score: inf
ROOT
ATOM      1  C   UNL     1      13.853 -18.225 -20.459  1.00  0.00     0.057 C 
ATOM      2  C   UNL     1      13.465 -17.292 -21.614  1.00  0.00     0.016 C 
ENDROOT
BRANCH   1   3
ATOM      3  C   UNL     1      12.928 -19.423 -20.436  1.00  0.00     0.135 C 
ATOM      4  O   UNL     1      11.716 -19.254 -20.424  1.00  0.00    -0.299 OA
BRANCH   3   5
ATOM      5  C   UNL     1      13.471 -20.829 -20.421  1.00  0.00     0.072 C 
ATOM      6  C   UNL     1      14.990 -20.822 -20.551  1.00  0.00     0.012 C 
ENDBRANCH   3   5
ENDBRANCH   1   3
BRANCH   1   7
ATOM      7  C   UNL     1      13.810 -17.501 -19.099  1.00  0.00     0.038 C 
BRANCH   7   8
ATOM      8  C   UNL     1      15.028 -17.810 -18.269  1.00  0.00    -0.034 C 
ATOM      9  C   UNL     1      15.019 -18.755 -17.325  1.00  0.00     0.004 C 
ENDBRANCH   7   8
ENDBRANCH   1   7
TORSDOF 4
ENDMDL
MODEL 3
REMARK VINA RESULT:    -4.001      9.360     10.431
REMARK INTER + INTRA:          -5.095
REMARK INTER:                  -4.661
REMARK INTRA:                  -0.434
REMARK UNBOUND:                -0.159
REMARK SMILES C=CC[C@H](C)C(=O)CC
REMARK SMILES IDX 4 1 5 2 6 3 7 4 8 5 9 6 3 7 2 8 1 9
REMARK H PARENT
REMARK Flexibility Score: inf
ROOT
ATOM      1  C   UNL     1      14.388 -18.861 -18.576  1.00  0.00     0.057 C 
ATOM      2  C   UNL     1      15.084 -18.885 -17.209  1.00  0.00     0.016 C 
ENDROOT
BRANCH   1   3
ATOM      3  C   UNL     1      15.274 -19.516 -19.614  1.00  0.00     0.135 C 
ATOM      4  O   UNL     1      16.330 -18.986 -19.932  1.00  0.00    -0.299 OA
BRANCH   3   5
ATOM      5  C   UNL     1      14.877 -20.811 -20.274  1.00  0.00     0.072 C 
ATOM      6  C   UNL     1      13.367 -20.874 -20.477  1.00  0.00     0.012 C 
ENDBRANCH   3   5
ENDBRANCH   1   3
BRANCH   1   7
ATOM      7  C   UNL     1      14.036 -17.425 -19.014  1.00  0.00     0.038 C 
BRANCH   7   8
ATOM      8  C   UNL     1      12.728 -17.378 -19.757  1.00  0.00    -0.034 C 
ATOM      9  C   UNL     1      11.578 -17.751 -19.189  1.00  0.00     0.004 C 
ENDBRANCH   7   8
ENDBRANCH   1   7
TORSDOF 4
ENDMDL
MODEL 4
REMARK VINA RESULT:    -3.933      9.233     10.061
REMARK INTER + INTRA:          -5.012
REMARK INTER:                  -4.567
REMARK INTRA:                  -0.445
REMARK UNBOUND:                -0.159
REMARK SMILES C=CC[C@H](C)C(=O)CC
REMARK SMILES IDX 4 1 5 2 6 3 7 4 8 5 9 6 3 7 2 8 1 9
REMARK H PARENT
REMARK Flexibility Score: inf
ROOT
ATOM      1  C   UNL     1      15.055 -19.169 -18.497  1.00  0.00     0.057 C 
ATOM      2  C   UNL     1      14.681 -18.971 -17.022  1.00  0.00     0.016 C 
ENDROOT
BRANCH   1   3
ATOM      3  C   UNL     1      14.600 -17.973 -19.306  1.00  0.00     0.135 C 
ATOM      4  O   UNL     1      15.414 -17.341 -19.965  1.00  0.00    -0.299 OA
BRANCH   3   5
ATOM      5  C   UNL     1      13.158 -17.537 -19.310  1.00  0.00     0.072 C 
ATOM      6  C   UNL     1      12.529 -17.762 -20.681  1.00  0.00     0.012 C 
ENDBRANCH   3   5
ENDBRANCH   1   3
BRANCH   1   7
ATOM      7  C   UNL     1      14.443 -20.460 -19.074  1.00  0.00     0.038 C 
BRANCH   7   8
ATOM      8  C   UNL     1      15.023 -20.793 -20.424  1.00  0.00    -0.034 C 
ATOM      9  C   UNL     1      14.250 -21.006 -21.492  1.00  0.00     0.004 C 
ENDBRANCH   7   8
ENDBRANCH   1   7
TORSDOF 4
ENDMDL
MODEL 5
REMARK VINA RESULT:    -3.920      6.865      8.140
REMARK INTER + INTRA:          -4.996
REMARK INTER:                  -4.802
REMARK INTRA:                  -0.194
REMARK UNBOUND:                -0.159
REMARK SMILES C=CC[C@H](C)C(=O)CC
REMARK SMILES IDX 4 1 5 2 6 3 7 4 8 5 9 6 3 7 2 8 1 9
REMARK H PARENT
REMARK Flexibility Score: inf
ROOT
ATOM      1  C   UNL     1       9.405 -17.505 -22.572  1.00  0.00     0.057 C 
ATOM      2  C   UNL     1      10.116 -16.424 -23.397  1.00  0.00     0.016 C 
ENDROOT
BRANCH   1   3
ATOM      3  C   UNL     1      10.340 -18.032 -21.504  1.00  0.00     0.135 C 
ATOM      4  O   UNL     1       9.891 -18.371 -20.418  1.00  0.00    -0.299 OA
BRANCH   3   5
ATOM      5  C   UNL     1      11.823 -18.142 -21.750  1.00  0.00     0.072 C 
ATOM      6  C   UNL     1      12.607 -17.822 -20.482  1.00  0.00     0.012 C 
ENDBRANCH   3   5
ENDBRANCH   1   3
BRANCH   1   7
ATOM      7  C   UNL     1       8.909 -18.666 -23.457  1.00  0.00     0.038 C 
BRANCH   7   8
ATOM      8  C   UNL     1       7.511 -19.086 -23.086  1.00  0.00    -0.034 C 
ATOM      9  C   UNL     1       6.888 -18.598 -22.010  1.00  0.00     0.004 C 
ENDBRANCH   7   8
ENDBRANCH   1   7
TORSDOF 4
ENDMDL
MODEL 6
REMARK VINA RESULT:    -3.861     10.073     11.386
REMARK INTER + INTRA:          -4.923
REMARK INTER:                  -4.448
REMARK INTRA:                  -0.475
REMARK UNBOUND:                -0.159
REMARK SMILES C=CC[C@H](C)C(=O)CC
REMARK SMILES IDX 4 1 5 2 6 3 7 4 8 5 9 6 3 7 2 8 1 9
REMARK H PARENT
REMARK Flexibility Score: inf
ROOT
ATOM      1  C   UNL     1      14.886 -17.920 -18.581  1.00  0.00     0.057 C 
ATOM      2  C   UNL     1      13.711 -17.472 -19.461  1.00  0.00     0.016 C 
ENDROOT
BRANCH   1   3
ATOM      3  C   UNL     1      16.193 -17.500 -19.218  1.00  0.00     0.135 C 
ATOM      4  O   UNL     1      17.169 -17.286 -18.513  1.00  0.00    -0.299 OA
BRANCH   3   5
ATOM      5  C   UNL     1      16.315 -17.330 -20.710  1.00  0.00     0.072 C 
ATOM      6  C   UNL     1      17.554 -18.047 -21.236  1.00  0.00     0.012 C 
ENDBRANCH   3   5
ENDBRANCH   1   3
BRANCH   1   7
ATOM      7  C   UNL     1      14.878 -19.444 -18.349  1.00  0.00     0.038 C 
BRANCH   7   8
ATOM      8  C   UNL     1      14.254 -20.176 -19.508  1.00  0.00    -0.034 C 
ATOM      9  C   UNL     1      14.988 -20.866 -20.386  1.00  0.00     0.004 C 
ENDBRANCH   7   8
ENDBRANCH   1   7
TORSDOF 4
ENDMDL
MODEL 7
REMARK VINA RESULT:    -3.832      8.703      9.248
REMARK INTER + INTRA:          -4.887
REMARK INTER:                  -4.498
REMARK INTRA:                  -0.389
REMARK UNBOUND:                -0.159
REMARK SMILES C=CC[C@H](C)C(=O)CC
REMARK SMILES IDX 4 1 5 2 6 3 7 4 8 5 9 6 3 7 2 8 1 9
REMARK H PARENT
REMARK Flexibility Score: inf
ROOT
ATOM      1  C   UNL     1      13.081 -19.065 -19.966  1.00  0.00     0.057 C 
ATOM      2  C   UNL     1      13.412 -20.485 -20.446  1.00  0.00     0.016 C 
ENDROOT
BRANCH   1   3
ATOM      3  C   UNL     1      11.886 -18.532 -20.727  1.00  0.00     0.135 C 
ATOM      4  O   UNL     1      11.982 -18.308 -21.926  1.00  0.00    -0.299 OA
BRANCH   3   5
ATOM      5  C   UNL     1      10.576 -18.262 -20.034  1.00  0.00     0.072 C 
ATOM      6  C   UNL     1      10.803 -17.522 -18.720  1.00  0.00     0.012 C 
ENDBRANCH   3   5
ENDBRANCH   1   3
BRANCH   1   7
ATOM      7  C   UNL     1      14.281 -18.112 -20.133  1.00  0.00     0.038 C 
BRANCH   7   8
ATOM      8  C   UNL     1      14.713 -17.530 -18.814  1.00  0.00    -0.034 C 
ATOM      9  C   UNL     1      14.976 -18.299 -17.754  1.00  0.00     0.004 C 
ENDBRANCH   7   8
ENDBRANCH   1   7
TORSDOF 4
ENDMDL
MODEL 8
REMARK VINA RESULT:    -3.813      8.104     10.016
REMARK INTER + INTRA:          -4.864
REMARK INTER:                  -4.505
REMARK INTRA:                  -0.359
REMARK UNBOUND:                -0.159
REMARK SMILES C=CC[C@H](C)C(=O)CC
REMARK SMILES IDX 4 1 5 2 6 3 7 4 8 5 9 6 3 7 2 8 1 9
REMARK H PARENT
REMARK Flexibility Score: inf
ROOT
ATOM      1  C   UNL     1      16.976 -24.224 -23.074  1.00  0.00     0.057 C 
ATOM      2  C   UNL     1      17.209 -25.093 -21.831  1.00  0.00     0.016 C 
ENDROOT
BRANCH   1   3
ATOM      3  C   UNL     1      18.291 -23.642 -23.547  1.00  0.00     0.135 C 
ATOM      4  O   UNL     1      18.748 -22.650 -22.996  1.00  0.00    -0.299 OA
BRANCH   3   5
ATOM      5  C   UNL     1      19.050 -24.260 -24.693  1.00  0.00     0.072 C 
ATOM      6  C   UNL     1      19.030 -23.343 -25.911  1.00  0.00     0.012 C 
ENDBRANCH   3   5
ENDBRANCH   1   3
BRANCH   1   7
ATOM      7  C   UNL     1      15.967 -23.092 -22.798  1.00  0.00     0.038 C 
BRANCH   7   8
ATOM      8  C   UNL     1      15.209 -22.712 -24.042  1.00  0.00    -0.034 C 
ATOM      9  C   UNL     1      15.559 -21.663 -24.791  1.00  0.00     0.004 C 
ENDBRANCH   7   8
ENDBRANCH   1   7
TORSDOF 4
ENDMDL
MODEL 9
REMARK VINA RESULT:    -3.792      9.177     10.043
REMARK INTER + INTRA:          -4.837
REMARK INTER:                  -4.396
REMARK INTRA:                  -0.441
REMARK UNBOUND:                -0.159
REMARK SMILES C=CC[C@H](C)C(=O)CC
REMARK SMILES IDX 4 1 5 2 6 3 7 4 8 5 9 6 3 7 2 8 1 9
REMARK H PARENT
REMARK Flexibility Score: inf
ROOT
ATOM      1  C   UNL     1      13.293 -18.574 -19.533  1.00  0.00     0.057 C 
ATOM      2  C   UNL     1      12.139 -17.562 -19.539  1.00  0.00     0.016 C 
ENDROOT
BRANCH   1   3
ATOM      3  C   UNL     1      14.616 -17.842 -19.593  1.00  0.00     0.135 C 
ATOM      4  O   UNL     1      14.969 -17.312 -20.638  1.00  0.00    -0.299 OA
BRANCH   3   5
ATOM      5  C   UNL     1      15.518 -17.758 -18.389  1.00  0.00     0.072 C 
ATOM      6  C   UNL     1      14.999 -18.645 -17.262  1.00  0.00     0.012 C 
ENDBRANCH   3   5
ENDBRANCH   1   3
BRANCH   1   7
ATOM      7  C   UNL     1      13.186 -19.569 -20.705  1.00  0.00     0.038 C 
BRANCH   7   8
ATOM      8  C   UNL     1      13.891 -20.864 -20.397  1.00  0.00    -0.034 C 
ATOM      9  C   UNL     1      15.023 -21.216 -21.014  1.00  0.00     0.004 C 
ENDBRANCH   7   8
ENDBRANCH   1   7
TORSDOF 4
ENDMDL
