MODEL 1
REMARK VINA RESULT:    -5.191      0.000      0.000
REMARK INTER + INTRA:          -5.726
REMARK INTER:                  -5.494
REMARK INTRA:                  -0.232
REMARK UNBOUND:                -0.232
REMARK SMILES CC1=CC[C@@]23[C@@H]([C@@H](C(C)C)CC[C@H]2C)[C@H]13
REMARK SMILES IDX 14 1 13 2 12 3 11 4 7 5 6 6 5 7 15 8 2 9 3 10 4 11 1 12 8 13
REMARK SMILES IDX 9 14 10 15
REMARK H PARENT
REMARK Flexibility Score: inf
ROOT
ATOM      1  C   UNL     1      58.736  47.071  44.093  1.00  0.00     0.008 C 
ATOM      2  C   UNL     1      58.602  46.418  42.706  1.00  0.00    -0.007 C 
ATOM      3  C   UNL     1      57.379  46.994  41.956  1.00  0.00     0.004 C 
ATOM      4  C   UNL     1      56.068  46.374  42.441  1.00  0.00     0.004 C 
ATOM      5  C   UNL     1      56.007  44.872  42.097  1.00  0.00    -0.004 C 
ATOM      6  C   UNL     1      57.260  44.103  42.592  1.00  0.00     0.007 C 
ATOM      7  C   UNL     1      58.570  44.869  42.838  1.00  0.00    -0.013 C 
ATOM      8  C   UNL     1      58.385  44.073  41.547  1.00  0.00     0.025 C 
ATOM      9  C   UNL     1      59.349  42.942  41.666  1.00  0.00    -0.073 C 
ATOM     10  C   UNL     1      60.051  42.981  42.790  1.00  0.00    -0.027 C 
ATOM     11  C   UNL     1      59.677  44.150  43.632  1.00  0.00     0.035 C 
ATOM     12  C   UNL     1      59.502  41.869  40.633  1.00  0.00     0.039 C 
ENDROOT
BRANCH   5  13
ATOM     13  C   UNL     1      54.709  44.179  42.614  1.00  0.00    -0.014 C 
ATOM     14  C   UNL     1      54.672  42.683  42.268  1.00  0.00     0.007 C 
ATOM     15  C   UNL     1      53.415  44.866  42.142  1.00  0.00     0.007 C 
ENDBRANCH   5  13
TORSDOF 1
ENDMDL
MODEL 2
REMARK VINA RESULT:    -4.413      1.174      4.289
REMARK INTER + INTRA:          -4.903
REMARK INTER:                  -4.685
REMARK INTRA:                  -0.217
REMARK UNBOUND:                -0.232
REMARK SMILES CC1=CC[C@@]23[C@@H]([C@@H](C(C)C)CC[C@H]2C)[C@H]13
REMARK SMILES IDX 14 1 13 2 12 3 11 4 7 5 6 6 5 7 15 8 2 9 3 10 4 11 1 12 8 13
REMARK SMILES IDX 9 14 10 15
REMARK H PARENT
REMARK Flexibility Score: inf
ROOT
ATOM      1  C   UNL     1      57.577  47.125  43.583  1.00  0.00     0.008 C 
ATOM      2  C   UNL     1      57.279  45.647  43.891  1.00  0.00    -0.007 C 
ATOM      3  C   UNL     1      58.595  44.868  44.116  1.00  0.00     0.004 C 
ATOM      4  C   UNL     1      59.283  44.518  42.796  1.00  0.00     0.004 C 
ATOM      5  C   UNL     1      58.432  43.526  41.976  1.00  0.00    -0.004 C 
ATOM      6  C   UNL     1      56.974  44.019  41.787  1.00  0.00     0.007 C 
ATOM      7  C   UNL     1      56.382  45.033  42.779  1.00  0.00    -0.013 C 
ATOM      8  C   UNL     1      56.041  43.549  42.912  1.00  0.00     0.025 C 
ATOM      9  C   UNL     1      54.594  43.467  42.562  1.00  0.00    -0.073 C 
ATOM     10  C   UNL     1      54.068  44.650  42.275  1.00  0.00    -0.027 C 
ATOM     11  C   UNL     1      55.074  45.741  42.379  1.00  0.00     0.035 C 
ATOM     12  C   UNL     1      53.820  42.187  42.527  1.00  0.00     0.039 C 
ENDROOT
BRANCH   5  13
ATOM     13  C   UNL     1      59.067  43.173  40.596  1.00  0.00    -0.014 C 
ATOM     14  C   UNL     1      60.005  41.959  40.683  1.00  0.00     0.007 C 
ATOM     15  C   UNL     1      59.791  44.356  39.930  1.00  0.00     0.007 C 
ENDBRANCH   5  13
TORSDOF 1
ENDMDL
MODEL 3
REMARK VINA RESULT:    -3.835     21.215     23.212
REMARK INTER + INTRA:          -4.291
REMARK INTER:                  -3.999
REMARK INTRA:                  -0.292
REMARK UNBOUND:                -0.232
REMARK SMILES CC1=CC[C@@]23[C@@H]([C@@H](C(C)C)CC[C@H]2C)[C@H]13
REMARK SMILES IDX 14 1 13 2 12 3 11 4 7 5 6 6 5 7 15 8 2 9 3 10 4 11 1 12 8 13
REMARK SMILES IDX 9 14 10 15
REMARK H PARENT
REMARK Flexibility Score: inf
ROOT
ATOM      1  C   UNL     1      53.707  31.765  25.951  1.00  0.00     0.008 C 
ATOM      2  C   UNL     1      54.349  30.623  25.143  1.00  0.00    -0.007 C 
ATOM      3  C   UNL     1      53.353  30.080  24.093  1.00  0.00     0.004 C 
ATOM      4  C   UNL     1      52.323  29.139  24.718  1.00  0.00     0.004 C 
ATOM      5  C   UNL     1      52.995  27.857  25.250  1.00  0.00    -0.004 C 
ATOM      6  C   UNL     1      54.185  28.166  26.196  1.00  0.00     0.007 C 
ATOM      7  C   UNL     1      54.895  29.525  26.100  1.00  0.00    -0.013 C 
ATOM      8  C   UNL     1      55.518  28.292  25.446  1.00  0.00     0.025 C 
ATOM      9  C   UNL     1      56.743  28.022  26.252  1.00  0.00    -0.073 C 
ATOM     10  C   UNL     1      56.919  28.901  27.229  1.00  0.00    -0.027 C 
ATOM     11  C   UNL     1      55.836  29.921  27.254  1.00  0.00     0.035 C 
ATOM     12  C   UNL     1      57.669  26.875  25.996  1.00  0.00     0.039 C 
ENDROOT
BRANCH   5  13
ATOM     13  C   UNL     1      51.992  26.884  25.941  1.00  0.00    -0.014 C 
ATOM     14  C   UNL     1      50.548  27.102  25.463  1.00  0.00     0.007 C 
ATOM     15  C   UNL     1      52.054  26.926  27.479  1.00  0.00     0.007 C 
ENDBRANCH   5  13
TORSDOF 1
ENDMDL
MODEL 4
REMARK VINA RESULT:    -3.823     17.639     19.933
REMARK INTER + INTRA:          -4.279
REMARK INTER:                  -3.966
REMARK INTRA:                  -0.314
REMARK UNBOUND:                -0.232
REMARK SMILES CC1=CC[C@@]23[C@@H]([C@@H](C(C)C)CC[C@H]2C)[C@H]13
REMARK SMILES IDX 14 1 13 2 12 3 11 4 7 5 6 6 5 7 15 8 2 9 3 10 4 11 1 12 8 13
REMARK SMILES IDX 9 14 10 15
REMARK H PARENT
REMARK Flexibility Score: inf
ROOT
ATOM      1  C   UNL     1      47.948  32.736  30.150  1.00  0.00     0.008 C 
ATOM      2  C   UNL     1      48.587  33.568  29.024  1.00  0.00    -0.007 C 
ATOM      3  C   UNL     1      48.056  33.110  27.647  1.00  0.00     0.004 C 
ATOM      4  C   UNL     1      48.739  31.828  27.170  1.00  0.00     0.004 C 
ATOM      5  C   UNL     1      50.238  32.069  26.898  1.00  0.00    -0.004 C 
ATOM      6  C   UNL     1      50.958  32.726  28.105  1.00  0.00     0.007 C 
ATOM      7  C   UNL     1      50.138  33.523  29.133  1.00  0.00    -0.013 C 
ATOM      8  C   UNL     1      50.924  34.260  28.049  1.00  0.00     0.025 C 
ATOM      9  C   UNL     1      52.013  34.959  28.789  1.00  0.00    -0.073 C 
ATOM     10  C   UNL     1      51.958  34.753  30.098  1.00  0.00    -0.027 C 
ATOM     11  C   UNL     1      50.818  33.872  30.470  1.00  0.00     0.035 C 
ATOM     12  C   UNL     1      53.064  35.794  28.128  1.00  0.00     0.039 C 
ENDROOT
BRANCH   5  13
ATOM     13  C   UNL     1      50.994  30.779  26.454  1.00  0.00    -0.014 C 
ATOM     14  C   UNL     1      50.577  29.551  27.277  1.00  0.00     0.007 C 
ATOM     15  C   UNL     1      52.525  30.929  26.463  1.00  0.00     0.007 C 
ENDBRANCH   5  13
TORSDOF 1
ENDMDL
MODEL 5
REMARK VINA RESULT:    -3.808     20.977     22.736
REMARK INTER + INTRA:          -4.263
REMARK INTER:                  -3.982
REMARK INTRA:                  -0.281
REMARK UNBOUND:                -0.232
REMARK SMILES CC1=CC[C@@]23[C@@H]([C@@H](C(C)C)CC[C@H]2C)[C@H]13
REMARK SMILES IDX 14 1 13 2 12 3 11 4 7 5 6 6 5 7 15 8 2 9 3 10 4 11 1 12 8 13
REMARK SMILES IDX 9 14 10 15
REMARK H PARENT
REMARK Flexibility Score: inf
ROOT
ATOM      1  C   UNL     1      50.977  28.546  28.379  1.00  0.00     0.008 C 
ATOM      2  C   UNL     1      51.552  28.609  26.953  1.00  0.00    -0.007 C 
ATOM      3  C   UNL     1      52.299  27.298  26.615  1.00  0.00     0.004 C 
ATOM      4  C   UNL     1      53.694  27.260  27.241  1.00  0.00     0.004 C 
ATOM      5  C   UNL     1      54.605  28.343  26.628  1.00  0.00    -0.004 C 
ATOM      6  C   UNL     1      53.958  29.752  26.676  1.00  0.00     0.007 C 
ATOM      7  C   UNL     1      52.430  29.881  26.779  1.00  0.00    -0.013 C 
ATOM      8  C   UNL     1      53.120  30.060  25.427  1.00  0.00     0.025 C 
ATOM      9  C   UNL     1      52.942  31.506  25.107  1.00  0.00    -0.073 C 
ATOM     10  C   UNL     1      52.257  32.156  26.038  1.00  0.00    -0.027 C 
ATOM     11  C   UNL     1      51.855  31.259  27.155  1.00  0.00     0.035 C 
ATOM     12  C   UNL     1      53.486  32.157  23.875  1.00  0.00     0.039 C 
ENDROOT
BRANCH   5  13
ATOM     13  C   UNL     1      56.027  28.378  27.266  1.00  0.00    -0.014 C 
ATOM     14  C   UNL     1      56.542  29.813  27.458  1.00  0.00     0.007 C 
ATOM     15  C   UNL     1      57.066  27.538  26.502  1.00  0.00     0.007 C 
ENDBRANCH   5  13
TORSDOF 1
ENDMDL
MODEL 6
REMARK VINA RESULT:    -3.629     18.458     20.982
REMARK INTER + INTRA:          -4.073
REMARK INTER:                  -3.772
REMARK INTRA:                  -0.301
REMARK UNBOUND:                -0.232
REMARK SMILES CC1=CC[C@@]23[C@@H]([C@@H](C(C)C)CC[C@H]2C)[C@H]13
REMARK SMILES IDX 14 1 13 2 12 3 11 4 7 5 6 6 5 7 15 8 2 9 3 10 4 11 1 12 8 13
REMARK SMILES IDX 9 14 10 15
REMARK H PARENT
REMARK Flexibility Score: inf
ROOT
ATOM      1  C   UNL     1      47.912  29.489  28.464  1.00  0.00     0.008 C 
ATOM      2  C   UNL     1      48.271  30.975  28.283  1.00  0.00    -0.007 C 
ATOM      3  C   UNL     1      48.270  31.350  26.784  1.00  0.00     0.004 C 
ATOM      4  C   UNL     1      49.549  30.893  26.081  1.00  0.00     0.004 C 
ATOM      5  C   UNL     1      50.779  31.650  26.625  1.00  0.00    -0.004 C 
ATOM      6  C   UNL     1      50.878  31.577  28.171  1.00  0.00     0.007 C 
ATOM      7  C   UNL     1      49.613  31.298  28.999  1.00  0.00    -0.013 C 
ATOM      8  C   UNL     1      50.136  32.728  28.865  1.00  0.00     0.025 C 
ATOM      9  C   UNL     1      50.617  33.078  30.232  1.00  0.00    -0.073 C 
ATOM     10  C   UNL     1      50.436  32.097  31.107  1.00  0.00    -0.027 C 
ATOM     11  C   UNL     1      49.801  30.908  30.477  1.00  0.00     0.035 C 
ATOM     12  C   UNL     1      51.248  34.389  30.581  1.00  0.00     0.039 C 
ENDROOT
BRANCH   5  13
ATOM     13  C   UNL     1      52.118  31.186  25.974  1.00  0.00    -0.014 C 
ATOM     14  C   UNL     1      52.552  29.797  26.467  1.00  0.00     0.007 C 
ATOM     15  C   UNL     1      53.268  32.194  26.147  1.00  0.00     0.007 C 
ENDBRANCH   5  13
TORSDOF 1
ENDMDL
MODEL 7
REMARK VINA RESULT:    -3.622     18.635     20.913
REMARK INTER + INTRA:          -4.066
REMARK INTER:                  -3.748
REMARK INTRA:                  -0.319
REMARK UNBOUND:                -0.232
REMARK SMILES CC1=CC[C@@]23[C@@H]([C@@H](C(C)C)CC[C@H]2C)[C@H]13
REMARK SMILES IDX 14 1 13 2 12 3 11 4 7 5 6 6 5 7 15 8 2 9 3 10 4 11 1 12 8 13
REMARK SMILES IDX 9 14 10 15
REMARK H PARENT
REMARK Flexibility Score: inf
ROOT
ATOM      1  C   UNL     1      52.668  32.133  26.005  1.00  0.00     0.008 C 
ATOM      2  C   UNL     1      51.168  31.874  26.229  1.00  0.00    -0.007 C 
ATOM      3  C   UNL     1      50.433  33.199  26.537  1.00  0.00     0.004 C 
ATOM      4  C   UNL     1      50.635  33.639  27.987  1.00  0.00     0.004 C 
ATOM      5  C   UNL     1      49.976  32.645  28.964  1.00  0.00    -0.004 C 
ATOM      6  C   UNL     1      50.424  31.182  28.707  1.00  0.00     0.007 C 
ATOM      7  C   UNL     1      50.964  30.788  27.323  1.00  0.00    -0.013 C 
ATOM      8  C   UNL     1      49.521  30.455  27.701  1.00  0.00     0.025 C 
ATOM      9  C   UNL     1      49.497  28.969  27.808  1.00  0.00    -0.073 C 
ATOM     10  C   UNL     1      50.672  28.416  27.537  1.00  0.00    -0.027 C 
ATOM     11  C   UNL     1      51.699  29.439  27.202  1.00  0.00     0.035 C 
ATOM     12  C   UNL     1      48.283  28.183  28.190  1.00  0.00     0.039 C 
ENDROOT
BRANCH   5  13
ATOM     13  C   UNL     1      50.195  33.023  30.461  1.00  0.00    -0.014 C 
ATOM     14  C   UNL     1      51.087  34.263  30.621  1.00  0.00     0.007 C 
ATOM     15  C   UNL     1      50.737  31.864  31.316  1.00  0.00     0.007 C 
ENDBRANCH   5  13
TORSDOF 1
ENDMDL
MODEL 8
REMARK VINA RESULT:    -3.580     18.483     20.747
REMARK INTER + INTRA:          -4.022
REMARK INTER:                  -3.719
REMARK INTRA:                  -0.302
REMARK UNBOUND:                -0.232
REMARK SMILES CC1=CC[C@@]23[C@@H]([C@@H](C(C)C)CC[C@H]2C)[C@H]13
REMARK SMILES IDX 14 1 13 2 12 3 11 4 7 5 6 6 5 7 15 8 2 9 3 10 4 11 1 12 8 13
REMARK SMILES IDX 9 14 10 15
REMARK H PARENT
REMARK Flexibility Score: inf
ROOT
ATOM      1  C   UNL     1      49.143  33.856  25.679  1.00  0.00     0.008 C 
ATOM      2  C   UNL     1      49.040  32.457  26.312  1.00  0.00    -0.007 C 
ATOM      3  C   UNL     1      47.953  32.442  27.411  1.00  0.00     0.004 C 
ATOM      4  C   UNL     1      48.453  33.062  28.716  1.00  0.00     0.004 C 
ATOM      5  C   UNL     1      49.580  32.211  29.336  1.00  0.00    -0.004 C 
ATOM      6  C   UNL     1      50.722  31.922  28.326  1.00  0.00     0.007 C 
ATOM      7  C   UNL     1      50.434  31.989  26.818  1.00  0.00    -0.013 C 
ATOM      8  C   UNL     1      50.488  30.634  27.523  1.00  0.00     0.025 C 
ATOM      9  C   UNL     1      51.712  29.979  26.979  1.00  0.00    -0.073 C 
ATOM     10  C   UNL     1      52.337  30.727  26.079  1.00  0.00    -0.027 C 
ATOM     11  C   UNL     1      51.642  32.025  25.862  1.00  0.00     0.035 C 
ATOM     12  C   UNL     1      52.192  28.629  27.407  1.00  0.00     0.039 C 
ENDROOT
BRANCH   5  13
ATOM     13  C   UNL     1      50.160  32.825  30.646  1.00  0.00    -0.014 C 
ATOM     14  C   UNL     1      50.959  34.110  30.380  1.00  0.00     0.007 C 
ATOM     15  C   UNL     1      51.003  31.836  31.470  1.00  0.00     0.007 C 
ENDBRANCH   5  13
TORSDOF 1
ENDMDL
MODEL 9
REMARK VINA RESULT:    -3.572     18.380     20.449
REMARK INTER + INTRA:          -4.014
REMARK INTER:                  -3.734
REMARK INTRA:                  -0.280
REMARK UNBOUND:                -0.232
REMARK SMILES CC1=CC[C@@]23[C@@H]([C@@H](C(C)C)CC[C@H]2C)[C@H]13
REMARK SMILES IDX 14 1 13 2 12 3 11 4 7 5 6 6 5 7 15 8 2 9 3 10 4 11 1 12 8 13
REMARK SMILES IDX 9 14 10 15
REMARK H PARENT
REMARK Flexibility Score: inf
ROOT
ATOM      1  C   UNL     1      49.375  31.028  30.605  1.00  0.00     0.008 C 
ATOM      2  C   UNL     1      50.336  32.007  29.906  1.00  0.00    -0.007 C 
ATOM      3  C   UNL     1      49.894  33.467  30.158  1.00  0.00     0.004 C 
ATOM      4  C   UNL     1      48.728  33.873  29.256  1.00  0.00     0.004 C 
ATOM      5  C   UNL     1      49.156  33.893  27.774  1.00  0.00    -0.004 C 
ATOM      6  C   UNL     1      49.825  32.564  27.337  1.00  0.00     0.007 C 
ATOM      7  C   UNL     1      50.465  31.653  28.398  1.00  0.00    -0.013 C 
ATOM      8  C   UNL     1      51.346  32.570  27.550  1.00  0.00     0.025 C 
ATOM      9  C   UNL     1      52.125  31.641  26.683  1.00  0.00    -0.073 C 
ATOM     10  C   UNL     1      51.844  30.366  26.914  1.00  0.00    -0.027 C 
ATOM     11  C   UNL     1      50.817  30.213  27.981  1.00  0.00     0.035 C 
ATOM     12  C   UNL     1      53.111  32.096  25.654  1.00  0.00     0.039 C 
ENDROOT
BRANCH   5  13
ATOM     13  C   UNL     1      47.988  34.255  26.806  1.00  0.00    -0.014 C 
ATOM     14  C   UNL     1      48.049  33.452  25.498  1.00  0.00     0.007 C 
ATOM     15  C   UNL     1      47.885  35.760  26.501  1.00  0.00     0.007 C 
ENDBRANCH   5  13
TORSDOF 1
ENDMDL
