MODEL 1
REMARK VINA RESULT:    -2.085      0.000      0.000
REMARK INTER + INTRA:          -2.624
REMARK INTER:                  -2.938
REMARK INTRA:                   0.314
REMARK UNBOUND:                 0.314
REMARK SMILES CC1=CCCC(C)=CCC(C)(C)C=CC1
REMARK SMILES IDX 2 1 3 2 1 3 4 4 5 5 6 6 7 7 8 8 15 10 14 11 13 12 10 13
REMARK SMILES IDX 11 14 12 15 9 16
REMARK H PARENT
REMARK Flexibility Score: 60.00
ROOT
ATOM      1  C   UNL     1     -27.408  55.799  34.573  1.00  0.00    -0.074 C 
ATOM      2  C   UNL     1     -27.895  56.614  33.603  1.00  0.00    -0.027 C 
ATOM      3  C   UNL     1     -27.078  56.414  35.909  1.00  0.00     0.039 C 
ENDROOT
BRANCH   2   4
ATOM      4  C   UNL     1     -28.285  56.185  32.207  1.00  0.00     0.032 C 
BRANCH   4   5
ATOM      5  C   UNL     1     -27.288  56.713  31.161  1.00  0.00     0.034 C 
BRANCH   5   6
ATOM      6  C   UNL     1     -25.825  56.477  31.496  1.00  0.00    -0.077 C 
ATOM      7  C   UNL     1     -24.978  57.677  31.851  1.00  0.00     0.039 C 
ATOM      8  C   UNL     1     -25.186  55.281  31.391  1.00  0.00    -0.027 CG0
ATOM      9  G   UNL     1     -25.797  53.900  31.232  1.00  0.00     0.000 G0
ENDBRANCH   5   6
ENDBRANCH   4   5
ENDBRANCH   2   4
BRANCH   1  10
ATOM     10  C   UNL     1     -27.193  54.306  34.385  1.00  0.00     0.057 C 
BRANCH  10  11
ATOM     11  C   UNL     1     -25.727  53.973  34.495  1.00  0.00    -0.026 C 
ATOM     12  C   UNL     1     -24.964  53.267  33.626  1.00  0.00    -0.024 C 
BRANCH  12  13
ATOM     13  C   UNL     1     -25.309  52.777  32.218  1.00  0.00    -0.014 C 
ATOM     14  C   UNL     1     -24.079  52.059  31.617  1.00  0.00     0.016 C 
ATOM     15  C   UNL     1     -26.436  51.722  32.343  1.00  0.00     0.016 C 
BRANCH  13  16
ATOM     16  C   UNL     1     -25.786  53.893  31.237  1.00  0.00     0.038 CG0
ATOM     17  G   UNL     1     -25.165  55.271  31.391  1.00  0.00     0.000 G0
ENDBRANCH  13  16
ENDBRANCH  12  13
ENDBRANCH  10  11
ENDBRANCH   1  10
TORSDOF 0
ENDMDL
MODEL 2
REMARK VINA RESULT:    -2.036      9.950     11.820
REMARK INTER + INTRA:          -2.555
REMARK INTER:                  -3.078
REMARK INTRA:                   0.523
REMARK UNBOUND:                 0.314
REMARK SMILES CC1=CCCC(C)=CCC(C)(C)C=CC1
REMARK SMILES IDX 2 1 3 2 1 3 4 4 5 5 6 6 7 7 8 8 15 10 14 11 13 12 10 13
REMARK SMILES IDX 11 14 12 15 9 16
REMARK H PARENT
REMARK Flexibility Score: 60.00
ROOT
ATOM      1  C   UNL     1     -25.588  55.065  46.055  1.00  0.00    -0.074 C 
ATOM      2  C   UNL     1     -24.294  55.472  46.009  1.00  0.00    -0.027 C 
ATOM      3  C   UNL     1     -26.222  54.883  47.410  1.00  0.00     0.039 C 
ENDROOT
BRANCH   2   4
ATOM      4  C   UNL     1     -23.491  55.712  44.751  1.00  0.00     0.032 C 
BRANCH   4   5
ATOM      5  C   UNL     1     -22.370  54.670  44.597  1.00  0.00     0.034 C 
BRANCH   5   6
ATOM      6  C   UNL     1     -22.303  53.999  43.235  1.00  0.00    -0.077 C 
ATOM      7  C   UNL     1     -21.270  54.495  42.251  1.00  0.00     0.039 C 
ATOM      8  C   UNL     1     -23.178  53.059  42.788  1.00  0.00    -0.027 CG0
ATOM      9  G   UNL     1     -24.188  52.257  43.591  1.00  0.00     0.000 G0
ENDBRANCH   5   6
ENDBRANCH   4   5
ENDBRANCH   2   4
BRANCH   1  10
ATOM     10  C   UNL     1     -26.428  54.799  44.816  1.00  0.00     0.057 C 
BRANCH  10  11
ATOM     11  C   UNL     1     -27.029  53.418  44.880  1.00  0.00    -0.026 C 
ATOM     12  C   UNL     1     -26.767  52.356  44.081  1.00  0.00    -0.024 C 
BRANCH  12  13
ATOM     13  C   UNL     1     -25.671  52.191  43.026  1.00  0.00    -0.014 C 
ATOM     14  C   UNL     1     -25.884  50.852  42.282  1.00  0.00     0.016 C 
ATOM     15  C   UNL     1     -25.839  53.322  41.982  1.00  0.00     0.016 C 
BRANCH  13  16
ATOM     16  C   UNL     1     -24.215  52.247  43.583  1.00  0.00     0.038 CG0
ATOM     17  G   UNL     1     -23.197  53.057  42.798  1.00  0.00     0.000 G0
ENDBRANCH  13  16
ENDBRANCH  12  13
ENDBRANCH  10  11
ENDBRANCH   1  10
TORSDOF 0
ENDMDL
MODEL 3
REMARK VINA RESULT:    -1.982      2.716      5.195
REMARK INTER + INTRA:          -2.479
REMARK INTER:                  -2.847
REMARK INTRA:                   0.369
REMARK UNBOUND:                 0.314
REMARK SMILES CC1=CCCC(C)=CCC(C)(C)C=CC1
REMARK SMILES IDX 2 1 3 2 1 3 4 4 5 5 6 6 7 7 8 8 15 10 14 11 13 12 10 13
REMARK SMILES IDX 11 14 12 15 9 16
REMARK H PARENT
REMARK Flexibility Score: 60.00
ROOT
ATOM      1  C   UNL     1     -28.574  51.050  33.938  1.00  0.00    -0.074 C 
ATOM      2  C   UNL     1     -28.027  49.847  34.249  1.00  0.00    -0.027 C 
ATOM      3  C   UNL     1     -30.035  51.085  33.568  1.00  0.00     0.039 C 
ENDROOT
BRANCH   2   4
ATOM      4  C   UNL     1     -26.587  49.612  34.648  1.00  0.00     0.032 C 
BRANCH   4   5
ATOM      5  C   UNL     1     -25.806  48.908  33.526  1.00  0.00     0.034 C 
BRANCH   5   6
ATOM      6  C   UNL     1     -26.033  49.474  32.134  1.00  0.00    -0.077 C 
ATOM      7  C   UNL     1     -26.814  48.638  31.148  1.00  0.00     0.039 C 
ATOM      8  C   UNL     1     -25.489  50.630  31.668  1.00  0.00    -0.027 CG0
ATOM      9  G   UNL     1     -24.821  51.741  32.458  1.00  0.00     0.000 G0
ENDBRANCH   5   6
ENDBRANCH   4   5
ENDBRANCH   2   4
BRANCH   1  10
ATOM     10  C   UNL     1     -27.797  52.356  33.959  1.00  0.00     0.057 C 
BRANCH  10  11
ATOM     11  C   UNL     1     -27.794  52.983  32.588  1.00  0.00    -0.026 C 
ATOM     12  C   UNL     1     -26.729  53.414  31.869  1.00  0.00    -0.024 C 
BRANCH  12  13
ATOM     13  C   UNL     1     -25.236  53.220  32.147  1.00  0.00    -0.014 C 
ATOM     14  C   UNL     1     -24.427  53.729  30.933  1.00  0.00     0.016 C 
ATOM     15  C   UNL     1     -24.856  54.113  33.354  1.00  0.00     0.016 C 
BRANCH  13  16
ATOM     16  C   UNL     1     -24.818  51.752  32.469  1.00  0.00     0.038 CG0
ATOM     17  G   UNL     1     -25.492  50.644  31.678  1.00  0.00     0.000 G0
ENDBRANCH  13  16
ENDBRANCH  12  13
ENDBRANCH  10  11
ENDBRANCH   1  10
TORSDOF 0
ENDMDL
MODEL 4
REMARK VINA RESULT:    -1.960     11.004     13.207
REMARK INTER + INTRA:          -2.448
REMARK INTER:                  -2.842
REMARK INTRA:                   0.394
REMARK UNBOUND:                 0.314
REMARK SMILES CC1=CCCC(C)=CCC(C)(C)C=CC1
REMARK SMILES IDX 2 1 3 2 1 3 4 4 5 5 6 6 7 7 8 8 15 10 14 11 13 12 10 13
REMARK SMILES IDX 11 14 12 15 9 16
REMARK H PARENT
REMARK Flexibility Score: 60.00
ROOT
ATOM      1  C   UNL     1     -25.828  50.716  43.487  1.00  0.00    -0.074 C 
ATOM      2  C   UNL     1     -25.174  49.919  44.370  1.00  0.00    -0.027 C 
ATOM      3  C   UNL     1     -25.875  50.279  42.045  1.00  0.00     0.039 C 
ENDROOT
BRANCH   2   4
ATOM      4  C   UNL     1     -25.023  50.186  45.851  1.00  0.00     0.032 C 
BRANCH   4   5
ATOM      5  C   UNL     1     -23.597  50.650  46.192  1.00  0.00     0.034 C 
BRANCH   5   6
ATOM      6  C   UNL     1     -23.007  51.665  45.227  1.00  0.00    -0.077 C 
ATOM      7  C   UNL     1     -21.963  51.186  44.245  1.00  0.00     0.039 C 
ATOM      8  C   UNL     1     -23.261  53.001  45.252  1.00  0.00    -0.027 CG0
ATOM      9  G   UNL     1     -24.368  53.734  45.991  1.00  0.00     0.000 G0
ENDBRANCH   5   6
ENDBRANCH   4   5
ENDBRANCH   2   4
BRANCH   1  10
ATOM     10  C   UNL     1     -26.523  52.010  43.879  1.00  0.00     0.057 C 
BRANCH  10  11
ATOM     11  C   UNL     1     -25.897  53.177  43.156  1.00  0.00    -0.026 C 
ATOM     12  C   UNL     1     -25.445  54.339  43.683  1.00  0.00    -0.024 C 
BRANCH  12  13
ATOM     13  C   UNL     1     -25.261  54.724  45.154  1.00  0.00    -0.014 C 
ATOM     14  C   UNL     1     -24.667  56.150  45.232  1.00  0.00     0.016 C 
ATOM     15  C   UNL     1     -26.663  54.779  45.811  1.00  0.00     0.016 C 
BRANCH  13  16
ATOM     16  C   UNL     1     -24.368  53.747  45.978  1.00  0.00     0.038 CG0
ATOM     17  G   UNL     1     -23.257  53.022  45.237  1.00  0.00     0.000 G0
ENDBRANCH  13  16
ENDBRANCH  12  13
ENDBRANCH  10  11
ENDBRANCH   1  10
TORSDOF 0
ENDMDL
MODEL 5
REMARK VINA RESULT:    -1.958      3.183      5.871
REMARK INTER + INTRA:          -2.446
REMARK INTER:                  -3.461
REMARK INTRA:                   1.015
REMARK UNBOUND:                 0.314
REMARK SMILES CC1=CCCC(C)=CCC(C)(C)C=CC1
REMARK SMILES IDX 2 1 3 2 1 3 4 4 5 5 6 6 7 7 8 8 15 10 14 11 13 12 10 13
REMARK SMILES IDX 11 14 12 15 9 16
REMARK H PARENT
REMARK Flexibility Score: 60.00
ROOT
ATOM      1  C   UNL     1     -27.448  56.937  32.657  1.00  0.00    -0.074 C 
ATOM      2  C   UNL     1     -27.682  55.755  33.283  1.00  0.00    -0.027 C 
ATOM      3  C   UNL     1     -27.721  57.016  31.176  1.00  0.00     0.039 C 
ENDROOT
BRANCH   2   4
ATOM      4  C   UNL     1     -27.474  55.483  34.755  1.00  0.00     0.032 C 
BRANCH   4   5
ATOM      5  C   UNL     1     -26.017  55.087  35.049  1.00  0.00     0.034 C 
BRANCH   5   6
ATOM      6  C   UNL     1     -25.197  56.148  35.763  1.00  0.00    -0.077 C 
ATOM      7  C   UNL     1     -23.691  56.068  35.660  1.00  0.00     0.039 C 
ATOM      8  C   UNL     1     -25.708  57.101  36.587  1.00  0.00    -0.027 CG0
ATOM      9  G   UNL     1     -27.157  57.529  36.746  1.00  0.00     0.000 G0
ENDBRANCH   5   6
ENDBRANCH   4   5
ENDBRANCH   2   4
BRANCH   1  10
ATOM     10  C   UNL     1     -26.942  58.180  33.371  1.00  0.00     0.057 C 
BRANCH  10  11
ATOM     11  C   UNL     1     -28.101  58.972  33.922  1.00  0.00    -0.026 C 
ATOM     12  C   UNL     1     -28.376  59.258  35.217  1.00  0.00    -0.024 C 
BRANCH  12  13
ATOM     13  C   UNL     1     -27.509  59.034  36.459  1.00  0.00    -0.014 C 
ATOM     14  C   UNL     1     -26.198  59.840  36.312  1.00  0.00     0.016 C 
ATOM     15  C   UNL     1     -28.265  59.614  37.680  1.00  0.00     0.016 C 
BRANCH  13  16
ATOM     16  C   UNL     1     -27.168  57.541  36.755  1.00  0.00     0.038 CG0
ATOM     17  G   UNL     1     -25.723  57.106  36.577  1.00  0.00     0.000 G0
ENDBRANCH  13  16
ENDBRANCH  12  13
ENDBRANCH  10  11
ENDBRANCH   1  10
TORSDOF 0
ENDMDL
MODEL 6
REMARK VINA RESULT:    -1.932      9.444     11.558
REMARK INTER + INTRA:          -2.409
REMARK INTER:                  -2.831
REMARK INTRA:                   0.422
REMARK UNBOUND:                 0.314
REMARK SMILES CC1=CCCC(C)=CCC(C)(C)C=CC1
REMARK SMILES IDX 2 1 3 2 1 3 4 4 5 5 6 6 7 7 8 8 15 10 14 11 13 12 10 13
REMARK SMILES IDX 11 14 12 15 9 16
REMARK H PARENT
REMARK Flexibility Score: 60.00
ROOT
ATOM      1  C   UNL     1     -25.963  54.689  45.127  1.00  0.00    -0.074 C 
ATOM      2  C   UNL     1     -26.613  53.539  44.811  1.00  0.00    -0.027 C 
ATOM      3  C   UNL     1     -25.948  55.114  46.573  1.00  0.00     0.039 C 
ENDROOT
BRANCH   2   4
ATOM      4  C   UNL     1     -26.734  52.950  43.425  1.00  0.00     0.032 C 
BRANCH   4   5
ATOM      5  C   UNL     1     -26.211  51.504  43.385  1.00  0.00     0.034 C 
BRANCH   5   6
ATOM      6  C   UNL     1     -24.749  51.342  43.764  1.00  0.00    -0.077 C 
ATOM      7  C   UNL     1     -24.406  50.366  44.865  1.00  0.00     0.039 C 
ATOM      8  C   UNL     1     -23.729  52.092  43.266  1.00  0.00    -0.027 CG0
ATOM      9  G   UNL     1     -23.739  53.006  42.053  1.00  0.00     0.000 G0
ENDBRANCH   5   6
ENDBRANCH   4   5
ENDBRANCH   2   4
BRANCH   1  10
ATOM     10  C   UNL     1     -25.242  55.553  44.106  1.00  0.00     0.057 C 
BRANCH  10  11
ATOM     11  C   UNL     1     -23.753  55.501  44.337  1.00  0.00    -0.026 C 
ATOM     12  C   UNL     1     -22.806  54.931  43.554  1.00  0.00    -0.024 C 
BRANCH  12  13
ATOM     13  C   UNL     1     -22.941  54.355  42.142  1.00  0.00    -0.014 C 
ATOM     14  C   UNL     1     -23.595  55.414  41.226  1.00  0.00     0.016 C 
ATOM     15  C   UNL     1     -21.516  54.096  41.594  1.00  0.00     0.016 C 
BRANCH  13  16
ATOM     16  C   UNL     1     -23.751  53.025  42.055  1.00  0.00     0.038 CG0
ATOM     17  G   UNL     1     -23.710  52.100  43.260  1.00  0.00     0.000 G0
ENDBRANCH  13  16
ENDBRANCH  12  13
ENDBRANCH  10  11
ENDBRANCH   1  10
TORSDOF 0
ENDMDL
MODEL 7
REMARK VINA RESULT:    -1.926      9.376     11.274
REMARK INTER + INTRA:          -2.400
REMARK INTER:                  -2.704
REMARK INTRA:                   0.304
REMARK UNBOUND:                 0.314
REMARK SMILES CC1=CCCC(C)=CCC(C)(C)C=CC1
REMARK SMILES IDX 2 1 3 2 1 3 4 4 5 5 6 6 7 7 8 8 15 10 14 11 13 12 10 13
REMARK SMILES IDX 11 14 12 15 9 16
REMARK H PARENT
REMARK Flexibility Score: 60.00
ROOT
ATOM      1  C   UNL     1     -25.242  52.041  45.864  1.00  0.00    -0.074 C 
ATOM      2  C   UNL     1     -25.649  53.333  45.946  1.00  0.00    -0.027 C 
ATOM      3  C   UNL     1     -24.398  51.496  46.988  1.00  0.00     0.039 C 
ENDROOT
BRANCH   2   4
ATOM      4  C   UNL     1     -26.501  54.054  44.925  1.00  0.00     0.032 C 
BRANCH   4   5
ATOM      5  C   UNL     1     -25.684  55.112  44.165  1.00  0.00     0.034 C 
BRANCH   5   6
ATOM      6  C   UNL     1     -24.358  54.621  43.610  1.00  0.00    -0.077 C 
ATOM      7  C   UNL     1     -23.089  55.139  44.245  1.00  0.00     0.039 C 
ATOM      8  C   UNL     1     -24.219  53.836  42.509  1.00  0.00    -0.027 CG0
ATOM      9  G   UNL     1     -25.288  53.037  41.783  1.00  0.00     0.000 G0
ENDBRANCH   5   6
ENDBRANCH   4   5
ENDBRANCH   2   4
BRANCH   1  10
ATOM     10  C   UNL     1     -25.605  51.118  44.712  1.00  0.00     0.057 C 
BRANCH  10  11
ATOM     11  C   UNL     1     -24.367  50.736  43.941  1.00  0.00    -0.026 C 
ATOM     12  C   UNL     1     -24.154  50.828  42.606  1.00  0.00    -0.024 C 
BRANCH  12  13
ATOM     13  C   UNL     1     -25.013  51.510  41.537  1.00  0.00    -0.014 C 
ATOM     14  C   UNL     1     -24.338  51.331  40.158  1.00  0.00     0.016 C 
ATOM     15  C   UNL     1     -26.374  50.772  41.477  1.00  0.00     0.016 C 
BRANCH  13  16
ATOM     16  C   UNL     1     -25.284  53.025  41.787  1.00  0.00     0.038 CG0
ATOM     17  G   UNL     1     -24.210  53.818  42.512  1.00  0.00     0.000 G0
ENDBRANCH  13  16
ENDBRANCH  12  13
ENDBRANCH  10  11
ENDBRANCH   1  10
TORSDOF 0
ENDMDL
MODEL 8
REMARK VINA RESULT:    -1.908     10.671     12.963
REMARK INTER + INTRA:          -2.375
REMARK INTER:                  -2.694
REMARK INTRA:                   0.319
REMARK UNBOUND:                 0.314
REMARK SMILES CC1=CCCC(C)=CCC(C)(C)C=CC1
REMARK SMILES IDX 2 1 3 2 1 3 4 4 5 5 6 6 7 7 8 8 15 10 14 11 13 12 10 13
REMARK SMILES IDX 11 14 12 15 9 16
REMARK H PARENT
REMARK Flexibility Score: 60.00
ROOT
ATOM      1  C   UNL     1     -25.169  55.611  45.754  1.00  0.00    -0.074 C 
ATOM      2  C   UNL     1     -23.867  55.403  46.079  1.00  0.00    -0.027 C 
ATOM      3  C   UNL     1     -26.007  56.436  46.699  1.00  0.00     0.039 C 
ENDROOT
BRANCH   2   4
ATOM      4  C   UNL     1     -22.873  54.610  45.262  1.00  0.00     0.032 C 
BRANCH   4   5
ATOM      5  C   UNL     1     -22.450  53.324  45.991  1.00  0.00     0.034 C 
BRANCH   5   6
ATOM      6  C   UNL     1     -23.593  52.399  46.374  1.00  0.00    -0.077 C 
ATOM      7  C   UNL     1     -23.884  52.204  47.844  1.00  0.00     0.039 C 
ATOM      8  C   UNL     1     -24.307  51.642  45.499  1.00  0.00    -0.027 CG0
ATOM      9  G   UNL     1     -24.360  51.752  43.985  1.00  0.00     0.000 G0
ENDBRANCH   5   6
ENDBRANCH   4   5
ENDBRANCH   2   4
BRANCH   1  10
ATOM     10  C   UNL     1     -25.815  55.073  44.488  1.00  0.00     0.057 C 
BRANCH  10  11
ATOM     11  C   UNL     1     -26.749  53.938  44.822  1.00  0.00    -0.026 C 
ATOM     12  C   UNL     1     -26.777  52.694  44.286  1.00  0.00    -0.024 C 
BRANCH  12  13
ATOM     13  C   UNL     1     -25.770  52.027  43.345  1.00  0.00    -0.014 C 
ATOM     14  C   UNL     1     -26.372  50.706  42.816  1.00  0.00     0.016 C 
ATOM     15  C   UNL     1     -25.571  52.958  42.123  1.00  0.00     0.016 C 
BRANCH  13  16
ATOM     16  C   UNL     1     -24.374  51.741  43.980  1.00  0.00     0.038 CG0
ATOM     17  G   UNL     1     -24.304  51.628  45.493  1.00  0.00     0.000 G0
ENDBRANCH  13  16
ENDBRANCH  12  13
ENDBRANCH  10  11
ENDBRANCH   1  10
TORSDOF 0
ENDMDL
MODEL 9
REMARK VINA RESULT:    -1.829      8.970     11.385
REMARK INTER + INTRA:          -2.263
REMARK INTER:                  -2.561
REMARK INTRA:                   0.297
REMARK UNBOUND:                 0.314
REMARK SMILES CC1=CCCC(C)=CCC(C)(C)C=CC1
REMARK SMILES IDX 2 1 3 2 1 3 4 4 5 5 6 6 7 7 8 8 15 10 14 11 13 12 10 13
REMARK SMILES IDX 11 14 12 15 9 16
REMARK H PARENT
REMARK Flexibility Score: 60.00
ROOT
ATOM      1  C   UNL     1     -25.105  51.455  41.911  1.00  0.00    -0.074 C 
ATOM      2  C   UNL     1     -23.905  51.784  41.367  1.00  0.00    -0.027 C 
ATOM      3  C   UNL     1     -26.145  50.846  41.006  1.00  0.00     0.039 C 
ENDROOT
BRANCH   2   4
ATOM      4  C   UNL     1     -22.741  52.398  42.110  1.00  0.00     0.032 C 
BRANCH   4   5
ATOM      5  C   UNL     1     -22.474  53.837  41.638  1.00  0.00     0.034 C 
BRANCH   5   6
ATOM      6  C   UNL     1     -23.674  54.767  41.708  1.00  0.00    -0.077 C 
ATOM      7  C   UNL     1     -24.268  55.256  40.407  1.00  0.00     0.039 C 
ATOM      8  C   UNL     1     -24.188  55.287  42.854  1.00  0.00    -0.027 CG0
ATOM      9  G   UNL     1     -23.921  54.855  44.285  1.00  0.00     0.000 G0
ENDBRANCH   5   6
ENDBRANCH   4   5
ENDBRANCH   2   4
BRANCH   1  10
ATOM     10  C   UNL     1     -25.443  51.655  43.379  1.00  0.00     0.057 C 
BRANCH  10  11
ATOM     11  C   UNL     1     -26.429  52.784  43.538  1.00  0.00    -0.026 C 
ATOM     12  C   UNL     1     -26.328  53.874  44.336  1.00  0.00    -0.024 C 
BRANCH  12  13
ATOM     13  C   UNL     1     -25.126  54.367  45.147  1.00  0.00    -0.014 C 
ATOM     14  C   UNL     1     -25.585  55.505  46.087  1.00  0.00     0.016 C 
ATOM     15  C   UNL     1     -24.646  53.200  46.046  1.00  0.00     0.016 C 
BRANCH  13  16
ATOM     16  C   UNL     1     -23.919  54.859  44.291  1.00  0.00     0.038 CG0
ATOM     17  G   UNL     1     -24.202  55.279  42.859  1.00  0.00     0.000 G0
ENDBRANCH  13  16
ENDBRANCH  12  13
ENDBRANCH  10  11
ENDBRANCH   1  10
TORSDOF 0
ENDMDL
