MODEL 1
REMARK VINA RESULT:    13.846      0.000      0.000
REMARK INTER + INTRA:          23.104
REMARK INTER:                  23.560
REMARK INTRA:                  -0.456
REMARK UNBOUND:                -0.456
REMARK SMILES CCCCCCCCCCCCCC(=O)[O-]
REMARK SMILES IDX 8 1 9 2 10 3 11 4 12 5 13 6 14 7 15 8 16 9 7 10 6 11 5 12
REMARK SMILES IDX 4 13 3 14 2 15 1 16
REMARK H PARENT
REMARK Flexibility Score: inf
ROOT
ATOM      1  C   UNL     1      -5.489  10.662 -24.135  1.00  0.00     0.000 C 
ENDROOT
BRANCH   1   2
ATOM      2  C   UNL     1      -6.467  11.682 -24.745  1.00  0.00     0.000 C 
BRANCH   2   3
ATOM      3  C   UNL     1      -6.021  13.139 -24.531  1.00  0.00     0.000 C 
BRANCH   3   4
ATOM      4  C   UNL     1      -5.732  13.934 -25.820  1.00  0.00     0.000 C 
BRANCH   4   5
ATOM      5  C   UNL     1      -4.747  15.106 -25.660  1.00  0.00     0.006 C 
BRANCH   5   6
ATOM      6  C   UNL     1      -5.237  16.393 -26.334  1.00  0.00     0.053 C 
BRANCH   6   7
ATOM      7  C   UNL     1      -5.191  17.537 -25.370  1.00  0.00     0.041 C 
ATOM      8  O   UNL     1      -4.681  17.384 -24.229  1.00  0.00    -0.550 OA
ATOM      9  O   UNL     1      -5.756  18.758 -25.714  1.00  0.00    -0.550 OA
ENDBRANCH   6   7
ENDBRANCH   5   6
ENDBRANCH   4   5
ENDBRANCH   3   4
ENDBRANCH   2   3
ENDBRANCH   1   2
BRANCH   1  10
ATOM     10  C   UNL     1      -4.996   9.630 -25.163  1.00  0.00     0.000 C 
BRANCH  10  11
ATOM     11  C   UNL     1      -3.875   8.735 -24.614  1.00  0.00    -0.000 C 
BRANCH  11  12
ATOM     12  C   UNL     1      -2.635   9.564 -24.256  1.00  0.00    -0.000 C 
BRANCH  12  13
ATOM     13  C   UNL     1      -1.345   8.807 -24.603  1.00  0.00    -0.000 C 
BRANCH  13  14
ATOM     14  C   UNL     1      -0.456   9.565 -25.605  1.00  0.00    -0.000 C 
BRANCH  14  15
ATOM     15  C   UNL     1       0.497   8.677 -26.425  1.00  0.00    -0.003 C 
ATOM     16  C   UNL     1       0.842   7.364 -25.724  1.00  0.00     0.004 C 
ENDBRANCH  14  15
ENDBRANCH  13  14
ENDBRANCH  12  13
ENDBRANCH  11  12
ENDBRANCH  10  11
ENDBRANCH   1  10
TORSDOF 12
ENDMDL
MODEL 2
REMARK VINA RESULT:    14.031      0.907      1.065
REMARK INTER + INTRA:          23.418
REMARK INTER:                  23.826
REMARK INTRA:                  -0.408
REMARK UNBOUND:                -0.456
REMARK SMILES CCCCCCCCCCCCCC(=O)[O-]
REMARK SMILES IDX 8 1 9 2 10 3 11 4 12 5 13 6 14 7 15 8 16 9 7 10 6 11 5 12
REMARK SMILES IDX 4 13 3 14 2 15 1 16
REMARK H PARENT
REMARK Flexibility Score: inf
ROOT
ATOM      1  C   UNL     1      -6.108  11.351 -24.165  1.00  0.00     0.000 C 
ENDROOT
BRANCH   1   2
ATOM      2  C   UNL     1      -6.486  12.519 -25.094  1.00  0.00     0.000 C 
BRANCH   2   3
ATOM      3  C   UNL     1      -5.675  13.796 -24.808  1.00  0.00     0.000 C 
BRANCH   3   4
ATOM      4  C   UNL     1      -5.359  14.664 -26.043  1.00  0.00     0.000 C 
BRANCH   4   5
ATOM      5  C   UNL     1      -4.484  15.900 -25.767  1.00  0.00     0.006 C 
BRANCH   5   6
ATOM      6  C   UNL     1      -5.250  17.218 -25.923  1.00  0.00     0.053 C 
BRANCH   6   7
ATOM      7  C   UNL     1      -5.260  17.972 -24.631  1.00  0.00     0.041 C 
ATOM      8  O   UNL     1      -4.638  17.525 -23.632  1.00  0.00    -0.550 OA
ATOM      9  O   UNL     1      -5.999  19.143 -24.514  1.00  0.00    -0.550 OA
ENDBRANCH   6   7
ENDBRANCH   5   6
ENDBRANCH   4   5
ENDBRANCH   3   4
ENDBRANCH   2   3
ENDBRANCH   1   2
BRANCH   1  10
ATOM     10  C   UNL     1      -5.653  10.104 -24.941  1.00  0.00     0.000 C 
BRANCH  10  11
ATOM     11  C   UNL     1      -4.629   9.263 -24.165  1.00  0.00    -0.000 C 
BRANCH  11  12
ATOM     12  C   UNL     1      -3.418   8.925 -25.043  1.00  0.00    -0.000 C 
BRANCH  12  13
ATOM     13  C   UNL     1      -2.118   8.958 -24.226  1.00  0.00    -0.000 C 
BRANCH  13  14
ATOM     14  C   UNL     1      -0.956   9.637 -24.975  1.00  0.00    -0.000 C 
BRANCH  14  15
ATOM     15  C   UNL     1      -0.024   8.675 -25.732  1.00  0.00    -0.003 C 
ATOM     16  C   UNL     1       0.798   9.370 -26.816  1.00  0.00     0.004 C 
ENDBRANCH  14  15
ENDBRANCH  13  14
ENDBRANCH  12  13
ENDBRANCH  11  12
ENDBRANCH  10  11
ENDBRANCH   1  10
TORSDOF 12
ENDMDL
MODEL 3
REMARK VINA RESULT:    14.326      1.138      2.262
REMARK INTER + INTRA:          23.920
REMARK INTER:                  24.476
REMARK INTRA:                  -0.556
REMARK UNBOUND:                -0.456
REMARK SMILES CCCCCCCCCCCCCC(=O)[O-]
REMARK SMILES IDX 8 1 9 2 10 3 11 4 12 5 13 6 14 7 15 8 16 9 7 10 6 11 5 12
REMARK SMILES IDX 4 13 3 14 2 15 1 16
REMARK H PARENT
REMARK Flexibility Score: inf
ROOT
ATOM      1  C   UNL     1      -6.616  12.640 -24.068  1.00  0.00     0.000 C 
ENDROOT
BRANCH   1   2
ATOM      2  C   UNL     1      -6.298  13.123 -25.495  1.00  0.00     0.000 C 
BRANCH   2   3
ATOM      3  C   UNL     1      -5.142  14.138 -25.538  1.00  0.00     0.000 C 
BRANCH   3   4
ATOM      4  C   UNL     1      -5.375  15.361 -26.450  1.00  0.00     0.000 C 
BRANCH   4   5
ATOM      5  C   UNL     1      -4.664  16.651 -26.007  1.00  0.00     0.006 C 
BRANCH   5   6
ATOM      6  C   UNL     1      -5.627  17.829 -25.822  1.00  0.00     0.053 C 
BRANCH   6   7
ATOM      7  C   UNL     1      -5.607  18.302 -24.403  1.00  0.00     0.041 C 
ATOM      8  O   UNL     1      -6.248  19.334 -24.070  1.00  0.00    -0.550 OA
ATOM      9  O   UNL     1      -4.840  17.633 -23.457  1.00  0.00    -0.550 OA
ENDBRANCH   6   7
ENDBRANCH   5   6
ENDBRANCH   4   5
ENDBRANCH   3   4
ENDBRANCH   2   3
ENDBRANCH   1   2
BRANCH   1  10
ATOM     10  C   UNL     1      -5.929  11.307 -23.730  1.00  0.00     0.000 C 
BRANCH  10  11
ATOM     11  C   UNL     1      -5.857  10.355 -24.933  1.00  0.00    -0.000 C 
BRANCH  11  12
ATOM     12  C   UNL     1      -5.148   9.048 -24.557  1.00  0.00    -0.000 C 
BRANCH  12  13
ATOM     13  C   UNL     1      -3.716   9.018 -25.111  1.00  0.00    -0.000 C 
BRANCH  13  14
ATOM     14  C   UNL     1      -2.672   8.618 -24.052  1.00  0.00    -0.000 C 
BRANCH  14  15
ATOM     15  C   UNL     1      -1.364   9.429 -24.095  1.00  0.00    -0.003 C 
ATOM     16  C   UNL     1      -0.607   9.272 -25.413  1.00  0.00     0.004 C 
ENDBRANCH  14  15
ENDBRANCH  13  14
ENDBRANCH  12  13
ENDBRANCH  11  12
ENDBRANCH  10  11
ENDBRANCH   1  10
TORSDOF 12
ENDMDL
MODEL 4
REMARK VINA RESULT:    14.454      3.909      7.882
REMARK INTER + INTRA:          24.138
REMARK INTER:                  24.646
REMARK INTRA:                  -0.508
REMARK UNBOUND:                -0.456
REMARK SMILES CCCCCCCCCCCCCC(=O)[O-]
REMARK SMILES IDX 8 1 9 2 10 3 11 4 12 5 13 6 14 7 15 8 16 9 7 10 6 11 5 12
REMARK SMILES IDX 4 13 3 14 2 15 1 16
REMARK H PARENT
REMARK Flexibility Score: inf
ROOT
ATOM      1  C   UNL     1      -5.322  10.998 -23.871  1.00  0.00     0.000 C 
ENDROOT
BRANCH   1   2
ATOM      2  C   UNL     1      -5.545   9.727 -24.710  1.00  0.00     0.000 C 
BRANCH   2   3
ATOM      3  C   UNL     1      -4.255   8.914 -24.918  1.00  0.00     0.000 C 
BRANCH   3   4
ATOM      4  C   UNL     1      -3.014   9.450 -24.176  1.00  0.00     0.000 C 
BRANCH   4   5
ATOM      5  C   UNL     1      -1.687   8.759 -24.537  1.00  0.00     0.006 C 
BRANCH   5   6
ATOM      6  C   UNL     1      -0.723   9.679 -25.294  1.00  0.00     0.053 C 
BRANCH   6   7
ATOM      7  C   UNL     1       0.273   8.871 -26.065  1.00  0.00     0.041 C 
ATOM      8  O   UNL     1       0.505   7.676 -25.742  1.00  0.00    -0.550 OA
ATOM      9  O   UNL     1       0.982   9.452 -27.108  1.00  0.00    -0.550 OA
ENDBRANCH   6   7
ENDBRANCH   5   6
ENDBRANCH   4   5
ENDBRANCH   3   4
ENDBRANCH   2   3
ENDBRANCH   1   2
BRANCH   1  10
ATOM     10  C   UNL     1      -6.421  12.050 -24.090  1.00  0.00     0.000 C 
BRANCH  10  11
ATOM     11  C   UNL     1      -6.204  12.879 -25.364  1.00  0.00    -0.000 C 
BRANCH  11  12
ATOM     12  C   UNL     1      -5.502  14.205 -25.044  1.00  0.00    -0.000 C 
BRANCH  12  13
ATOM     13  C   UNL     1      -4.955  14.862 -26.320  1.00  0.00    -0.000 C 
BRANCH  13  14
ATOM     14  C   UNL     1      -5.345  16.346 -26.445  1.00  0.00    -0.000 C 
BRANCH  14  15
ATOM     15  C   UNL     1      -4.913  17.230 -25.262  1.00  0.00    -0.003 C 
ATOM     16  C   UNL     1      -5.692  18.542 -25.181  1.00  0.00     0.004 C 
ENDBRANCH  14  15
ENDBRANCH  13  14
ENDBRANCH  12  13
ENDBRANCH  11  12
ENDBRANCH  10  11
ENDBRANCH   1  10
TORSDOF 12
ENDMDL
MODEL 5
REMARK VINA RESULT:    15.086      4.159      7.306
REMARK INTER + INTRA:          25.212
REMARK INTER:                  25.699
REMARK INTRA:                  -0.487
REMARK UNBOUND:                -0.456
REMARK SMILES CCCCCCCCCCCCCC(=O)[O-]
REMARK SMILES IDX 8 1 9 2 10 3 11 4 12 5 13 6 14 7 15 8 16 9 7 10 6 11 5 12
REMARK SMILES IDX 4 13 3 14 2 15 1 16
REMARK H PARENT
REMARK Flexibility Score: inf
ROOT
ATOM      1  C   UNL     1      -6.127  12.341 -23.798  1.00  0.00     0.000 C 
ENDROOT
BRANCH   1   2
ATOM      2  C   UNL     1      -6.325  13.178 -25.074  1.00  0.00     0.000 C 
BRANCH   2   3
ATOM      3  C   UNL     1      -5.104  14.053 -25.411  1.00  0.00     0.000 C 
BRANCH   3   4
ATOM      4  C   UNL     1      -5.384  15.234 -26.362  1.00  0.00     0.000 C 
BRANCH   4   5
ATOM      5  C   UNL     1      -4.631  16.534 -26.029  1.00  0.00     0.006 C 
BRANCH   5   6
ATOM      6  C   UNL     1      -5.566  17.734 -25.843  1.00  0.00     0.053 C 
BRANCH   6   7
ATOM      7  C   UNL     1      -5.524  18.215 -24.427  1.00  0.00     0.041 C 
ATOM      8  O   UNL     1      -6.184  19.231 -24.083  1.00  0.00    -0.550 OA
ATOM      9  O   UNL     1      -4.716  17.572 -23.498  1.00  0.00    -0.550 OA
ENDBRANCH   6   7
ENDBRANCH   5   6
ENDBRANCH   4   5
ENDBRANCH   3   4
ENDBRANCH   2   3
ENDBRANCH   1   2
BRANCH   1  10
ATOM     10  C   UNL     1      -7.406  12.249 -22.949  1.00  0.00     0.000 C 
BRANCH  10  11
ATOM     11  C   UNL     1      -7.577  13.445 -22.001  1.00  0.00    -0.000 C 
BRANCH  11  12
ATOM     12  C   UNL     1      -8.762  13.228 -21.051  1.00  0.00    -0.000 C 
BRANCH  12  13
ATOM     13  C   UNL     1      -8.790  14.299 -19.951  1.00  0.00    -0.000 C 
BRANCH  13  14
ATOM     14  C   UNL     1      -8.876  13.702 -18.535  1.00  0.00    -0.000 C 
BRANCH  14  15
ATOM     15  C   UNL     1      -9.160  14.722 -17.418  1.00  0.00    -0.003 C 
ATOM     16  C   UNL     1      -9.714  16.045 -17.945  1.00  0.00     0.004 C 
ENDBRANCH  14  15
ENDBRANCH  13  14
ENDBRANCH  12  13
ENDBRANCH  11  12
ENDBRANCH  10  11
ENDBRANCH   1  10
TORSDOF 12
ENDMDL
MODEL 6
REMARK VINA RESULT:    15.194      1.844      2.744
REMARK INTER + INTRA:          25.397
REMARK INTER:                  26.020
REMARK INTRA:                  -0.623
REMARK UNBOUND:                -0.456
REMARK SMILES CCCCCCCCCCCCCC(=O)[O-]
REMARK SMILES IDX 8 1 9 2 10 3 11 4 12 5 13 6 14 7 15 8 16 9 7 10 6 11 5 12
REMARK SMILES IDX 4 13 3 14 2 15 1 16
REMARK H PARENT
REMARK Flexibility Score: inf
ROOT
ATOM      1  C   UNL     1      -6.540  12.450 -24.050  1.00  0.00     0.000 C 
ENDROOT
BRANCH   1   2
ATOM      2  C   UNL     1      -6.146  12.956 -25.449  1.00  0.00     0.000 C 
BRANCH   2   3
ATOM      3  C   UNL     1      -5.230  14.193 -25.401  1.00  0.00     0.000 C 
BRANCH   3   4
ATOM      4  C   UNL     1      -5.259  15.082 -26.661  1.00  0.00     0.000 C 
BRANCH   4   5
ATOM      5  C   UNL     1      -5.274  16.597 -26.392  1.00  0.00     0.006 C 
BRANCH   5   6
ATOM      6  C   UNL     1      -4.524  16.982 -25.112  1.00  0.00     0.053 C 
BRANCH   6   7
ATOM      7  C   UNL     1      -5.315  17.976 -24.322  1.00  0.00     0.041 C 
ATOM      8  O   UNL     1      -5.789  18.999 -24.883  1.00  0.00    -0.550 OA
ATOM      9  O   UNL     1      -5.488  17.799 -22.955  1.00  0.00    -0.550 OA
ENDBRANCH   6   7
ENDBRANCH   5   6
ENDBRANCH   4   5
ENDBRANCH   3   4
ENDBRANCH   2   3
ENDBRANCH   1   2
BRANCH   1  10
ATOM     10  C   UNL     1      -5.852  11.123 -23.688  1.00  0.00     0.000 C 
BRANCH  10  11
ATOM     11  C   UNL     1      -5.555  10.254 -24.919  1.00  0.00    -0.000 C 
BRANCH  11  12
ATOM     12  C   UNL     1      -4.812   8.973 -24.520  1.00  0.00    -0.000 C 
BRANCH  12  13
ATOM     13  C   UNL     1      -3.298   9.127 -24.722  1.00  0.00    -0.000 C 
BRANCH  13  14
ATOM     14  C   UNL     1      -2.471   8.366 -23.670  1.00  0.00    -0.000 C 
BRANCH  14  15
ATOM     15  C   UNL     1      -3.226   7.235 -22.949  1.00  0.00    -0.003 C 
ATOM     16  C   UNL     1      -2.975   7.214 -21.442  1.00  0.00     0.004 C 
ENDBRANCH  14  15
ENDBRANCH  13  14
ENDBRANCH  12  13
ENDBRANCH  11  12
ENDBRANCH  10  11
ENDBRANCH   1  10
TORSDOF 12
ENDMDL
MODEL 7
REMARK VINA RESULT:    15.247      3.347      7.780
REMARK INTER + INTRA:          25.487
REMARK INTER:                  26.111
REMARK INTRA:                  -0.624
REMARK UNBOUND:                -0.456
REMARK SMILES CCCCCCCCCCCCCC(=O)[O-]
REMARK SMILES IDX 8 1 9 2 10 3 11 4 12 5 13 6 14 7 15 8 16 9 7 10 6 11 5 12
REMARK SMILES IDX 4 13 3 14 2 15 1 16
REMARK H PARENT
REMARK Flexibility Score: inf
ROOT
ATOM      1  C   UNL     1      -6.550  12.887 -24.094  1.00  0.00     0.000 C 
ENDROOT
BRANCH   1   2
ATOM      2  C   UNL     1      -6.160  11.453 -23.694  1.00  0.00     0.000 C 
BRANCH   2   3
ATOM      3  C   UNL     1      -5.841  10.561 -24.908  1.00  0.00     0.000 C 
BRANCH   3   4
ATOM      4  C   UNL     1      -5.164   9.216 -24.574  1.00  0.00     0.000 C 
BRANCH   4   5
ATOM      5  C   UNL     1      -3.781   9.003 -25.214  1.00  0.00     0.006 C 
BRANCH   5   6
ATOM      6  C   UNL     1      -2.693   8.671 -24.187  1.00  0.00     0.053 C 
BRANCH   6   7
ATOM      7  C   UNL     1      -1.445   9.443 -24.480  1.00  0.00     0.041 C 
ATOM      8  O   UNL     1      -0.631   9.025 -25.344  1.00  0.00    -0.550 OA
ATOM      9  O   UNL     1      -1.157  10.597 -23.763  1.00  0.00    -0.550 OA
ENDBRANCH   6   7
ENDBRANCH   5   6
ENDBRANCH   4   5
ENDBRANCH   3   4
ENDBRANCH   2   3
ENDBRANCH   1   2
BRANCH   1  10
ATOM     10  C   UNL     1      -6.142  13.229 -25.537  1.00  0.00     0.000 C 
BRANCH  10  11
ATOM     11  C   UNL     1      -5.000  14.254 -25.602  1.00  0.00    -0.000 C 
BRANCH  11  12
ATOM     12  C   UNL     1      -5.397  15.466 -26.454  1.00  0.00    -0.000 C 
BRANCH  12  13
ATOM     13  C   UNL     1      -4.736  16.749 -25.930  1.00  0.00    -0.000 C 
BRANCH  13  14
ATOM     14  C   UNL     1      -5.702  17.947 -25.886  1.00  0.00    -0.000 C 
BRANCH  14  15
ATOM     15  C   UNL     1      -5.890  18.576 -24.494  1.00  0.00    -0.003 C 
ATOM     16  C   UNL     1      -5.270  17.743 -23.373  1.00  0.00     0.004 C 
ENDBRANCH  14  15
ENDBRANCH  13  14
ENDBRANCH  12  13
ENDBRANCH  11  12
ENDBRANCH  10  11
ENDBRANCH   1  10
TORSDOF 12
ENDMDL
