MODEL 1
REMARK VINA RESULT:    -4.499      0.000      0.000
REMARK INTER + INTRA:          -7.120
REMARK INTER:                  -6.604
REMARK INTRA:                  -0.516
REMARK UNBOUND:                -0.516
REMARK SMILES O=C([O-])CCCCCCCC(=O)[O-]
REMARK SMILES IDX 7 1 6 2 5 3 4 4 2 5 1 6 3 7 8 8 9 9 10 10 11 11 12 12 13 13
REMARK H PARENT
REMARK Flexibility Score: inf
ROOT
ATOM      1  C   UNL     1     -47.397 -49.107  18.331  1.00  0.00     0.000 C 
ENDROOT
BRANCH   1   2
ATOM      2  C   UNL     1     -47.363 -49.307  16.808  1.00  0.00     0.000 C 
BRANCH   2   3
ATOM      3  C   UNL     1     -47.786 -50.727  16.389  1.00  0.00     0.006 C 
BRANCH   3   4
ATOM      4  C   UNL     1     -48.518 -50.739  15.042  1.00  0.00     0.053 C 
BRANCH   4   5
ATOM      5  C   UNL     1     -49.975 -51.049  15.204  1.00  0.00     0.041 C 
ATOM      6  O   UNL     1     -50.672 -51.362  14.204  1.00  0.00    -0.550 OA
ATOM      7  O   UNL     1     -50.554 -51.027  16.467  1.00  0.00    -0.550 OA
ENDBRANCH   4   5
ENDBRANCH   3   4
ENDBRANCH   2   3
ENDBRANCH   1   2
BRANCH   1   8
ATOM      8  C   UNL     1     -48.816 -48.833  18.859  1.00  0.00     0.000 C 
BRANCH   8   9
ATOM      9  C   UNL     1     -49.384 -50.013  19.663  1.00  0.00     0.006 C 
BRANCH   9  10
ATOM     10  C   UNL     1     -50.717 -49.674  20.345  1.00  0.00     0.053 C 
BRANCH  10  11
ATOM     11  C   UNL     1     -51.829 -50.471  19.740  1.00  0.00     0.041 C 
ATOM     12  O   UNL     1     -51.970 -51.688  20.034  1.00  0.00    -0.550 OA
ATOM     13  O   UNL     1     -52.682 -49.884  18.815  1.00  0.00    -0.550 OA
ENDBRANCH  10  11
ENDBRANCH   9  10
ENDBRANCH   8   9
ENDBRANCH   1   8
TORSDOF 8
ENDMDL
MODEL 2
REMARK VINA RESULT:    -4.447      1.031      4.451
REMARK INTER + INTRA:          -7.042
REMARK INTER:                  -6.402
REMARK INTRA:                  -0.640
REMARK UNBOUND:                -0.516
REMARK SMILES O=C([O-])CCCCCCCC(=O)[O-]
REMARK SMILES IDX 7 1 6 2 5 3 4 4 2 5 1 6 3 7 8 8 9 9 10 10 11 11 12 12 13 13
REMARK H PARENT
REMARK Flexibility Score: inf
ROOT
ATOM      1  C   UNL     1     -48.102 -47.990  18.123  1.00  0.00     0.000 C 
ENDROOT
BRANCH   1   2
ATOM      2  C   UNL     1     -49.268 -48.128  19.114  1.00  0.00     0.000 C 
BRANCH   2   3
ATOM      3  C   UNL     1     -49.608 -49.596  19.426  1.00  0.00     0.006 C 
BRANCH   3   4
ATOM      4  C   UNL     1     -50.950 -50.021  18.817  1.00  0.00     0.053 C 
BRANCH   4   5
ATOM      5  C   UNL     1     -51.916 -50.480  19.866  1.00  0.00     0.041 C 
ATOM      6  O   UNL     1     -52.713 -49.661  20.395  1.00  0.00    -0.550 OA
ATOM      7  O   UNL     1     -51.960 -51.819  20.234  1.00  0.00    -0.550 OA
ENDBRANCH   4   5
ENDBRANCH   3   4
ENDBRANCH   2   3
ENDBRANCH   1   2
BRANCH   1   8
ATOM      8  C   UNL     1     -47.375 -49.324  17.879  1.00  0.00     0.000 C 
BRANCH   8   9
ATOM      9  C   UNL     1     -47.388 -49.741  16.400  1.00  0.00     0.006 C 
BRANCH   9  10
ATOM     10  C   UNL     1     -48.210 -51.013  16.154  1.00  0.00     0.053 C 
BRANCH  10  11
ATOM     11  C   UNL     1     -49.420 -50.700  15.332  1.00  0.00     0.041 C 
ATOM     12  O   UNL     1     -50.508 -51.295  15.555  1.00  0.00    -0.550 OA
ATOM     13  O   UNL     1     -49.337 -49.787  14.289  1.00  0.00    -0.550 OA
ENDBRANCH  10  11
ENDBRANCH   9  10
ENDBRANCH   8   9
ENDBRANCH   1   8
TORSDOF 8
ENDMDL
MODEL 3
REMARK VINA RESULT:    -4.354     14.013     15.249
REMARK INTER + INTRA:          -6.907
REMARK INTER:                  -6.270
REMARK INTRA:                  -0.637
REMARK UNBOUND:                -0.516
REMARK SMILES O=C([O-])CCCCCCCC(=O)[O-]
REMARK SMILES IDX 7 1 6 2 5 3 4 4 2 5 1 6 3 7 8 8 9 9 10 10 11 11 12 12 13 13
REMARK H PARENT
REMARK Flexibility Score: inf
ROOT
ATOM      1  C   UNL     1     -46.033 -49.196  31.023  1.00  0.00     0.000 C 
ENDROOT
BRANCH   1   2
ATOM      2  C   UNL     1     -44.836 -48.334  30.595  1.00  0.00     0.000 C 
BRANCH   2   3
ATOM      3  C   UNL     1     -43.869 -49.085  29.662  1.00  0.00     0.006 C 
BRANCH   3   4
ATOM      4  C   UNL     1     -43.821 -50.587  29.967  1.00  0.00     0.053 C 
BRANCH   4   5
ATOM      5  C   UNL     1     -42.420 -51.059  30.214  1.00  0.00     0.041 C 
ATOM      6  O   UNL     1     -41.938 -51.999  29.529  1.00  0.00    -0.550 OA
ATOM      7  O   UNL     1     -41.635 -50.435  31.176  1.00  0.00    -0.550 OA
ENDBRANCH   4   5
ENDBRANCH   3   4
ENDBRANCH   2   3
ENDBRANCH   1   2
BRANCH   1   8
ATOM      8  C   UNL     1     -46.447 -48.946  32.484  1.00  0.00     0.000 C 
BRANCH   8   9
ATOM      9  C   UNL     1     -46.877 -50.234  33.204  1.00  0.00     0.006 C 
BRANCH   9  10
ATOM     10  C   UNL     1     -45.771 -50.805  34.101  1.00  0.00     0.053 C 
BRANCH  10  11
ATOM     11  C   UNL     1     -44.951 -51.804  33.346  1.00  0.00     0.041 C 
ATOM     12  O   UNL     1     -45.509 -52.623  32.569  1.00  0.00    -0.550 OA
ATOM     13  O   UNL     1     -43.577 -51.863  33.538  1.00  0.00    -0.550 OA
ENDBRANCH  10  11
ENDBRANCH   9  10
ENDBRANCH   8   9
ENDBRANCH   1   8
TORSDOF 8
ENDMDL
MODEL 4
REMARK VINA RESULT:    -4.353     14.195     15.849
REMARK INTER + INTRA:          -6.905
REMARK INTER:                  -6.099
REMARK INTRA:                  -0.806
REMARK UNBOUND:                -0.516
REMARK SMILES O=C([O-])CCCCCCCC(=O)[O-]
REMARK SMILES IDX 7 1 6 2 5 3 4 4 2 5 1 6 3 7 8 8 9 9 10 10 11 11 12 12 13 13
REMARK H PARENT
REMARK Flexibility Score: inf
ROOT
ATOM      1  C   UNL     1     -45.526 -48.481  31.290  1.00  0.00     0.000 C 
ENDROOT
BRANCH   1   2
ATOM      2  C   UNL     1     -46.464 -48.637  32.497  1.00  0.00     0.000 C 
BRANCH   2   3
ATOM      3  C   UNL     1     -46.912 -50.094  32.713  1.00  0.00     0.006 C 
BRANCH   3   4
ATOM      4  C   UNL     1     -46.130 -50.779  33.841  1.00  0.00     0.053 C 
BRANCH   4   5
ATOM      5  C   UNL     1     -45.097 -51.723  33.307  1.00  0.00     0.041 C 
ATOM      6  O   UNL     1     -45.425 -52.630  32.498  1.00  0.00    -0.550 OA
ATOM      7  O   UNL     1     -43.765 -51.579  33.676  1.00  0.00    -0.550 OA
ENDBRANCH   4   5
ENDBRANCH   3   4
ENDBRANCH   2   3
ENDBRANCH   1   2
BRANCH   1   8
ATOM      8  C   UNL     1     -45.671 -49.632  30.278  1.00  0.00     0.000 C 
BRANCH   8   9
ATOM      9  C   UNL     1     -44.321 -50.269  29.913  1.00  0.00     0.006 C 
BRANCH   9  10
ATOM     10  C   UNL     1     -43.127 -49.412  30.352  1.00  0.00     0.053 C 
BRANCH  10  11
ATOM     11  C   UNL     1     -42.021 -50.281  30.863  1.00  0.00     0.041 C 
ATOM     12  O   UNL     1     -42.094 -51.533  30.748  1.00  0.00    -0.550 OA
ATOM     13  O   UNL     1     -40.932 -49.712  31.510  1.00  0.00    -0.550 OA
ENDBRANCH  10  11
ENDBRANCH   9  10
ENDBRANCH   8   9
ENDBRANCH   1   8
TORSDOF 8
ENDMDL
MODEL 5
REMARK VINA RESULT:    -4.242      2.486      5.079
REMARK INTER + INTRA:          -6.741
REMARK INTER:                  -6.174
REMARK INTRA:                  -0.568
REMARK UNBOUND:                -0.516
REMARK SMILES O=C([O-])CCCCCCCC(=O)[O-]
REMARK SMILES IDX 7 1 6 2 5 3 4 4 2 5 1 6 3 7 8 8 9 9 10 10 11 11 12 12 13 13
REMARK H PARENT
REMARK Flexibility Score: inf
ROOT
ATOM      1  C   UNL     1     -48.154 -51.375  17.479  1.00  0.00     0.000 C 
ENDROOT
BRANCH   1   2
ATOM      2  C   UNL     1     -49.526 -50.730  17.733  1.00  0.00     0.000 C 
BRANCH   2   3
ATOM      3  C   UNL     1     -49.763 -50.413  19.221  1.00  0.00     0.006 C 
BRANCH   3   4
ATOM      4  C   UNL     1     -51.046 -49.603  19.442  1.00  0.00     0.053 C 
BRANCH   4   5
ATOM      5  C   UNL     1     -52.053 -50.366  20.248  1.00  0.00     0.041 C 
ATOM      6  O   UNL     1     -52.129 -51.618  20.145  1.00  0.00    -0.550 OA
ATOM      7  O   UNL     1     -52.882 -49.696  21.140  1.00  0.00    -0.550 OA
ENDBRANCH   4   5
ENDBRANCH   3   4
ENDBRANCH   2   3
ENDBRANCH   1   2
BRANCH   1   8
ATOM      8  C   UNL     1     -47.375 -50.677  16.350  1.00  0.00     0.000 C 
BRANCH   8   9
ATOM      9  C   UNL     1     -48.125 -49.463  15.779  1.00  0.00     0.006 C 
BRANCH   9  10
ATOM     10  C   UNL     1     -47.281 -48.182  15.808  1.00  0.00     0.053 C 
BRANCH  10  11
ATOM     11  C   UNL     1     -47.777 -47.256  16.874  1.00  0.00     0.041 C 
ATOM     12  O   UNL     1     -48.161 -46.094  16.576  1.00  0.00    -0.550 OA
ATOM     13  O   UNL     1     -47.770 -47.658  18.203  1.00  0.00    -0.550 OA
ENDBRANCH  10  11
ENDBRANCH   9  10
ENDBRANCH   8   9
ENDBRANCH   1   8
TORSDOF 8
ENDMDL
MODEL 6
REMARK VINA RESULT:    -4.225      1.369      1.620
REMARK INTER + INTRA:          -6.716
REMARK INTER:                  -6.164
REMARK INTRA:                  -0.552
REMARK UNBOUND:                -0.516
REMARK SMILES O=C([O-])CCCCCCCC(=O)[O-]
REMARK SMILES IDX 7 1 6 2 5 3 4 4 2 5 1 6 3 7 8 8 9 9 10 10 11 11 12 12 13 13
REMARK H PARENT
REMARK Flexibility Score: inf
ROOT
ATOM      1  C   UNL     1     -47.955 -48.410  17.965  1.00  0.00     0.000 C 
ENDROOT
BRANCH   1   2
ATOM      2  C   UNL     1     -47.366 -49.803  17.695  1.00  0.00     0.000 C 
BRANCH   2   3
ATOM      3  C   UNL     1     -47.515 -50.234  16.225  1.00  0.00     0.006 C 
BRANCH   3   4
ATOM      4  C   UNL     1     -48.721 -51.157  16.011  1.00  0.00     0.053 C 
BRANCH   4   5
ATOM      5  C   UNL     1     -49.592 -50.682  14.889  1.00  0.00     0.041 C 
ATOM      6  O   UNL     1     -50.627 -51.325  14.574  1.00  0.00    -0.550 OA
ATOM      7  O   UNL     1     -49.279 -49.508  14.214  1.00  0.00    -0.550 OA
ENDBRANCH   4   5
ENDBRANCH   3   4
ENDBRANCH   2   3
ENDBRANCH   1   2
BRANCH   1   8
ATOM      8  C   UNL     1     -48.836 -48.377  19.226  1.00  0.00     0.000 C 
BRANCH   8   9
ATOM      9  C   UNL     1     -49.377 -49.764  19.605  1.00  0.00     0.006 C 
BRANCH   9  10
ATOM     10  C   UNL     1     -50.902 -49.859  19.468  1.00  0.00     0.053 C 
BRANCH  10  11
ATOM     11  C   UNL     1     -51.545 -49.892  20.819  1.00  0.00     0.041 C 
ATOM     12  O   UNL     1     -52.800 -49.893  20.923  1.00  0.00    -0.550 OA
ATOM     13  O   UNL     1     -50.760 -49.874  21.964  1.00  0.00    -0.550 OA
ENDBRANCH  10  11
ENDBRANCH   9  10
ENDBRANCH   8   9
ENDBRANCH   1   8
TORSDOF 8
ENDMDL
MODEL 7
REMARK VINA RESULT:    -4.136     14.209     15.949
REMARK INTER + INTRA:          -6.587
REMARK INTER:                  -6.190
REMARK INTRA:                  -0.397
REMARK UNBOUND:                -0.516
REMARK SMILES O=C([O-])CCCCCCCC(=O)[O-]
REMARK SMILES IDX 7 1 6 2 5 3 4 4 2 5 1 6 3 7 8 8 9 9 10 10 11 11 12 12 13 13
REMARK H PARENT
REMARK Flexibility Score: inf
ROOT
ATOM      1  C   UNL     1     -42.129 -49.671  29.169  1.00  0.00     0.000 C 
ENDROOT
BRANCH   1   2
ATOM      2  C   UNL     1     -41.366 -49.816  30.494  1.00  0.00     0.000 C 
BRANCH   2   3
ATOM      3  C   UNL     1     -42.081 -50.748  31.489  1.00  0.00     0.006 C 
BRANCH   3   4
ATOM      4  C   UNL     1     -43.601 -50.750  31.290  1.00  0.00     0.053 C 
BRANCH   4   5
ATOM      5  C   UNL     1     -44.306 -51.465  32.402  1.00  0.00     0.041 C 
ATOM      6  O   UNL     1     -43.681 -51.784  33.447  1.00  0.00    -0.550 OA
ATOM      7  O   UNL     1     -45.663 -51.746  32.299  1.00  0.00    -0.550 OA
ENDBRANCH   4   5
ENDBRANCH   3   4
ENDBRANCH   2   3
ENDBRANCH   1   2
BRANCH   1   8
ATOM      8  C   UNL     1     -42.020 -48.253  28.579  1.00  0.00     0.000 C 
BRANCH   8   9
ATOM      9  C   UNL     1     -40.713 -48.037  27.800  1.00  0.00     0.006 C 
BRANCH   9  10
ATOM     10  C   UNL     1     -39.904 -46.845  28.327  1.00  0.00     0.053 C 
BRANCH  10  11
ATOM     11  C   UNL     1     -38.564 -47.299  28.813  1.00  0.00     0.041 C 
ATOM     12  O   UNL     1     -38.272 -48.525  28.817  1.00  0.00    -0.550 OA
ATOM     13  O   UNL     1     -37.653 -46.375  29.308  1.00  0.00    -0.550 OA
ENDBRANCH  10  11
ENDBRANCH   9  10
ENDBRANCH   8   9
ENDBRANCH   1   8
TORSDOF 8
ENDMDL
MODEL 8
REMARK VINA RESULT:    -4.126     13.954     15.578
REMARK INTER + INTRA:          -6.571
REMARK INTER:                  -5.996
REMARK INTRA:                  -0.576
REMARK UNBOUND:                -0.516
REMARK SMILES O=C([O-])CCCCCCCC(=O)[O-]
REMARK SMILES IDX 7 1 6 2 5 3 4 4 2 5 1 6 3 7 8 8 9 9 10 10 11 11 12 12 13 13
REMARK H PARENT
REMARK Flexibility Score: inf
ROOT
ATOM      1  C   UNL     1     -42.023 -48.456  27.277  1.00  0.00     0.000 C 
ENDROOT
BRANCH   1   2
ATOM      2  C   UNL     1     -43.285 -49.045  27.927  1.00  0.00     0.000 C 
BRANCH   2   3
ATOM      3  C   UNL     1     -43.146 -49.201  29.452  1.00  0.00     0.006 C 
BRANCH   3   4
ATOM      4  C   UNL     1     -42.391 -50.479  29.836  1.00  0.00     0.053 C 
BRANCH   4   5
ATOM      5  C   UNL     1     -41.780 -50.374  31.200  1.00  0.00     0.041 C 
ATOM      6  O   UNL     1     -40.793 -49.619  31.396  1.00  0.00    -0.550 OA
ATOM      7  O   UNL     1     -42.325 -51.084  32.264  1.00  0.00    -0.550 OA
ENDBRANCH   4   5
ENDBRANCH   3   4
ENDBRANCH   2   3
ENDBRANCH   1   2
BRANCH   1   8
ATOM      8  C   UNL     1     -41.716 -47.031  27.769  1.00  0.00     0.000 C 
BRANCH   8   9
ATOM      9  C   UNL     1     -40.223 -46.816  28.061  1.00  0.00     0.006 C 
BRANCH   9  10
ATOM     10  C   UNL     1     -39.509 -48.114  28.461  1.00  0.00     0.053 C 
BRANCH  10  11
ATOM     11  C   UNL     1     -38.089 -47.832  28.842  1.00  0.00     0.041 C 
ATOM     12  O   UNL     1     -37.244 -48.764  28.871  1.00  0.00    -0.550 OA
ATOM     13  O   UNL     1     -37.711 -46.548  29.211  1.00  0.00    -0.550 OA
ENDBRANCH  10  11
ENDBRANCH   9  10
ENDBRANCH   8   9
ENDBRANCH   1   8
TORSDOF 8
ENDMDL
MODEL 9
REMARK VINA RESULT:    -4.084      1.477      1.775
REMARK INTER + INTRA:          -6.511
REMARK INTER:                  -5.884
REMARK INTRA:                  -0.626
REMARK UNBOUND:                -0.516
REMARK SMILES O=C([O-])CCCCCCCC(=O)[O-]
REMARK SMILES IDX 7 1 6 2 5 3 4 4 2 5 1 6 3 7 8 8 9 9 10 10 11 11 12 12 13 13
REMARK H PARENT
REMARK Flexibility Score: inf
ROOT
ATOM      1  C   UNL     1     -47.317 -48.189  17.691  1.00  0.00     0.000 C 
ENDROOT
BRANCH   1   2
ATOM      2  C   UNL     1     -47.421 -47.919  16.182  1.00  0.00     0.000 C 
BRANCH   2   3
ATOM      3  C   UNL     1     -48.155 -49.044  15.430  1.00  0.00     0.006 C 
BRANCH   3   4
ATOM      4  C   UNL     1     -47.598 -50.430  15.776  1.00  0.00     0.053 C 
BRANCH   4   5
ATOM      5  C   UNL     1     -48.609 -51.271  16.493  1.00  0.00     0.041 C 
ATOM      6  O   UNL     1     -49.800 -51.316  16.087  1.00  0.00    -0.550 OA
ATOM      7  O   UNL     1     -48.228 -52.034  17.591  1.00  0.00    -0.550 OA
ENDBRANCH   4   5
ENDBRANCH   3   4
ENDBRANCH   2   3
ENDBRANCH   1   2
BRANCH   1   8
ATOM      8  C   UNL     1     -48.609 -47.826  18.445  1.00  0.00     0.000 C 
BRANCH   8   9
ATOM      9  C   UNL     1     -49.016 -48.899  19.467  1.00  0.00     0.006 C 
BRANCH   9  10
ATOM     10  C   UNL     1     -50.414 -49.471  19.195  1.00  0.00     0.053 C 
BRANCH  10  11
ATOM     11  C   UNL     1     -50.991 -50.055  20.446  1.00  0.00     0.041 C 
ATOM     12  O   UNL     1     -50.329 -50.039  21.517  1.00  0.00    -0.550 OA
ATOM     13  O   UNL     1     -52.241 -50.659  20.419  1.00  0.00    -0.550 OA
ENDBRANCH  10  11
ENDBRANCH   9  10
ENDBRANCH   8   9
ENDBRANCH   1   8
TORSDOF 8
ENDMDL
