MODEL 1
REMARK VINA RESULT:    -5.740      0.000      0.000
REMARK INTER + INTRA:         -10.830
REMARK INTER:                  -8.927
REMARK INTRA:                  -1.903
REMARK UNBOUND:                -1.903
REMARK SMILES COc1cc(CNC(=O)CCCCC=CC(C)C)ccc1O
REMARK SMILES IDX 11 1 12 2 13 3 14 4 15 5 16 6 17 7 18 8 10 9 8 10 9 11 7 12
REMARK SMILES IDX 6 14 5 15 4 16 19 17 3 18 20 19 21 20 2 21 1 22 22 23
REMARK H PARENT 7 13 22 24
REMARK Flexibility Score: inf
ROOT
ATOM      1  C   UNL     1     -61.521 -45.255 -38.639  1.00  0.00     0.010 C 
ENDROOT
BRANCH   1   2
ATOM      2  C   UNL     1     -60.239 -45.591 -37.855  1.00  0.00     0.005 C 
BRANCH   2   3
ATOM      3  C   UNL     1     -60.415 -45.439 -36.338  1.00  0.00     0.027 C 
BRANCH   3   4
ATOM      4  C   UNL     1     -60.266 -44.007 -35.889  1.00  0.00    -0.031 C 
ATOM      5  C   UNL     1     -60.123 -43.528 -34.630  1.00  0.00    -0.028 C 
BRANCH   5   6
ATOM      6  C   UNL     1     -60.171 -44.248 -33.289  1.00  0.00     0.005 C 
ATOM      7  C   UNL     1     -59.827 -43.295 -32.139  1.00  0.00     0.012 C 
ATOM      8  C   UNL     1     -61.433 -45.064 -32.996  1.00  0.00     0.012 C 
ENDBRANCH   5   6
ENDBRANCH   3   4
ENDBRANCH   2   3
ENDBRANCH   1   2
BRANCH   1   9
ATOM      9  C   UNL     1     -61.418 -43.994 -39.512  1.00  0.00     0.100 C 
BRANCH   9  10
ATOM     10  C   UNL     1     -62.148 -42.831 -38.905  1.00  0.00     0.220 C 
ATOM     11  O   UNL     1     -61.907 -41.665 -39.320  1.00  0.00    -0.275 OA
ATOM     12  N   UNL     1     -63.140 -43.049 -37.892  1.00  0.00    -0.352 N 
ATOM     13  H   UNL     1     -63.354 -44.027 -37.591  1.00  0.00     0.163 HD
BRANCH  12  14
ATOM     14  C   UNL     1     -63.885 -41.954 -37.275  1.00  0.00     0.151 C 
BRANCH  14  15
ATOM     15  C   UNL     1     -63.692 -41.967 -35.784  1.00  0.00    -0.025 A 
ATOM     16  C   UNL     1     -62.742 -41.120 -35.192  1.00  0.00     0.056 A 
ATOM     17  C   UNL     1     -64.475 -42.799 -34.971  1.00  0.00     0.009 A 
ATOM     18  C   UNL     1     -62.566 -41.106 -33.794  1.00  0.00     0.160 A 
ATOM     19  C   UNL     1     -64.305 -42.791 -33.586  1.00  0.00     0.050 A 
ATOM     20  C   UNL     1     -63.355 -41.952 -32.994  1.00  0.00     0.157 A 
BRANCH  18  21
ATOM     21  O   UNL     1     -61.623 -40.271 -33.172  1.00  0.00    -0.493 OA
ATOM     22  C   UNL     1     -60.975 -39.173 -33.805  1.00  0.00     0.278 C 
ENDBRANCH  18  21
BRANCH  20  23
ATOM     23  O   UNL     1     -63.213 -41.972 -31.606  1.00  0.00    -0.504 OA
ATOM     24  H   UNL     1     -63.335 -42.819 -31.063  1.00  0.00     0.293 HD
ENDBRANCH  20  23
ENDBRANCH  14  15
ENDBRANCH  12  14
ENDBRANCH   9  10
ENDBRANCH   1   9
TORSDOF 10
ENDMDL
MODEL 2
REMARK VINA RESULT:    -5.700      2.263      4.548
REMARK INTER + INTRA:         -10.768
REMARK INTER:                  -9.373
REMARK INTRA:                  -1.395
REMARK UNBOUND:                -1.903
REMARK SMILES COc1cc(CNC(=O)CCCCC=CC(C)C)ccc1O
REMARK SMILES IDX 11 1 12 2 13 3 14 4 15 5 16 6 17 7 18 8 10 9 8 10 9 11 7 12
REMARK SMILES IDX 6 14 5 15 4 16 19 17 3 18 20 19 21 20 2 21 1 22 22 23
REMARK H PARENT 7 13 22 24
REMARK Flexibility Score: inf
ROOT
ATOM      1  C   UNL     1     -60.633 -45.471 -38.256  1.00  0.00     0.010 C 
ENDROOT
BRANCH   1   2
ATOM      2  C   UNL     1     -61.944 -45.356 -39.056  1.00  0.00     0.005 C 
BRANCH   2   3
ATOM      3  C   UNL     1     -61.887 -44.264 -40.132  1.00  0.00     0.027 C 
BRANCH   3   4
ATOM      4  C   UNL     1     -61.350 -42.961 -39.593  1.00  0.00    -0.031 C 
ATOM      5  C   UNL     1     -62.005 -42.004 -38.894  1.00  0.00    -0.028 C 
BRANCH   5   6
ATOM      6  C   UNL     1     -63.478 -41.883 -38.528  1.00  0.00     0.005 C 
ATOM      7  C   UNL     1     -63.671 -41.906 -37.007  1.00  0.00     0.012 C 
ATOM      8  C   UNL     1     -64.254 -40.739 -39.185  1.00  0.00     0.012 C 
ENDBRANCH   5   6
ENDBRANCH   3   4
ENDBRANCH   2   3
ENDBRANCH   1   2
BRANCH   1   9
ATOM      9  C   UNL     1     -60.567 -46.688 -37.319  1.00  0.00     0.100 C 
BRANCH   9  10
ATOM     10  C   UNL     1     -60.705 -46.293 -35.877  1.00  0.00     0.220 C 
ATOM     11  O   UNL     1     -60.946 -47.180 -35.013  1.00  0.00    -0.275 OA
ATOM     12  N   UNL     1     -60.523 -44.926 -35.481  1.00  0.00    -0.352 N 
ATOM     13  H   UNL     1     -60.283 -44.213 -36.206  1.00  0.00     0.163 HD
BRANCH  12  14
ATOM     14  C   UNL     1     -60.637 -44.491 -34.091  1.00  0.00     0.151 C 
BRANCH  14  15
ATOM     15  C   UNL     1     -60.717 -42.991 -34.019  1.00  0.00    -0.025 A 
ATOM     16  C   UNL     1     -60.989 -42.361 -32.794  1.00  0.00     0.056 A 
ATOM     17  C   UNL     1     -60.494 -42.210 -35.162  1.00  0.00     0.009 A 
ATOM     18  C   UNL     1     -61.046 -40.956 -32.708  1.00  0.00     0.160 A 
ATOM     19  C   UNL     1     -60.550 -40.817 -35.083  1.00  0.00     0.050 A 
ATOM     20  C   UNL     1     -60.826 -40.187 -33.865  1.00  0.00     0.157 A 
BRANCH  18  21
ATOM     21  O   UNL     1     -61.316 -40.296 -31.498  1.00  0.00    -0.493 OA
ATOM     22  C   UNL     1     -61.344 -40.928 -30.222  1.00  0.00     0.278 C 
ENDBRANCH  18  21
BRANCH  20  23
ATOM     23  O   UNL     1     -60.875 -38.793 -33.825  1.00  0.00    -0.504 OA
ATOM     24  H   UNL     1     -61.473 -38.292 -33.179  1.00  0.00     0.293 HD
ENDBRANCH  20  23
ENDBRANCH  14  15
ENDBRANCH  12  14
ENDBRANCH   9  10
ENDBRANCH   1   9
TORSDOF 10
ENDMDL
MODEL 3
REMARK VINA RESULT:    -5.586      2.034      4.277
REMARK INTER + INTRA:         -10.591
REMARK INTER:                  -9.104
REMARK INTRA:                  -1.488
REMARK UNBOUND:                -1.903
REMARK SMILES COc1cc(CNC(=O)CCCCC=CC(C)C)ccc1O
REMARK SMILES IDX 11 1 12 2 13 3 14 4 15 5 16 6 17 7 18 8 10 9 8 10 9 11 7 12
REMARK SMILES IDX 6 14 5 15 4 16 19 17 3 18 20 19 21 20 2 21 1 22 22 23
REMARK H PARENT 7 13 22 24
REMARK Flexibility Score: inf
ROOT
ATOM      1  C   UNL     1     -61.386 -44.649 -38.500  1.00  0.00     0.010 C 
ENDROOT
BRANCH   1   2
ATOM      2  C   UNL     1     -61.640 -43.634 -39.631  1.00  0.00     0.005 C 
BRANCH   2   3
ATOM      3  C   UNL     1     -61.669 -42.184 -39.130  1.00  0.00     0.027 C 
BRANCH   3   4
ATOM      4  C   UNL     1     -63.075 -41.696 -38.882  1.00  0.00    -0.031 C 
ATOM      5  C   UNL     1     -63.784 -41.718 -37.729  1.00  0.00    -0.028 C 
BRANCH   5   6
ATOM      6  C   UNL     1     -63.443 -42.318 -36.371  1.00  0.00     0.005 C 
ATOM      7  C   UNL     1     -62.808 -41.271 -35.449  1.00  0.00     0.012 C 
ATOM      8  C   UNL     1     -64.560 -43.095 -35.669  1.00  0.00     0.012 C 
ENDBRANCH   5   6
ENDBRANCH   3   4
ENDBRANCH   2   3
ENDBRANCH   1   2
BRANCH   1   9
ATOM      9  C   UNL     1     -60.092 -44.404 -37.708  1.00  0.00     0.100 C 
BRANCH   9  10
ATOM     10  C   UNL     1     -60.154 -45.007 -36.334  1.00  0.00     0.220 C 
ATOM     11  O   UNL     1     -60.160 -46.261 -36.209  1.00  0.00    -0.275 OA
ATOM     12  N   UNL     1     -60.165 -44.162 -35.174  1.00  0.00    -0.352 N 
ATOM     13  H   UNL     1     -60.119 -43.126 -35.299  1.00  0.00     0.163 HD
BRANCH  12  14
ATOM     14  C   UNL     1     -60.216 -44.697 -33.816  1.00  0.00     0.151 C 
BRANCH  14  15
ATOM     15  C   UNL     1     -60.624 -43.621 -32.847  1.00  0.00    -0.025 A 
ATOM     16  C   UNL     1     -61.985 -43.351 -32.632  1.00  0.00     0.056 A 
ATOM     17  C   UNL     1     -59.657 -42.903 -32.130  1.00  0.00     0.009 A 
ATOM     18  C   UNL     1     -62.383 -42.360 -31.712  1.00  0.00     0.160 A 
ATOM     19  C   UNL     1     -60.044 -41.920 -31.218  1.00  0.00     0.050 A 
ATOM     20  C   UNL     1     -61.399 -41.644 -31.006  1.00  0.00     0.157 A 
BRANCH  18  21
ATOM     21  O   UNL     1     -63.735 -42.065 -31.476  1.00  0.00    -0.493 OA
ATOM     22  C   UNL     1     -64.826 -42.859 -31.931  1.00  0.00     0.278 C 
ENDBRANCH  18  21
BRANCH  20  23
ATOM     23  O   UNL     1     -61.747 -40.654 -30.087  1.00  0.00    -0.504 OA
ATOM     24  H   UNL     1     -62.711 -40.467 -29.835  1.00  0.00     0.293 HD
ENDBRANCH  20  23
ENDBRANCH  14  15
ENDBRANCH  12  14
ENDBRANCH   9  10
ENDBRANCH   1   9
TORSDOF 10
ENDMDL
MODEL 4
REMARK VINA RESULT:    -5.485      1.014      2.267
REMARK INTER + INTRA:         -10.434
REMARK INTER:                  -8.699
REMARK INTRA:                  -1.735
REMARK UNBOUND:                -1.903
REMARK SMILES COc1cc(CNC(=O)CCCCC=CC(C)C)ccc1O
REMARK SMILES IDX 11 1 12 2 13 3 14 4 15 5 16 6 17 7 18 8 10 9 8 10 9 11 7 12
REMARK SMILES IDX 6 14 5 15 4 16 19 17 3 18 20 19 21 20 2 21 1 22 22 23
REMARK H PARENT 7 13 22 24
REMARK Flexibility Score: inf
ROOT
ATOM      1  C   UNL     1     -60.837 -45.129 -37.837  1.00  0.00     0.010 C 
ENDROOT
BRANCH   1   2
ATOM      2  C   UNL     1     -59.621 -44.742 -36.975  1.00  0.00     0.005 C 
BRANCH   2   3
ATOM      3  C   UNL     1     -60.010 -43.928 -35.733  1.00  0.00     0.027 C 
BRANCH   3   4
ATOM      4  C   UNL     1     -61.031 -44.642 -34.882  1.00  0.00    -0.031 C 
ATOM      5  C   UNL     1     -61.004 -44.870 -33.548  1.00  0.00    -0.028 C 
BRANCH   5   6
ATOM      6  C   UNL     1     -59.920 -44.581 -32.518  1.00  0.00     0.005 C 
ATOM      7  C   UNL     1     -58.631 -45.342 -32.847  1.00  0.00     0.012 C 
ATOM      8  C   UNL     1     -59.649 -43.107 -32.207  1.00  0.00     0.012 C 
ENDBRANCH   5   6
ENDBRANCH   3   4
ENDBRANCH   2   3
ENDBRANCH   1   2
BRANCH   1   9
ATOM      9  C   UNL     1     -61.114 -44.172 -39.007  1.00  0.00     0.100 C 
BRANCH   9  10
ATOM     10  C   UNL     1     -61.837 -42.934 -38.559  1.00  0.00     0.220 C 
ATOM     11  O   UNL     1     -61.653 -41.852 -39.180  1.00  0.00    -0.275 OA
ATOM     12  N   UNL     1     -62.758 -42.993 -37.461  1.00  0.00    -0.352 N 
ATOM     13  H   UNL     1     -62.927 -43.908 -36.986  1.00  0.00     0.163 HD
BRANCH  12  14
ATOM     14  C   UNL     1     -63.493 -41.820 -36.991  1.00  0.00     0.151 C 
BRANCH  14  15
ATOM     15  C   UNL     1     -63.222 -41.586 -35.530  1.00  0.00    -0.025 A 
ATOM     16  C   UNL     1     -64.048 -42.175 -34.561  1.00  0.00     0.056 A 
ATOM     17  C   UNL     1     -62.130 -40.805 -35.124  1.00  0.00     0.009 A 
ATOM     18  C   UNL     1     -63.794 -41.982 -33.188  1.00  0.00     0.160 A 
ATOM     19  C   UNL     1     -61.873 -40.609 -33.767  1.00  0.00     0.050 A 
ATOM     20  C   UNL     1     -62.698 -41.190 -32.798  1.00  0.00     0.157 A 
BRANCH  18  21
ATOM     21  O   UNL     1     -64.602 -42.557 -32.194  1.00  0.00    -0.493 OA
ATOM     22  C   UNL     1     -65.927 -43.032 -32.406  1.00  0.00     0.278 C 
ENDBRANCH  18  21
BRANCH  20  23
ATOM     23  O   UNL     1     -62.410 -40.971 -31.451  1.00  0.00    -0.504 OA
ATOM     24  H   UNL     1     -61.668 -41.467 -30.970  1.00  0.00     0.293 HD
ENDBRANCH  20  23
ENDBRANCH  14  15
ENDBRANCH  12  14
ENDBRANCH   9  10
ENDBRANCH   1   9
TORSDOF 10
ENDMDL
MODEL 5
REMARK VINA RESULT:    -5.435      2.030      3.749
REMARK INTER + INTRA:         -10.356
REMARK INTER:                  -8.434
REMARK INTRA:                  -1.922
REMARK UNBOUND:                -1.903
REMARK SMILES COc1cc(CNC(=O)CCCCC=CC(C)C)ccc1O
REMARK SMILES IDX 11 1 12 2 13 3 14 4 15 5 16 6 17 7 18 8 10 9 8 10 9 11 7 12
REMARK SMILES IDX 6 14 5 15 4 16 19 17 3 18 20 19 21 20 2 21 1 22 22 23
REMARK H PARENT 7 13 22 24
REMARK Flexibility Score: inf
ROOT
ATOM      1  C   UNL     1     -61.475 -45.705 -38.392  1.00  0.00     0.010 C 
ENDROOT
BRANCH   1   2
ATOM      2  C   UNL     1     -61.821 -44.795 -39.585  1.00  0.00     0.005 C 
BRANCH   2   3
ATOM      3  C   UNL     1     -61.011 -43.492 -39.591  1.00  0.00     0.027 C 
BRANCH   3   4
ATOM      4  C   UNL     1     -61.896 -42.272 -39.516  1.00  0.00    -0.031 C 
ATOM      5  C   UNL     1     -62.472 -41.714 -38.425  1.00  0.00    -0.028 C 
BRANCH   5   6
ATOM      6  C   UNL     1     -62.500 -42.181 -36.976  1.00  0.00     0.005 C 
ATOM      7  C   UNL     1     -61.336 -41.578 -36.180  1.00  0.00     0.012 C 
ATOM      8  C   UNL     1     -63.833 -42.035 -36.237  1.00  0.00     0.012 C 
ENDBRANCH   5   6
ENDBRANCH   3   4
ENDBRANCH   2   3
ENDBRANCH   1   2
BRANCH   1   9
ATOM      9  C   UNL     1     -60.254 -45.247 -37.580  1.00  0.00     0.100 C 
BRANCH   9  10
ATOM     10  C   UNL     1     -60.466 -45.419 -36.103  1.00  0.00     0.220 C 
ATOM     11  O   UNL     1     -61.185 -46.368 -35.688  1.00  0.00    -0.275 OA
ATOM     12  N   UNL     1     -59.825 -44.535 -35.173  1.00  0.00    -0.352 N 
ATOM     13  H   UNL     1     -59.201 -43.779 -35.536  1.00  0.00     0.163 HD
BRANCH  12  14
ATOM     14  C   UNL     1     -59.991 -44.663 -33.727  1.00  0.00     0.151 C 
BRANCH  14  15
ATOM     15  C   UNL     1     -60.878 -43.566 -33.205  1.00  0.00    -0.025 A 
ATOM     16  C   UNL     1     -60.325 -42.323 -32.861  1.00  0.00     0.056 A 
ATOM     17  C   UNL     1     -62.261 -43.763 -33.085  1.00  0.00     0.009 A 
ATOM     18  C   UNL     1     -61.146 -41.279 -32.390  1.00  0.00     0.160 A 
ATOM     19  C   UNL     1     -63.080 -42.734 -32.619  1.00  0.00     0.050 A 
ATOM     20  C   UNL     1     -62.532 -41.495 -32.270  1.00  0.00     0.157 A 
BRANCH  18  21
ATOM     21  O   UNL     1     -60.624 -40.024 -32.036  1.00  0.00    -0.493 OA
ATOM     22  C   UNL     1     -59.317 -39.812 -31.513  1.00  0.00     0.278 C 
ENDBRANCH  18  21
BRANCH  20  23
ATOM     23  O   UNL     1     -63.381 -40.490 -31.807  1.00  0.00    -0.504 OA
ATOM     24  H   UNL     1     -63.353 -40.158 -30.850  1.00  0.00     0.293 HD
ENDBRANCH  20  23
ENDBRANCH  14  15
ENDBRANCH  12  14
ENDBRANCH   9  10
ENDBRANCH   1   9
TORSDOF 10
ENDMDL
MODEL 6
REMARK VINA RESULT:    -5.373      2.355      4.300
REMARK INTER + INTRA:         -10.259
REMARK INTER:                  -8.896
REMARK INTRA:                  -1.363
REMARK UNBOUND:                -1.903
REMARK SMILES COc1cc(CNC(=O)CCCCC=CC(C)C)ccc1O
REMARK SMILES IDX 11 1 12 2 13 3 14 4 15 5 16 6 17 7 18 8 10 9 8 10 9 11 7 12
REMARK SMILES IDX 6 14 5 15 4 16 19 17 3 18 20 19 21 20 2 21 1 22 22 23
REMARK H PARENT 7 13 22 24
REMARK Flexibility Score: inf
ROOT
ATOM      1  C   UNL     1     -65.507 -43.331 -37.876  1.00  0.00     0.010 C 
ENDROOT
BRANCH   1   2
ATOM      2  C   UNL     1     -64.645 -42.488 -38.834  1.00  0.00     0.005 C 
BRANCH   2   3
ATOM      3  C   UNL     1     -63.385 -41.929 -38.160  1.00  0.00     0.027 C 
BRANCH   3   4
ATOM      4  C   UNL     1     -62.258 -41.725 -39.141  1.00  0.00    -0.031 C 
ATOM      5  C   UNL     1     -61.360 -42.633 -39.594  1.00  0.00    -0.028 C 
BRANCH   5   6
ATOM      6  C   UNL     1     -61.136 -44.085 -39.193  1.00  0.00     0.005 C 
ATOM      7  C   UNL     1     -60.906 -44.210 -37.683  1.00  0.00     0.012 C 
ATOM      8  C   UNL     1     -62.164 -45.100 -39.701  1.00  0.00     0.012 C 
ENDBRANCH   5   6
ENDBRANCH   3   4
ENDBRANCH   2   3
ENDBRANCH   1   2
BRANCH   1   9
ATOM      9  C   UNL     1     -64.790 -44.558 -37.291  1.00  0.00     0.100 C 
BRANCH   9  10
ATOM     10  C   UNL     1     -64.395 -44.346 -35.858  1.00  0.00     0.220 C 
ATOM     11  O   UNL     1     -63.530 -45.101 -35.337  1.00  0.00    -0.275 OA
ATOM     12  N   UNL     1     -64.966 -43.268 -35.103  1.00  0.00    -0.352 N 
ATOM     13  H   UNL     1     -65.651 -42.629 -35.565  1.00  0.00     0.163 HD
BRANCH  12  14
ATOM     14  C   UNL     1     -64.610 -43.013 -33.709  1.00  0.00     0.151 C 
BRANCH  14  15
ATOM     15  C   UNL     1     -63.503 -41.998 -33.631  1.00  0.00    -0.025 A 
ATOM     16  C   UNL     1     -62.965 -41.641 -32.385  1.00  0.00     0.056 A 
ATOM     17  C   UNL     1     -62.980 -41.423 -34.798  1.00  0.00     0.009 A 
ATOM     18  C   UNL     1     -61.914 -40.707 -32.298  1.00  0.00     0.160 A 
ATOM     19  C   UNL     1     -61.939 -40.496 -34.719  1.00  0.00     0.050 A 
ATOM     20  C   UNL     1     -61.405 -40.134 -33.478  1.00  0.00     0.157 A 
BRANCH  18  21
ATOM     21  O   UNL     1     -61.356 -40.329 -31.066  1.00  0.00    -0.493 OA
ATOM     22  C   UNL     1     -61.400 -41.119 -29.883  1.00  0.00     0.278 C 
ENDBRANCH  18  21
BRANCH  20  23
ATOM     23  O   UNL     1     -60.366 -39.205 -33.439  1.00  0.00    -0.504 OA
ATOM     24  H   UNL     1     -60.178 -38.572 -34.208  1.00  0.00     0.293 HD
ENDBRANCH  20  23
ENDBRANCH  14  15
ENDBRANCH  12  14
ENDBRANCH   9  10
ENDBRANCH   1   9
TORSDOF 10
ENDMDL
MODEL 7
REMARK VINA RESULT:    -5.351      1.343      2.307
REMARK INTER + INTRA:         -10.225
REMARK INTER:                  -7.976
REMARK INTRA:                  -2.249
REMARK UNBOUND:                -1.903
REMARK SMILES COc1cc(CNC(=O)CCCCC=CC(C)C)ccc1O
REMARK SMILES IDX 11 1 12 2 13 3 14 4 15 5 16 6 17 7 18 8 10 9 8 10 9 11 7 12
REMARK SMILES IDX 6 14 5 15 4 16 19 17 3 18 20 19 21 20 2 21 1 22 22 23
REMARK H PARENT 7 13 22 24
REMARK Flexibility Score: inf
ROOT
ATOM      1  C   UNL     1     -61.096 -45.632 -37.749  1.00  0.00     0.010 C 
ENDROOT
BRANCH   1   2
ATOM      2  C   UNL     1     -60.042 -44.514 -37.847  1.00  0.00     0.005 C 
BRANCH   2   3
ATOM      3  C   UNL     1     -59.505 -44.085 -36.475  1.00  0.00     0.027 C 
BRANCH   3   4
ATOM      4  C   UNL     1     -59.445 -45.236 -35.502  1.00  0.00    -0.031 C 
ATOM      5  C   UNL     1     -59.887 -45.284 -34.223  1.00  0.00    -0.028 C 
BRANCH   5   6
ATOM      6  C   UNL     1     -60.477 -44.192 -33.341  1.00  0.00     0.005 C 
ATOM      7  C   UNL     1     -61.869 -44.586 -32.834  1.00  0.00     0.012 C 
ATOM      8  C   UNL     1     -59.585 -43.670 -32.212  1.00  0.00     0.012 C 
ENDBRANCH   5   6
ENDBRANCH   3   4
ENDBRANCH   2   3
ENDBRANCH   1   2
BRANCH   1   9
ATOM      9  C   UNL     1     -62.433 -45.305 -38.434  1.00  0.00     0.100 C 
BRANCH   9  10
ATOM     10  C   UNL     1     -62.996 -43.994 -37.966  1.00  0.00     0.220 C 
ATOM     11  O   UNL     1     -63.223 -43.083 -38.808  1.00  0.00    -0.275 OA
ATOM     12  N   UNL     1     -63.310 -43.796 -36.580  1.00  0.00    -0.352 N 
ATOM     13  H   UNL     1     -63.153 -44.578 -35.905  1.00  0.00     0.163 HD
BRANCH  12  14
ATOM     14  C   UNL     1     -63.868 -42.544 -36.075  1.00  0.00     0.151 C 
BRANCH  14  15
ATOM     15  C   UNL     1     -62.839 -41.805 -35.263  1.00  0.00    -0.025 A 
ATOM     16  C   UNL     1     -63.089 -41.514 -33.913  1.00  0.00     0.056 A 
ATOM     17  C   UNL     1     -61.616 -41.428 -35.835  1.00  0.00     0.009 A 
ATOM     18  C   UNL     1     -62.126 -40.841 -33.134  1.00  0.00     0.160 A 
ATOM     19  C   UNL     1     -60.658 -40.761 -35.070  1.00  0.00     0.050 A 
ATOM     20  C   UNL     1     -60.906 -40.464 -33.726  1.00  0.00     0.157 A 
BRANCH  18  21
ATOM     21  O   UNL     1     -62.345 -40.535 -31.782  1.00  0.00    -0.493 OA
ATOM     22  C   UNL     1     -62.199 -41.461 -30.710  1.00  0.00     0.278 C 
ENDBRANCH  18  21
BRANCH  20  23
ATOM     23  O   UNL     1     -59.925 -39.796 -32.993  1.00  0.00    -0.504 OA
ATOM     24  H   UNL     1     -59.843 -39.892 -31.988  1.00  0.00     0.293 HD
ENDBRANCH  20  23
ENDBRANCH  14  15
ENDBRANCH  12  14
ENDBRANCH   9  10
ENDBRANCH   1   9
TORSDOF 10
ENDMDL
MODEL 8
REMARK VINA RESULT:    -5.339      2.281      6.020
REMARK INTER + INTRA:         -10.207
REMARK INTER:                  -8.059
REMARK INTRA:                  -2.148
REMARK UNBOUND:                -1.903
REMARK SMILES COc1cc(CNC(=O)CCCCC=CC(C)C)ccc1O
REMARK SMILES IDX 11 1 12 2 13 3 14 4 15 5 16 6 17 7 18 8 10 9 8 10 9 11 7 12
REMARK SMILES IDX 6 14 5 15 4 16 19 17 3 18 20 19 21 20 2 21 1 22 22 23
REMARK H PARENT 7 13 22 24
REMARK Flexibility Score: inf
ROOT
ATOM      1  C   UNL     1     -60.916 -41.970 -32.336  1.00  0.00     0.010 C 
ENDROOT
BRANCH   1   2
ATOM      2  C   UNL     1     -60.408 -40.545 -32.624  1.00  0.00     0.005 C 
BRANCH   2   3
ATOM      3  C   UNL     1     -60.961 -39.973 -33.935  1.00  0.00     0.027 C 
BRANCH   3   4
ATOM      4  C   UNL     1     -60.723 -40.897 -35.104  1.00  0.00    -0.031 C 
ATOM      5  C   UNL     1     -61.637 -41.516 -35.888  1.00  0.00    -0.028 C 
BRANCH   5   6
ATOM      6  C   UNL     1     -63.155 -41.564 -35.786  1.00  0.00     0.005 C 
ATOM      7  C   UNL     1     -63.792 -41.837 -37.153  1.00  0.00     0.012 C 
ATOM      8  C   UNL     1     -63.738 -42.468 -34.695  1.00  0.00     0.012 C 
ENDBRANCH   5   6
ENDBRANCH   3   4
ENDBRANCH   2   3
ENDBRANCH   1   2
BRANCH   1   9
ATOM      9  C   UNL     1     -59.839 -42.934 -31.814  1.00  0.00     0.100 C 
BRANCH   9  10
ATOM     10  C   UNL     1     -59.711 -44.154 -32.679  1.00  0.00     0.220 C 
ATOM     11  O   UNL     1     -59.626 -45.290 -32.138  1.00  0.00    -0.275 OA
ATOM     12  N   UNL     1     -59.728 -44.031 -34.108  1.00  0.00    -0.352 N 
ATOM     13  H   UNL     1     -59.841 -43.085 -34.537  1.00  0.00     0.163 HD
BRANCH  12  14
ATOM     14  C   UNL     1     -59.617 -45.187 -34.996  1.00  0.00     0.151 C 
BRANCH  14  15
ATOM     15  C   UNL     1     -60.675 -45.128 -36.064  1.00  0.00    -0.025 A 
ATOM     16  C   UNL     1     -60.364 -44.608 -37.330  1.00  0.00     0.056 A 
ATOM     17  C   UNL     1     -61.965 -45.616 -35.816  1.00  0.00     0.009 A 
ATOM     18  C   UNL     1     -61.338 -44.566 -38.347  1.00  0.00     0.160 A 
ATOM     19  C   UNL     1     -62.935 -45.576 -36.819  1.00  0.00     0.050 A 
ATOM     20  C   UNL     1     -62.631 -45.054 -38.080  1.00  0.00     0.157 A 
BRANCH  18  21
ATOM     21  O   UNL     1     -61.059 -44.051 -39.623  1.00  0.00    -0.493 OA
ATOM     22  C   UNL     1     -61.233 -42.689 -40.000  1.00  0.00     0.278 C 
ENDBRANCH  18  21
BRANCH  20  23
ATOM     23  O   UNL     1     -63.627 -45.030 -39.057  1.00  0.00    -0.504 OA
ATOM     24  H   UNL     1     -63.476 -45.397 -39.989  1.00  0.00     0.293 HD
ENDBRANCH  20  23
ENDBRANCH  14  15
ENDBRANCH  12  14
ENDBRANCH   9  10
ENDBRANCH   1   9
TORSDOF 10
ENDMDL
MODEL 9
REMARK VINA RESULT:    -5.250      2.061      5.480
REMARK INTER + INTRA:         -10.069
REMARK INTER:                  -8.022
REMARK INTRA:                  -2.047
REMARK UNBOUND:                -1.903
REMARK SMILES COc1cc(CNC(=O)CCCCC=CC(C)C)ccc1O
REMARK SMILES IDX 11 1 12 2 13 3 14 4 15 5 16 6 17 7 18 8 10 9 8 10 9 11 7 12
REMARK SMILES IDX 6 14 5 15 4 16 19 17 3 18 20 19 21 20 2 21 1 22 22 23
REMARK H PARENT 7 13 22 24
REMARK Flexibility Score: inf
ROOT
ATOM      1  C   UNL     1     -62.995 -42.060 -31.469  1.00  0.00     0.010 C 
ENDROOT
BRANCH   1   2
ATOM      2  C   UNL     1     -63.021 -41.235 -32.768  1.00  0.00     0.005 C 
BRANCH   2   3
ATOM      3  C   UNL     1     -61.703 -40.493 -33.025  1.00  0.00     0.027 C 
BRANCH   3   4
ATOM      4  C   UNL     1     -61.042 -40.935 -34.308  1.00  0.00    -0.031 C 
ATOM      5  C   UNL     1     -60.608 -42.170 -34.650  1.00  0.00    -0.028 C 
BRANCH   5   6
ATOM      6  C   UNL     1     -60.549 -43.457 -33.837  1.00  0.00     0.005 C 
ATOM      7  C   UNL     1     -60.232 -44.660 -34.731  1.00  0.00     0.012 C 
ATOM      8  C   UNL     1     -59.673 -43.432 -32.581  1.00  0.00     0.012 C 
ENDBRANCH   5   6
ENDBRANCH   3   4
ENDBRANCH   2   3
ENDBRANCH   1   2
BRANCH   1   9
ATOM      9  C   UNL     1     -64.107 -43.117 -31.367  1.00  0.00     0.100 C 
BRANCH   9  10
ATOM     10  C   UNL     1     -64.759 -43.374 -32.695  1.00  0.00     0.220 C 
ATOM     11  O   UNL     1     -65.888 -42.867 -32.938  1.00  0.00    -0.275 OA
ATOM     12  N   UNL     1     -64.086 -44.155 -33.692  1.00  0.00    -0.352 N 
ATOM     13  H   UNL     1     -63.133 -44.533 -33.486  1.00  0.00     0.163 HD
BRANCH  12  14
ATOM     14  C   UNL     1     -64.672 -44.428 -35.002  1.00  0.00     0.151 C 
BRANCH  14  15
ATOM     15  C   UNL     1     -63.943 -43.658 -36.069  1.00  0.00    -0.025 A 
ATOM     16  C   UNL     1     -63.168 -44.340 -37.020  1.00  0.00     0.056 A 
ATOM     17  C   UNL     1     -64.054 -42.262 -36.143  1.00  0.00     0.009 A 
ATOM     18  C   UNL     1     -62.497 -43.634 -38.038  1.00  0.00     0.160 A 
ATOM     19  C   UNL     1     -63.391 -41.557 -37.148  1.00  0.00     0.050 A 
ATOM     20  C   UNL     1     -62.613 -42.233 -38.094  1.00  0.00     0.157 A 
BRANCH  18  21
ATOM     21  O   UNL     1     -61.713 -44.287 -39.003  1.00  0.00    -0.493 OA
ATOM     22  C   UNL     1     -62.203 -44.767 -40.251  1.00  0.00     0.278 C 
ENDBRANCH  18  21
BRANCH  20  23
ATOM     23  O   UNL     1     -61.965 -41.493 -39.084  1.00  0.00    -0.504 OA
ATOM     24  H   UNL     1     -61.767 -41.877 -40.001  1.00  0.00     0.293 HD
ENDBRANCH  20  23
ENDBRANCH  14  15
ENDBRANCH  12  14
ENDBRANCH   9  10
ENDBRANCH   1   9
TORSDOF 10
ENDMDL
