MODEL 1
REMARK VINA RESULT:    -3.403      0.000      0.000
REMARK INTER + INTRA:          -5.367
REMARK INTER:                  -5.193
REMARK INTRA:                  -0.174
REMARK UNBOUND:                -0.174
REMARK SMILES CC1=CCC[C@@H](C)C(=O)C[C@@H](C(C)C)C(=O)C1
REMARK SMILES IDX 8 1 9 2 6 3 7 4 5 5 4 6 3 7 2 8 1 9 10 11 11 12 15 13 16 14
REMARK SMILES IDX 17 15 12 17 13 18 14 19
REMARK H PARENT
REMARK Flexibility Score: 70.00
ROOT
ATOM      1  C   UNL     1     102.984 134.522 123.003  1.00  0.00     0.136 C 
ATOM      2  O   UNL     1     102.993 135.495 122.260  1.00  0.00    -0.299 OA
ENDROOT
BRANCH   1   3
ATOM      3  C   UNL     1     104.273 133.784 123.294  1.00  0.00     0.053 C 
ATOM      4  C   UNL     1     105.456 134.746 123.144  1.00  0.00     0.016 C 
BRANCH   3   5
ATOM      5  C   UNL     1     104.468 132.554 122.375  1.00  0.00     0.015 C 
BRANCH   5   6
ATOM      6  C   UNL     1     103.680 131.314 122.821  1.00  0.00     0.028 C 
BRANCH   6   7
ATOM      7  C   UNL     1     103.995 130.945 124.251  1.00  0.00    -0.028 C 
ATOM      8  C   UNL     1     103.121 131.008 125.279  1.00  0.00    -0.070 CG0
ATOM      9  C   UNL     1     103.603 130.597 126.647  1.00  0.00     0.039 C 
ATOM     10  G   UNL     1     101.681 131.460 125.110  1.00  0.00     0.000 G0
ENDBRANCH   6   7
ENDBRANCH   5   6
ENDBRANCH   3   5
ENDBRANCH   1   3
BRANCH   1  11
ATOM     11  C   UNL     1     101.691 134.114 123.667  1.00  0.00     0.087 C 
BRANCH  11  12
ATOM     12  C   UNL     1     101.753 134.119 125.218  1.00  0.00     0.066 C 
BRANCH  12  13
ATOM     13  C   UNL     1     101.313 132.766 125.770  1.00  0.00     0.140 C 
ATOM     14  O   UNL     1     100.713 132.732 126.836  1.00  0.00    -0.299 OA
BRANCH  13  15
ATOM     15  C   UNL     1     101.664 131.447 125.112  1.00  0.00     0.106 CG0
ATOM     16  G   UNL     1     103.113 131.026 125.287  1.00  0.00     0.000 G0
ENDBRANCH  13  15
ENDBRANCH  12  13
BRANCH  12  17
ATOM     17  C   UNL     1     100.872 135.261 125.821  1.00  0.00    -0.006 C 
ATOM     18  C   UNL     1     101.493 136.647 125.569  1.00  0.00     0.008 C 
ATOM     19  C   UNL     1      99.440 135.252 125.256  1.00  0.00     0.008 C 
ENDBRANCH  12  17
ENDBRANCH  11  12
ENDBRANCH   1  11
TORSDOF 1
ENDMDL
MODEL 2
REMARK VINA RESULT:    -3.330     13.980     16.436
REMARK INTER + INTRA:          -5.256
REMARK INTER:                  -4.801
REMARK INTRA:                  -0.456
REMARK UNBOUND:                -0.174
REMARK SMILES CC1=CCC[C@@H](C)C(=O)C[C@@H](C(C)C)C(=O)C1
REMARK SMILES IDX 8 1 9 2 6 3 7 4 5 5 4 6 3 7 2 8 1 9 10 11 11 12 15 13 16 14
REMARK SMILES IDX 17 15 12 17 13 18 14 19
REMARK H PARENT
REMARK Flexibility Score: 70.00
ROOT
ATOM      1  C   UNL     1      98.217 141.575 135.986  1.00  0.00     0.136 C 
ATOM      2  O   UNL     1      99.298 142.135 136.115  1.00  0.00    -0.299 OA
ENDROOT
BRANCH   1   3
ATOM      3  C   UNL     1      97.383 141.826 134.749  1.00  0.00     0.053 C 
ATOM      4  C   UNL     1      98.212 141.506 133.501  1.00  0.00     0.016 C 
BRANCH   3   5
ATOM      5  C   UNL     1      96.853 143.278 134.678  1.00  0.00     0.015 C 
BRANCH   5   6
ATOM      6  C   UNL     1      95.355 143.409 134.988  1.00  0.00     0.028 C 
BRANCH   6   7
ATOM      7  C   UNL     1      95.124 143.902 136.396  1.00  0.00    -0.028 C 
ATOM      8  C   UNL     1      94.647 143.150 137.413  1.00  0.00    -0.070 CG0
ATOM      9  C   UNL     1      94.480 143.804 138.761  1.00  0.00     0.039 C 
ATOM     10  G   UNL     1      94.286 141.684 137.255  1.00  0.00     0.000 G0
ENDBRANCH   6   7
ENDBRANCH   5   6
ENDBRANCH   3   5
ENDBRANCH   1   3
BRANCH   1  11
ATOM     11  C   UNL     1      97.765 140.595 137.041  1.00  0.00     0.087 C 
BRANCH  11  12
ATOM     12  C   UNL     1      96.333 140.040 136.811  1.00  0.00     0.066 C 
BRANCH  12  13
ATOM     13  C   UNL     1      95.344 140.716 137.755  1.00  0.00     0.140 C 
ATOM     14  O   UNL     1      95.362 140.416 138.940  1.00  0.00    -0.299 OA
BRANCH  13  15
ATOM     15  C   UNL     1      94.270 141.676 137.283  1.00  0.00     0.106 CG0
ATOM     16  G   UNL     1      94.644 143.142 137.402  1.00  0.00     0.000 G0
ENDBRANCH  13  15
ENDBRANCH  12  13
BRANCH  12  17
ATOM     17  C   UNL     1      96.286 138.489 136.998  1.00  0.00    -0.006 C 
ATOM     18  C   UNL     1      95.476 137.809 135.879  1.00  0.00     0.008 C 
ATOM     19  C   UNL     1      97.693 137.864 137.038  1.00  0.00     0.008 C 
ENDBRANCH  12  17
ENDBRANCH  11  12
ENDBRANCH   1  11
TORSDOF 1
ENDMDL
MODEL 3
REMARK VINA RESULT:    -3.259      1.800      3.963
REMARK INTER + INTRA:          -5.148
REMARK INTER:                  -5.453
REMARK INTRA:                   0.305
REMARK UNBOUND:                -0.174
REMARK SMILES CC1=CCC[C@@H](C)C(=O)C[C@@H](C(C)C)C(=O)C1
REMARK SMILES IDX 8 1 9 2 6 3 7 4 5 5 4 6 3 7 2 8 1 9 10 11 11 12 15 13 16 14
REMARK SMILES IDX 17 15 12 17 13 18 14 19
REMARK H PARENT
REMARK Flexibility Score: 70.00
ROOT
ATOM      1  C   UNL     1     100.905 133.942 125.676  1.00  0.00     0.136 C 
ATOM      2  O   UNL     1     100.131 134.379 126.517  1.00  0.00    -0.299 OA
ENDROOT
BRANCH   1   3
ATOM      3  C   UNL     1     101.837 134.887 124.947  1.00  0.00     0.053 C 
ATOM      4  C   UNL     1     101.869 136.233 125.676  1.00  0.00     0.016 C 
BRANCH   3   5
ATOM      5  C   UNL     1     101.430 135.092 123.468  1.00  0.00     0.015 C 
BRANCH   5   6
ATOM      6  C   UNL     1     102.598 134.973 122.480  1.00  0.00     0.028 C 
BRANCH   6   7
ATOM      7  C   UNL     1     103.865 134.532 123.174  1.00  0.00    -0.028 C 
ATOM      8  C   UNL     1     104.177 133.254 123.481  1.00  0.00    -0.070 CG0
ATOM      9  C   UNL     1     105.490 132.991 124.174  1.00  0.00     0.039 C 
ATOM     10  G   UNL     1     103.271 132.082 123.149  1.00  0.00     0.000 G0
ENDBRANCH   6   7
ENDBRANCH   5   6
ENDBRANCH   3   5
ENDBRANCH   1   3
BRANCH   1  11
ATOM     11  C   UNL     1     100.958 132.454 125.427  1.00  0.00     0.087 C 
BRANCH  11  12
ATOM     12  C   UNL     1     102.355 131.825 125.680  1.00  0.00     0.066 C 
BRANCH  12  13
ATOM     13  C   UNL     1     102.916 131.240 124.387  1.00  0.00     0.140 C 
ATOM     14  O   UNL     1     103.168 130.044 124.343  1.00  0.00    -0.299 OA
BRANCH  13  15
ATOM     15  C   UNL     1     103.268 132.084 123.178  1.00  0.00     0.106 CG0
ATOM     16  G   UNL     1     104.189 133.253 123.478  1.00  0.00     0.000 G0
ENDBRANCH  13  15
ENDBRANCH  12  13
BRANCH  12  17
ATOM     17  C   UNL     1     102.293 130.725 126.788  1.00  0.00    -0.006 C 
ATOM     18  C   UNL     1     103.621 130.624 127.560  1.00  0.00     0.008 C 
ATOM     19  C   UNL     1     101.156 130.978 127.795  1.00  0.00     0.008 C 
ENDBRANCH  12  17
ENDBRANCH  11  12
ENDBRANCH   1  11
TORSDOF 1
ENDMDL
MODEL 4
REMARK VINA RESULT:    -3.223      1.692      2.286
REMARK INTER + INTRA:          -5.093
REMARK INTER:                  -4.973
REMARK INTRA:                  -0.120
REMARK UNBOUND:                -0.174
REMARK SMILES CC1=CCC[C@@H](C)C(=O)C[C@@H](C(C)C)C(=O)C1
REMARK SMILES IDX 8 1 9 2 6 3 7 4 5 5 4 6 3 7 2 8 1 9 10 11 11 12 15 13 16 14
REMARK SMILES IDX 17 15 12 17 13 18 14 19
REMARK H PARENT
REMARK Flexibility Score: 70.00
ROOT
ATOM      1  C   UNL     1     104.384 133.582 123.684  1.00  0.00     0.136 C 
ATOM      2  O   UNL     1     104.998 134.404 124.351  1.00  0.00    -0.299 OA
ENDROOT
BRANCH   1   3
ATOM      3  C   UNL     1     105.039 132.267 123.320  1.00  0.00     0.053 C 
ATOM      4  C   UNL     1     106.319 132.539 122.524  1.00  0.00     0.016 C 
BRANCH   3   5
ATOM      5  C   UNL     1     104.097 131.342 122.513  1.00  0.00     0.015 C 
BRANCH   5   6
ATOM      6  C   UNL     1     103.482 130.205 123.342  1.00  0.00     0.028 C 
BRANCH   6   7
ATOM      7  C   UNL     1     102.019 130.017 123.021  1.00  0.00    -0.028 C 
ATOM      8  C   UNL     1     100.998 130.617 123.670  1.00  0.00    -0.070 CG0
ATOM      9  C   UNL     1      99.592 130.318 123.215  1.00  0.00     0.039 C 
ATOM     10  G   UNL     1     101.209 131.582 124.824  1.00  0.00     0.000 G0
ENDBRANCH   6   7
ENDBRANCH   5   6
ENDBRANCH   3   5
ENDBRANCH   1   3
BRANCH   1  11
ATOM     11  C   UNL     1     102.956 133.872 123.290  1.00  0.00     0.087 C 
BRANCH  11  12
ATOM     12  C   UNL     1     102.005 134.099 124.496  1.00  0.00     0.066 C 
BRANCH  12  13
ATOM     13  C   UNL     1     100.919 133.026 124.525  1.00  0.00     0.140 C 
ATOM     14  O   UNL     1      99.755 133.364 124.364  1.00  0.00    -0.299 OA
BRANCH  13  15
ATOM     15  C   UNL     1     101.199 131.570 124.838  1.00  0.00     0.106 CG0
ATOM     16  G   UNL     1     100.978 130.625 123.670  1.00  0.00     0.000 G0
ENDBRANCH  13  15
ENDBRANCH  12  13
BRANCH  12  17
ATOM     17  C   UNL     1     101.359 135.521 124.455  1.00  0.00    -0.006 C 
ATOM     18  C   UNL     1     101.652 136.313 125.742  1.00  0.00     0.008 C 
ATOM     19  C   UNL     1     101.843 136.345 123.247  1.00  0.00     0.008 C 
ENDBRANCH  12  17
ENDBRANCH  11  12
ENDBRANCH   1  11
TORSDOF 1
ENDMDL
MODEL 5
REMARK VINA RESULT:    -3.157     13.579     15.639
REMARK INTER + INTRA:          -4.992
REMARK INTER:                  -4.990
REMARK INTRA:                  -0.003
REMARK UNBOUND:                -0.174
REMARK SMILES CC1=CCC[C@@H](C)C(=O)C[C@@H](C(C)C)C(=O)C1
REMARK SMILES IDX 8 1 9 2 6 3 7 4 5 5 4 6 3 7 2 8 1 9 10 11 11 12 15 13 16 14
REMARK SMILES IDX 17 15 12 17 13 18 14 19
REMARK H PARENT
REMARK Flexibility Score: 70.00
ROOT
ATOM      1  C   UNL     1      97.831 141.951 133.877  1.00  0.00     0.136 C 
ATOM      2  O   UNL     1      98.231 141.863 132.723  1.00  0.00    -0.299 OA
ENDROOT
BRANCH   1   3
ATOM      3  C   UNL     1      98.361 141.005 134.932  1.00  0.00     0.053 C 
ATOM      4  C   UNL     1      99.892 140.998 134.886  1.00  0.00     0.016 C 
BRANCH   3   5
ATOM      5  C   UNL     1      97.816 139.567 134.762  1.00  0.00     0.015 C 
BRANCH   5   6
ATOM      6  C   UNL     1      96.559 139.276 135.593  1.00  0.00     0.028 C 
BRANCH   6   7
ATOM      7  C   UNL     1      96.684 139.826 136.994  1.00  0.00    -0.028 C 
ATOM      8  C   UNL     1      95.871 140.758 137.537  1.00  0.00    -0.070 CG0
ATOM      9  C   UNL     1      96.138 141.194 138.955  1.00  0.00     0.039 C 
ATOM     10  G   UNL     1      94.702 141.371 136.786  1.00  0.00     0.000 G0
ENDBRANCH   6   7
ENDBRANCH   5   6
ENDBRANCH   3   5
ENDBRANCH   1   3
BRANCH   1  11
ATOM     11  C   UNL     1      96.857 143.047 134.237  1.00  0.00     0.087 C 
BRANCH  11  12
ATOM     12  C   UNL     1      96.480 143.083 135.743  1.00  0.00     0.066 C 
BRANCH  12  13
ATOM     13  C   UNL     1      95.047 142.597 135.942  1.00  0.00     0.140 C 
ATOM     14  O   UNL     1      94.132 143.257 135.470  1.00  0.00    -0.299 OA
BRANCH  13  15
ATOM     15  C   UNL     1      94.690 141.386 136.781  1.00  0.00     0.106 CG0
ATOM     16  G   UNL     1      95.860 140.782 137.537  1.00  0.00     0.000 G0
ENDBRANCH  13  15
ENDBRANCH  12  13
BRANCH  12  17
ATOM     17  C   UNL     1      96.654 144.516 136.341  1.00  0.00    -0.006 C 
ATOM     18  C   UNL     1      97.860 144.589 137.294  1.00  0.00     0.008 C 
ATOM     19  C   UNL     1      96.823 145.587 135.247  1.00  0.00     0.008 C 
ENDBRANCH  12  17
ENDBRANCH  11  12
ENDBRANCH   1  11
TORSDOF 1
ENDMDL
MODEL 6
REMARK VINA RESULT:    -3.149     13.915     16.623
REMARK INTER + INTRA:          -4.980
REMARK INTER:                  -4.677
REMARK INTRA:                  -0.302
REMARK UNBOUND:                -0.174
REMARK SMILES CC1=CCC[C@@H](C)C(=O)C[C@@H](C(C)C)C(=O)C1
REMARK SMILES IDX 8 1 9 2 6 3 7 4 5 5 4 6 3 7 2 8 1 9 10 11 11 12 15 13 16 14
REMARK SMILES IDX 17 15 12 17 13 18 14 19
REMARK H PARENT
REMARK Flexibility Score: 70.00
ROOT
ATOM      1  C   UNL     1      96.649 144.000 136.262  1.00  0.00     0.136 C 
ATOM      2  O   UNL     1      96.759 144.936 137.043  1.00  0.00    -0.299 OA
ENDROOT
BRANCH   1   3
ATOM      3  C   UNL     1      95.668 144.090 135.113  1.00  0.00     0.053 C 
ATOM      4  C   UNL     1      95.943 145.362 134.306  1.00  0.00     0.016 C 
BRANCH   3   5
ATOM      5  C   UNL     1      94.197 144.071 135.592  1.00  0.00     0.015 C 
BRANCH   5   6
ATOM      6  C   UNL     1      93.594 142.662 135.694  1.00  0.00     0.028 C 
BRANCH   6   7
ATOM      7  C   UNL     1      93.464 142.222 137.132  1.00  0.00    -0.028 C 
ATOM      8  C   UNL     1      94.050 141.127 137.665  1.00  0.00    -0.070 CG0
ATOM      9  C   UNL     1      93.815 140.835 139.125  1.00  0.00     0.039 C 
ATOM     10  G   UNL     1      94.937 140.194 136.861  1.00  0.00     0.000 G0
ENDBRANCH   6   7
ENDBRANCH   5   6
ENDBRANCH   3   5
ENDBRANCH   1   3
BRANCH   1  11
ATOM     11  C   UNL     1      97.544 142.796 136.426  1.00  0.00     0.087 C 
BRANCH  11  12
ATOM     12  C   UNL     1      96.993 141.508 135.755  1.00  0.00     0.066 C 
BRANCH  12  13
ATOM     13  C   UNL     1      96.411 140.569 136.808  1.00  0.00     0.140 C 
ATOM     14  O   UNL     1      97.169 140.044 137.611  1.00  0.00    -0.299 OA
BRANCH  13  15
ATOM     15  C   UNL     1      94.948 140.177 136.852  1.00  0.00     0.106 CG0
ATOM     16  G   UNL     1      94.073 141.110 137.670  1.00  0.00     0.000 G0
ENDBRANCH  13  15
ENDBRANCH  12  13
BRANCH  12  17
ATOM     17  C   UNL     1      98.099 140.776 134.930  1.00  0.00    -0.006 C 
ATOM     18  C   UNL     1      98.146 141.278 133.475  1.00  0.00     0.008 C 
ATOM     19  C   UNL     1      99.497 140.943 135.554  1.00  0.00     0.008 C 
ENDBRANCH  12  17
ENDBRANCH  11  12
ENDBRANCH   1  11
TORSDOF 1
ENDMDL
MODEL 7
REMARK VINA RESULT:    -3.095     13.852     16.274
REMARK INTER + INTRA:          -4.898
REMARK INTER:                  -4.645
REMARK INTRA:                  -0.253
REMARK UNBOUND:                -0.174
REMARK SMILES CC1=CCC[C@@H](C)C(=O)C[C@@H](C(C)C)C(=O)C1
REMARK SMILES IDX 8 1 9 2 6 3 7 4 5 5 4 6 3 7 2 8 1 9 10 11 11 12 15 13 16 14
REMARK SMILES IDX 17 15 12 17 13 18 14 19
REMARK H PARENT
REMARK Flexibility Score: 70.00
ROOT
ATOM      1  C   UNL     1      96.602 138.467 136.329  1.00  0.00     0.136 C 
ATOM      2  O   UNL     1      95.740 137.651 136.032  1.00  0.00    -0.299 OA
ENDROOT
BRANCH   1   3
ATOM      3  C   UNL     1      97.348 138.331 137.640  1.00  0.00     0.053 C 
ATOM      4  C   UNL     1      98.150 137.026 137.636  1.00  0.00     0.016 C 
BRANCH   3   5
ATOM      5  C   UNL     1      96.402 138.371 138.863  1.00  0.00     0.015 C 
BRANCH   5   6
ATOM      6  C   UNL     1      96.425 139.704 139.623  1.00  0.00     0.028 C 
BRANCH   6   7
ATOM      7  C   UNL     1      95.165 140.501 139.379  1.00  0.00    -0.028 C 
ATOM      8  C   UNL     1      95.090 141.622 138.628  1.00  0.00    -0.070 CG0
ATOM      9  C   UNL     1      93.747 142.292 138.486  1.00  0.00     0.039 C 
ATOM     10  G   UNL     1      96.292 142.222 137.921  1.00  0.00     0.000 G0
ENDBRANCH   6   7
ENDBRANCH   5   6
ENDBRANCH   3   5
ENDBRANCH   1   3
BRANCH   1  11
ATOM     11  C   UNL     1      96.949 139.563 135.350  1.00  0.00     0.087 C 
BRANCH  11  12
ATOM     12  C   UNL     1      97.570 140.823 136.012  1.00  0.00     0.066 C 
BRANCH  12  13
ATOM     13  C   UNL     1      96.471 141.779 136.468  1.00  0.00     0.140 C 
ATOM     14  O   UNL     1      95.731 142.269 135.626  1.00  0.00    -0.299 OA
BRANCH  13  15
ATOM     15  C   UNL     1      96.307 142.230 137.906  1.00  0.00     0.106 CG0
ATOM     16  G   UNL     1      95.113 141.622 138.620  1.00  0.00     0.000 G0
ENDBRANCH  13  15
ENDBRANCH  12  13
BRANCH  12  17
ATOM     17  C   UNL     1      98.552 141.552 135.040  1.00  0.00    -0.006 C 
ATOM     18  C   UNL     1     100.005 141.090 135.251  1.00  0.00     0.008 C 
ATOM     19  C   UNL     1      98.175 141.337 133.562  1.00  0.00     0.008 C 
ENDBRANCH  12  17
ENDBRANCH  11  12
ENDBRANCH   1  11
TORSDOF 1
ENDMDL
MODEL 8
REMARK VINA RESULT:    -3.048      1.701      3.853
REMARK INTER + INTRA:          -4.825
REMARK INTER:                  -5.020
REMARK INTRA:                   0.195
REMARK UNBOUND:                -0.174
REMARK SMILES CC1=CCC[C@@H](C)C(=O)C[C@@H](C(C)C)C(=O)C1
REMARK SMILES IDX 8 1 9 2 6 3 7 4 5 5 4 6 3 7 2 8 1 9 10 11 11 12 15 13 16 14
REMARK SMILES IDX 17 15 12 17 13 18 14 19
REMARK H PARENT
REMARK Flexibility Score: 70.00
ROOT
ATOM      1  C   UNL     1     101.899 135.178 125.429  1.00  0.00     0.136 C 
ATOM      2  O   UNL     1     101.832 136.240 126.033  1.00  0.00    -0.299 OA
ENDROOT
BRANCH   1   3
ATOM      3  C   UNL     1     100.648 134.353 125.213  1.00  0.00     0.053 C 
ATOM      4  C   UNL     1      99.442 135.287 125.069  1.00  0.00     0.016 C 
BRANCH   3   5
ATOM      5  C   UNL     1     100.404 133.341 126.357  1.00  0.00     0.015 C 
BRANCH   5   6
ATOM      6  C   UNL     1     100.718 131.887 125.978  1.00  0.00     0.028 C 
BRANCH   6   7
ATOM      7  C   UNL     1     101.780 131.300 126.876  1.00  0.00    -0.028 C 
ATOM      8  C   UNL     1     103.004 130.897 126.469  1.00  0.00    -0.070 CG0
ATOM      9  C   UNL     1     103.947 130.335 127.503  1.00  0.00     0.039 C 
ATOM     10  G   UNL     1     103.468 130.997 125.027  1.00  0.00     0.000 G0
ENDBRANCH   6   7
ENDBRANCH   5   6
ENDBRANCH   3   5
ENDBRANCH   1   3
BRANCH   1  11
ATOM     11  C   UNL     1     103.225 134.739 124.857  1.00  0.00     0.087 C 
BRANCH  11  12
ATOM     12  C   UNL     1     103.145 133.440 124.010  1.00  0.00     0.066 C 
BRANCH  12  13
ATOM     13  C   UNL     1     104.015 132.350 124.628  1.00  0.00     0.140 C 
ATOM     14  O   UNL     1     105.217 132.548 124.738  1.00  0.00    -0.299 OA
BRANCH  13  15
ATOM     15  C   UNL     1     103.482 130.988 125.025  1.00  0.00     0.106 CG0
ATOM     16  G   UNL     1     103.029 130.891 126.471  1.00  0.00     0.000 G0
ENDBRANCH  13  15
ENDBRANCH  12  13
BRANCH  12  17
ATOM     17  C   UNL     1     103.570 133.697 122.528  1.00  0.00    -0.006 C 
ATOM     18  C   UNL     1     104.516 134.906 122.413  1.00  0.00     0.008 C 
ATOM     19  C   UNL     1     104.258 132.471 121.899  1.00  0.00     0.008 C 
ENDBRANCH  12  17
ENDBRANCH  11  12
ENDBRANCH   1  11
TORSDOF 1
ENDMDL
MODEL 9
REMARK VINA RESULT:    -2.946     13.779     14.864
REMARK INTER + INTRA:          -4.669
REMARK INTER:                  -4.537
REMARK INTRA:                  -0.132
REMARK UNBOUND:                -0.174
REMARK SMILES CC1=CCC[C@@H](C)C(=O)C[C@@H](C(C)C)C(=O)C1
REMARK SMILES IDX 8 1 9 2 6 3 7 4 5 5 4 6 3 7 2 8 1 9 10 11 11 12 15 13 16 14
REMARK SMILES IDX 17 15 12 17 13 18 14 19
REMARK H PARENT
REMARK Flexibility Score: 70.00
ROOT
ATOM      1  C   UNL     1      97.100 140.784 135.519  1.00  0.00     0.136 C 
ATOM      2  O   UNL     1      96.025 141.325 135.740  1.00  0.00    -0.299 OA
ENDROOT
BRANCH   1   3
ATOM      3  C   UNL     1      98.268 141.605 135.017  1.00  0.00     0.053 C 
ATOM      4  C   UNL     1      98.128 141.820 133.507  1.00  0.00     0.016 C 
BRANCH   3   5
ATOM      5  C   UNL     1      99.632 140.948 135.337  1.00  0.00     0.015 C 
BRANCH   5   6
ATOM      6  C   UNL     1     100.163 141.272 136.740  1.00  0.00     0.028 C 
BRANCH   6   7
ATOM      7  C   UNL     1     101.065 140.175 137.255  1.00  0.00    -0.028 C 
ATOM      8  C   UNL     1     100.701 139.223 138.142  1.00  0.00    -0.070 CG0
ATOM      9  C   UNL     1     101.730 138.199 138.547  1.00  0.00     0.039 C 
ATOM     10  G   UNL     1      99.305 139.140 138.734  1.00  0.00     0.000 G0
ENDBRANCH   6   7
ENDBRANCH   5   6
ENDBRANCH   3   5
ENDBRANCH   1   3
BRANCH   1  11
ATOM     11  C   UNL     1      97.256 139.311 135.812  1.00  0.00     0.087 C 
BRANCH  11  12
ATOM     12  C   UNL     1      97.041 138.941 137.305  1.00  0.00     0.066 C 
BRANCH  12  13
ATOM     13  C   UNL     1      98.313 138.332 137.888  1.00  0.00     0.140 C 
ATOM     14  O   UNL     1      98.516 137.136 137.736  1.00  0.00    -0.299 OA
BRANCH  13  15
ATOM     15  C   UNL     1      99.296 139.117 138.734  1.00  0.00     0.106 CG0
ATOM     16  G   UNL     1     100.693 139.208 138.146  1.00  0.00     0.000 G0
ENDBRANCH  13  15
ENDBRANCH  12  13
BRANCH  12  17
ATOM     17  C   UNL     1      95.840 137.958 137.482  1.00  0.00    -0.006 C 
ATOM     18  C   UNL     1      94.910 138.401 138.625  1.00  0.00     0.008 C 
ATOM     19  C   UNL     1      95.007 137.819 136.194  1.00  0.00     0.008 C 
ENDBRANCH  12  17
ENDBRANCH  11  12
ENDBRANCH   1  11
TORSDOF 1
ENDMDL
