MODEL 1
REMARK VINA RESULT:    -3.963      0.000      0.000
REMARK INTER + INTRA:          -5.918
REMARK INTER:                  -5.353
REMARK INTRA:                  -0.565
REMARK UNBOUND:                -0.565
REMARK SMILES CCCCCCC=CC(=O)[O-]
REMARK SMILES IDX 5 1 6 2 7 3 8 4 9 5 10 6 11 7 4 8 3 9 2 10 1 11
REMARK H PARENT
REMARK Flexibility Score: inf
ROOT
ATOM      1  C   UNL     1       4.145  -1.901   3.023  1.00  0.00     0.004 C 
ENDROOT
BRANCH   1   2
ATOM      2  C   UNL     1       5.076  -3.128   2.984  1.00  0.00     0.027 C 
BRANCH   2   3
ATOM      3  C   UNL     1       4.440  -4.359   3.574  1.00  0.00    -0.025 C 
ATOM      4  C   UNL     1       3.937  -5.398   2.888  1.00  0.00     0.020 C 
BRANCH   4   5
ATOM      5  C   UNL     1       3.961  -5.578   1.421  1.00  0.00     0.064 C 
ATOM      6  O   UNL     1       2.950  -5.242   0.751  1.00  0.00    -0.545 OA
ATOM      7  O   UNL     1       5.045  -6.142   0.762  1.00  0.00    -0.545 OA
ENDBRANCH   4   5
ENDBRANCH   2   3
ENDBRANCH   1   2
BRANCH   1   8
ATOM      8  C   UNL     1       4.290  -1.038   4.291  1.00  0.00     0.000 C 
BRANCH   8   9
ATOM      9  C   UNL     1       2.936  -0.568   4.851  1.00  0.00    -0.000 C 
BRANCH   9  10
ATOM     10  C   UNL     1       2.382  -1.519   5.924  1.00  0.00    -0.003 C 
ATOM     11  C   UNL     1       3.473  -2.346   6.604  1.00  0.00     0.004 C 
ENDBRANCH   9  10
ENDBRANCH   8   9
ENDBRANCH   1   8
TORSDOF 6
ENDMDL
MODEL 2
REMARK VINA RESULT:    -3.849      3.688      5.278
REMARK INTER + INTRA:          -5.764
REMARK INTER:                  -5.014
REMARK INTRA:                  -0.750
REMARK UNBOUND:                -0.565
REMARK SMILES CCCCCCC=CC(=O)[O-]
REMARK SMILES IDX 5 1 6 2 7 3 8 4 9 5 10 6 11 7 4 8 3 9 2 10 1 11
REMARK H PARENT
REMARK Flexibility Score: inf
ROOT
ATOM      1  C   UNL     1       5.640  -1.595   2.986  1.00  0.00     0.004 C 
ENDROOT
BRANCH   1   2
ATOM      2  C   UNL     1       5.822  -0.511   4.065  1.00  0.00     0.027 C 
BRANCH   2   3
ATOM      3  C   UNL     1       5.770  -1.069   5.463  1.00  0.00    -0.025 C 
ATOM      4  C   UNL     1       4.874  -0.751   6.411  1.00  0.00     0.020 C 
BRANCH   4   5
ATOM      5  C   UNL     1       3.721   0.160   6.261  1.00  0.00     0.064 C 
ATOM      6  O   UNL     1       3.712   1.241   6.906  1.00  0.00    -0.545 OA
ATOM      7  O   UNL     1       2.628  -0.153   5.464  1.00  0.00    -0.545 OA
ENDBRANCH   4   5
ENDBRANCH   2   3
ENDBRANCH   1   2
BRANCH   1   8
ATOM      8  C   UNL     1       4.251  -2.261   2.987  1.00  0.00     0.000 C 
BRANCH   8   9
ATOM      9  C   UNL     1       4.320  -3.787   2.804  1.00  0.00    -0.000 C 
BRANCH   9  10
ATOM     10  C   UNL     1       4.846  -4.506   4.057  1.00  0.00    -0.003 C 
ATOM     11  C   UNL     1       3.984  -4.251   5.293  1.00  0.00     0.004 C 
ENDBRANCH   9  10
ENDBRANCH   8   9
ENDBRANCH   1   8
TORSDOF 6
ENDMDL
MODEL 3
REMARK VINA RESULT:    -3.821      1.311      1.749
REMARK INTER + INTRA:          -5.727
REMARK INTER:                  -5.411
REMARK INTRA:                  -0.316
REMARK UNBOUND:                -0.565
REMARK SMILES CCCCCCC=CC(=O)[O-]
REMARK SMILES IDX 5 1 6 2 7 3 8 4 9 5 10 6 11 7 4 8 3 9 2 10 1 11
REMARK H PARENT
REMARK Flexibility Score: inf
ROOT
ATOM      1  C   UNL     1       3.977  -1.507   3.259  1.00  0.00     0.004 C 
ENDROOT
BRANCH   1   2
ATOM      2  C   UNL     1       4.947  -2.674   2.999  1.00  0.00     0.027 C 
BRANCH   2   3
ATOM      3  C   UNL     1       4.581  -3.916   3.768  1.00  0.00    -0.025 C 
ATOM      4  C   UNL     1       4.190  -5.089   3.242  1.00  0.00     0.020 C 
BRANCH   4   5
ATOM      5  C   UNL     1       4.099  -5.422   1.806  1.00  0.00     0.064 C 
ATOM      6  O   UNL     1       5.112  -5.892   1.225  1.00  0.00    -0.545 OA
ATOM      7  O   UNL     1       2.947  -5.198   1.064  1.00  0.00    -0.545 OA
ENDBRANCH   4   5
ENDBRANCH   2   3
ENDBRANCH   1   2
BRANCH   1   8
ATOM      8  C   UNL     1       3.430  -1.450   4.698  1.00  0.00     0.000 C 
BRANCH   8   9
ATOM      9  C   UNL     1       3.395  -0.020   5.267  1.00  0.00    -0.000 C 
BRANCH   9  10
ATOM     10  C   UNL     1       4.076   0.082   6.641  1.00  0.00    -0.003 C 
ATOM     11  C   UNL     1       3.616   1.301   7.442  1.00  0.00     0.004 C 
ENDBRANCH   9  10
ENDBRANCH   8   9
ENDBRANCH   1   8
TORSDOF 6
ENDMDL
MODEL 4
REMARK VINA RESULT:    -3.778      1.412      2.396
REMARK INTER + INTRA:          -5.669
REMARK INTER:                  -5.235
REMARK INTRA:                  -0.433
REMARK UNBOUND:                -0.565
REMARK SMILES CCCCCCC=CC(=O)[O-]
REMARK SMILES IDX 5 1 6 2 7 3 8 4 9 5 10 6 11 7 4 8 3 9 2 10 1 11
REMARK H PARENT
REMARK Flexibility Score: inf
ROOT
ATOM      1  C   UNL     1       4.846  -3.956   3.919  1.00  0.00     0.004 C 
ENDROOT
BRANCH   1   2
ATOM      2  C   UNL     1       4.167  -5.200   3.316  1.00  0.00     0.027 C 
BRANCH   2   3
ATOM      3  C   UNL     1       3.767  -5.003   1.877  1.00  0.00    -0.025 C 
ATOM      4  C   UNL     1       3.831  -5.926   0.903  1.00  0.00     0.020 C 
BRANCH   4   5
ATOM      5  C   UNL     1       4.245  -7.336   1.053  1.00  0.00     0.064 C 
ATOM      6  O   UNL     1       5.345  -7.702   0.564  1.00  0.00    -0.545 OA
ATOM      7  O   UNL     1       3.443  -8.281   1.680  1.00  0.00    -0.545 OA
ENDBRANCH   4   5
ENDBRANCH   2   3
ENDBRANCH   1   2
BRANCH   1   8
ATOM      8  C   UNL     1       5.067  -2.808   2.915  1.00  0.00     0.000 C 
BRANCH   8   9
ATOM      9  C   UNL     1       4.198  -1.575   3.218  1.00  0.00    -0.000 C 
BRANCH   9  10
ATOM     10  C   UNL     1       3.704  -1.547   4.673  1.00  0.00    -0.003 C 
ATOM     11  C   UNL     1       2.773  -0.369   4.962  1.00  0.00     0.004 C 
ENDBRANCH   9  10
ENDBRANCH   8   9
ENDBRANCH   1   8
TORSDOF 6
ENDMDL
MODEL 5
REMARK VINA RESULT:    -3.766      1.063      1.319
REMARK INTER + INTRA:          -5.652
REMARK INTER:                  -5.241
REMARK INTRA:                  -0.411
REMARK UNBOUND:                -0.565
REMARK SMILES CCCCCCC=CC(=O)[O-]
REMARK SMILES IDX 5 1 6 2 7 3 8 4 9 5 10 6 11 7 4 8 3 9 2 10 1 11
REMARK H PARENT
REMARK Flexibility Score: inf
ROOT
ATOM      1  C   UNL     1       4.186  -2.079   3.081  1.00  0.00     0.004 C 
ENDROOT
BRANCH   1   2
ATOM      2  C   UNL     1       4.532  -3.434   3.726  1.00  0.00     0.027 C 
BRANCH   2   3
ATOM      3  C   UNL     1       5.514  -4.232   2.909  1.00  0.00    -0.025 C 
ATOM      4  C   UNL     1       5.223  -5.282   2.123  1.00  0.00     0.020 C 
BRANCH   4   5
ATOM      5  C   UNL     1       3.878  -5.828   1.847  1.00  0.00     0.064 C 
ATOM      6  O   UNL     1       3.479  -6.823   2.506  1.00  0.00    -0.545 OA
ATOM      7  O   UNL     1       3.054  -5.306   0.859  1.00  0.00    -0.545 OA
ENDBRANCH   4   5
ENDBRANCH   2   3
ENDBRANCH   1   2
BRANCH   1   8
ATOM      8  C   UNL     1       4.234  -0.885   4.054  1.00  0.00     0.000 C 
BRANCH   8   9
ATOM      9  C   UNL     1       2.902  -0.662   4.791  1.00  0.00    -0.000 C 
BRANCH   9  10
ATOM     10  C   UNL     1       2.948  -1.150   6.248  1.00  0.00    -0.003 C 
ATOM     11  C   UNL     1       1.798  -2.096   6.594  1.00  0.00     0.004 C 
ENDBRANCH   9  10
ENDBRANCH   8   9
ENDBRANCH   1   8
TORSDOF 6
ENDMDL
MODEL 6
REMARK VINA RESULT:    -3.763      3.689      5.541
REMARK INTER + INTRA:          -5.649
REMARK INTER:                  -4.815
REMARK INTRA:                  -0.834
REMARK UNBOUND:                -0.565
REMARK SMILES CCCCCCC=CC(=O)[O-]
REMARK SMILES IDX 5 1 6 2 7 3 8 4 9 5 10 6 11 7 4 8 3 9 2 10 1 11
REMARK H PARENT
REMARK Flexibility Score: inf
ROOT
ATOM      1  C   UNL     1       3.805  -3.569   5.592  1.00  0.00     0.004 C 
ENDROOT
BRANCH   1   2
ATOM      2  C   UNL     1       4.192  -2.781   6.857  1.00  0.00     0.027 C 
BRANCH   2   3
ATOM      3  C   UNL     1       5.157  -1.661   6.571  1.00  0.00    -0.025 C 
ATOM      4  C   UNL     1       4.836  -0.380   6.323  1.00  0.00     0.020 C 
BRANCH   4   5
ATOM      5  C   UNL     1       3.480   0.206   6.344  1.00  0.00     0.064 C 
ATOM      6  O   UNL     1       3.144   0.927   7.319  1.00  0.00    -0.545 OA
ATOM      7  O   UNL     1       2.551  -0.042   5.343  1.00  0.00    -0.545 OA
ENDBRANCH   4   5
ENDBRANCH   2   3
ENDBRANCH   1   2
BRANCH   1   8
ATOM      8  C   UNL     1       4.913  -3.632   4.523  1.00  0.00     0.000 C 
BRANCH   8   9
ATOM      9  C   UNL     1       4.405  -3.274   3.116  1.00  0.00    -0.000 C 
BRANCH   9  10
ATOM     10  C   UNL     1       4.364  -1.757   2.873  1.00  0.00    -0.003 C 
ATOM     11  C   UNL     1       5.756  -1.132   2.781  1.00  0.00     0.004 C 
ENDBRANCH   9  10
ENDBRANCH   8   9
ENDBRANCH   1   8
TORSDOF 6
ENDMDL
MODEL 7
REMARK VINA RESULT:    -3.763      3.216      5.596
REMARK INTER + INTRA:          -5.648
REMARK INTER:                  -5.385
REMARK INTRA:                  -0.263
REMARK UNBOUND:                -0.565
REMARK SMILES CCCCCCC=CC(=O)[O-]
REMARK SMILES IDX 5 1 6 2 7 3 8 4 9 5 10 6 11 7 4 8 3 9 2 10 1 11
REMARK H PARENT
REMARK Flexibility Score: inf
ROOT
ATOM      1  C   UNL     1       4.407  -3.424   3.537  1.00  0.00     0.004 C 
ENDROOT
BRANCH   1   2
ATOM      2  C   UNL     1       4.548  -1.993   2.985  1.00  0.00     0.027 C 
BRANCH   2   3
ATOM      3  C   UNL     1       5.166  -1.045   3.978  1.00  0.00    -0.025 C 
ATOM      4  C   UNL     1       4.538  -0.455   5.009  1.00  0.00     0.020 C 
BRANCH   4   5
ATOM      5  C   UNL     1       3.133  -0.662   5.417  1.00  0.00     0.064 C 
ATOM      6  O   UNL     1       2.226  -0.027   4.818  1.00  0.00    -0.545 OA
ATOM      7  O   UNL     1       2.782  -1.502   6.465  1.00  0.00    -0.545 OA
ENDBRANCH   4   5
ENDBRANCH   2   3
ENDBRANCH   1   2
BRANCH   1   8
ATOM      8  C   UNL     1       4.897  -4.523   2.575  1.00  0.00     0.000 C 
BRANCH   8   9
ATOM      9  C   UNL     1       3.743  -5.317   1.938  1.00  0.00    -0.000 C 
BRANCH   9  10
ATOM     10  C   UNL     1       4.198  -6.142   0.723  1.00  0.00    -0.003 C 
ATOM     11  C   UNL     1       5.704  -6.405   0.714  1.00  0.00     0.004 C 
ENDBRANCH   9  10
ENDBRANCH   8   9
ENDBRANCH   1   8
TORSDOF 6
ENDMDL
MODEL 8
REMARK VINA RESULT:    -3.695      3.493      4.238
REMARK INTER + INTRA:          -5.557
REMARK INTER:                  -4.912
REMARK INTRA:                  -0.645
REMARK UNBOUND:                -0.565
REMARK SMILES CCCCCCC=CC(=O)[O-]
REMARK SMILES IDX 5 1 6 2 7 3 8 4 9 5 10 6 11 7 4 8 3 9 2 10 1 11
REMARK H PARENT
REMARK Flexibility Score: inf
ROOT
ATOM      1  C   UNL     1       4.509  -3.088   3.116  1.00  0.00     0.004 C 
ENDROOT
BRANCH   1   2
ATOM      2  C   UNL     1       5.723  -3.413   4.006  1.00  0.00     0.027 C 
BRANCH   2   3
ATOM      3  C   UNL     1       7.025  -3.367   3.250  1.00  0.00    -0.025 C 
ATOM      4  C   UNL     1       7.907  -2.353   3.250  1.00  0.00     0.020 C 
BRANCH   4   5
ATOM      5  C   UNL     1       7.813  -1.106   4.036  1.00  0.00     0.064 C 
ATOM      6  O   UNL     1       7.526  -0.033   3.443  1.00  0.00    -0.545 OA
ATOM      7  O   UNL     1       8.069  -1.068   5.400  1.00  0.00    -0.545 OA
ENDBRANCH   4   5
ENDBRANCH   2   3
ENDBRANCH   1   2
BRANCH   1   8
ATOM      8  C   UNL     1       4.197  -1.584   2.995  1.00  0.00     0.000 C 
BRANCH   8   9
ATOM      9  C   UNL     1       4.205  -0.863   4.355  1.00  0.00    -0.000 C 
BRANCH   9  10
ATOM     10  C   UNL     1       2.788  -0.593   4.885  1.00  0.00    -0.003 C 
ATOM     11  C   UNL     1       2.406  -1.506   6.051  1.00  0.00     0.004 C 
ENDBRANCH   9  10
ENDBRANCH   8   9
ENDBRANCH   1   8
TORSDOF 6
ENDMDL
MODEL 9
REMARK VINA RESULT:    -3.687      4.224      6.049
REMARK INTER + INTRA:          -5.546
REMARK INTER:                  -5.080
REMARK INTRA:                  -0.466
REMARK UNBOUND:                -0.565
REMARK SMILES CCCCCCC=CC(=O)[O-]
REMARK SMILES IDX 5 1 6 2 7 3 8 4 9 5 10 6 11 7 4 8 3 9 2 10 1 11
REMARK H PARENT
REMARK Flexibility Score: inf
ROOT
ATOM      1  C   UNL     1       3.673  -1.690   4.506  1.00  0.00     0.004 C 
ENDROOT
BRANCH   1   2
ATOM      2  C   UNL     1       2.867  -0.448   4.931  1.00  0.00     0.027 C 
BRANCH   2   3
ATOM      3  C   UNL     1       3.612   0.420   5.911  1.00  0.00    -0.025 C 
ATOM      4  C   UNL     1       3.703   0.221   7.237  1.00  0.00     0.020 C 
BRANCH   4   5
ATOM      5  C   UNL     1       3.147  -0.918   7.996  1.00  0.00     0.064 C 
ATOM      6  O   UNL     1       3.909  -1.869   8.310  1.00  0.00    -0.545 OA
ATOM      7  O   UNL     1       1.804  -0.995   8.340  1.00  0.00    -0.545 OA
ENDBRANCH   4   5
ENDBRANCH   2   3
ENDBRANCH   1   2
BRANCH   1   8
ATOM      8  C   UNL     1       4.225  -1.623   3.069  1.00  0.00     0.000 C 
BRANCH   8   9
ATOM      9  C   UNL     1       5.758  -1.748   3.012  1.00  0.00    -0.000 C 
BRANCH   9  10
ATOM     10  C   UNL     1       6.470  -0.529   3.620  1.00  0.00    -0.003 C 
ATOM     11  C   UNL     1       7.459   0.124   2.654  1.00  0.00     0.004 C 
ENDBRANCH   9  10
ENDBRANCH   8   9
ENDBRANCH   1   8
TORSDOF 6
ENDMDL
