MODEL 1
REMARK VINA RESULT:    -5.800      0.000      0.000
REMARK INTER + INTRA:          -6.308
REMARK INTER:                  -6.308
REMARK INTRA:                   0.000
REMARK UNBOUND:                 0.000
REMARK SMILES Cc1cc(O)c2c(c1)C(=O)c1cc(O)cc(O)c1C2=O
REMARK SMILES IDX 1 1 2 2 8 3 7 4 6 5 4 6 3 7 19 8 20 9 18 10 11 11 9 12 10 13
REMARK SMILES IDX 12 14 13 15 15 16 16 17 5 18 17 20 14 22
REMARK H PARENT 5 19 17 21 14 23
REMARK Flexibility Score: inf
ROOT
ATOM      1  C   UNL     1       6.896   6.472  12.970  1.00  0.00     0.044 C 
ATOM      2  C   UNL     1       5.889   6.373  11.862  1.00  0.00    -0.047 A 
ATOM      3  C   UNL     1       4.573   6.801  12.065  1.00  0.00     0.016 A 
ATOM      4  C   UNL     1       3.635   6.752  11.020  1.00  0.00     0.038 A 
ATOM      5  C   UNL     1       4.026   6.293   9.743  1.00  0.00     0.076 A 
ATOM      6  C   UNL     1       5.350   5.818   9.555  1.00  0.00     0.127 A 
ATOM      7  C   UNL     1       6.272   5.894  10.604  1.00  0.00     0.050 A 
ATOM      8  C   UNL     1       3.048   6.396   8.629  1.00  0.00     0.201 C 
ATOM      9  O   UNL     1       3.456   6.562   7.449  1.00  0.00    -0.288 OA
ATOM     10  C   UNL     1       1.596   6.493   8.929  1.00  0.00     0.076 A 
ATOM     11  C   UNL     1       1.209   6.953  10.208  1.00  0.00     0.041 A 
ATOM     12  C   UNL     1       2.234   7.178  11.254  1.00  0.00     0.194 C 
ATOM     13  O   UNL     1       1.910   7.709  12.352  1.00  0.00    -0.289 OA
ATOM     14  C   UNL     1      -0.149   7.190  10.484  1.00  0.00     0.059 A 
ATOM     15  C   UNL     1      -1.121   6.960   9.511  1.00  0.00     0.120 A 
ATOM     16  C   UNL     1      -0.747   6.467   8.258  1.00  0.00     0.093 A 
ATOM     17  C   UNL     1       0.594   6.205   7.965  1.00  0.00     0.131 A 
ENDROOT
BRANCH   6  18
ATOM     18  O   UNL     1       5.781   5.235   8.361  1.00  0.00    -0.507 OA
ATOM     19  H   UNL     1       6.698   4.831   8.234  1.00  0.00     0.293 HD
ENDBRANCH   6  18
BRANCH  17  20
ATOM     20  O   UNL     1       0.883   5.627   6.726  1.00  0.00    -0.507 OA
ATOM     21  H   UNL     1       0.821   4.634   6.544  1.00  0.00     0.293 HD
ENDBRANCH  17  20
BRANCH  15  22
ATOM     22  O   UNL     1      -2.459   7.214   9.803  1.00  0.00    -0.508 OA
ATOM     23  H   UNL     1      -3.195   6.582   9.510  1.00  0.00     0.293 HD
ENDBRANCH  15  22
TORSDOF 3
ENDMDL
MODEL 2
REMARK VINA RESULT:    -5.669      1.646      2.082
REMARK INTER + INTRA:          -6.166
REMARK INTER:                  -6.166
REMARK INTRA:                   0.000
REMARK UNBOUND:                 0.000
REMARK SMILES Cc1cc(O)c2c(c1)C(=O)c1cc(O)cc(O)c1C2=O
REMARK SMILES IDX 1 1 2 2 8 3 7 4 6 5 4 6 3 7 19 8 20 9 18 10 11 11 9 12 10 13
REMARK SMILES IDX 12 14 13 15 15 16 16 17 5 18 17 20 14 22
REMARK H PARENT 5 19 17 21 14 23
REMARK Flexibility Score: inf
ROOT
ATOM      1  C   UNL     1       5.046   6.895  15.560  1.00  0.00     0.044 C 
ATOM      2  C   UNL     1       4.728   6.515  14.144  1.00  0.00    -0.047 A 
ATOM      3  C   UNL     1       3.630   7.083  13.491  1.00  0.00     0.016 A 
ATOM      4  C   UNL     1       3.351   6.766  12.151  1.00  0.00     0.038 A 
ATOM      5  C   UNL     1       4.200   5.887  11.443  1.00  0.00     0.076 A 
ATOM      6  C   UNL     1       5.287   5.278  12.124  1.00  0.00     0.127 A 
ATOM      7  C   UNL     1       5.556   5.624  13.452  1.00  0.00     0.050 A 
ATOM      8  C   UNL     1       3.958   5.693   9.991  1.00  0.00     0.201 C 
ATOM      9  O   UNL     1       4.922   5.433   9.223  1.00  0.00    -0.288 OA
ATOM     10  C   UNL     1       2.619   5.991   9.419  1.00  0.00     0.076 A 
ATOM     11  C   UNL     1       1.772   6.871  10.130  1.00  0.00     0.041 A 
ATOM     12  C   UNL     1       2.165   7.349  11.477  1.00  0.00     0.194 C 
ATOM     13  O   UNL     1       1.478   8.233  12.060  1.00  0.00    -0.289 OA
ATOM     14  C   UNL     1       0.557   7.287   9.559  1.00  0.00     0.059 A 
ATOM     15  C   UNL     1       0.172   6.825   8.301  1.00  0.00     0.120 A 
ATOM     16  C   UNL     1       0.986   5.923   7.611  1.00  0.00     0.093 A 
ATOM     17  C   UNL     1       2.190   5.480   8.167  1.00  0.00     0.131 A 
ENDROOT
BRANCH   6  18
ATOM     18  O   UNL     1       6.098   4.306  11.534  1.00  0.00    -0.507 OA
ATOM     19  H   UNL     1       6.790   3.771  12.042  1.00  0.00     0.293 HD
ENDBRANCH   6  18
BRANCH  17  20
ATOM     20  O   UNL     1       2.906   4.508   7.463  1.00  0.00    -0.507 OA
ATOM     21  H   UNL     1       3.891   4.328   7.604  1.00  0.00     0.293 HD
ENDBRANCH  17  20
BRANCH  15  22
ATOM     22  O   UNL     1      -1.031   7.261   7.748  1.00  0.00    -0.508 OA
ATOM     23  H   UNL     1      -1.143   8.205   7.396  1.00  0.00     0.293 HD
ENDBRANCH  15  22
TORSDOF 3
ENDMDL
MODEL 3
REMARK VINA RESULT:    -5.514      2.407      3.910
REMARK INTER + INTRA:          -5.998
REMARK INTER:                  -5.998
REMARK INTRA:                   0.000
REMARK UNBOUND:                 0.000
REMARK SMILES Cc1cc(O)c2c(c1)C(=O)c1cc(O)cc(O)c1C2=O
REMARK SMILES IDX 1 1 2 2 8 3 7 4 6 5 4 6 3 7 19 8 20 9 18 10 11 11 9 12 10 13
REMARK SMILES IDX 12 14 13 15 15 16 16 17 5 18 17 20 14 22
REMARK H PARENT 5 19 17 21 14 23
REMARK Flexibility Score: inf
ROOT
ATOM      1  C   UNL     1       2.495  10.125  15.318  1.00  0.00     0.044 C 
ATOM      2  C   UNL     1       2.792   9.003  14.366  1.00  0.00    -0.047 A 
ATOM      3  C   UNL     1       2.279   9.028  13.065  1.00  0.00     0.016 A 
ATOM      4  C   UNL     1       2.587   8.005  12.154  1.00  0.00     0.038 A 
ATOM      5  C   UNL     1       3.447   6.952  12.541  1.00  0.00     0.076 A 
ATOM      6  C   UNL     1       3.928   6.908  13.876  1.00  0.00     0.127 A 
ATOM      7  C   UNL     1       3.622   7.948  14.759  1.00  0.00     0.050 A 
ATOM      8  C   UNL     1       3.867   5.972  11.507  1.00  0.00     0.201 C 
ATOM      9  O   UNL     1       4.991   5.410  11.595  1.00  0.00    -0.288 OA
ATOM     10  C   UNL     1       3.049   5.798  10.279  1.00  0.00     0.076 A 
ATOM     11  C   UNL     1       2.191   6.853   9.895  1.00  0.00     0.041 A 
ATOM     12  C   UNL     1       2.013   8.023  10.787  1.00  0.00     0.194 C 
ATOM     13  O   UNL     1       1.351   9.023  10.393  1.00  0.00    -0.289 OA
ATOM     14  C   UNL     1       1.506   6.787   8.669  1.00  0.00     0.059 A 
ATOM     15  C   UNL     1       1.653   5.680   7.834  1.00  0.00     0.120 A 
ATOM     16  C   UNL     1       2.468   4.616   8.228  1.00  0.00     0.093 A 
ATOM     17  C   UNL     1       3.145   4.649   9.451  1.00  0.00     0.131 A 
ENDROOT
BRANCH   6  18
ATOM     18  O   UNL     1       4.679   5.841  14.372  1.00  0.00    -0.507 OA
ATOM     19  H   UNL     1       4.837   4.983  13.862  1.00  0.00     0.293 HD
ENDBRANCH   6  18
BRANCH  17  20
ATOM     20  O   UNL     1       3.868   3.511   9.820  1.00  0.00    -0.507 OA
ATOM     21  H   UNL     1       3.441   2.676  10.197  1.00  0.00     0.293 HD
ENDBRANCH  17  20
BRANCH  15  22
ATOM     22  O   UNL     1       0.974   5.641   6.618  1.00  0.00    -0.508 OA
ATOM     23  H   UNL     1       1.411   5.281   5.778  1.00  0.00     0.293 HD
ENDBRANCH  15  22
TORSDOF 3
ENDMDL
MODEL 4
REMARK VINA RESULT:    -5.405      1.737      3.469
REMARK INTER + INTRA:          -5.879
REMARK INTER:                  -5.879
REMARK INTRA:                   0.000
REMARK UNBOUND:                 0.000
REMARK SMILES Cc1cc(O)c2c(c1)C(=O)c1cc(O)cc(O)c1C2=O
REMARK SMILES IDX 1 1 2 2 8 3 7 4 6 5 4 6 3 7 19 8 20 9 18 10 11 11 9 12 10 13
REMARK SMILES IDX 12 14 13 15 15 16 16 17 5 18 17 20 14 22
REMARK H PARENT 5 19 17 21 14 23
REMARK Flexibility Score: inf
ROOT
ATOM      1  C   UNL     1       7.149   5.181  14.021  1.00  0.00     0.044 C 
ATOM      2  C   UNL     1       5.981   5.845  13.353  1.00  0.00    -0.047 A 
ATOM      3  C   UNL     1       5.361   5.242  12.254  1.00  0.00     0.016 A 
ATOM      4  C   UNL     1       4.240   5.835  11.649  1.00  0.00     0.038 A 
ATOM      5  C   UNL     1       3.712   7.037  12.171  1.00  0.00     0.076 A 
ATOM      6  C   UNL     1       4.371   7.667  13.258  1.00  0.00     0.127 A 
ATOM      7  C   UNL     1       5.474   7.049  13.855  1.00  0.00     0.050 A 
ATOM      8  C   UNL     1       2.441   7.552  11.599  1.00  0.00     0.201 C 
ATOM      9  O   UNL     1       1.651   8.215  12.323  1.00  0.00    -0.288 OA
ATOM     10  C   UNL     1       2.017   7.127  10.240  1.00  0.00     0.076 A 
ATOM     11  C   UNL     1       2.548   5.925   9.722  1.00  0.00     0.041 A 
ATOM     12  C   UNL     1       3.610   5.205  10.464  1.00  0.00     0.194 C 
ATOM     13  O   UNL     1       3.995   4.068  10.073  1.00  0.00    -0.289 OA
ATOM     14  C   UNL     1       2.069   5.417   8.501  1.00  0.00     0.059 A 
ATOM     15  C   UNL     1       1.085   6.100   7.788  1.00  0.00     0.120 A 
ATOM     16  C   UNL     1       0.586   7.311   8.275  1.00  0.00     0.093 A 
ATOM     17  C   UNL     1       1.060   7.846   9.477  1.00  0.00     0.131 A 
ENDROOT
BRANCH   6  18
ATOM     18  O   UNL     1       3.987   8.916  13.753  1.00  0.00    -0.507 OA
ATOM     19  H   UNL     1       3.564   9.052  14.660  1.00  0.00     0.293 HD
ENDBRANCH   6  18
BRANCH  17  20
ATOM     20  O   UNL     1       0.583   9.104   9.856  1.00  0.00    -0.507 OA
ATOM     21  H   UNL     1       0.953   9.973   9.497  1.00  0.00     0.293 HD
ENDBRANCH  17  20
BRANCH  15  22
ATOM     22  O   UNL     1       0.616   5.573   6.587  1.00  0.00    -0.508 OA
ATOM     23  H   UNL     1      -0.174   4.940   6.557  1.00  0.00     0.293 HD
ENDBRANCH  15  22
TORSDOF 3
ENDMDL
MODEL 5
REMARK VINA RESULT:    -5.267      2.130      2.628
REMARK INTER + INTRA:          -5.729
REMARK INTER:                  -5.729
REMARK INTRA:                   0.000
REMARK UNBOUND:                 0.000
REMARK SMILES Cc1cc(O)c2c(c1)C(=O)c1cc(O)cc(O)c1C2=O
REMARK SMILES IDX 1 1 2 2 8 3 7 4 6 5 4 6 3 7 19 8 20 9 18 10 11 11 9 12 10 13
REMARK SMILES IDX 12 14 13 15 15 16 16 17 5 18 17 20 14 22
REMARK H PARENT 5 19 17 21 14 23
REMARK Flexibility Score: inf
ROOT
ATOM      1  C   UNL     1       7.669   2.319  10.561  1.00  0.00     0.044 C 
ATOM      2  C   UNL     1       6.617   3.004   9.740  1.00  0.00    -0.047 A 
ATOM      3  C   UNL     1       5.615   3.756  10.362  1.00  0.00     0.016 A 
ATOM      4  C   UNL     1       4.652   4.437   9.598  1.00  0.00     0.038 A 
ATOM      5  C   UNL     1       4.708   4.388   8.188  1.00  0.00     0.076 A 
ATOM      6  C   UNL     1       5.699   3.587   7.562  1.00  0.00     0.127 A 
ATOM      7  C   UNL     1       6.658   2.934   8.343  1.00  0.00     0.050 A 
ATOM      8  C   UNL     1       3.764   5.239   7.417  1.00  0.00     0.201 C 
ATOM      9  O   UNL     1       4.100   5.683   6.287  1.00  0.00    -0.288 OA
ATOM     10  C   UNL     1       2.512   5.718   8.057  1.00  0.00     0.076 A 
ATOM     11  C   UNL     1       2.460   5.766   9.468  1.00  0.00     0.041 A 
ATOM     12  C   UNL     1       3.575   5.206  10.268  1.00  0.00     0.194 C 
ATOM     13  O   UNL     1       3.594   5.361  11.520  1.00  0.00    -0.289 OA
ATOM     14  C   UNL     1       1.349   6.341  10.108  1.00  0.00     0.059 A 
ATOM     15  C   UNL     1       0.287   6.852   9.362  1.00  0.00     0.120 A 
ATOM     16  C   UNL     1       0.315   6.770   7.967  1.00  0.00     0.093 A 
ATOM     17  C   UNL     1       1.400   6.185   7.308  1.00  0.00     0.131 A 
ENDROOT
BRANCH   6  18
ATOM     18  O   UNL     1       5.747   3.387   6.181  1.00  0.00    -0.507 OA
ATOM     19  H   UNL     1       6.414   2.778   5.727  1.00  0.00     0.293 HD
ENDBRANCH   6  18
BRANCH  17  20
ATOM     20  O   UNL     1       1.318   6.056   5.919  1.00  0.00    -0.507 OA
ATOM     21  H   UNL     1       0.444   6.026   5.411  1.00  0.00     0.293 HD
ENDBRANCH  17  20
BRANCH  15  22
ATOM     22  O   UNL     1      -0.798   7.429  10.017  1.00  0.00    -0.508 OA
ATOM     23  H   UNL     1      -1.420   8.077   9.546  1.00  0.00     0.293 HD
ENDBRANCH  15  22
TORSDOF 3
ENDMDL
MODEL 6
REMARK VINA RESULT:    -5.237     16.883     18.087
REMARK INTER + INTRA:          -5.696
REMARK INTER:                  -5.696
REMARK INTRA:                   0.000
REMARK UNBOUND:                 0.000
REMARK SMILES Cc1cc(O)c2c(c1)C(=O)c1cc(O)cc(O)c1C2=O
REMARK SMILES IDX 1 1 2 2 8 3 7 4 6 5 4 6 3 7 19 8 20 9 18 10 11 11 9 12 10 13
REMARK SMILES IDX 12 14 13 15 15 16 16 17 5 18 17 20 14 22
REMARK H PARENT 5 19 17 21 14 23
REMARK Flexibility Score: inf
ROOT
ATOM      1  C   UNL     1     -12.123  -5.280   8.603  1.00  0.00     0.044 C 
ATOM      2  C   UNL     1     -10.773  -5.902   8.808  1.00  0.00    -0.047 A 
ATOM      3  C   UNL     1     -10.307  -6.164  10.100  1.00  0.00     0.016 A 
ATOM      4  C   UNL     1      -9.063  -6.786  10.301  1.00  0.00     0.038 A 
ATOM      5  C   UNL     1      -8.285  -7.179   9.189  1.00  0.00     0.076 A 
ATOM      6  C   UNL     1      -8.742  -6.870   7.881  1.00  0.00     0.127 A 
ATOM      7  C   UNL     1      -9.992  -6.268   7.706  1.00  0.00     0.050 A 
ATOM      8  C   UNL     1      -7.049  -7.964   9.439  1.00  0.00     0.201 C 
ATOM      9  O   UNL     1      -6.650  -8.796   8.580  1.00  0.00    -0.288 OA
ATOM     10  C   UNL     1      -6.396  -7.908  10.772  1.00  0.00     0.076 A 
ATOM     11  C   UNL     1      -7.177  -7.515  11.881  1.00  0.00     0.041 A 
ATOM     12  C   UNL     1      -8.562  -7.030  11.675  1.00  0.00     0.194 C 
ATOM     13  O   UNL     1      -9.306  -6.801  12.668  1.00  0.00    -0.289 OA
ATOM     14  C   UNL     1      -6.636  -7.581  13.177  1.00  0.00     0.059 A 
ATOM     15  C   UNL     1      -5.327  -8.017  13.376  1.00  0.00     0.120 A 
ATOM     16  C   UNL     1      -4.536  -8.368  12.279  1.00  0.00     0.093 A 
ATOM     17  C   UNL     1      -5.045  -8.292  10.979  1.00  0.00     0.131 A 
ENDROOT
BRANCH   6  18
ATOM     18  O   UNL     1      -7.978  -7.112   6.737  1.00  0.00    -0.507 OA
ATOM     19  H   UNL     1      -7.255  -7.817   6.686  1.00  0.00     0.293 HD
ENDBRANCH   6  18
BRANCH  17  20
ATOM     20  O   UNL     1      -4.169  -8.570   9.926  1.00  0.00    -0.507 OA
ATOM     21  H   UNL     1      -3.830  -7.869   9.282  1.00  0.00     0.293 HD
ENDBRANCH  17  20
BRANCH  15  22
ATOM     22  O   UNL     1      -4.815  -8.087  14.670  1.00  0.00    -0.508 OA
ATOM     23  H   UNL     1      -3.820  -8.169  14.844  1.00  0.00     0.293 HD
ENDBRANCH  15  22
TORSDOF 3
ENDMDL
MODEL 7
REMARK VINA RESULT:    -5.220      2.606      4.190
REMARK INTER + INTRA:          -5.677
REMARK INTER:                  -5.677
REMARK INTRA:                   0.000
REMARK UNBOUND:                 0.000
REMARK SMILES Cc1cc(O)c2c(c1)C(=O)c1cc(O)cc(O)c1C2=O
REMARK SMILES IDX 1 1 2 2 8 3 7 4 6 5 4 6 3 7 19 8 20 9 18 10 11 11 9 12 10 13
REMARK SMILES IDX 12 14 13 15 15 16 16 17 5 18 17 20 14 22
REMARK H PARENT 5 19 17 21 14 23
REMARK Flexibility Score: inf
ROOT
ATOM      1  C   UNL     1       8.103   1.330   8.831  1.00  0.00     0.044 C 
ATOM      2  C   UNL     1       7.129   2.343   9.359  1.00  0.00    -0.047 A 
ATOM      3  C   UNL     1       5.981   2.665   8.628  1.00  0.00     0.016 A 
ATOM      4  C   UNL     1       5.043   3.579   9.134  1.00  0.00     0.038 A 
ATOM      5  C   UNL     1       5.241   4.160  10.407  1.00  0.00     0.076 A 
ATOM      6  C   UNL     1       6.430   3.864  11.124  1.00  0.00     0.127 A 
ATOM      7  C   UNL     1       7.340   2.937  10.608  1.00  0.00     0.050 A 
ATOM      8  C   UNL     1       4.156   5.005  10.970  1.00  0.00     0.201 C 
ATOM      9  O   UNL     1       3.994   5.067  12.218  1.00  0.00    -0.288 OA
ATOM     10  C   UNL     1       3.153   5.620  10.063  1.00  0.00     0.076 A 
ATOM     11  C   UNL     1       2.958   5.036   8.791  1.00  0.00     0.041 A 
ATOM     12  C   UNL     1       3.845   3.939   8.337  1.00  0.00     0.194 C 
ATOM     13  O   UNL     1       3.596   3.329   7.261  1.00  0.00    -0.289 OA
ATOM     14  C   UNL     1       1.924   5.501   7.959  1.00  0.00     0.059 A 
ATOM     15  C   UNL     1       1.099   6.546   8.372  1.00  0.00     0.120 A 
ATOM     16  C   UNL     1       1.314   7.155   9.611  1.00  0.00     0.093 A 
ATOM     17  C   UNL     1       2.347   6.723  10.448  1.00  0.00     0.131 A 
ENDROOT
BRANCH   6  18
ATOM     18  O   UNL     1       6.759   4.489  12.329  1.00  0.00    -0.507 OA
ATOM     19  H   UNL     1       7.709   4.633  12.643  1.00  0.00     0.293 HD
ENDBRANCH   6  18
BRANCH  17  20
ATOM     20  O   UNL     1       2.561   7.437  11.630  1.00  0.00    -0.507 OA
ATOM     21  H   UNL     1       1.850   7.998  12.080  1.00  0.00     0.293 HD
ENDBRANCH  17  20
BRANCH  15  22
ATOM     22  O   UNL     1       0.073   6.983   7.536  1.00  0.00    -0.508 OA
ATOM     23  H   UNL     1      -0.902   6.854   7.781  1.00  0.00     0.293 HD
ENDBRANCH  15  22
TORSDOF 3
ENDMDL
MODEL 8
REMARK VINA RESULT:    -5.210     16.473     16.793
REMARK INTER + INTRA:          -5.667
REMARK INTER:                  -5.667
REMARK INTRA:                   0.000
REMARK UNBOUND:                 0.000
REMARK SMILES Cc1cc(O)c2c(c1)C(=O)c1cc(O)cc(O)c1C2=O
REMARK SMILES IDX 1 1 2 2 8 3 7 4 6 5 4 6 3 7 19 8 20 9 18 10 11 11 9 12 10 13
REMARK SMILES IDX 12 14 13 15 15 16 16 17 5 18 17 20 14 22
REMARK H PARENT 5 19 17 21 14 23
REMARK Flexibility Score: inf
ROOT
ATOM      1  C   UNL     1      -1.943 -10.124  14.323  1.00  0.00     0.044 C 
ATOM      2  C   UNL     1      -2.760  -9.628  13.167  1.00  0.00    -0.047 A 
ATOM      3  C   UNL     1      -3.959  -8.945  13.393  1.00  0.00     0.016 A 
ATOM      4  C   UNL     1      -4.708  -8.438  12.317  1.00  0.00     0.038 A 
ATOM      5  C   UNL     1      -4.236  -8.592  10.995  1.00  0.00     0.076 A 
ATOM      6  C   UNL     1      -3.041  -9.325  10.769  1.00  0.00     0.127 A 
ATOM      7  C   UNL     1      -2.303  -9.803  11.856  1.00  0.00     0.050 A 
ATOM      8  C   UNL     1      -4.978  -7.915   9.900  1.00  0.00     0.201 C 
ATOM      9  O   UNL     1      -4.362  -7.527   8.872  1.00  0.00    -0.288 OA
ATOM     10  C   UNL     1      -6.398  -7.529  10.100  1.00  0.00     0.076 A 
ATOM     11  C   UNL     1      -6.867  -7.376  11.425  1.00  0.00     0.041 A 
ATOM     12  C   UNL     1      -5.995  -7.744  12.565  1.00  0.00     0.194 C 
ATOM     13  O   UNL     1      -6.359  -7.489  13.746  1.00  0.00    -0.289 OA
ATOM     14  C   UNL     1      -8.162  -6.879  11.655  1.00  0.00     0.059 A 
ATOM     15  C   UNL     1      -8.995  -6.550  10.586  1.00  0.00     0.120 A 
ATOM     16  C   UNL     1      -8.551  -6.738   9.275  1.00  0.00     0.093 A 
ATOM     17  C   UNL     1      -7.275  -7.249   9.020  1.00  0.00     0.131 A 
ENDROOT
BRANCH   6  18
ATOM     18  O   UNL     1      -2.572  -9.627   9.489  1.00  0.00    -0.507 OA
ATOM     19  H   UNL     1      -1.625  -9.924   9.295  1.00  0.00     0.293 HD
ENDBRANCH   6  18
BRANCH  17  20
ATOM     20  O   UNL     1      -6.934  -7.496   7.687  1.00  0.00    -0.507 OA
ATOM     21  H   UNL     1      -6.687  -8.411   7.334  1.00  0.00     0.293 HD
ENDBRANCH  17  20
BRANCH  15  22
ATOM     22  O   UNL     1     -10.270  -6.048  10.838  1.00  0.00    -0.508 OA
ATOM     23  H   UNL     1     -11.102  -6.598  10.659  1.00  0.00     0.293 HD
ENDBRANCH  15  22
TORSDOF 3
ENDMDL
