MODEL 1
REMARK VINA RESULT:    -7.499      0.000      0.000
REMARK INTER + INTRA:         -11.407
REMARK INTER:                  -9.471
REMARK INTRA:                  -1.935
REMARK UNBOUND:                -1.935
REMARK SMILES CC(C)[C@@H](C)C=C[C@@H](C)[C@@H]1CC[C@@H]2C3=CC=C4C[C@H](O)CC[C@@]4(C)[C@H]3CC[C@]21C
REMARK SMILES IDX 8 1 9 2 7 3 6 4 4 5 5 6 2 7 1 8 3 9 10 10 11 11 28 12 12 13
REMARK SMILES IDX 13 14 27 15 29 16 14 17 26 18 25 19 15 20 23 21 16 22 17 23
REMARK SMILES IDX 22 24 24 25 18 26 21 27 19 28 20 29
REMARK H PARENT 20 30
REMARK Flexibility Score: inf
ROOT
ATOM      1  C   UNL     1     114.625 123.304 128.790  1.00  0.00     0.012 C 
ATOM      2  C   UNL     1     113.393 122.982 127.928  1.00  0.00     0.012 C 
ENDROOT
BRANCH   1   3
ATOM      3  C   UNL     1     115.730 123.768 127.864  1.00  0.00    -0.028 C 
ATOM      4  C   UNL     1     116.536 124.831 128.056  1.00  0.00    -0.028 C 
BRANCH   4   5
ATOM      5  C   UNL     1     116.510 125.764 129.261  1.00  0.00     0.011 C 
ATOM      6  C   UNL     1     115.600 126.971 128.988  1.00  0.00     0.012 C 
BRANCH   5   7
ATOM      7  C   UNL     1     117.936 126.211 129.708  1.00  0.00    -0.011 C 
ATOM      8  C   UNL     1     119.082 125.471 128.993  1.00  0.00     0.008 C 
ATOM      9  C   UNL     1     118.103 126.111 131.233  1.00  0.00     0.008 C 
ENDBRANCH   5   7
ENDBRANCH   4   5
ENDBRANCH   1   3
BRANCH   1  10
ATOM     10  C   UNL     1     115.069 122.045 129.600  1.00  0.00     0.002 C 
ATOM     11  C   UNL     1     113.864 121.242 130.152  1.00  0.00     0.005 C 
ATOM     12  C   UNL     1     115.972 122.266 130.850  1.00  0.00    -0.023 C 
ATOM     13  C   UNL     1     114.302 120.642 131.495  1.00  0.00     0.009 C 
ATOM     14  C   UNL     1     115.798 120.922 131.561  1.00  0.00     0.021 C 
ATOM     15  C   UNL     1     117.479 122.409 130.552  1.00  0.00     0.008 C 
ATOM     16  C   UNL     1     115.464 123.472 131.697  1.00  0.00     0.012 C 
ATOM     17  C   UNL     1     116.503 120.867 132.892  1.00  0.00    -0.063 C 
ATOM     18  C   UNL     1     118.350 122.407 131.833  1.00  0.00     0.009 C 
ATOM     19  C   UNL     1     117.821 121.607 133.085  1.00  0.00     0.025 C 
ATOM     20  C   UNL     1     116.069 120.064 133.871  1.00  0.00    -0.000 C 
ATOM     21  C   UNL     1     118.901 120.711 133.804  1.00  0.00    -0.005 C 
ATOM     22  C   UNL     1     116.936 119.714 135.004  1.00  0.00    -0.000 C 
ATOM     23  C   UNL     1     118.261 119.962 134.979  1.00  0.00    -0.061 C 
ATOM     24  C   UNL     1     119.491 119.619 132.861  1.00  0.00     0.014 C 
ATOM     25  C   UNL     1     120.025 121.645 134.333  1.00  0.00     0.017 C 
ATOM     26  C   UNL     1     119.158 119.056 135.784  1.00  0.00     0.063 C 
ATOM     27  C   UNL     1     120.400 118.607 133.602  1.00  0.00     0.033 C 
ATOM     28  C   UNL     1     119.722 117.979 134.838  1.00  0.00     0.118 C 
BRANCH  28  29
ATOM     29  O   UNL     1     120.658 117.187 135.521  1.00  0.00    -0.393 OA
ATOM     30  H   UNL     1     121.519 117.278 135.036  1.00  0.00     0.210 HD
ENDBRANCH  28  29
ENDBRANCH   1  10
TORSDOF 5
ENDMDL
MODEL 2
REMARK VINA RESULT:    -7.177      2.957      7.103
REMARK INTER + INTRA:         -11.000
REMARK INTER:                  -9.671
REMARK INTRA:                  -1.329
REMARK UNBOUND:                -1.935
REMARK SMILES CC(C)[C@@H](C)C=C[C@@H](C)[C@@H]1CC[C@@H]2C3=CC=C4C[C@H](O)CC[C@@]4(C)[C@H]3CC[C@]21C
REMARK SMILES IDX 8 1 9 2 7 3 6 4 4 5 5 6 2 7 1 8 3 9 10 10 11 11 28 12 12 13
REMARK SMILES IDX 13 14 27 15 29 16 14 17 26 18 25 19 15 20 23 21 16 22 17 23
REMARK SMILES IDX 22 24 24 25 18 26 21 27 19 28 20 29
REMARK H PARENT 20 30
REMARK Flexibility Score: inf
ROOT
ATOM      1  C   UNL     1     115.077 120.326 133.085  1.00  0.00     0.012 C 
ATOM      2  C   UNL     1     113.633 119.909 132.763  1.00  0.00     0.012 C 
ENDROOT
BRANCH   1   3
ATOM      3  C   UNL     1     115.318 120.065 134.557  1.00  0.00    -0.028 C 
ATOM      4  C   UNL     1     116.505 119.782 135.131  1.00  0.00    -0.028 C 
BRANCH   4   5
ATOM      5  C   UNL     1     117.845 119.693 134.412  1.00  0.00     0.011 C 
ATOM      6  C   UNL     1     118.498 118.324 134.655  1.00  0.00     0.012 C 
BRANCH   5   7
ATOM      7  C   UNL     1     118.808 120.862 134.787  1.00  0.00    -0.011 C 
ATOM      8  C   UNL     1     120.298 120.471 134.809  1.00  0.00     0.008 C 
ATOM      9  C   UNL     1     118.407 121.515 136.119  1.00  0.00     0.008 C 
ENDBRANCH   5   7
ENDBRANCH   4   5
ENDBRANCH   1   3
BRANCH   1  10
ATOM     10  C   UNL     1     115.298 121.834 132.744  1.00  0.00     0.002 C 
ATOM     11  C   UNL     1     113.984 122.545 132.332  1.00  0.00     0.005 C 
ATOM     12  C   UNL     1     116.285 122.182 131.590  1.00  0.00    -0.023 C 
ATOM     13  C   UNL     1     114.355 123.606 131.287  1.00  0.00     0.009 C 
ATOM     14  C   UNL     1     115.879 123.629 131.302  1.00  0.00     0.021 C 
ATOM     15  C   UNL     1     117.774 122.219 131.992  1.00  0.00     0.008 C 
ATOM     16  C   UNL     1     116.071 121.235 130.370  1.00  0.00     0.012 C 
ATOM     17  C   UNL     1     116.621 124.224 130.132  1.00  0.00    -0.063 C 
ATOM     18  C   UNL     1     118.686 122.780 130.872  1.00  0.00     0.009 C 
ATOM     19  C   UNL     1     118.068 123.828 129.870  1.00  0.00     0.025 C 
ATOM     20  C   UNL     1     116.081 125.206 129.400  1.00  0.00    -0.000 C 
ATOM     21  C   UNL     1     118.979 125.080 129.573  1.00  0.00    -0.005 C 
ATOM     22  C   UNL     1     116.914 126.043 128.525  1.00  0.00    -0.000 C 
ATOM     23  C   UNL     1     118.258 126.037 128.617  1.00  0.00    -0.061 C 
ATOM     24  C   UNL     1     119.292 125.904 130.859  1.00  0.00     0.014 C 
ATOM     25  C   UNL     1     120.292 124.574 128.913  1.00  0.00     0.017 C 
ATOM     26  C   UNL     1     118.993 127.294 128.222  1.00  0.00     0.063 C 
ATOM     27  C   UNL     1     120.013 127.242 130.559  1.00  0.00     0.033 C 
ATOM     28  C   UNL     1     119.283 128.098 129.503  1.00  0.00     0.118 C 
BRANCH  28  29
ATOM     29  O   UNL     1     120.072 129.217 129.195  1.00  0.00    -0.393 OA
ATOM     30  H   UNL     1     120.305 129.147 128.232  1.00  0.00     0.210 HD
ENDBRANCH  28  29
ENDBRANCH   1  10
TORSDOF 5
ENDMDL
MODEL 3
REMARK VINA RESULT:    -6.701      3.194      6.106
REMARK INTER + INTRA:         -10.400
REMARK INTER:                  -8.501
REMARK INTRA:                  -1.898
REMARK UNBOUND:                -1.935
REMARK SMILES CC(C)[C@@H](C)C=C[C@@H](C)[C@@H]1CC[C@@H]2C3=CC=C4C[C@H](O)CC[C@@]4(C)[C@H]3CC[C@]21C
REMARK SMILES IDX 8 1 9 2 7 3 6 4 4 5 5 6 2 7 1 8 3 9 10 10 11 11 28 12 12 13
REMARK SMILES IDX 13 14 27 15 29 16 14 17 26 18 25 19 15 20 23 21 16 22 17 23
REMARK SMILES IDX 22 24 24 25 18 26 21 27 19 28 20 29
REMARK H PARENT 20 30
REMARK Flexibility Score: inf
ROOT
ATOM      1  C   UNL     1     115.374 121.007 132.876  1.00  0.00     0.012 C 
ATOM      2  C   UNL     1     115.215 120.300 134.232  1.00  0.00     0.012 C 
ENDROOT
BRANCH   1   3
ATOM      3  C   UNL     1     114.396 120.377 131.907  1.00  0.00    -0.028 C 
ATOM      4  C   UNL     1     113.623 121.033 131.018  1.00  0.00    -0.028 C 
BRANCH   4   5
ATOM      5  C   UNL     1     113.601 122.540 130.795  1.00  0.00     0.011 C 
ATOM      6  C   UNL     1     112.485 123.192 131.626  1.00  0.00     0.012 C 
BRANCH   5   7
ATOM      7  C   UNL     1     113.492 122.924 129.287  1.00  0.00    -0.011 C 
ATOM      8  C   UNL     1     113.817 121.773 128.317  1.00  0.00     0.008 C 
ATOM      9  C   UNL     1     114.348 124.158 128.959  1.00  0.00     0.008 C 
ENDBRANCH   5   7
ENDBRANCH   4   5
ENDBRANCH   1   3
BRANCH   1  10
ATOM     10  C   UNL     1     116.840 120.867 132.356  1.00  0.00     0.002 C 
ATOM     11  C   UNL     1     117.884 120.954 133.499  1.00  0.00     0.005 C 
ATOM     12  C   UNL     1     117.345 121.909 131.313  1.00  0.00    -0.023 C 
ATOM     13  C   UNL     1     119.132 121.630 132.917  1.00  0.00     0.009 C 
ATOM     14  C   UNL     1     118.857 121.700 131.420  1.00  0.00     0.021 C 
ATOM     15  C   UNL     1     116.966 121.606 129.849  1.00  0.00     0.008 C 
ATOM     16  C   UNL     1     116.900 123.350 131.707  1.00  0.00     0.012 C 
ATOM     17  C   UNL     1     119.643 122.664 130.568  1.00  0.00    -0.063 C 
ATOM     18  C   UNL     1     117.670 122.543 128.838  1.00  0.00     0.009 C 
ATOM     19  C   UNL     1     119.083 123.125 129.228  1.00  0.00     0.025 C 
ATOM     20  C   UNL     1     120.892 123.015 130.897  1.00  0.00    -0.000 C 
ATOM     21  C   UNL     1     120.165 123.064 128.084  1.00  0.00    -0.005 C 
ATOM     22  C   UNL     1     121.790 123.629 129.909  1.00  0.00    -0.000 C 
ATOM     23  C   UNL     1     121.498 123.625 128.593  1.00  0.00    -0.061 C 
ATOM     24  C   UNL     1     120.456 121.606 127.618  1.00  0.00     0.014 C 
ATOM     25  C   UNL     1     119.657 123.928 126.896  1.00  0.00     0.017 C 
ATOM     26  C   UNL     1     122.650 123.645 127.620  1.00  0.00     0.063 C 
ATOM     27  C   UNL     1     121.655 121.510 126.641  1.00  0.00     0.033 C 
ATOM     28  C   UNL     1     122.929 122.195 127.180  1.00  0.00     0.118 C 
BRANCH  28  29
ATOM     29  O   UNL     1     123.914 122.182 126.181  1.00  0.00    -0.393 OA
ATOM     30  H   UNL     1     124.087 123.128 125.935  1.00  0.00     0.210 HD
ENDBRANCH  28  29
ENDBRANCH   1  10
TORSDOF 5
ENDMDL
MODEL 4
REMARK VINA RESULT:    -6.680      3.917      6.490
REMARK INTER + INTRA:         -10.372
REMARK INTER:                  -8.595
REMARK INTRA:                  -1.777
REMARK UNBOUND:                -1.935
REMARK SMILES CC(C)[C@@H](C)C=C[C@@H](C)[C@@H]1CC[C@@H]2C3=CC=C4C[C@H](O)CC[C@@]4(C)[C@H]3CC[C@]21C
REMARK SMILES IDX 8 1 9 2 7 3 6 4 4 5 5 6 2 7 1 8 3 9 10 10 11 11 28 12 12 13
REMARK SMILES IDX 13 14 27 15 29 16 14 17 26 18 25 19 15 20 23 21 16 22 17 23
REMARK SMILES IDX 22 24 24 25 18 26 21 27 19 28 20 29
REMARK H PARENT 20 30
REMARK Flexibility Score: inf
ROOT
ATOM      1  C   UNL     1     116.031 125.464 130.061  1.00  0.00     0.012 C 
ATOM      2  C   UNL     1     115.937 126.995 130.164  1.00  0.00     0.012 C 
ENDROOT
BRANCH   1   3
ATOM      3  C   UNL     1     115.899 124.896 131.458  1.00  0.00    -0.028 C 
ATOM      4  C   UNL     1     115.108 123.870 131.829  1.00  0.00    -0.028 C 
BRANCH   4   5
ATOM      5  C   UNL     1     114.206 123.060 130.905  1.00  0.00     0.011 C 
ATOM      6  C   UNL     1     112.727 123.339 131.215  1.00  0.00     0.012 C 
BRANCH   5   7
ATOM      7  C   UNL     1     114.521 121.533 130.942  1.00  0.00    -0.011 C 
ATOM      8  C   UNL     1     114.140 120.778 129.654  1.00  0.00     0.008 C 
ATOM      9  C   UNL     1     113.882 120.857 132.166  1.00  0.00     0.008 C 
ENDBRANCH   5   7
ENDBRANCH   4   5
ENDBRANCH   1   3
BRANCH   1  10
ATOM     10  C   UNL     1     117.390 125.044 129.415  1.00  0.00     0.002 C 
ATOM     11  C   UNL     1     117.831 126.009 128.286  1.00  0.00     0.005 C 
ATOM     12  C   UNL     1     117.476 123.636 128.754  1.00  0.00    -0.023 C 
ATOM     13  C   UNL     1     118.573 125.167 127.240  1.00  0.00     0.009 C 
ATOM     14  C   UNL     1     118.736 123.804 127.902  1.00  0.00     0.021 C 
ATOM     15  C   UNL     1     117.761 122.473 129.727  1.00  0.00     0.008 C 
ATOM     16  C   UNL     1     116.202 123.341 127.905  1.00  0.00     0.012 C 
ATOM     17  C   UNL     1     119.032 122.598 127.048  1.00  0.00    -0.063 C 
ATOM     18  C   UNL     1     118.053 121.137 128.999  1.00  0.00     0.009 C 
ATOM     19  C   UNL     1     118.707 121.202 127.566  1.00  0.00     0.025 C 
ATOM     20  C   UNL     1     119.707 122.715 125.898  1.00  0.00    -0.000 C 
ATOM     21  C   UNL     1     119.897 120.194 127.333  1.00  0.00    -0.005 C 
ATOM     22  C   UNL     1     120.326 121.544 125.262  1.00  0.00    -0.000 C 
ATOM     23  C   UNL     1     120.467 120.377 125.922  1.00  0.00    -0.061 C 
ATOM     24  C   UNL     1     121.081 120.435 128.316  1.00  0.00     0.014 C 
ATOM     25  C   UNL     1     119.340 118.751 127.487  1.00  0.00     0.017 C 
ATOM     26  C   UNL     1     121.617 119.484 125.527  1.00  0.00     0.063 C 
ATOM     27  C   UNL     1     122.334 119.592 127.972  1.00  0.00     0.033 C 
ATOM     28  C   UNL     1     122.780 119.745 126.503  1.00  0.00     0.118 C 
BRANCH  28  29
ATOM     29  O   UNL     1     123.828 118.846 126.246  1.00  0.00    -0.393 OA
ATOM     30  H   UNL     1     123.551 118.298 125.466  1.00  0.00     0.210 HD
ENDBRANCH  28  29
ENDBRANCH   1  10
TORSDOF 5
ENDMDL
MODEL 5
REMARK VINA RESULT:    -6.324      2.951      5.323
REMARK INTER + INTRA:          -9.923
REMARK INTER:                  -8.302
REMARK INTRA:                  -1.621
REMARK UNBOUND:                -1.935
REMARK SMILES CC(C)[C@@H](C)C=C[C@@H](C)[C@@H]1CC[C@@H]2C3=CC=C4C[C@H](O)CC[C@@]4(C)[C@H]3CC[C@]21C
REMARK SMILES IDX 8 1 9 2 7 3 6 4 4 5 5 6 2 7 1 8 3 9 10 10 11 11 28 12 12 13
REMARK SMILES IDX 13 14 27 15 29 16 14 17 26 18 25 19 15 20 23 21 16 22 17 23
REMARK SMILES IDX 22 24 24 25 18 26 21 27 19 28 20 29
REMARK H PARENT 20 30
REMARK Flexibility Score: inf
ROOT
ATOM      1  C   UNL     1     114.315 122.294 130.453  1.00  0.00     0.012 C 
ATOM      2  C   UNL     1     112.995 123.036 130.720  1.00  0.00     0.012 C 
ENDROOT
BRANCH   1   3
ATOM      3  C   UNL     1     114.116 120.842 130.835  1.00  0.00    -0.028 C 
ATOM      4  C   UNL     1     114.426 119.771 130.078  1.00  0.00    -0.028 C 
BRANCH   4   5
ATOM      5  C   UNL     1     115.063 119.810 128.694  1.00  0.00     0.011 C 
ATOM      6  C   UNL     1     113.992 120.016 127.613  1.00  0.00     0.012 C 
BRANCH   5   7
ATOM      7  C   UNL     1     115.942 118.555 128.400  1.00  0.00    -0.011 C 
ATOM      8  C   UNL     1     117.395 118.670 128.897  1.00  0.00     0.008 C 
ATOM      9  C   UNL     1     115.914 118.188 126.907  1.00  0.00     0.008 C 
ENDBRANCH   5   7
ENDBRANCH   4   5
ENDBRANCH   1   3
BRANCH   1  10
ATOM     10  C   UNL     1     115.476 122.933 131.280  1.00  0.00     0.002 C 
ATOM     11  C   UNL     1     115.360 124.476 131.368  1.00  0.00     0.005 C 
ATOM     12  C   UNL     1     116.935 122.699 130.785  1.00  0.00    -0.023 C 
ATOM     13  C   UNL     1     116.789 125.033 131.394  1.00  0.00     0.009 C 
ATOM     14  C   UNL     1     117.670 123.800 131.552  1.00  0.00     0.021 C 
ATOM     15  C   UNL     1     117.569 121.363 131.226  1.00  0.00     0.008 C 
ATOM     16  C   UNL     1     117.031 122.867 129.238  1.00  0.00     0.012 C 
ATOM     17  C   UNL     1     119.133 123.886 131.197  1.00  0.00    -0.063 C 
ATOM     18  C   UNL     1     119.080 121.276 130.897  1.00  0.00     0.009 C 
ATOM     19  C   UNL     1     119.908 122.618 130.859  1.00  0.00     0.025 C 
ATOM     20  C   UNL     1     119.805 125.037 131.313  1.00  0.00    -0.000 C 
ATOM     21  C   UNL     1     121.299 122.562 131.599  1.00  0.00    -0.005 C 
ATOM     22  C   UNL     1     121.274 125.057 131.344  1.00  0.00    -0.000 C 
ATOM     23  C   UNL     1     121.989 123.928 131.521  1.00  0.00    -0.061 C 
ATOM     24  C   UNL     1     121.152 122.234 133.115  1.00  0.00     0.014 C 
ATOM     25  C   UNL     1     122.177 121.494 130.889  1.00  0.00     0.017 C 
ATOM     26  C   UNL     1     123.341 124.052 132.179  1.00  0.00     0.063 C 
ATOM     27  C   UNL     1     122.483 122.371 133.895  1.00  0.00     0.033 C 
ATOM     28  C   UNL     1     123.172 123.735 133.677  1.00  0.00     0.118 C 
BRANCH  28  29
ATOM     29  O   UNL     1     124.428 123.719 134.304  1.00  0.00    -0.393 OA
ATOM     30  H   UNL     1     124.457 124.509 134.906  1.00  0.00     0.210 HD
ENDBRANCH  28  29
ENDBRANCH   1  10
TORSDOF 5
ENDMDL
MODEL 6
REMARK VINA RESULT:    -6.132      3.207      7.031
REMARK INTER + INTRA:          -9.681
REMARK INTER:                  -7.984
REMARK INTRA:                  -1.697
REMARK UNBOUND:                -1.935
REMARK SMILES CC(C)[C@@H](C)C=C[C@@H](C)[C@@H]1CC[C@@H]2C3=CC=C4C[C@H](O)CC[C@@]4(C)[C@H]3CC[C@]21C
REMARK SMILES IDX 8 1 9 2 7 3 6 4 4 5 5 6 2 7 1 8 3 9 10 10 11 11 28 12 12 13
REMARK SMILES IDX 13 14 27 15 29 16 14 17 26 18 25 19 15 20 23 21 16 22 17 23
REMARK SMILES IDX 22 24 24 25 18 26 21 27 19 28 20 29
REMARK H PARENT 20 30
REMARK Flexibility Score: inf
ROOT
ATOM      1  C   UNL     1     122.109 120.513 134.732  1.00  0.00     0.012 C 
ATOM      2  C   UNL     1     122.424 119.710 136.005  1.00  0.00     0.012 C 
ENDROOT
BRANCH   1   3
ATOM      3  C   UNL     1     123.141 121.615 134.613  1.00  0.00    -0.028 C 
ATOM      4  C   UNL     1     123.657 122.101 133.466  1.00  0.00    -0.028 C 
BRANCH   4   5
ATOM      5  C   UNL     1     123.282 121.653 132.058  1.00  0.00     0.011 C 
ATOM      6  C   UNL     1     124.320 120.661 131.514  1.00  0.00     0.012 C 
BRANCH   5   7
ATOM      7  C   UNL     1     123.067 122.851 131.082  1.00  0.00    -0.011 C 
ATOM      8  C   UNL     1     122.338 124.054 131.710  1.00  0.00     0.008 C 
ATOM      9  C   UNL     1     122.354 122.406 129.795  1.00  0.00     0.008 C 
ENDBRANCH   5   7
ENDBRANCH   4   5
ENDBRANCH   1   3
BRANCH   1  10
ATOM     10  C   UNL     1     120.667 121.108 134.805  1.00  0.00     0.002 C 
ATOM     11  C   UNL     1     119.942 120.740 136.125  1.00  0.00     0.005 C 
ATOM     12  C   UNL     1     119.652 120.693 133.698  1.00  0.00    -0.023 C 
ATOM     13  C   UNL     1     118.452 120.592 135.793  1.00  0.00     0.009 C 
ATOM     14  C   UNL     1     118.334 121.098 134.361  1.00  0.00     0.021 C 
ATOM     15  C   UNL     1     119.747 121.501 132.387  1.00  0.00     0.008 C 
ATOM     16  C   UNL     1     119.742 119.164 133.406  1.00  0.00     0.012 C 
ATOM     17  C   UNL     1     117.126 120.724 133.541  1.00  0.00    -0.063 C 
ATOM     18  C   UNL     1     118.585 121.202 131.409  1.00  0.00     0.009 C 
ATOM     19  C   UNL     1     117.198 120.766 132.019  1.00  0.00     0.025 C 
ATOM     20  C   UNL     1     115.943 120.491 134.122  1.00  0.00    -0.000 C 
ATOM     21  C   UNL     1     115.941 121.480 131.389  1.00  0.00    -0.005 C 
ATOM     22  C   UNL     1     114.699 120.505 133.338  1.00  0.00    -0.000 C 
ATOM     23  C   UNL     1     114.662 121.000 132.086  1.00  0.00    -0.061 C 
ATOM     24  C   UNL     1     115.982 123.027 131.573  1.00  0.00     0.014 C 
ATOM     25  C   UNL     1     115.884 121.109 129.881  1.00  0.00     0.017 C 
ATOM     26  C   UNL     1     113.358 121.583 131.601  1.00  0.00     0.063 C 
ATOM     27  C   UNL     1     114.668 123.723 131.142  1.00  0.00     0.033 C 
ATOM     28  C   UNL     1     113.415 123.110 131.801  1.00  0.00     0.118 C 
BRANCH  28  29
ATOM     29  O   UNL     1     112.269 123.705 131.252  1.00  0.00    -0.393 OA
ATOM     30  H   UNL     1     111.573 122.999 131.205  1.00  0.00     0.210 HD
ENDBRANCH  28  29
ENDBRANCH   1  10
TORSDOF 5
ENDMDL
MODEL 7
REMARK VINA RESULT:    -6.031      4.864      6.420
REMARK INTER + INTRA:          -9.553
REMARK INTER:                  -8.093
REMARK INTRA:                  -1.460
REMARK UNBOUND:                -1.935
REMARK SMILES CC(C)[C@@H](C)C=C[C@@H](C)[C@@H]1CC[C@@H]2C3=CC=C4C[C@H](O)CC[C@@]4(C)[C@H]3CC[C@]21C
REMARK SMILES IDX 8 1 9 2 7 3 6 4 4 5 5 6 2 7 1 8 3 9 10 10 11 11 28 12 12 13
REMARK SMILES IDX 13 14 27 15 29 16 14 17 26 18 25 19 15 20 23 21 16 22 17 23
REMARK SMILES IDX 22 24 24 25 18 26 21 27 19 28 20 29
REMARK H PARENT 20 30
REMARK Flexibility Score: inf
ROOT
ATOM      1  C   UNL     1     120.015 117.514 126.398  1.00  0.00     0.012 C 
ATOM      2  C   UNL     1     120.267 116.083 125.896  1.00  0.00     0.012 C 
ENDROOT
BRANCH   1   3
ATOM      3  C   UNL     1     121.346 118.097 126.825  1.00  0.00    -0.028 C 
ATOM      4  C   UNL     1     122.039 119.056 126.179  1.00  0.00    -0.028 C 
BRANCH   4   5
ATOM      5  C   UNL     1     121.605 119.763 124.901  1.00  0.00     0.011 C 
ATOM      6  C   UNL     1     122.823 120.331 124.158  1.00  0.00     0.012 C 
BRANCH   5   7
ATOM      7  C   UNL     1     120.526 120.861 125.156  1.00  0.00    -0.011 C 
ATOM      8  C   UNL     1     120.139 121.670 123.904  1.00  0.00     0.008 C 
ATOM      9  C   UNL     1     120.945 121.805 126.295  1.00  0.00     0.008 C 
ENDBRANCH   5   7
ENDBRANCH   4   5
ENDBRANCH   1   3
BRANCH   1  10
ATOM     10  C   UNL     1     119.005 117.505 127.589  1.00  0.00     0.002 C 
ATOM     11  C   UNL     1     117.806 116.555 127.340  1.00  0.00     0.005 C 
ATOM     12  C   UNL     1     118.332 118.854 127.982  1.00  0.00    -0.023 C 
ATOM     13  C   UNL     1     116.583 117.186 128.018  1.00  0.00     0.009 C 
ATOM     14  C   UNL     1     117.157 118.347 128.821  1.00  0.00     0.021 C 
ATOM     15  C   UNL     1     119.171 119.758 128.909  1.00  0.00     0.008 C 
ATOM     16  C   UNL     1     117.879 119.640 126.714  1.00  0.00     0.012 C 
ATOM     17  C   UNL     1     116.242 119.453 129.279  1.00  0.00    -0.063 C 
ATOM     18  C   UNL     1     118.377 120.976 129.443  1.00  0.00     0.009 C 
ATOM     19  C   UNL     1     116.817 120.823 129.619  1.00  0.00     0.025 C 
ATOM     20  C   UNL     1     114.949 119.219 129.533  1.00  0.00    -0.000 C 
ATOM     21  C   UNL     1     116.243 121.384 130.976  1.00  0.00    -0.005 C 
ATOM     22  C   UNL     1     114.151 120.163 130.327  1.00  0.00    -0.000 C 
ATOM     23  C   UNL     1     114.730 121.148 131.042  1.00  0.00    -0.061 C 
ATOM     24  C   UNL     1     116.851 120.667 132.219  1.00  0.00     0.014 C 
ATOM     25  C   UNL     1     116.535 122.910 131.027  1.00  0.00     0.017 C 
ATOM     26  C   UNL     1     114.015 121.629 132.279  1.00  0.00     0.063 C 
ATOM     27  C   UNL     1     116.155 121.063 133.545  1.00  0.00     0.033 C 
ATOM     28  C   UNL     1     114.621 120.901 133.494  1.00  0.00     0.118 C 
BRANCH  28  29
ATOM     29  O   UNL     1     114.067 121.410 134.679  1.00  0.00    -0.393 OA
ATOM     30  H   UNL     1     114.576 121.006 135.430  1.00  0.00     0.210 HD
ENDBRANCH  28  29
ENDBRANCH   1  10
TORSDOF 5
ENDMDL
MODEL 8
REMARK VINA RESULT:    -5.980      3.957      4.864
REMARK INTER + INTRA:          -9.489
REMARK INTER:                  -7.569
REMARK INTRA:                  -1.920
REMARK UNBOUND:                -1.935
REMARK SMILES CC(C)[C@@H](C)C=C[C@@H](C)[C@@H]1CC[C@@H]2C3=CC=C4C[C@H](O)CC[C@@]4(C)[C@H]3CC[C@]21C
REMARK SMILES IDX 8 1 9 2 7 3 6 4 4 5 5 6 2 7 1 8 3 9 10 10 11 11 28 12 12 13
REMARK SMILES IDX 13 14 27 15 29 16 14 17 26 18 25 19 15 20 23 21 16 22 17 23
REMARK SMILES IDX 22 24 24 25 18 26 21 27 19 28 20 29
REMARK H PARENT 20 30
REMARK Flexibility Score: inf
ROOT
ATOM      1  C   UNL     1     114.455 123.223 129.863  1.00  0.00     0.012 C 
ATOM      2  C   UNL     1     112.964 123.010 130.173  1.00  0.00     0.012 C 
ENDROOT
BRANCH   1   3
ATOM      3  C   UNL     1     114.587 124.513 129.081  1.00  0.00    -0.028 C 
ATOM      4  C   UNL     1     115.520 125.467 129.271  1.00  0.00    -0.028 C 
BRANCH   4   5
ATOM      5  C   UNL     1     116.645 125.423 130.298  1.00  0.00     0.011 C 
ATOM      6  C   UNL     1     116.219 126.128 131.595  1.00  0.00     0.012 C 
BRANCH   5   7
ATOM      7  C   UNL     1     117.986 125.998 129.747  1.00  0.00    -0.011 C 
ATOM      8  C   UNL     1     118.050 126.092 128.211  1.00  0.00     0.008 C 
ATOM      9  C   UNL     1     119.196 125.217 130.286  1.00  0.00     0.008 C 
ENDBRANCH   5   7
ENDBRANCH   4   5
ENDBRANCH   1   3
BRANCH   1  10
ATOM     10  C   UNL     1     115.020 122.017 129.046  1.00  0.00     0.002 C 
ATOM     11  C   UNL     1     114.196 120.722 129.258  1.00  0.00     0.005 C 
ATOM     12  C   UNL     1     116.487 121.573 129.326  1.00  0.00    -0.023 C 
ATOM     13  C   UNL     1     115.178 119.547 129.178  1.00  0.00     0.009 C 
ATOM     14  C   UNL     1     116.480 120.177 128.700  1.00  0.00     0.021 C 
ATOM     15  C   UNL     1     117.569 122.380 128.579  1.00  0.00     0.008 C 
ATOM     16  C   UNL     1     116.779 121.551 130.857  1.00  0.00     0.012 C 
ATOM     17  C   UNL     1     117.778 119.438 128.901  1.00  0.00    -0.063 C 
ATOM     18  C   UNL     1     118.983 121.765 128.718  1.00  0.00     0.009 C 
ATOM     19  C   UNL     1     119.095 120.204 128.912  1.00  0.00     0.025 C 
ATOM     20  C   UNL     1     117.814 118.100 128.927  1.00  0.00    -0.000 C 
ATOM     21  C   UNL     1     120.194 119.502 128.026  1.00  0.00    -0.005 C 
ATOM     22  C   UNL     1     119.076 117.372 128.739  1.00  0.00    -0.000 C 
ATOM     23  C   UNL     1     120.182 117.990 128.279  1.00  0.00    -0.061 C 
ATOM     24  C   UNL     1     119.937 119.690 126.501  1.00  0.00     0.014 C 
ATOM     25  C   UNL     1     121.578 120.086 128.426  1.00  0.00     0.017 C 
ATOM     26  C   UNL     1     121.180 117.159 127.511  1.00  0.00     0.063 C 
ATOM     27  C   UNL     1     120.888 118.843 125.618  1.00  0.00     0.033 C 
ATOM     28  C   UNL     1     120.903 117.350 126.008  1.00  0.00     0.118 C 
BRANCH  28  29
ATOM     29  O   UNL     1     121.886 116.690 125.254  1.00  0.00    -0.393 OA
ATOM     30  H   UNL     1     122.253 115.970 125.831  1.00  0.00     0.210 HD
ENDBRANCH  28  29
ENDBRANCH   1  10
TORSDOF 5
ENDMDL
MODEL 9
REMARK VINA RESULT:    -5.925      3.811      6.575
REMARK INTER + INTRA:          -9.420
REMARK INTER:                  -7.893
REMARK INTRA:                  -1.526
REMARK UNBOUND:                -1.935
REMARK SMILES CC(C)[C@@H](C)C=C[C@@H](C)[C@@H]1CC[C@@H]2C3=CC=C4C[C@H](O)CC[C@@]4(C)[C@H]3CC[C@]21C
REMARK SMILES IDX 8 1 9 2 7 3 6 4 4 5 5 6 2 7 1 8 3 9 10 10 11 11 28 12 12 13
REMARK SMILES IDX 13 14 27 15 29 16 14 17 26 18 25 19 15 20 23 21 16 22 17 23
REMARK SMILES IDX 22 24 24 25 18 26 21 27 19 28 20 29
REMARK H PARENT 20 30
REMARK Flexibility Score: inf
ROOT
ATOM      1  C   UNL     1     116.240 125.117 130.780  1.00  0.00     0.012 C 
ATOM      2  C   UNL     1     116.417 126.531 131.359  1.00  0.00     0.012 C 
ENDROOT
BRANCH   1   3
ATOM      3  C   UNL     1     115.222 124.391 131.634  1.00  0.00    -0.028 C 
ATOM      4  C   UNL     1     114.424 123.380 131.235  1.00  0.00    -0.028 C 
BRANCH   4   5
ATOM      5  C   UNL     1     114.408 122.751 129.847  1.00  0.00     0.011 C 
ATOM      6  C   UNL     1     113.277 123.348 128.998  1.00  0.00     0.012 C 
BRANCH   5   7
ATOM      7  C   UNL     1     114.330 121.193 129.893  1.00  0.00    -0.011 C 
ATOM      8  C   UNL     1     115.518 120.522 130.607  1.00  0.00     0.008 C 
ATOM      9  C   UNL     1     114.146 120.599 128.487  1.00  0.00     0.008 C 
ENDBRANCH   5   7
ENDBRANCH   4   5
ENDBRANCH   1   3
BRANCH   1  10
ATOM     10  C   UNL     1     117.604 124.357 130.772  1.00  0.00     0.002 C 
ATOM     11  C   UNL     1     118.696 125.092 131.589  1.00  0.00     0.005 C 
ATOM     12  C   UNL     1     118.283 124.097 129.394  1.00  0.00    -0.023 C 
ATOM     13  C   UNL     1     120.036 124.824 130.891  1.00  0.00     0.009 C 
ATOM     14  C   UNL     1     119.708 123.768 129.843  1.00  0.00     0.021 C 
ATOM     15  C   UNL     1     117.769 122.857 128.634  1.00  0.00     0.008 C 
ATOM     16  C   UNL     1     118.208 125.364 128.489  1.00  0.00     0.012 C 
ATOM     17  C   UNL     1     120.653 123.554 128.688  1.00  0.00    -0.063 C 
ATOM     18  C   UNL     1     118.620 122.520 127.384  1.00  0.00     0.009 C 
ATOM     19  C   UNL     1     120.147 122.911 127.403  1.00  0.00     0.025 C 
ATOM     20  C   UNL     1     121.965 123.787 128.817  1.00  0.00    -0.000 C 
ATOM     21  C   UNL     1     121.125 121.790 126.879  1.00  0.00    -0.005 C 
ATOM     22  C   UNL     1     122.929 123.234 127.856  1.00  0.00    -0.000 C 
ATOM     23  C   UNL     1     122.577 122.275 126.978  1.00  0.00    -0.061 C 
ATOM     24  C   UNL     1     121.044 120.486 127.729  1.00  0.00     0.014 C 
ATOM     25  C   UNL     1     120.773 121.500 125.394  1.00  0.00     0.017 C 
ATOM     26  C   UNL     1     123.650 121.323 126.512  1.00  0.00     0.063 C 
ATOM     27  C   UNL     1     122.135 119.452 127.356  1.00  0.00     0.033 C 
ATOM     28  C   UNL     1     123.559 120.046 127.370  1.00  0.00     0.118 C 
BRANCH  28  29
ATOM     29  O   UNL     1     124.462 119.085 126.890  1.00  0.00    -0.393 OA
ATOM     30  H   UNL     1     125.365 119.359 127.198  1.00  0.00     0.210 HD
ENDBRANCH  28  29
ENDBRANCH   1  10
TORSDOF 5
ENDMDL
