MODEL 1
REMARK VINA RESULT:    -5.612      0.000      0.000
REMARK INTER + INTRA:         -15.450
REMARK INTER:                 -12.173
REMARK INTRA:                  -3.277
REMARK UNBOUND:                -3.277
REMARK SMILES CCCCCCCCCCCCCCCCCCCCCC(=O)[O-]
REMARK SMILES IDX 12 1 11 2 10 3 9 4 8 5 7 6 6 7 5 8 4 9 3 10 2 11 1 12 13 13
REMARK SMILES IDX 14 14 15 15 16 16 17 17 18 18 19 19 20 20 21 21 22 22 23 23
REMARK SMILES IDX 24 24
REMARK H PARENT
REMARK Flexibility Score: inf
ROOT
ATOM      1  C   UNL     1      -4.744 -32.373 -52.163  1.00  0.00     0.000 C 
ENDROOT
BRANCH   1   2
ATOM      2  C   UNL     1      -3.882 -32.742 -50.942  1.00  0.00     0.000 C 
BRANCH   2   3
ATOM      3  C   UNL     1      -2.790 -33.799 -51.199  1.00  0.00     0.000 C 
BRANCH   3   4
ATOM      4  C   UNL     1      -1.370 -33.243 -51.410  1.00  0.00    -0.000 C 
BRANCH   4   5
ATOM      5  C   UNL     1      -1.046 -32.982 -52.890  1.00  0.00    -0.000 C 
BRANCH   5   6
ATOM      6  C   UNL     1      -0.309 -31.649 -53.114  1.00  0.00    -0.000 C 
BRANCH   6   7
ATOM      7  C   UNL     1       0.331 -31.028 -51.855  1.00  0.00    -0.000 C 
BRANCH   7   8
ATOM      8  C   UNL     1      -0.382 -29.784 -51.298  1.00  0.00    -0.000 C 
BRANCH   8   9
ATOM      9  C   UNL     1      -1.277 -29.092 -52.339  1.00  0.00    -0.000 C 
BRANCH   9  10
ATOM     10  C   UNL     1      -0.895 -27.620 -52.570  1.00  0.00    -0.000 C 
BRANCH  10  11
ATOM     11  C   UNL     1      -0.384 -27.327 -53.996  1.00  0.00    -0.003 C 
ATOM     12  C   UNL     1       0.826 -28.185 -54.365  1.00  0.00     0.004 C 
ENDBRANCH  10  11
ENDBRANCH   9  10
ENDBRANCH   8   9
ENDBRANCH   7   8
ENDBRANCH   6   7
ENDBRANCH   5   6
ENDBRANCH   4   5
ENDBRANCH   3   4
ENDBRANCH   2   3
ENDBRANCH   1   2
BRANCH   1  13
ATOM     13  C   UNL     1      -4.176 -31.187 -52.960  1.00  0.00     0.000 C 
BRANCH  13  14
ATOM     14  C   UNL     1      -5.002 -30.850 -54.215  1.00  0.00     0.000 C 
BRANCH  14  15
ATOM     15  C   UNL     1      -5.747 -29.503 -54.175  1.00  0.00     0.000 C 
BRANCH  15  16
ATOM     16  C   UNL     1      -4.815 -28.291 -54.345  1.00  0.00     0.000 C 
BRANCH  16  17
ATOM     17  C   UNL     1      -4.641 -27.493 -53.044  1.00  0.00     0.000 C 
BRANCH  17  18
ATOM     18  C   UNL     1      -5.961 -26.888 -52.536  1.00  0.00     0.000 C 
BRANCH  18  19
ATOM     19  C   UNL     1      -6.322 -27.359 -51.118  1.00  0.00     0.000 C 
BRANCH  19  20
ATOM     20  C   UNL     1      -5.483 -28.563 -50.636  1.00  0.00     0.006 C 
BRANCH  20  21
ATOM     21  C   UNL     1      -6.359 -29.757 -50.237  1.00  0.00     0.053 C 
BRANCH  21  22
ATOM     22  C   UNL     1      -6.893 -29.579 -48.850  1.00  0.00     0.041 C 
ATOM     23  O   UNL     1      -6.108 -29.335 -47.896  1.00  0.00    -0.550 OA
ATOM     24  O   UNL     1      -8.260 -29.662 -48.615  1.00  0.00    -0.550 OA
ENDBRANCH  21  22
ENDBRANCH  20  21
ENDBRANCH  19  20
ENDBRANCH  18  19
ENDBRANCH  17  18
ENDBRANCH  16  17
ENDBRANCH  15  16
ENDBRANCH  14  15
ENDBRANCH  13  14
ENDBRANCH   1  13
TORSDOF 20
ENDMDL
MODEL 2
REMARK VINA RESULT:    -5.376      1.435      2.385
REMARK INTER + INTRA:         -14.940
REMARK INTER:                 -12.425
REMARK INTRA:                  -2.515
REMARK UNBOUND:                -3.277
REMARK SMILES CCCCCCCCCCCCCCCCCCCCCC(=O)[O-]
REMARK SMILES IDX 12 1 11 2 10 3 9 4 8 5 7 6 6 7 5 8 4 9 3 10 2 11 1 12 13 13
REMARK SMILES IDX 14 14 15 15 16 16 17 17 18 18 19 19 20 20 21 21 22 22 23 23
REMARK SMILES IDX 24 24
REMARK H PARENT
REMARK Flexibility Score: inf
ROOT
ATOM      1  C   UNL     1      -2.881 -33.275 -51.679  1.00  0.00     0.000 C 
ENDROOT
BRANCH   1   2
ATOM      2  C   UNL     1      -2.116 -33.275 -53.015  1.00  0.00     0.000 C 
BRANCH   2   3
ATOM      3  C   UNL     1      -1.036 -32.184 -53.158  1.00  0.00     0.000 C 
BRANCH   3   4
ATOM      4  C   UNL     1       0.144 -32.291 -52.177  1.00  0.00    -0.000 C 
BRANCH   4   5
ATOM      5  C   UNL     1       0.476 -30.955 -51.494  1.00  0.00    -0.000 C 
BRANCH   5   6
ATOM      6  C   UNL     1      -0.730 -29.999 -51.432  1.00  0.00    -0.000 C 
BRANCH   6   7
ATOM      7  C   UNL     1      -0.415 -28.518 -51.727  1.00  0.00    -0.000 C 
BRANCH   7   8
ATOM      8  C   UNL     1      -0.755 -28.043 -53.150  1.00  0.00    -0.000 C 
BRANCH   8   9
ATOM      9  C   UNL     1       0.379 -27.229 -53.794  1.00  0.00    -0.000 C 
BRANCH   9  10
ATOM     10  C   UNL     1       0.196 -25.711 -53.621  1.00  0.00    -0.000 C 
BRANCH  10  11
ATOM     11  C   UNL     1       0.876 -25.145 -52.357  1.00  0.00    -0.003 C 
ATOM     12  C   UNL     1      -0.077 -24.291 -51.520  1.00  0.00     0.004 C 
ENDBRANCH  10  11
ENDBRANCH   9  10
ENDBRANCH   8   9
ENDBRANCH   7   8
ENDBRANCH   6   7
ENDBRANCH   5   6
ENDBRANCH   4   5
ENDBRANCH   3   4
ENDBRANCH   2   3
ENDBRANCH   1   2
BRANCH   1  13
ATOM     13  C   UNL     1      -3.822 -32.068 -51.528  1.00  0.00     0.000 C 
BRANCH  13  14
ATOM     14  C   UNL     1      -4.966 -32.061 -52.559  1.00  0.00     0.000 C 
BRANCH  14  15
ATOM     15  C   UNL     1      -5.291 -30.688 -53.177  1.00  0.00     0.000 C 
BRANCH  15  16
ATOM     16  C   UNL     1      -4.081 -29.738 -53.208  1.00  0.00     0.000 C 
BRANCH  16  17
ATOM     17  C   UNL     1      -4.083 -28.742 -52.038  1.00  0.00     0.000 C 
BRANCH  17  18
ATOM     18  C   UNL     1      -5.353 -27.875 -51.996  1.00  0.00     0.000 C 
BRANCH  18  19
ATOM     19  C   UNL     1      -6.064 -27.930 -50.634  1.00  0.00     0.000 C 
BRANCH  19  20
ATOM     20  C   UNL     1      -6.068 -29.338 -49.999  1.00  0.00     0.006 C 
BRANCH  20  21
ATOM     21  C   UNL     1      -6.914 -29.393 -48.721  1.00  0.00     0.053 C 
BRANCH  21  22
ATOM     22  C   UNL     1      -8.001 -30.414 -48.851  1.00  0.00     0.041 C 
ATOM     23  O   UNL     1      -7.781 -31.500 -49.450  1.00  0.00    -0.550 OA
ATOM     24  O   UNL     1      -9.251 -30.176 -48.292  1.00  0.00    -0.550 OA
ENDBRANCH  21  22
ENDBRANCH  20  21
ENDBRANCH  19  20
ENDBRANCH  18  19
ENDBRANCH  17  18
ENDBRANCH  16  17
ENDBRANCH  15  16
ENDBRANCH  14  15
ENDBRANCH  13  14
ENDBRANCH   1  13
TORSDOF 20
ENDMDL
MODEL 3
REMARK VINA RESULT:    -5.374      2.971      6.371
REMARK INTER + INTRA:         -14.935
REMARK INTER:                 -11.852
REMARK INTRA:                  -3.083
REMARK UNBOUND:                -3.277
REMARK SMILES CCCCCCCCCCCCCCCCCCCCCC(=O)[O-]
REMARK SMILES IDX 12 1 11 2 10 3 9 4 8 5 7 6 6 7 5 8 4 9 3 10 2 11 1 12 13 13
REMARK SMILES IDX 14 14 15 15 16 16 17 17 18 18 19 19 20 20 21 21 22 22 23 23
REMARK SMILES IDX 24 24
REMARK H PARENT
REMARK Flexibility Score: inf
ROOT
ATOM      1  C   UNL     1      -2.752 -33.028 -51.591  1.00  0.00     0.000 C 
ENDROOT
BRANCH   1   2
ATOM      2  C   UNL     1      -3.964 -32.081 -51.555  1.00  0.00     0.000 C 
BRANCH   2   3
ATOM      3  C   UNL     1      -5.053 -32.361 -52.611  1.00  0.00     0.000 C 
BRANCH   3   4
ATOM      4  C   UNL     1      -5.597 -31.121 -53.342  1.00  0.00    -0.000 C 
BRANCH   4   5
ATOM      5  C   UNL     1      -4.531 -30.033 -53.545  1.00  0.00    -0.000 C 
BRANCH   5   6
ATOM      6  C   UNL     1      -5.137 -28.658 -53.882  1.00  0.00    -0.000 C 
BRANCH   6   7
ATOM      7  C   UNL     1      -5.274 -27.687 -52.691  1.00  0.00    -0.000 C 
BRANCH   7   8
ATOM      8  C   UNL     1      -5.090 -28.319 -51.301  1.00  0.00    -0.000 C 
BRANCH   8   9
ATOM      9  C   UNL     1      -6.329 -28.162 -50.404  1.00  0.00    -0.000 C 
BRANCH   9  10
ATOM     10  C   UNL     1      -6.430 -29.259 -49.330  1.00  0.00    -0.000 C 
BRANCH  10  11
ATOM     11  C   UNL     1      -7.065 -30.569 -49.840  1.00  0.00    -0.003 C 
ATOM     12  C   UNL     1      -7.911 -31.258 -48.768  1.00  0.00     0.004 C 
ENDBRANCH  10  11
ENDBRANCH   9  10
ENDBRANCH   8   9
ENDBRANCH   7   8
ENDBRANCH   6   7
ENDBRANCH   5   6
ENDBRANCH   4   5
ENDBRANCH   3   4
ENDBRANCH   2   3
ENDBRANCH   1   2
BRANCH   1  13
ATOM     13  C   UNL     1      -2.071 -33.078 -52.969  1.00  0.00     0.000 C 
BRANCH  13  14
ATOM     14  C   UNL     1      -0.839 -32.160 -53.068  1.00  0.00     0.000 C 
BRANCH  14  15
ATOM     15  C   UNL     1      -0.251 -31.694 -51.723  1.00  0.00     0.000 C 
BRANCH  15  16
ATOM     16  C   UNL     1      -0.444 -30.189 -51.468  1.00  0.00     0.000 C 
BRANCH  16  17
ATOM     17  C   UNL     1      -0.969 -29.444 -52.706  1.00  0.00     0.000 C 
BRANCH  17  18
ATOM     18  C   UNL     1      -1.559 -28.066 -52.365  1.00  0.00     0.000 C 
BRANCH  18  19
ATOM     19  C   UNL     1      -1.617 -27.128 -53.582  1.00  0.00     0.000 C 
BRANCH  19  20
ATOM     20  C   UNL     1      -1.004 -25.736 -53.316  1.00  0.00     0.006 C 
BRANCH  20  21
ATOM     21  C   UNL     1      -0.013 -25.755 -52.145  1.00  0.00     0.053 C 
BRANCH  21  22
ATOM     22  C   UNL     1       0.253 -24.365 -51.657  1.00  0.00     0.041 C 
ATOM     23  O   UNL     1       1.434 -23.984 -51.444  1.00  0.00    -0.550 OA
ATOM     24  O   UNL     1      -0.803 -23.483 -51.458  1.00  0.00    -0.550 OA
ENDBRANCH  21  22
ENDBRANCH  20  21
ENDBRANCH  19  20
ENDBRANCH  18  19
ENDBRANCH  17  18
ENDBRANCH  16  17
ENDBRANCH  15  16
ENDBRANCH  14  15
ENDBRANCH  13  14
ENDBRANCH   1  13
TORSDOF 20
ENDMDL
MODEL 4
REMARK VINA RESULT:    -5.352      2.838      4.612
REMARK INTER + INTRA:         -14.888
REMARK INTER:                 -11.962
REMARK INTRA:                  -2.926
REMARK UNBOUND:                -3.277
REMARK SMILES CCCCCCCCCCCCCCCCCCCCCC(=O)[O-]
REMARK SMILES IDX 12 1 11 2 10 3 9 4 8 5 7 6 6 7 5 8 4 9 3 10 2 11 1 12 13 13
REMARK SMILES IDX 14 14 15 15 16 16 17 17 18 18 19 19 20 20 21 21 22 22 23 23
REMARK SMILES IDX 24 24
REMARK H PARENT
REMARK Flexibility Score: inf
ROOT
ATOM      1  C   UNL     1      -7.037 -31.412 -49.765  1.00  0.00     0.000 C 
ENDROOT
BRANCH   1   2
ATOM      2  C   UNL     1      -5.507 -31.536 -49.871  1.00  0.00     0.000 C 
BRANCH   2   3
ATOM      3  C   UNL     1      -4.991 -32.330 -51.087  1.00  0.00     0.000 C 
BRANCH   3   4
ATOM      4  C   UNL     1      -5.661 -31.989 -52.431  1.00  0.00    -0.000 C 
BRANCH   4   5
ATOM      5  C   UNL     1      -4.648 -31.613 -53.524  1.00  0.00    -0.000 C 
BRANCH   5   6
ATOM      6  C   UNL     1      -3.203 -31.533 -52.998  1.00  0.00    -0.000 C 
BRANCH   6   7
ATOM      7  C   UNL     1      -2.354 -32.805 -53.201  1.00  0.00    -0.000 C 
BRANCH   7   8
ATOM      8  C   UNL     1      -1.165 -32.965 -52.239  1.00  0.00    -0.000 C 
BRANCH   8   9
ATOM      9  C   UNL     1      -0.974 -31.749 -51.318  1.00  0.00    -0.000 C 
BRANCH   9  10
ATOM     10  C   UNL     1       0.275 -30.923 -51.672  1.00  0.00    -0.000 C 
BRANCH  10  11
ATOM     11  C   UNL     1      -0.000 -29.781 -52.672  1.00  0.00    -0.003 C 
ATOM     12  C   UNL     1      -0.787 -28.634 -52.039  1.00  0.00     0.004 C 
ENDBRANCH  10  11
ENDBRANCH   9  10
ENDBRANCH   8   9
ENDBRANCH   7   8
ENDBRANCH   6   7
ENDBRANCH   5   6
ENDBRANCH   4   5
ENDBRANCH   3   4
ENDBRANCH   2   3
ENDBRANCH   1   2
BRANCH   1  13
ATOM     13  C   UNL     1      -7.497 -30.000 -49.364  1.00  0.00     0.000 C 
BRANCH  13  14
ATOM     14  C   UNL     1      -6.333 -29.081 -48.947  1.00  0.00     0.000 C 
BRANCH  14  15
ATOM     15  C   UNL     1      -6.314 -27.693 -49.615  1.00  0.00     0.000 C 
BRANCH  15  16
ATOM     16  C   UNL     1      -6.181 -27.762 -51.146  1.00  0.00     0.000 C 
BRANCH  16  17
ATOM     17  C   UNL     1      -4.833 -28.349 -51.595  1.00  0.00     0.000 C 
BRANCH  17  18
ATOM     18  C   UNL     1      -4.423 -27.888 -53.003  1.00  0.00     0.000 C 
BRANCH  18  19
ATOM     19  C   UNL     1      -5.506 -28.167 -54.058  1.00  0.00     0.000 C 
BRANCH  19  20
ATOM     20  C   UNL     1      -5.945 -26.908 -54.837  1.00  0.00     0.006 C 
BRANCH  20  21
ATOM     21  C   UNL     1      -4.855 -25.829 -54.855  1.00  0.00     0.053 C 
BRANCH  21  22
ATOM     22  C   UNL     1      -5.445 -24.479 -54.594  1.00  0.00     0.041 C 
ATOM     23  O   UNL     1      -5.330 -23.945 -53.459  1.00  0.00    -0.550 OA
ATOM     24  O   UNL     1      -6.105 -23.799 -55.612  1.00  0.00    -0.550 OA
ENDBRANCH  21  22
ENDBRANCH  20  21
ENDBRANCH  19  20
ENDBRANCH  18  19
ENDBRANCH  17  18
ENDBRANCH  16  17
ENDBRANCH  15  16
ENDBRANCH  14  15
ENDBRANCH  13  14
ENDBRANCH   1  13
TORSDOF 20
ENDMDL
MODEL 5
REMARK VINA RESULT:    -5.305      2.573      6.780
REMARK INTER + INTRA:         -14.785
REMARK INTER:                 -12.004
REMARK INTRA:                  -2.780
REMARK UNBOUND:                -3.277
REMARK SMILES CCCCCCCCCCCCCCCCCCCCCC(=O)[O-]
REMARK SMILES IDX 12 1 11 2 10 3 9 4 8 5 7 6 6 7 5 8 4 9 3 10 2 11 1 12 13 13
REMARK SMILES IDX 14 14 15 15 16 16 17 17 18 18 19 19 20 20 21 21 22 22 23 23
REMARK SMILES IDX 24 24
REMARK H PARENT
REMARK Flexibility Score: inf
ROOT
ATOM      1  C   UNL     1      -4.373 -31.103 -52.070  1.00  0.00     0.000 C 
ENDROOT
BRANCH   1   2
ATOM      2  C   UNL     1      -5.279 -30.977 -53.308  1.00  0.00     0.000 C 
BRANCH   2   3
ATOM      3  C   UNL     1      -4.940 -29.811 -54.259  1.00  0.00     0.000 C 
BRANCH   3   4
ATOM      4  C   UNL     1      -5.745 -28.519 -54.031  1.00  0.00    -0.000 C 
BRANCH   4   5
ATOM      5  C   UNL     1      -5.042 -27.539 -53.079  1.00  0.00    -0.000 C 
BRANCH   5   6
ATOM      6  C   UNL     1      -5.937 -27.100 -51.905  1.00  0.00    -0.000 C 
BRANCH   6   7
ATOM      7  C   UNL     1      -6.258 -28.200 -50.872  1.00  0.00    -0.000 C 
BRANCH   7   8
ATOM      8  C   UNL     1      -6.318 -27.732 -49.408  1.00  0.00    -0.000 C 
BRANCH   8   9
ATOM      9  C   UNL     1      -6.492 -28.894 -48.416  1.00  0.00    -0.000 C 
BRANCH   9  10
ATOM     10  C   UNL     1      -6.376 -30.273 -49.088  1.00  0.00    -0.000 C 
BRANCH  10  11
ATOM     11  C   UNL     1      -7.675 -31.103 -49.028  1.00  0.00    -0.003 C 
ATOM     12  C   UNL     1      -8.783 -30.389 -48.254  1.00  0.00     0.004 C 
ENDBRANCH  10  11
ENDBRANCH   9  10
ENDBRANCH   8   9
ENDBRANCH   7   8
ENDBRANCH   6   7
ENDBRANCH   5   6
ENDBRANCH   4   5
ENDBRANCH   3   4
ENDBRANCH   2   3
ENDBRANCH   1   2
BRANCH   1  13
ATOM     13  C   UNL     1      -4.638 -32.384 -51.263  1.00  0.00     0.000 C 
BRANCH  13  14
ATOM     14  C   UNL     1      -3.400 -33.292 -51.146  1.00  0.00     0.000 C 
BRANCH  14  15
ATOM     15  C   UNL     1      -2.401 -33.202 -52.315  1.00  0.00     0.000 C 
BRANCH  15  16
ATOM     16  C   UNL     1      -0.940 -33.069 -51.852  1.00  0.00     0.000 C 
BRANCH  16  17
ATOM     17  C   UNL     1       0.015 -32.721 -53.006  1.00  0.00     0.000 C 
BRANCH  17  18
ATOM     18  C   UNL     1       0.086 -31.210 -53.284  1.00  0.00     0.000 C 
BRANCH  18  19
ATOM     19  C   UNL     1       0.383 -30.387 -52.019  1.00  0.00     0.000 C 
BRANCH  19  20
ATOM     20  C   UNL     1      -0.803 -29.509 -51.564  1.00  0.00     0.006 C 
BRANCH  20  21
ATOM     21  C   UNL     1      -1.577 -28.923 -52.752  1.00  0.00     0.053 C 
BRANCH  21  22
ATOM     22  C   UNL     1      -1.203 -27.490 -52.970  1.00  0.00     0.041 C 
ATOM     23  O   UNL     1      -0.394 -26.921 -52.190  1.00  0.00    -0.550 OA
ATOM     24  O   UNL     1      -1.732 -26.788 -54.048  1.00  0.00    -0.550 OA
ENDBRANCH  21  22
ENDBRANCH  20  21
ENDBRANCH  19  20
ENDBRANCH  18  19
ENDBRANCH  17  18
ENDBRANCH  16  17
ENDBRANCH  15  16
ENDBRANCH  14  15
ENDBRANCH  13  14
ENDBRANCH   1  13
TORSDOF 20
ENDMDL
MODEL 6
REMARK VINA RESULT:    -5.255      1.465      2.520
REMARK INTER + INTRA:         -14.676
REMARK INTER:                 -12.455
REMARK INTRA:                  -2.221
REMARK UNBOUND:                -3.277
REMARK SMILES CCCCCCCCCCCCCCCCCCCCCC(=O)[O-]
REMARK SMILES IDX 12 1 11 2 10 3 9 4 8 5 7 6 6 7 5 8 4 9 3 10 2 11 1 12 13 13
REMARK SMILES IDX 14 14 15 15 16 16 17 17 18 18 19 19 20 20 21 21 22 22 23 23
REMARK SMILES IDX 24 24
REMARK H PARENT
REMARK Flexibility Score: inf
ROOT
ATOM      1  C   UNL     1      -4.614 -30.521 -53.483  1.00  0.00     0.000 C 
ENDROOT
BRANCH   1   2
ATOM      2  C   UNL     1      -5.131 -31.784 -52.771  1.00  0.00     0.000 C 
BRANCH   2   3
ATOM      3  C   UNL     1      -4.655 -31.964 -51.316  1.00  0.00     0.000 C 
BRANCH   3   4
ATOM      4  C   UNL     1      -3.728 -33.168 -51.069  1.00  0.00    -0.000 C 
BRANCH   4   5
ATOM      5  C   UNL     1      -2.238 -32.793 -51.115  1.00  0.00    -0.000 C 
BRANCH   5   6
ATOM      6  C   UNL     1      -1.629 -32.936 -52.522  1.00  0.00    -0.000 C 
BRANCH   6   7
ATOM      7  C   UNL     1      -0.373 -32.081 -52.788  1.00  0.00    -0.000 C 
BRANCH   7   8
ATOM      8  C   UNL     1       0.121 -31.246 -51.594  1.00  0.00    -0.000 C 
BRANCH   8   9
ATOM      9  C   UNL     1      -0.023 -29.733 -51.823  1.00  0.00    -0.000 C 
BRANCH   9  10
ATOM     10  C   UNL     1      -1.429 -29.334 -52.302  1.00  0.00    -0.000 C 
BRANCH  10  11
ATOM     11  C   UNL     1      -1.545 -27.853 -52.720  1.00  0.00    -0.003 C 
ATOM     12  C   UNL     1      -0.227 -27.299 -53.260  1.00  0.00     0.004 C 
ENDBRANCH  10  11
ENDBRANCH   9  10
ENDBRANCH   8   9
ENDBRANCH   7   8
ENDBRANCH   6   7
ENDBRANCH   5   6
ENDBRANCH   4   5
ENDBRANCH   3   4
ENDBRANCH   2   3
ENDBRANCH   1   2
BRANCH   1  13
ATOM     13  C   UNL     1      -5.660 -29.889 -54.416  1.00  0.00     0.000 C 
BRANCH  13  14
ATOM     14  C   UNL     1      -5.517 -28.361 -54.538  1.00  0.00     0.000 C 
BRANCH  14  15
ATOM     15  C   UNL     1      -4.955 -27.648 -53.294  1.00  0.00     0.000 C 
BRANCH  15  16
ATOM     16  C   UNL     1      -5.942 -26.644 -52.675  1.00  0.00     0.000 C 
BRANCH  16  17
ATOM     17  C   UNL     1      -6.403 -27.060 -51.269  1.00  0.00     0.000 C 
BRANCH  17  18
ATOM     18  C   UNL     1      -5.671 -28.307 -50.748  1.00  0.00     0.000 C 
BRANCH  18  19
ATOM     19  C   UNL     1      -6.541 -29.156 -49.806  1.00  0.00     0.000 C 
BRANCH  19  20
ATOM     20  C   UNL     1      -6.410 -28.756 -48.321  1.00  0.00     0.006 C 
BRANCH  20  21
ATOM     21  C   UNL     1      -6.389 -27.234 -48.131  1.00  0.00     0.053 C 
BRANCH  21  22
ATOM     22  C   UNL     1      -7.066 -26.853 -46.851  1.00  0.00     0.041 C 
ATOM     23  O   UNL     1      -8.240 -27.245 -46.614  1.00  0.00    -0.550 OA
ATOM     24  O   UNL     1      -6.394 -26.081 -45.911  1.00  0.00    -0.550 OA
ENDBRANCH  21  22
ENDBRANCH  20  21
ENDBRANCH  19  20
ENDBRANCH  18  19
ENDBRANCH  17  18
ENDBRANCH  16  17
ENDBRANCH  15  16
ENDBRANCH  14  15
ENDBRANCH  13  14
ENDBRANCH   1  13
TORSDOF 20
ENDMDL
MODEL 7
REMARK VINA RESULT:    -5.201      2.341      3.552
REMARK INTER + INTRA:         -14.560
REMARK INTER:                 -11.939
REMARK INTRA:                  -2.621
REMARK UNBOUND:                -3.277
REMARK SMILES CCCCCCCCCCCCCCCCCCCCCC(=O)[O-]
REMARK SMILES IDX 12 1 11 2 10 3 9 4 8 5 7 6 6 7 5 8 4 9 3 10 2 11 1 12 13 13
REMARK SMILES IDX 14 14 15 15 16 16 17 17 18 18 19 19 20 20 21 21 22 22 23 23
REMARK SMILES IDX 24 24
REMARK H PARENT
REMARK Flexibility Score: inf
ROOT
ATOM      1  C   UNL     1      -5.545 -31.897 -52.700  1.00  0.00     0.000 C 
ENDROOT
BRANCH   1   2
ATOM      2  C   UNL     1      -4.202 -31.660 -53.413  1.00  0.00     0.000 C 
BRANCH   2   3
ATOM      3  C   UNL     1      -2.955 -32.159 -52.656  1.00  0.00     0.000 C 
BRANCH   3   4
ATOM      4  C   UNL     1      -1.915 -32.900 -53.515  1.00  0.00    -0.000 C 
BRANCH   4   5
ATOM      5  C   UNL     1      -0.575 -33.101 -52.789  1.00  0.00    -0.000 C 
BRANCH   5   6
ATOM      6  C   UNL     1      -0.456 -32.252 -51.510  1.00  0.00    -0.000 C 
BRANCH   6   7
ATOM      7  C   UNL     1       0.426 -30.993 -51.633  1.00  0.00    -0.000 C 
BRANCH   7   8
ATOM      8  C   UNL     1      -0.296 -29.656 -51.398  1.00  0.00    -0.000 C 
BRANCH   8   9
ATOM      9  C   UNL     1      -0.884 -29.060 -52.688  1.00  0.00    -0.000 C 
BRANCH   9  10
ATOM     10  C   UNL     1      -0.175 -27.766 -53.124  1.00  0.00    -0.000 C 
BRANCH  10  11
ATOM     11  C   UNL     1      -0.413 -26.577 -52.169  1.00  0.00    -0.003 C 
ATOM     12  C   UNL     1      -0.235 -25.229 -52.868  1.00  0.00     0.004 C 
ENDBRANCH  10  11
ENDBRANCH   9  10
ENDBRANCH   8   9
ENDBRANCH   7   8
ENDBRANCH   6   7
ENDBRANCH   5   6
ENDBRANCH   4   5
ENDBRANCH   3   4
ENDBRANCH   2   3
ENDBRANCH   1   2
BRANCH   1  13
ATOM     13  C   UNL     1      -5.377 -32.427 -51.266  1.00  0.00     0.000 C 
BRANCH  13  14
ATOM     14  C   UNL     1      -5.672 -31.366 -50.190  1.00  0.00     0.000 C 
BRANCH  14  15
ATOM     15  C   UNL     1      -7.145 -31.259 -49.754  1.00  0.00     0.000 C 
BRANCH  15  16
ATOM     16  C   UNL     1      -7.518 -29.863 -49.224  1.00  0.00     0.000 C 
BRANCH  16  17
ATOM     17  C   UNL     1      -6.292 -29.059 -48.766  1.00  0.00     0.000 C 
BRANCH  17  18
ATOM     18  C   UNL     1      -6.316 -27.603 -49.260  1.00  0.00     0.000 C 
BRANCH  18  19
ATOM     19  C   UNL     1      -6.383 -27.498 -50.793  1.00  0.00     0.000 C 
BRANCH  19  20
ATOM     20  C   UNL     1      -5.162 -28.120 -51.506  1.00  0.00     0.006 C 
BRANCH  20  21
ATOM     21  C   UNL     1      -5.353 -28.188 -53.026  1.00  0.00     0.053 C 
BRANCH  21  22
ATOM     22  C   UNL     1      -4.809 -26.958 -53.682  1.00  0.00     0.041 C 
ATOM     23  O   UNL     1      -3.575 -26.856 -53.912  1.00  0.00    -0.550 OA
ATOM     24  O   UNL     1      -5.668 -25.931 -54.058  1.00  0.00    -0.550 OA
ENDBRANCH  21  22
ENDBRANCH  20  21
ENDBRANCH  19  20
ENDBRANCH  18  19
ENDBRANCH  17  18
ENDBRANCH  16  17
ENDBRANCH  15  16
ENDBRANCH  14  15
ENDBRANCH  13  14
ENDBRANCH   1  13
TORSDOF 20
ENDMDL
MODEL 8
REMARK VINA RESULT:    -5.201      1.306      2.715
REMARK INTER + INTRA:         -14.560
REMARK INTER:                 -12.188
REMARK INTRA:                  -2.372
REMARK UNBOUND:                -3.277
REMARK SMILES CCCCCCCCCCCCCCCCCCCCCC(=O)[O-]
REMARK SMILES IDX 12 1 11 2 10 3 9 4 8 5 7 6 6 7 5 8 4 9 3 10 2 11 1 12 13 13
REMARK SMILES IDX 14 14 15 15 16 16 17 17 18 18 19 19 20 20 21 21 22 22 23 23
REMARK SMILES IDX 24 24
REMARK H PARENT
REMARK Flexibility Score: inf
ROOT
ATOM      1  C   UNL     1      -2.261 -33.854 -51.534  1.00  0.00     0.000 C 
ENDROOT
BRANCH   1   2
ATOM      2  C   UNL     1      -1.688 -33.493 -52.916  1.00  0.00     0.000 C 
BRANCH   2   3
ATOM      3  C   UNL     1      -0.194 -33.111 -52.933  1.00  0.00     0.000 C 
BRANCH   3   4
ATOM      4  C   UNL     1       0.100 -31.604 -53.043  1.00  0.00    -0.000 C 
BRANCH   4   5
ATOM      5  C   UNL     1       0.368 -30.948 -51.679  1.00  0.00    -0.000 C 
BRANCH   5   6
ATOM      6  C   UNL     1      -0.523 -29.719 -51.421  1.00  0.00    -0.000 C 
BRANCH   6   7
ATOM      7  C   UNL     1      -0.909 -28.908 -52.676  1.00  0.00    -0.000 C 
BRANCH   7   8
ATOM      8  C   UNL     1       0.270 -28.434 -53.542  1.00  0.00    -0.000 C 
BRANCH   8   9
ATOM      9  C   UNL     1       0.493 -26.915 -53.467  1.00  0.00    -0.000 C 
BRANCH   9  10
ATOM     10  C   UNL     1      -0.698 -26.167 -52.843  1.00  0.00    -0.000 C 
BRANCH  10  11
ATOM     11  C   UNL     1      -1.397 -25.194 -53.815  1.00  0.00    -0.003 C 
ATOM     12  C   UNL     1      -2.756 -25.717 -54.281  1.00  0.00     0.004 C 
ENDBRANCH  10  11
ENDBRANCH   9  10
ENDBRANCH   8   9
ENDBRANCH   7   8
ENDBRANCH   6   7
ENDBRANCH   5   6
ENDBRANCH   4   5
ENDBRANCH   3   4
ENDBRANCH   2   3
ENDBRANCH   1   2
BRANCH   1  13
ATOM     13  C   UNL     1      -3.394 -32.914 -51.092  1.00  0.00     0.000 C 
BRANCH  13  14
ATOM     14  C   UNL     1      -3.538 -31.674 -51.995  1.00  0.00     0.000 C 
BRANCH  14  15
ATOM     15  C   UNL     1      -4.980 -31.317 -52.403  1.00  0.00     0.000 C 
BRANCH  15  16
ATOM     16  C   UNL     1      -5.182 -31.266 -53.927  1.00  0.00     0.000 C 
BRANCH  16  17
ATOM     17  C   UNL     1      -5.530 -29.856 -54.429  1.00  0.00     0.000 C 
BRANCH  17  18
ATOM     18  C   UNL     1      -4.876 -28.747 -53.589  1.00  0.00     0.000 C 
BRANCH  18  19
ATOM     19  C   UNL     1      -5.766 -27.499 -53.458  1.00  0.00     0.000 C 
BRANCH  19  20
ATOM     20  C   UNL     1      -5.929 -27.010 -52.003  1.00  0.00     0.006 C 
BRANCH  20  21
ATOM     21  C   UNL     1      -5.669 -28.128 -50.985  1.00  0.00     0.053 C 
BRANCH  21  22
ATOM     22  C   UNL     1      -6.448 -27.890 -49.729  1.00  0.00     0.041 C 
ATOM     23  O   UNL     1      -6.815 -28.862 -49.017  1.00  0.00    -0.550 OA
ATOM     24  O   UNL     1      -6.751 -26.592 -49.333  1.00  0.00    -0.550 OA
ENDBRANCH  21  22
ENDBRANCH  20  21
ENDBRANCH  19  20
ENDBRANCH  18  19
ENDBRANCH  17  18
ENDBRANCH  16  17
ENDBRANCH  15  16
ENDBRANCH  14  15
ENDBRANCH  13  14
ENDBRANCH   1  13
TORSDOF 20
ENDMDL
MODEL 9
REMARK VINA RESULT:    -5.175      3.670      6.097
REMARK INTER + INTRA:         -14.503
REMARK INTER:                 -12.268
REMARK INTRA:                  -2.235
REMARK UNBOUND:                -3.277
REMARK SMILES CCCCCCCCCCCCCCCCCCCCCC(=O)[O-]
REMARK SMILES IDX 12 1 11 2 10 3 9 4 8 5 7 6 6 7 5 8 4 9 3 10 2 11 1 12 13 13
REMARK SMILES IDX 14 14 15 15 16 16 17 17 18 18 19 19 20 20 21 21 22 22 23 23
REMARK SMILES IDX 24 24
REMARK H PARENT
REMARK Flexibility Score: inf
ROOT
ATOM      1  C   UNL     1      -0.743 -29.341 -51.497  1.00  0.00     0.000 C 
ENDROOT
BRANCH   1   2
ATOM      2  C   UNL     1      -0.254 -30.777 -51.757  1.00  0.00     0.000 C 
BRANCH   2   3
ATOM      3  C   UNL     1      -0.322 -31.243 -53.225  1.00  0.00     0.000 C 
BRANCH   3   4
ATOM      4  C   UNL     1      -0.910 -32.648 -53.445  1.00  0.00    -0.000 C 
BRANCH   4   5
ATOM      5  C   UNL     1      -2.398 -32.737 -53.070  1.00  0.00    -0.000 C 
BRANCH   5   6
ATOM      6  C   UNL     1      -2.628 -33.346 -51.674  1.00  0.00    -0.000 C 
BRANCH   6   7
ATOM      7  C   UNL     1      -3.795 -32.736 -50.871  1.00  0.00    -0.000 C 
BRANCH   7   8
ATOM      8  C   UNL     1      -5.035 -32.355 -51.696  1.00  0.00    -0.000 C 
BRANCH   8   9
ATOM      9  C   UNL     1      -6.184 -31.811 -50.832  1.00  0.00    -0.000 C 
BRANCH   9  10
ATOM     10  C   UNL     1      -6.057 -30.304 -50.550  1.00  0.00    -0.000 C 
BRANCH  10  11
ATOM     11  C   UNL     1      -6.856 -29.835 -49.317  1.00  0.00    -0.003 C 
ATOM     12  C   UNL     1      -7.941 -30.834 -48.914  1.00  0.00     0.004 C 
ENDBRANCH  10  11
ENDBRANCH   9  10
ENDBRANCH   8   9
ENDBRANCH   7   8
ENDBRANCH   6   7
ENDBRANCH   5   6
ENDBRANCH   4   5
ENDBRANCH   3   4
ENDBRANCH   2   3
ENDBRANCH   1   2
BRANCH   1  13
ATOM     13  C   UNL     1      -0.563 -28.418 -52.714  1.00  0.00     0.000 C 
BRANCH  13  14
ATOM     14  C   UNL     1      -1.898 -27.942 -53.315  1.00  0.00     0.000 C 
BRANCH  14  15
ATOM     15  C   UNL     1      -3.162 -28.400 -52.563  1.00  0.00     0.000 C 
BRANCH  15  16
ATOM     16  C   UNL     1      -3.994 -29.428 -53.349  1.00  0.00     0.000 C 
BRANCH  16  17
ATOM     17  C   UNL     1      -5.133 -28.777 -54.149  1.00  0.00     0.000 C 
BRANCH  17  18
ATOM     18  C   UNL     1      -5.547 -27.407 -53.588  1.00  0.00     0.000 C 
BRANCH  18  19
ATOM     19  C   UNL     1      -5.162 -26.244 -54.519  1.00  0.00     0.000 C 
BRANCH  19  20
ATOM     20  C   UNL     1      -6.345 -25.705 -55.352  1.00  0.00     0.006 C 
BRANCH  20  21
ATOM     21  C   UNL     1      -6.111 -24.265 -55.825  1.00  0.00     0.053 C 
BRANCH  21  22
ATOM     22  C   UNL     1      -6.538 -24.102 -57.250  1.00  0.00     0.041 C 
ATOM     23  O   UNL     1      -5.702 -23.753 -58.126  1.00  0.00    -0.550 OA
ATOM     24  O   UNL     1      -7.855 -24.357 -57.617  1.00  0.00    -0.550 OA
ENDBRANCH  21  22
ENDBRANCH  20  21
ENDBRANCH  19  20
ENDBRANCH  18  19
ENDBRANCH  17  18
ENDBRANCH  16  17
ENDBRANCH  15  16
ENDBRANCH  14  15
ENDBRANCH  13  14
ENDBRANCH   1  13
TORSDOF 20
ENDMDL
