MODEL 1
REMARK VINA RESULT:    -5.224      0.000      0.000
REMARK INTER + INTRA:          -9.374
REMARK INTER:                  -8.278
REMARK INTRA:                  -1.096
REMARK UNBOUND:                -1.096
REMARK SMILES CCCCCCCCCCCC(=O)[O-]
REMARK SMILES IDX 7 1 8 2 9 3 10 4 11 5 12 6 13 7 14 8 6 9 5 10 4 11 3 12 2 13
REMARK SMILES IDX 1 14
REMARK H PARENT
REMARK Flexibility Score: inf
ROOT
ATOM      1  C   UNL     1     -98.689 -62.130 -64.014  1.00  0.00     0.000 C 
ENDROOT
BRANCH   1   2
ATOM      2  C   UNL     1     -97.638 -61.113 -64.482  1.00  0.00     0.000 C 
BRANCH   2   3
ATOM      3  C   UNL     1     -96.295 -61.767 -64.857  1.00  0.00     0.000 C 
BRANCH   3   4
ATOM      4  C   UNL     1     -95.672 -61.268 -66.177  1.00  0.00     0.006 C 
BRANCH   4   5
ATOM      5  C   UNL     1     -94.180 -61.593 -66.342  1.00  0.00     0.053 C 
BRANCH   5   6
ATOM      6  C   UNL     1     -93.941 -62.601 -67.423  1.00  0.00     0.041 C 
ATOM      7  O   UNL     1     -94.327 -62.371 -68.599  1.00  0.00    -0.550 OA
ATOM      8  O   UNL     1     -93.262 -63.779 -67.139  1.00  0.00    -0.550 OA
ENDBRANCH   5   6
ENDBRANCH   4   5
ENDBRANCH   3   4
ENDBRANCH   2   3
ENDBRANCH   1   2
BRANCH   1   9
ATOM      9  C   UNL     1     -99.981 -62.002 -64.831  1.00  0.00     0.000 C 
BRANCH   9  10
ATOM     10  C   UNL     1     -99.673 -61.794 -66.318  1.00  0.00    -0.000 C 
BRANCH  10  11
ATOM     11  C   UNL     1    -100.598 -60.730 -66.928  1.00  0.00    -0.000 C 
BRANCH  11  12
ATOM     12  C   UNL     1    -100.042 -59.301 -66.789  1.00  0.00    -0.000 C 
BRANCH  12  13
ATOM     13  C   UNL     1     -98.609 -59.111 -67.320  1.00  0.00    -0.003 C 
ATOM     14  C   UNL     1     -97.839 -58.017 -66.582  1.00  0.00     0.004 C 
ENDBRANCH  12  13
ENDBRANCH  11  12
ENDBRANCH  10  11
ENDBRANCH   9  10
ENDBRANCH   1   9
TORSDOF 10
ENDMDL
MODEL 2
REMARK VINA RESULT:    -5.196      2.591      4.421
REMARK INTER + INTRA:          -9.329
REMARK INTER:                  -7.834
REMARK INTRA:                  -1.496
REMARK UNBOUND:                -1.096
REMARK SMILES CCCCCCCCCCCC(=O)[O-]
REMARK SMILES IDX 7 1 8 2 9 3 10 4 11 5 12 6 13 7 14 8 6 9 5 10 4 11 3 12 2 13
REMARK SMILES IDX 1 14
REMARK H PARENT
REMARK Flexibility Score: inf
ROOT
ATOM      1  C   UNL     1     -97.376 -60.927 -64.385  1.00  0.00     0.000 C 
ENDROOT
BRANCH   1   2
ATOM      2  C   UNL     1     -98.538 -61.887 -64.088  1.00  0.00     0.000 C 
BRANCH   2   3
ATOM      3  C   UNL     1     -99.731 -61.699 -65.043  1.00  0.00     0.000 C 
BRANCH   3   4
ATOM      4  C   UNL     1     -99.642 -62.497 -66.361  1.00  0.00     0.006 C 
BRANCH   4   5
ATOM      5  C   UNL     1    -100.670 -62.085 -67.427  1.00  0.00     0.053 C 
BRANCH   5   6
ATOM      6  C   UNL     1    -100.449 -62.798 -68.725  1.00  0.00     0.041 C 
ATOM      7  O   UNL     1    -101.404 -62.959 -69.529  1.00  0.00    -0.550 OA
ATOM      8  O   UNL     1     -99.181 -63.255 -69.061  1.00  0.00    -0.550 OA
ENDBRANCH   5   6
ENDBRANCH   4   5
ENDBRANCH   3   4
ENDBRANCH   2   3
ENDBRANCH   1   2
BRANCH   1   9
ATOM      9  C   UNL     1     -96.276 -61.630 -65.190  1.00  0.00     0.000 C 
BRANCH   9  10
ATOM     10  C   UNL     1     -95.754 -60.728 -66.315  1.00  0.00    -0.000 C 
BRANCH  10  11
ATOM     11  C   UNL     1     -96.345 -61.141 -67.671  1.00  0.00    -0.000 C 
BRANCH  11  12
ATOM     12  C   UNL     1     -97.499 -60.230 -68.125  1.00  0.00    -0.000 C 
BRANCH  12  13
ATOM     13  C   UNL     1     -97.721 -58.982 -67.251  1.00  0.00    -0.003 C 
ATOM     14  C   UNL     1     -99.197 -58.633 -67.072  1.00  0.00     0.004 C 
ENDBRANCH  12  13
ENDBRANCH  11  12
ENDBRANCH  10  11
ENDBRANCH   9  10
ENDBRANCH   1   9
TORSDOF 10
ENDMDL
MODEL 3
REMARK VINA RESULT:    -5.128      2.020      2.897
REMARK INTER + INTRA:          -9.221
REMARK INTER:                  -7.845
REMARK INTRA:                  -1.376
REMARK UNBOUND:                -1.096
REMARK SMILES CCCCCCCCCCCC(=O)[O-]
REMARK SMILES IDX 7 1 8 2 9 3 10 4 11 5 12 6 13 7 14 8 6 9 5 10 4 11 3 12 2 13
REMARK SMILES IDX 1 14
REMARK H PARENT
REMARK Flexibility Score: inf
ROOT
ATOM      1  C   UNL     1     -96.994 -60.825 -65.069  1.00  0.00     0.000 C 
ENDROOT
BRANCH   1   2
ATOM      2  C   UNL     1     -95.742 -61.493 -65.656  1.00  0.00     0.000 C 
BRANCH   2   3
ATOM      3  C   UNL     1     -95.531 -61.168 -67.147  1.00  0.00     0.000 C 
BRANCH   3   4
ATOM      4  C   UNL     1     -96.783 -60.647 -67.883  1.00  0.00     0.006 C 
BRANCH   4   5
ATOM      5  C   UNL     1     -97.366 -61.622 -68.918  1.00  0.00     0.053 C 
BRANCH   5   6
ATOM      6  C   UNL     1     -96.612 -61.585 -70.211  1.00  0.00     0.041 C 
ATOM      7  O   UNL     1     -96.485 -60.501 -70.839  1.00  0.00    -0.550 OA
ATOM      8  O   UNL     1     -96.021 -62.741 -70.706  1.00  0.00    -0.550 OA
ENDBRANCH   5   6
ENDBRANCH   4   5
ENDBRANCH   3   4
ENDBRANCH   2   3
ENDBRANCH   1   2
BRANCH   1   9
ATOM      9  C   UNL     1     -97.799 -61.817 -64.221  1.00  0.00     0.000 C 
BRANCH   9  10
ATOM     10  C   UNL     1     -99.300 -61.702 -64.515  1.00  0.00    -0.000 C 
BRANCH  10  11
ATOM     11  C   UNL     1     -99.636 -62.284 -65.897  1.00  0.00    -0.000 C 
BRANCH  11  12
ATOM     12  C   UNL     1    -100.588 -61.389 -66.709  1.00  0.00    -0.000 C 
BRANCH  12  13
ATOM     13  C   UNL     1    -100.680 -59.932 -66.221  1.00  0.00    -0.003 C 
ATOM     14  C   UNL     1     -99.770 -58.982 -66.999  1.00  0.00     0.004 C 
ENDBRANCH  12  13
ENDBRANCH  11  12
ENDBRANCH  10  11
ENDBRANCH   9  10
ENDBRANCH   1   9
TORSDOF 10
ENDMDL
MODEL 4
REMARK VINA RESULT:    -5.112      1.850      2.571
REMARK INTER + INTRA:          -9.196
REMARK INTER:                  -8.076
REMARK INTRA:                  -1.119
REMARK UNBOUND:                -1.096
REMARK SMILES CCCCCCCCCCCC(=O)[O-]
REMARK SMILES IDX 7 1 8 2 9 3 10 4 11 5 12 6 13 7 14 8 6 9 5 10 4 11 3 12 2 13
REMARK SMILES IDX 1 14
REMARK H PARENT
REMARK Flexibility Score: inf
ROOT
ATOM      1  C   UNL     1     -96.288 -61.816 -64.707  1.00  0.00     0.000 C 
ENDROOT
BRANCH   1   2
ATOM      2  C   UNL     1     -95.689 -61.040 -65.890  1.00  0.00     0.000 C 
BRANCH   2   3
ATOM      3  C   UNL     1     -94.582 -61.821 -66.621  1.00  0.00     0.000 C 
BRANCH   3   4
ATOM      4  C   UNL     1     -94.740 -61.896 -68.154  1.00  0.00     0.006 C 
BRANCH   4   5
ATOM      5  C   UNL     1     -96.092 -61.391 -68.681  1.00  0.00     0.053 C 
BRANCH   5   6
ATOM      6  C   UNL     1     -96.221 -61.574 -70.161  1.00  0.00     0.041 C 
ATOM      7  O   UNL     1     -96.678 -60.644 -70.877  1.00  0.00    -0.550 OA
ATOM      8  O   UNL     1     -95.806 -62.759 -70.755  1.00  0.00    -0.550 OA
ENDBRANCH   5   6
ENDBRANCH   4   5
ENDBRANCH   3   4
ENDBRANCH   2   3
ENDBRANCH   1   2
BRANCH   1   9
ATOM      9  C   UNL     1     -97.702 -61.319 -64.384  1.00  0.00     0.000 C 
BRANCH   9  10
ATOM     10  C   UNL     1     -98.705 -61.778 -65.449  1.00  0.00    -0.000 C 
BRANCH  10  11
ATOM     11  C   UNL     1     -99.567 -60.603 -65.936  1.00  0.00    -0.000 C 
BRANCH  11  12
ATOM     12  C   UNL     1     -99.001 -59.926 -67.197  1.00  0.00    -0.000 C 
BRANCH  12  13
ATOM     13  C   UNL     1     -98.833 -58.399 -67.092  1.00  0.00    -0.003 C 
ATOM     14  C   UNL     1     -97.532 -57.988 -66.403  1.00  0.00     0.004 C 
ENDBRANCH  12  13
ENDBRANCH  11  12
ENDBRANCH  10  11
ENDBRANCH   9  10
ENDBRANCH   1   9
TORSDOF 10
ENDMDL
MODEL 5
REMARK VINA RESULT:    -5.084      3.101      5.381
REMARK INTER + INTRA:          -9.153
REMARK INTER:                  -7.943
REMARK INTRA:                  -1.209
REMARK UNBOUND:                -1.096
REMARK SMILES CCCCCCCCCCCC(=O)[O-]
REMARK SMILES IDX 7 1 8 2 9 3 10 4 11 5 12 6 13 7 14 8 6 9 5 10 4 11 3 12 2 13
REMARK SMILES IDX 1 14
REMARK H PARENT
REMARK Flexibility Score: inf
ROOT
ATOM      1  C   UNL     1     -96.828 -61.596 -64.593  1.00  0.00     0.000 C 
ENDROOT
BRANCH   1   2
ATOM      2  C   UNL     1     -98.049 -62.124 -63.825  1.00  0.00     0.000 C 
BRANCH   2   3
ATOM      3  C   UNL     1     -99.383 -61.589 -64.378  1.00  0.00     0.000 C 
BRANCH   3   4
ATOM      4  C   UNL     1     -99.952 -62.372 -65.579  1.00  0.00     0.006 C 
BRANCH   4   5
ATOM      5  C   UNL     1    -100.354 -61.499 -66.778  1.00  0.00     0.053 C 
BRANCH   5   6
ATOM      6  C   UNL     1    -100.769 -60.124 -66.358  1.00  0.00     0.041 C 
ATOM      7  O   UNL     1    -100.086 -59.123 -66.703  1.00  0.00    -0.550 OA
ATOM      8  O   UNL     1    -101.927 -59.943 -65.613  1.00  0.00    -0.550 OA
ENDBRANCH   5   6
ENDBRANCH   4   5
ENDBRANCH   3   4
ENDBRANCH   2   3
ENDBRANCH   1   2
BRANCH   1   9
ATOM      9  C   UNL     1     -96.986 -60.106 -64.921  1.00  0.00     0.000 C 
BRANCH   9  10
ATOM     10  C   UNL     1     -96.590 -59.816 -66.373  1.00  0.00    -0.000 C 
BRANCH  10  11
ATOM     11  C   UNL     1     -96.626 -61.098 -67.220  1.00  0.00    -0.000 C 
BRANCH  11  12
ATOM     12  C   UNL     1     -95.308 -61.356 -67.972  1.00  0.00    -0.000 C 
BRANCH  12  13
ATOM     13  C   UNL     1     -94.063 -61.476 -67.075  1.00  0.00    -0.003 C 
ATOM     14  C   UNL     1     -93.619 -62.923 -66.861  1.00  0.00     0.004 C 
ENDBRANCH  12  13
ENDBRANCH  11  12
ENDBRANCH  10  11
ENDBRANCH   9  10
ENDBRANCH   1   9
TORSDOF 10
ENDMDL
MODEL 6
REMARK VINA RESULT:    -4.930      2.944      5.750
REMARK INTER + INTRA:          -8.907
REMARK INTER:                  -7.995
REMARK INTRA:                  -0.912
REMARK UNBOUND:                -1.096
REMARK SMILES CCCCCCCCCCCC(=O)[O-]
REMARK SMILES IDX 7 1 8 2 9 3 10 4 11 5 12 6 13 7 14 8 6 9 5 10 4 11 3 12 2 13
REMARK SMILES IDX 1 14
REMARK H PARENT
REMARK Flexibility Score: inf
ROOT
ATOM      1  C   UNL     1     -96.892 -58.998 -66.246  1.00  0.00     0.000 C 
ENDROOT
BRANCH   1   2
ATOM      2  C   UNL     1     -98.113 -58.090 -66.463  1.00  0.00     0.000 C 
BRANCH   2   3
ATOM      3  C   UNL     1     -99.184 -58.731 -67.365  1.00  0.00     0.000 C 
BRANCH   3   4
ATOM      4  C   UNL     1    -100.315 -59.463 -66.615  1.00  0.00     0.006 C 
BRANCH   4   5
ATOM      5  C   UNL     1    -100.143 -60.988 -66.532  1.00  0.00     0.053 C 
BRANCH   5   6
ATOM      6  C   UNL     1    -100.395 -61.507 -65.150  1.00  0.00     0.041 C 
ATOM      7  O   UNL     1    -101.102 -60.847 -64.345  1.00  0.00    -0.550 OA
ATOM      8  O   UNL     1     -99.877 -62.736 -64.763  1.00  0.00    -0.550 OA
ENDBRANCH   5   6
ENDBRANCH   4   5
ENDBRANCH   3   4
ENDBRANCH   2   3
ENDBRANCH   1   2
BRANCH   1   9
ATOM      9  C   UNL     1     -96.991 -59.739 -64.907  1.00  0.00     0.000 C 
BRANCH   9  10
ATOM     10  C   UNL     1     -96.607 -61.215 -65.065  1.00  0.00    -0.000 C 
BRANCH  10  11
ATOM     11  C   UNL     1     -95.751 -61.429 -66.322  1.00  0.00    -0.000 C 
BRANCH  11  12
ATOM     12  C   UNL     1     -94.392 -62.084 -66.018  1.00  0.00    -0.000 C 
BRANCH  12  13
ATOM     13  C   UNL     1     -93.445 -62.200 -67.227  1.00  0.00    -0.003 C 
ATOM     14  C   UNL     1     -93.023 -63.639 -67.519  1.00  0.00     0.004 C 
ENDBRANCH  12  13
ENDBRANCH  11  12
ENDBRANCH  10  11
ENDBRANCH   9  10
ENDBRANCH   1   9
TORSDOF 10
ENDMDL
MODEL 7
REMARK VINA RESULT:    -4.878      1.671      3.301
REMARK INTER + INTRA:          -8.826
REMARK INTER:                  -7.594
REMARK INTRA:                  -1.231
REMARK UNBOUND:                -1.096
REMARK SMILES CCCCCCCCCCCC(=O)[O-]
REMARK SMILES IDX 7 1 8 2 9 3 10 4 11 5 12 6 13 7 14 8 6 9 5 10 4 11 3 12 2 13
REMARK SMILES IDX 1 14
REMARK H PARENT
REMARK Flexibility Score: inf
ROOT
ATOM      1  C   UNL     1     -96.907 -58.685 -66.271  1.00  0.00     0.000 C 
ENDROOT
BRANCH   1   2
ATOM      2  C   UNL     1     -97.016 -59.910 -65.350  1.00  0.00     0.000 C 
BRANCH   2   3
ATOM      3  C   UNL     1     -96.280 -61.144 -65.902  1.00  0.00     0.000 C 
BRANCH   3   4
ATOM      4  C   UNL     1     -95.716 -60.983 -67.329  1.00  0.00     0.006 C 
BRANCH   4   5
ATOM      5  C   UNL     1     -96.690 -61.382 -68.449  1.00  0.00     0.053 C 
BRANCH   5   6
ATOM      6  C   UNL     1     -96.005 -61.493 -69.775  1.00  0.00     0.041 C 
ATOM      7  O   UNL     1     -94.777 -61.766 -69.833  1.00  0.00    -0.550 OA
ATOM      8  O   UNL     1     -96.730 -61.328 -70.949  1.00  0.00    -0.550 OA
ENDBRANCH   5   6
ENDBRANCH   4   5
ENDBRANCH   3   4
ENDBRANCH   2   3
ENDBRANCH   1   2
BRANCH   1   9
ATOM      9  C   UNL     1     -98.293 -58.109 -66.586  1.00  0.00     0.000 C 
BRANCH   9  10
ATOM     10  C   UNL     1     -99.160 -59.132 -67.329  1.00  0.00    -0.000 C 
BRANCH  10  11
ATOM     11  C   UNL     1    -100.443 -59.440 -66.543  1.00  0.00    -0.000 C 
BRANCH  11  12
ATOM     12  C   UNL     1    -100.957 -60.873 -66.772  1.00  0.00    -0.000 C 
BRANCH  12  13
ATOM     13  C   UNL     1     -99.893 -61.974 -66.618  1.00  0.00    -0.003 C 
ATOM     14  C   UNL     1     -99.762 -62.482 -65.183  1.00  0.00     0.004 C 
ENDBRANCH  12  13
ENDBRANCH  11  12
ENDBRANCH  10  11
ENDBRANCH   9  10
ENDBRANCH   1   9
TORSDOF 10
ENDMDL
MODEL 8
REMARK VINA RESULT:    -4.831      3.335      5.428
REMARK INTER + INTRA:          -8.751
REMARK INTER:                  -7.477
REMARK INTRA:                  -1.274
REMARK UNBOUND:                -1.096
REMARK SMILES CCCCCCCCCCCC(=O)[O-]
REMARK SMILES IDX 7 1 8 2 9 3 10 4 11 5 12 6 13 7 14 8 6 9 5 10 4 11 3 12 2 13
REMARK SMILES IDX 1 14
REMARK H PARENT
REMARK Flexibility Score: inf
ROOT
ATOM      1  C   UNL     1     -96.911 -58.630 -66.137  1.00  0.00     0.000 C 
ENDROOT
BRANCH   1   2
ATOM      2  C   UNL     1     -98.109 -58.607 -67.099  1.00  0.00     0.000 C 
BRANCH   2   3
ATOM      3  C   UNL     1     -99.428 -59.025 -66.425  1.00  0.00     0.000 C 
BRANCH   3   4
ATOM      4  C   UNL     1    -100.187 -60.168 -67.130  1.00  0.00     0.006 C 
BRANCH   4   5
ATOM      5  C   UNL     1    -100.159 -61.510 -66.381  1.00  0.00     0.053 C 
BRANCH   5   6
ATOM      6  C   UNL     1    -100.426 -61.342 -64.918  1.00  0.00     0.041 C 
ATOM      7  O   UNL     1     -99.629 -61.824 -64.070  1.00  0.00    -0.550 OA
ATOM      8  O   UNL     1    -101.536 -60.625 -64.490  1.00  0.00    -0.550 OA
ENDBRANCH   5   6
ENDBRANCH   4   5
ENDBRANCH   3   4
ENDBRANCH   2   3
ENDBRANCH   1   2
BRANCH   1   9
ATOM      9  C   UNL     1     -96.997 -59.826 -65.181  1.00  0.00     0.000 C 
BRANCH   9  10
ATOM     10  C   UNL     1     -96.578 -61.123 -65.882  1.00  0.00    -0.000 C 
BRANCH  10  11
ATOM     11  C   UNL     1     -95.221 -60.957 -66.581  1.00  0.00    -0.000 C 
BRANCH  11  12
ATOM     12  C   UNL     1     -95.248 -61.395 -68.056  1.00  0.00    -0.000 C 
BRANCH  12  13
ATOM     13  C   UNL     1     -96.647 -61.418 -68.699  1.00  0.00    -0.003 C 
ATOM     14  C   UNL     1     -96.627 -61.068 -70.186  1.00  0.00     0.004 C 
ENDBRANCH  12  13
ENDBRANCH  11  12
ENDBRANCH  10  11
ENDBRANCH   9  10
ENDBRANCH   1   9
TORSDOF 10
ENDMDL
MODEL 9
REMARK VINA RESULT:    -4.821      1.187      2.825
REMARK INTER + INTRA:          -8.734
REMARK INTER:                  -7.580
REMARK INTRA:                  -1.154
REMARK UNBOUND:                -1.096
REMARK SMILES CCCCCCCCCCCC(=O)[O-]
REMARK SMILES IDX 7 1 8 2 9 3 10 4 11 5 12 6 13 7 14 8 6 9 5 10 4 11 3 12 2 13
REMARK SMILES IDX 1 14
REMARK H PARENT
REMARK Flexibility Score: inf
ROOT
ATOM      1  C   UNL     1     -97.363 -59.516 -65.923  1.00  0.00     0.000 C 
ENDROOT
BRANCH   1   2
ATOM      2  C   UNL     1     -96.523 -60.714 -66.390  1.00  0.00     0.000 C 
BRANCH   2   3
ATOM      3  C   UNL     1     -96.677 -61.005 -67.895  1.00  0.00     0.000 C 
BRANCH   3   4
ATOM      4  C   UNL     1     -95.429 -61.608 -68.573  1.00  0.00     0.006 C 
BRANCH   4   5
ATOM      5  C   UNL     1     -94.237 -61.834 -67.630  1.00  0.00     0.053 C 
BRANCH   5   6
ATOM      6  C   UNL     1     -93.431 -63.033 -68.023  1.00  0.00     0.041 C 
ATOM      7  O   UNL     1     -93.155 -63.241 -69.234  1.00  0.00    -0.550 OA
ATOM      8  O   UNL     1     -92.955 -63.901 -67.049  1.00  0.00    -0.550 OA
ENDBRANCH   5   6
ENDBRANCH   4   5
ENDBRANCH   3   4
ENDBRANCH   2   3
ENDBRANCH   1   2
BRANCH   1   9
ATOM      9  C   UNL     1     -97.843 -58.683 -67.118  1.00  0.00     0.000 C 
BRANCH   9  10
ATOM     10  C   UNL     1     -99.374 -58.659 -67.193  1.00  0.00    -0.000 C 
BRANCH  10  11
ATOM     11  C   UNL     1     -99.984 -59.792 -66.353  1.00  0.00    -0.000 C 
BRANCH  11  12
ATOM     12  C   UNL     1    -100.425 -60.998 -67.202  1.00  0.00    -0.000 C 
BRANCH  12  13
ATOM     13  C   UNL     1    -100.010 -62.370 -66.642  1.00  0.00    -0.003 C 
ATOM     14  C   UNL     1     -99.681 -62.332 -65.150  1.00  0.00     0.004 C 
ENDBRANCH  12  13
ENDBRANCH  11  12
ENDBRANCH  10  11
ENDBRANCH   9  10
ENDBRANCH   1   9
TORSDOF 10
ENDMDL
