MODEL 1
REMARK VINA RESULT:    -5.687      0.000      0.000
REMARK INTER + INTRA:          -7.171
REMARK INTER:                  -6.851
REMARK INTRA:                  -0.320
REMARK UNBOUND:                -0.320
REMARK SMILES Oc1cc(O)c2cc(O)c(-c3ccc(O)c(O)c3)[o+]c2c1
REMARK SMILES IDX 10 1 19 2 20 3 21 4 2 5 3 6 4 7 6 8 7 9 8 10 11 11 12 12
REMARK SMILES IDX 13 13 14 14 18 15 16 16 15 17 17 19 9 21 1 23 5 25
REMARK H PARENT 15 18 17 20 9 22 1 24 5 26
REMARK Flexibility Score: inf
ROOT
ATOM      1  C   UNL     1      -4.993  -9.542   8.387  1.00  0.00     0.402 A 
ATOM      2  O   UNL     1      -4.176 -10.093   7.493  1.00  0.00    -0.202 OA
ATOM      3  C   UNL     1      -2.853  -9.982   7.549  1.00  0.00     0.368 A 
ATOM      4  C   UNL     1      -2.076 -10.599   6.565  1.00  0.00     0.162 A 
ATOM      5  C   UNL     1      -0.685 -10.503   6.599  1.00  0.00     0.128 A 
ATOM      6  C   UNL     1      -0.062  -9.784   7.626  1.00  0.00     0.093 A 
ATOM      7  C   UNL     1      -0.817  -9.156   8.624  1.00  0.00     0.136 A 
ATOM      8  C   UNL     1      -2.233  -9.250   8.591  1.00  0.00     0.125 A 
ATOM      9  C   UNL     1      -3.070  -8.643   9.541  1.00  0.00     0.078 A 
ATOM     10  C   UNL     1      -4.458  -8.776   9.439  1.00  0.00     0.223 A 
ENDROOT
BRANCH   1  11
ATOM     11  C   UNL     1      -6.451  -9.746   8.222  1.00  0.00     0.087 A 
ATOM     12  C   UNL     1      -7.070 -10.946   8.612  1.00  0.00     0.022 A 
ATOM     13  C   UNL     1      -8.444 -11.125   8.425  1.00  0.00     0.051 A 
ATOM     14  C   UNL     1      -9.214 -10.115   7.835  1.00  0.00     0.157 A 
ATOM     15  C   UNL     1      -7.224  -8.746   7.612  1.00  0.00     0.068 A 
ATOM     16  C   UNL     1      -8.600  -8.920   7.424  1.00  0.00     0.158 A 
BRANCH  14  17
ATOM     17  O   UNL     1     -10.585 -10.296   7.653  1.00  0.00    -0.504 OA
ATOM     18  H   UNL     1     -11.262  -9.916   8.304  1.00  0.00     0.293 HD
ENDBRANCH  14  17
BRANCH  16  19
ATOM     19  O   UNL     1      -9.338  -7.899   6.827  1.00  0.00    -0.504 OA
ATOM     20  H   UNL     1      -8.895  -7.100   6.389  1.00  0.00     0.293 HD
ENDBRANCH  16  19
ENDBRANCH   1  11
BRANCH  10  21
ATOM     21  O   UNL     1      -5.291  -8.132  10.354  1.00  0.00    -0.500 OA
ATOM     22  H   UNL     1      -5.018  -7.998  11.321  1.00  0.00     0.294 HD
ENDBRANCH  10  21
BRANCH   5  23
ATOM     23  O   UNL     1       0.071 -11.125   5.608  1.00  0.00    -0.507 OA
ATOM     24  H   UNL     1      -0.148 -11.011   4.625  1.00  0.00     0.293 HD
ENDBRANCH   5  23
BRANCH   7  25
ATOM     25  O   UNL     1      -0.121  -8.460   9.616  1.00  0.00    -0.507 OA
ATOM     26  H   UNL     1       0.838  -8.155   9.534  1.00  0.00     0.293 HD
ENDBRANCH   7  25
TORSDOF 6
ENDMDL
MODEL 2
REMARK VINA RESULT:    -5.539      2.807      7.635
REMARK INTER + INTRA:          -6.993
REMARK INTER:                  -6.649
REMARK INTRA:                  -0.344
REMARK UNBOUND:                -0.320
REMARK SMILES Oc1cc(O)c2cc(O)c(-c3ccc(O)c(O)c3)[o+]c2c1
REMARK SMILES IDX 10 1 19 2 20 3 21 4 2 5 3 6 4 7 6 8 7 9 8 10 11 11 12 12
REMARK SMILES IDX 13 13 14 14 18 15 16 16 15 17 17 19 9 21 1 23 5 25
REMARK H PARENT 15 18 17 20 9 22 1 24 5 26
REMARK Flexibility Score: inf
ROOT
ATOM      1  C   UNL     1      -6.246  -8.484   9.250  1.00  0.00     0.402 A 
ATOM      2  O   UNL     1      -7.292  -8.076   9.963  1.00  0.00    -0.202 OA
ATOM      3  C   UNL     1      -8.537  -8.476   9.725  1.00  0.00     0.368 A 
ATOM      4  C   UNL     1      -9.571  -7.995  10.533  1.00  0.00     0.162 A 
ATOM      5  C   UNL     1     -10.888  -8.399  10.309  1.00  0.00     0.128 A 
ATOM      6  C   UNL     1     -11.174  -9.293   9.270  1.00  0.00     0.093 A 
ATOM      7  C   UNL     1     -10.156  -9.790   8.447  1.00  0.00     0.136 A 
ATOM      8  C   UNL     1      -8.817  -9.379   8.671  1.00  0.00     0.125 A 
ATOM      9  C   UNL     1      -7.734  -9.813   7.889  1.00  0.00     0.078 A 
ATOM     10  C   UNL     1      -6.441  -9.360   8.167  1.00  0.00     0.223 A 
ENDROOT
BRANCH   1  11
ATOM     11  C   UNL     1      -4.905  -7.974   9.620  1.00  0.00     0.087 A 
ATOM     12  C   UNL     1      -4.025  -8.735  10.408  1.00  0.00     0.022 A 
ATOM     13  C   UNL     1      -2.774  -8.224  10.765  1.00  0.00     0.051 A 
ATOM     14  C   UNL     1      -2.390  -6.943  10.350  1.00  0.00     0.157 A 
ATOM     15  C   UNL     1      -4.524  -6.682   9.225  1.00  0.00     0.068 A 
ATOM     16  C   UNL     1      -3.271  -6.167   9.579  1.00  0.00     0.158 A 
BRANCH  14  17
ATOM     17  O   UNL     1      -1.140  -6.437  10.705  1.00  0.00    -0.504 OA
ATOM     18  H   UNL     1      -0.831  -5.522  10.400  1.00  0.00     0.293 HD
ENDBRANCH  14  17
BRANCH  16  19
ATOM     19  O   UNL     1      -2.921  -4.886   9.157  1.00  0.00    -0.504 OA
ATOM     20  H   UNL     1      -3.551  -4.097   9.250  1.00  0.00     0.293 HD
ENDBRANCH  16  19
ENDBRANCH   1  11
BRANCH  10  21
ATOM     21  O   UNL     1      -5.374  -9.754   7.359  1.00  0.00    -0.500 OA
ATOM     22  H   UNL     1      -5.438  -9.742   6.348  1.00  0.00     0.294 HD
ENDBRANCH  10  21
BRANCH   5  23
ATOM     23  O   UNL     1     -11.905  -7.908  11.124  1.00  0.00    -0.507 OA
ATOM     24  H   UNL     1     -11.744  -7.693  12.101  1.00  0.00     0.293 HD
ENDBRANCH   5  23
BRANCH   7  25
ATOM     25  O   UNL     1     -10.524 -10.679   7.434  1.00  0.00    -0.507 OA
ATOM     26  H   UNL     1     -11.381 -10.619   6.905  1.00  0.00     0.293 HD
ENDBRANCH   7  25
TORSDOF 6
ENDMDL
MODEL 3
REMARK VINA RESULT:    -5.499      1.126      2.667
REMARK INTER + INTRA:          -6.945
REMARK INTER:                  -6.596
REMARK INTRA:                  -0.348
REMARK UNBOUND:                -0.320
REMARK SMILES Oc1cc(O)c2cc(O)c(-c3ccc(O)c(O)c3)[o+]c2c1
REMARK SMILES IDX 10 1 19 2 20 3 21 4 2 5 3 6 4 7 6 8 7 9 8 10 11 11 12 12
REMARK SMILES IDX 13 13 14 14 18 15 16 16 15 17 17 19 9 21 1 23 5 25
REMARK H PARENT 15 18 17 20 9 22 1 24 5 26
REMARK Flexibility Score: inf
ROOT
ATOM      1  C   UNL     1      -5.073  -9.583   8.118  1.00  0.00     0.402 A 
ATOM      2  O   UNL     1      -4.410  -8.868   9.023  1.00  0.00    -0.202 OA
ATOM      3  C   UNL     1      -3.084  -8.781   9.054  1.00  0.00     0.368 A 
ATOM      4  C   UNL     1      -2.477  -8.001  10.043  1.00  0.00     0.162 A 
ATOM      5  C   UNL     1      -1.088  -7.888  10.100  1.00  0.00     0.128 A 
ATOM      6  C   UNL     1      -0.296  -8.558   9.160  1.00  0.00     0.093 A 
ATOM      7  C   UNL     1      -0.880  -9.345   8.159  1.00  0.00     0.136 A 
ATOM      8  C   UNL     1      -2.292  -9.464   8.100  1.00  0.00     0.125 A 
ATOM      9  C   UNL     1      -2.963 -10.241   7.142  1.00  0.00     0.078 A 
ATOM     10  C   UNL     1      -4.359 -10.314   7.151  1.00  0.00     0.223 A 
ENDROOT
BRANCH   1  11
ATOM     11  C   UNL     1      -6.553  -9.593   8.182  1.00  0.00     0.087 A 
ATOM     12  C   UNL     1      -7.245 -10.530   8.967  1.00  0.00     0.022 A 
ATOM     13  C   UNL     1      -8.643 -10.534   8.993  1.00  0.00     0.051 A 
ATOM     14  C   UNL     1      -9.367  -9.612   8.228  1.00  0.00     0.157 A 
ATOM     15  C   UNL     1      -7.283  -8.684   7.400  1.00  0.00     0.068 A 
ATOM     16  C   UNL     1      -8.683  -8.684   7.425  1.00  0.00     0.158 A 
BRANCH  14  17
ATOM     17  O   UNL     1     -10.761  -9.617   8.259  1.00  0.00    -0.504 OA
ATOM     18  H   UNL     1     -11.276  -9.271   9.060  1.00  0.00     0.293 HD
ENDBRANCH  14  17
BRANCH  16  19
ATOM     19  O   UNL     1      -9.375  -7.758   6.646  1.00  0.00    -0.504 OA
ATOM     20  H   UNL     1     -10.205  -8.008   6.122  1.00  0.00     0.293 HD
ENDBRANCH  16  19
ENDBRANCH   1  11
BRANCH  10  21
ATOM     21  O   UNL     1      -5.023 -11.125   6.229  1.00  0.00    -0.500 OA
ATOM     22  H   UNL     1      -4.773 -12.098   6.100  1.00  0.00     0.294 HD
ENDBRANCH  10  21
BRANCH   5  23
ATOM     23  O   UNL     1      -0.502  -7.107  11.093  1.00  0.00    -0.507 OA
ATOM     24  H   UNL     1       0.447  -6.761  11.005  1.00  0.00     0.293 HD
ENDBRANCH   5  23
BRANCH   7  25
ATOM     25  O   UNL     1      -0.021  -9.980   7.257  1.00  0.00    -0.507 OA
ATOM     26  H   UNL     1       0.875  -9.616   6.969  1.00  0.00     0.293 HD
ENDBRANCH   7  25
TORSDOF 6
ENDMDL
MODEL 4
REMARK VINA RESULT:    -5.278      2.591      3.336
REMARK INTER + INTRA:          -6.678
REMARK INTER:                  -6.343
REMARK INTRA:                  -0.335
REMARK UNBOUND:                -0.320
REMARK SMILES Oc1cc(O)c2cc(O)c(-c3ccc(O)c(O)c3)[o+]c2c1
REMARK SMILES IDX 10 1 19 2 20 3 21 4 2 5 3 6 4 7 6 8 7 9 8 10 11 11 12 12
REMARK SMILES IDX 13 13 14 14 18 15 16 16 15 17 17 19 9 21 1 23 5 25
REMARK H PARENT 15 18 17 20 9 22 1 24 5 26
REMARK Flexibility Score: inf
ROOT
ATOM      1  C   UNL     1      -6.408  -8.760   9.603  1.00  0.00     0.402 A 
ATOM      2  O   UNL     1      -5.680  -7.652   9.487  1.00  0.00    -0.202 OA
ATOM      3  C   UNL     1      -4.368  -7.618   9.696  1.00  0.00     0.368 A 
ATOM      4  C   UNL     1      -3.688  -6.406   9.546  1.00  0.00     0.162 A 
ATOM      5  C   UNL     1      -2.310  -6.339   9.756  1.00  0.00     0.128 A 
ATOM      6  C   UNL     1      -1.605  -7.493  10.118  1.00  0.00     0.093 A 
ATOM      7  C   UNL     1      -2.262  -8.719  10.274  1.00  0.00     0.136 A 
ATOM      8  C   UNL     1      -3.664  -8.790  10.064  1.00  0.00     0.125 A 
ATOM      9  C   UNL     1      -4.408  -9.971  10.211  1.00  0.00     0.078 A 
ATOM     10  C   UNL     1      -5.789  -9.962   9.991  1.00  0.00     0.223 A 
ENDROOT
BRANCH   1  11
ATOM     11  C   UNL     1      -7.862  -8.672   9.333  1.00  0.00     0.087 A 
ATOM     12  C   UNL     1      -8.792  -8.514  10.375  1.00  0.00     0.022 A 
ATOM     13  C   UNL     1     -10.160  -8.457  10.099  1.00  0.00     0.051 A 
ATOM     14  C   UNL     1     -10.620  -8.568   8.780  1.00  0.00     0.157 A 
ATOM     15  C   UNL     1      -8.329  -8.804   8.016  1.00  0.00     0.068 A 
ATOM     16  C   UNL     1      -9.700  -8.746   7.734  1.00  0.00     0.158 A 
BRANCH  14  17
ATOM     17  O   UNL     1     -11.987  -8.508   8.507  1.00  0.00    -0.504 OA
ATOM     18  H   UNL     1     -12.612  -9.264   8.759  1.00  0.00     0.293 HD
ENDBRANCH  14  17
BRANCH  16  19
ATOM     19  O   UNL     1     -10.126  -8.868   6.413  1.00  0.00    -0.504 OA
ATOM     20  H   UNL     1      -9.692  -8.350   5.657  1.00  0.00     0.293 HD
ENDBRANCH  16  19
ENDBRANCH   1  11
BRANCH  10  21
ATOM     21  O   UNL     1      -6.536 -11.125  10.185  1.00  0.00    -0.500 OA
ATOM     22  H   UNL     1      -6.404 -11.713  10.999  1.00  0.00     0.294 HD
ENDBRANCH  10  21
BRANCH   5  23
ATOM     23  O   UNL     1      -1.650  -5.122   9.603  1.00  0.00    -0.507 OA
ATOM     24  H   UNL     1      -2.119  -4.310   9.217  1.00  0.00     0.293 HD
ENDBRANCH   5  23
BRANCH   7  25
ATOM     25  O   UNL     1      -1.487  -9.824  10.634  1.00  0.00    -0.507 OA
ATOM     26  H   UNL     1      -0.541  -9.769  10.982  1.00  0.00     0.293 HD
ENDBRANCH   7  25
TORSDOF 6
ENDMDL
MODEL 5
REMARK VINA RESULT:    -5.064      2.043      2.433
REMARK INTER + INTRA:          -6.420
REMARK INTER:                  -6.157
REMARK INTRA:                  -0.263
REMARK UNBOUND:                -0.320
REMARK SMILES Oc1cc(O)c2cc(O)c(-c3ccc(O)c(O)c3)[o+]c2c1
REMARK SMILES IDX 10 1 19 2 20 3 21 4 2 5 3 6 4 7 6 8 7 9 8 10 11 11 12 12
REMARK SMILES IDX 13 13 14 14 18 15 16 16 15 17 17 19 9 21 1 23 5 25
REMARK H PARENT 15 18 17 20 9 22 1 24 5 26
REMARK Flexibility Score: inf
ROOT
ATOM      1  C   UNL     1      -4.027  -7.711   9.263  1.00  0.00     0.402 A 
ATOM      2  O   UNL     1      -3.154  -8.689   9.041  1.00  0.00    -0.202 OA
ATOM      3  C   UNL     1      -1.837  -8.506   9.045  1.00  0.00     0.368 A 
ATOM      4  C   UNL     1      -0.998  -9.598   8.805  1.00  0.00     0.162 A 
ATOM      5  C   UNL     1       0.388  -9.436   8.804  1.00  0.00     0.128 A 
ATOM      6  C   UNL     1       0.941  -8.174   9.047  1.00  0.00     0.093 A 
ATOM      7  C   UNL     1       0.123  -7.065   9.291  1.00  0.00     0.136 A 
ATOM      8  C   UNL     1      -1.287  -7.225   9.289  1.00  0.00     0.125 A 
ATOM      9  C   UNL     1      -2.185  -6.168   9.510  1.00  0.00     0.078 A 
ATOM     10  C   UNL     1      -3.563  -6.402   9.488  1.00  0.00     0.223 A 
ENDROOT
BRANCH   1  11
ATOM     11  C   UNL     1      -5.470  -8.044   9.244  1.00  0.00     0.087 A 
ATOM     12  C   UNL     1      -6.063  -8.789  10.278  1.00  0.00     0.022 A 
ATOM     13  C   UNL     1      -7.422  -9.111  10.227  1.00  0.00     0.051 A 
ATOM     14  C   UNL     1      -8.205  -8.705   9.138  1.00  0.00     0.157 A 
ATOM     15  C   UNL     1      -6.254  -7.657   8.145  1.00  0.00     0.068 A 
ATOM     16  C   UNL     1      -7.616  -7.977   8.090  1.00  0.00     0.158 A 
BRANCH  14  17
ATOM     17  O   UNL     1      -9.561  -9.025   9.091  1.00  0.00    -0.504 OA
ATOM     18  H   UNL     1      -9.950  -9.770   9.657  1.00  0.00     0.293 HD
ENDBRANCH  14  17
BRANCH  16  19
ATOM     19  O   UNL     1      -8.365  -7.565   6.990  1.00  0.00    -0.504 OA
ATOM     20  H   UNL     1      -9.347  -7.324   7.066  1.00  0.00     0.293 HD
ENDBRANCH  16  19
ENDBRANCH   1  11
BRANCH  10  21
ATOM     21  O   UNL     1      -4.455  -5.343   9.658  1.00  0.00    -0.500 OA
ATOM     22  H   UNL     1      -5.297  -5.260   9.101  1.00  0.00     0.294 HD
ENDBRANCH  10  21
BRANCH   5  23
ATOM     23  O   UNL     1       1.207 -10.537   8.562  1.00  0.00    -0.507 OA
ATOM     24  H   UNL     1       1.241 -11.322   9.202  1.00  0.00     0.293 HD
ENDBRANCH   5  23
BRANCH   7  25
ATOM     25  O   UNL     1       0.752  -5.839   9.527  1.00  0.00    -0.507 OA
ATOM     26  H   UNL     1       1.725  -5.736   9.774  1.00  0.00     0.293 HD
ENDBRANCH   7  25
TORSDOF 6
ENDMDL
MODEL 6
REMARK VINA RESULT:    -5.016      2.374      3.444
REMARK INTER + INTRA:          -6.362
REMARK INTER:                  -6.024
REMARK INTRA:                  -0.338
REMARK UNBOUND:                -0.320
REMARK SMILES Oc1cc(O)c2cc(O)c(-c3ccc(O)c(O)c3)[o+]c2c1
REMARK SMILES IDX 10 1 19 2 20 3 21 4 2 5 3 6 4 7 6 8 7 9 8 10 11 11 12 12
REMARK SMILES IDX 13 13 14 14 18 15 16 16 15 17 17 19 9 21 1 23 5 25
REMARK H PARENT 15 18 17 20 9 22 1 24 5 26
REMARK Flexibility Score: inf
ROOT
ATOM      1  C   UNL     1      -3.169  -8.815   9.261  1.00  0.00     0.402 A 
ATOM      2  O   UNL     1      -2.587  -7.713   8.796  1.00  0.00    -0.202 OA
ATOM      3  C   UNL     1      -1.330  -7.380   9.073  1.00  0.00     0.368 A 
ATOM      4  C   UNL     1      -0.805  -6.202   8.534  1.00  0.00     0.162 A 
ATOM      5  C   UNL     1       0.512  -5.827   8.805  1.00  0.00     0.128 A 
ATOM      6  C   UNL     1       1.311  -6.636   9.621  1.00  0.00     0.093 A 
ATOM      7  C   UNL     1       0.809  -7.821  10.173  1.00  0.00     0.136 A 
ATOM      8  C   UNL     1      -0.530  -8.204   9.901  1.00  0.00     0.125 A 
ATOM      9  C   UNL     1      -1.123  -9.365  10.422  1.00  0.00     0.078 A 
ATOM     10  C   UNL     1      -2.451  -9.674  10.113  1.00  0.00     0.223 A 
ENDROOT
BRANCH   1  11
ATOM     11  C   UNL     1      -4.573  -9.082   8.872  1.00  0.00     0.087 A 
ATOM     12  C   UNL     1      -5.648  -8.512   9.574  1.00  0.00     0.022 A 
ATOM     13  C   UNL     1      -6.965  -8.796   9.202  1.00  0.00     0.051 A 
ATOM     14  C   UNL     1      -7.226  -9.663   8.133  1.00  0.00     0.157 A 
ATOM     15  C   UNL     1      -4.840  -9.966   7.814  1.00  0.00     0.068 A 
ATOM     16  C   UNL     1      -6.158 -10.253   7.438  1.00  0.00     0.158 A 
BRANCH  14  17
ATOM     17  O   UNL     1      -8.541  -9.942   7.763  1.00  0.00    -0.504 OA
ATOM     18  H   UNL     1      -9.325  -9.683   8.350  1.00  0.00     0.293 HD
ENDBRANCH  14  17
BRANCH  16  19
ATOM     19  O   UNL     1      -6.384 -11.125   6.374  1.00  0.00    -0.504 OA
ATOM     20  H   UNL     1      -6.125 -10.893   5.423  1.00  0.00     0.293 HD
ENDBRANCH  16  19
ENDBRANCH   1  11
BRANCH  10  21
ATOM     21  O   UNL     1      -3.054 -10.802  10.670  1.00  0.00    -0.500 OA
ATOM     22  H   UNL     1      -2.517 -11.503  11.167  1.00  0.00     0.294 HD
ENDBRANCH  10  21
BRANCH   5  23
ATOM     23  O   UNL     1       1.017  -4.650   8.259  1.00  0.00    -0.507 OA
ATOM     24  H   UNL     1       0.683  -3.741   8.559  1.00  0.00     0.293 HD
ENDBRANCH   5  23
BRANCH   7  25
ATOM     25  O   UNL     1       1.671  -8.574  10.975  1.00  0.00    -0.507 OA
ATOM     26  H   UNL     1       2.156  -9.405  10.668  1.00  0.00     0.293 HD
ENDBRANCH   7  25
TORSDOF 6
ENDMDL
MODEL 7
REMARK VINA RESULT:    -4.947      3.562      6.330
REMARK INTER + INTRA:          -6.280
REMARK INTER:                  -5.932
REMARK INTRA:                  -0.348
REMARK UNBOUND:                -0.320
REMARK SMILES Oc1cc(O)c2cc(O)c(-c3ccc(O)c(O)c3)[o+]c2c1
REMARK SMILES IDX 10 1 19 2 20 3 21 4 2 5 3 6 4 7 6 8 7 9 8 10 11 11 12 12
REMARK SMILES IDX 13 13 14 14 18 15 16 16 15 17 17 19 9 21 1 23 5 25
REMARK H PARENT 15 18 17 20 9 22 1 24 5 26
REMARK Flexibility Score: inf
ROOT
ATOM      1  C   UNL     1       0.142  -8.182   8.811  1.00  0.00     0.402 A 
ATOM      2  O   UNL     1       0.239  -6.885   8.533  1.00  0.00    -0.202 OA
ATOM      3  C   UNL     1       1.245  -6.124   8.951  1.00  0.00     0.368 A 
ATOM      4  C   UNL     1       1.262  -4.770   8.604  1.00  0.00     0.162 A 
ATOM      5  C   UNL     1       2.305  -3.946   9.027  1.00  0.00     0.128 A 
ATOM      6  C   UNL     1       3.342  -4.478   9.802  1.00  0.00     0.093 A 
ATOM      7  C   UNL     1       3.348  -5.831  10.163  1.00  0.00     0.136 A 
ATOM      8  C   UNL     1       2.287  -6.671   9.737  1.00  0.00     0.125 A 
ATOM      9  C   UNL     1       2.203  -8.035  10.062  1.00  0.00     0.078 A 
ATOM     10  C   UNL     1       1.123  -8.798   9.610  1.00  0.00     0.223 A 
ENDROOT
BRANCH   1  11
ATOM     11  C   UNL     1      -1.022  -8.927   8.277  1.00  0.00     0.087 A 
ATOM     12  C   UNL     1      -2.232  -9.003   8.989  1.00  0.00     0.022 A 
ATOM     13  C   UNL     1      -3.309  -9.730   8.476  1.00  0.00     0.051 A 
ATOM     14  C   UNL     1      -3.190 -10.401   7.252  1.00  0.00     0.157 A 
ATOM     15  C   UNL     1      -0.901  -9.618   7.061  1.00  0.00     0.068 A 
ATOM     16  C   UNL     1      -1.979 -10.347   6.543  1.00  0.00     0.158 A 
BRANCH  14  17
ATOM     17  O   UNL     1      -4.268 -11.123   6.741  1.00  0.00    -0.504 OA
ATOM     18  H   UNL     1      -4.364 -12.119   6.903  1.00  0.00     0.293 HD
ENDBRANCH  14  17
BRANCH  16  19
ATOM     19  O   UNL     1      -1.826 -11.009   5.326  1.00  0.00    -0.504 OA
ATOM     20  H   UNL     1      -2.355 -11.842   5.096  1.00  0.00     0.293 HD
ENDBRANCH  16  19
ENDBRANCH   1  11
BRANCH  10  21
ATOM     21  O   UNL     1       1.014 -10.141   9.974  1.00  0.00    -0.500 OA
ATOM     22  H   UNL     1       1.555 -10.863   9.513  1.00  0.00     0.294 HD
ENDBRANCH  10  21
BRANCH   5  23
ATOM     23  O   UNL     1       2.304  -2.599   8.671  1.00  0.00    -0.507 OA
ATOM     24  H   UNL     1       1.800  -1.908   9.215  1.00  0.00     0.293 HD
ENDBRANCH   5  23
BRANCH   7  25
ATOM     25  O   UNL     1       4.420  -6.286  10.937  1.00  0.00    -0.507 OA
ATOM     26  H   UNL     1       4.392  -6.401  11.939  1.00  0.00     0.293 HD
ENDBRANCH   7  25
TORSDOF 6
ENDMDL
MODEL 8
REMARK VINA RESULT:    -4.938      2.646      4.454
REMARK INTER + INTRA:          -6.269
REMARK INTER:                  -5.925
REMARK INTRA:                  -0.343
REMARK UNBOUND:                -0.320
REMARK SMILES Oc1cc(O)c2cc(O)c(-c3ccc(O)c(O)c3)[o+]c2c1
REMARK SMILES IDX 10 1 19 2 20 3 21 4 2 5 3 6 4 7 6 8 7 9 8 10 11 11 12 12
REMARK SMILES IDX 13 13 14 14 18 15 16 16 15 17 17 19 9 21 1 23 5 25
REMARK H PARENT 15 18 17 20 9 22 1 24 5 26
REMARK Flexibility Score: inf
ROOT
ATOM      1  C   UNL     1      -1.579  -9.058   8.703  1.00  0.00     0.402 A 
ATOM      2  O   UNL     1      -1.269  -7.805   8.380  1.00  0.00    -0.202 OA
ATOM      3  C   UNL     1      -0.154  -7.204   8.782  1.00  0.00     0.368 A 
ATOM      4  C   UNL     1       0.088  -5.885   8.388  1.00  0.00     0.162 A 
ATOM      5  C   UNL     1       1.250  -5.229   8.793  1.00  0.00     0.128 A 
ATOM      6  C   UNL     1       2.182  -5.896   9.597  1.00  0.00     0.093 A 
ATOM      7  C   UNL     1       1.964  -7.217  10.005  1.00  0.00     0.136 A 
ATOM      8  C   UNL     1       0.781  -7.887   9.597  1.00  0.00     0.125 A 
ATOM      9  C   UNL     1       0.472  -9.205   9.969  1.00  0.00     0.078 A 
ATOM     10  C   UNL     1      -0.716  -9.797   9.532  1.00  0.00     0.223 A 
ENDROOT
BRANCH   1  11
ATOM     11  C   UNL     1      -2.848  -9.620   8.183  1.00  0.00     0.087 A 
ATOM     12  C   UNL     1      -2.870 -10.451   7.050  1.00  0.00     0.022 A 
ATOM     13  C   UNL     1      -4.081 -10.951   6.564  1.00  0.00     0.051 A 
ATOM     14  C   UNL     1      -5.287 -10.619   7.194  1.00  0.00     0.157 A 
ATOM     15  C   UNL     1      -4.061  -9.272   8.798  1.00  0.00     0.068 A 
ATOM     16  C   UNL     1      -5.276  -9.772   8.315  1.00  0.00     0.158 A 
BRANCH  14  17
ATOM     17  O   UNL     1      -6.493 -11.122   6.709  1.00  0.00    -0.504 OA
ATOM     18  H   UNL     1      -7.012 -10.646   5.980  1.00  0.00     0.293 HD
ENDBRANCH  14  17
BRANCH  16  19
ATOM     19  O   UNL     1      -6.459  -9.416   8.960  1.00  0.00    -0.504 OA
ATOM     20  H   UNL     1      -6.972  -8.576   8.720  1.00  0.00     0.293 HD
ENDBRANCH  16  19
ENDBRANCH   1  11
BRANCH  10  21
ATOM     21  O   UNL     1      -1.046 -11.090   9.941  1.00  0.00    -0.500 OA
ATOM     22  H   UNL     1      -1.157 -11.847   9.278  1.00  0.00     0.294 HD
ENDBRANCH  10  21
BRANCH   5  23
ATOM     23  O   UNL     1       1.472  -3.914   8.390  1.00  0.00    -0.507 OA
ATOM     24  H   UNL     1       2.386  -3.481   8.473  1.00  0.00     0.293 HD
ENDBRANCH   5  23
BRANCH   7  25
ATOM     25  O   UNL     1       2.943  -7.814  10.804  1.00  0.00    -0.507 OA
ATOM     26  H   UNL     1       2.875  -8.744  11.192  1.00  0.00     0.293 HD
ENDBRANCH   7  25
TORSDOF 6
ENDMDL
MODEL 9
REMARK VINA RESULT:    -4.814      3.808      6.037
REMARK INTER + INTRA:          -6.119
REMARK INTER:                  -5.855
REMARK INTRA:                  -0.263
REMARK UNBOUND:                -0.320
REMARK SMILES Oc1cc(O)c2cc(O)c(-c3ccc(O)c(O)c3)[o+]c2c1
REMARK SMILES IDX 10 1 19 2 20 3 21 4 2 5 3 6 4 7 6 8 7 9 8 10 11 11 12 12
REMARK SMILES IDX 13 13 14 14 18 15 16 16 15 17 17 19 9 21 1 23 5 25
REMARK H PARENT 15 18 17 20 9 22 1 24 5 26
REMARK Flexibility Score: inf
ROOT
ATOM      1  C   UNL     1      -0.501  -7.058   8.549  1.00  0.00     0.402 A 
ATOM      2  O   UNL     1       0.728  -7.442   8.883  1.00  0.00    -0.202 OA
ATOM      3  C   UNL     1       1.748  -6.598   9.003  1.00  0.00     0.368 A 
ATOM      4  C   UNL     1       3.004  -7.096   9.363  1.00  0.00     0.162 A 
ATOM      5  C   UNL     1       4.093  -6.234   9.499  1.00  0.00     0.128 A 
ATOM      6  C   UNL     1       3.926  -4.862   9.275  1.00  0.00     0.093 A 
ATOM      7  C   UNL     1       2.679  -4.339   8.915  1.00  0.00     0.136 A 
ATOM      8  C   UNL     1       1.570  -5.213   8.773  1.00  0.00     0.125 A 
ATOM      9  C   UNL     1       0.287  -4.779   8.401  1.00  0.00     0.078 A 
ATOM     10  C   UNL     1      -0.756  -5.701   8.277  1.00  0.00     0.223 A 
ENDROOT
BRANCH   1  11
ATOM     11  C   UNL     1      -1.556  -8.093   8.458  1.00  0.00     0.087 A 
ATOM     12  C   UNL     1      -2.621  -8.135   9.374  1.00  0.00     0.022 A 
ATOM     13  C   UNL     1      -3.593  -9.136   9.283  1.00  0.00     0.051 A 
ATOM     14  C   UNL     1      -3.509 -10.113   8.283  1.00  0.00     0.157 A 
ATOM     15  C   UNL     1      -1.465  -9.088   7.471  1.00  0.00     0.068 A 
ATOM     16  C   UNL     1      -2.437 -10.091   7.375  1.00  0.00     0.158 A 
BRANCH  14  17
ATOM     17  O   UNL     1      -4.482 -11.108   8.193  1.00  0.00    -0.504 OA
ATOM     18  H   UNL     1      -4.635 -11.771   8.944  1.00  0.00     0.293 HD
ENDBRANCH  14  17
BRANCH  16  19
ATOM     19  O   UNL     1      -2.321 -11.054   6.374  1.00  0.00    -0.504 OA
ATOM     20  H   UNL     1      -1.451 -11.540   6.193  1.00  0.00     0.293 HD
ENDBRANCH  16  19
ENDBRANCH   1  11
BRANCH  10  21
ATOM     21  O   UNL     1      -2.018  -5.277   7.860  1.00  0.00    -0.500 OA
ATOM     22  H   UNL     1      -2.522  -4.546   8.347  1.00  0.00     0.294 HD
ENDBRANCH  10  21
BRANCH   5  23
ATOM     23  O   UNL     1       5.336  -6.750   9.857  1.00  0.00    -0.507 OA
ATOM     24  H   UNL     1       6.123  -6.143  10.058  1.00  0.00     0.293 HD
ENDBRANCH   5  23
BRANCH   7  25
ATOM     25  O   UNL     1       2.595  -2.958   8.712  1.00  0.00    -0.507 OA
ATOM     26  H   UNL     1       3.364  -2.316   8.830  1.00  0.00     0.293 HD
ENDBRANCH   7  25
TORSDOF 6
ENDMDL
