MODEL 1
REMARK VINA RESULT:    -6.436      0.000      0.000
REMARK INTER + INTRA:          -7.066
REMARK INTER:                  -6.812
REMARK INTRA:                  -0.254
REMARK UNBOUND:                -0.254
REMARK SMILES CC1=CC[C@@]23[C@@H]([C@@H]12)[C@H](C(C)C)CC[C@@H]3C
REMARK SMILES IDX 15 1 14 2 13 3 12 4 8 5 6 6 5 7 7 8 2 9 3 10 4 11 1 12 9 13
REMARK SMILES IDX 10 14 11 15
REMARK H PARENT
REMARK Flexibility Score: inf
ROOT
ATOM      1  C   UNL     1     -38.880 -45.920  29.288  1.00  0.00     0.008 C 
ATOM      2  C   UNL     1     -39.128 -47.201  28.473  1.00  0.00    -0.007 C 
ATOM      3  C   UNL     1     -38.716 -48.446  29.292  1.00  0.00     0.004 C 
ATOM      4  C   UNL     1     -39.784 -48.831  30.317  1.00  0.00     0.004 C 
ATOM      5  C   UNL     1     -41.072 -49.298  29.614  1.00  0.00    -0.004 C 
ATOM      6  C   UNL     1     -41.589 -48.254  28.587  1.00  0.00     0.007 C 
ATOM      7  C   UNL     1     -40.601 -47.249  27.974  1.00  0.00    -0.013 C 
ATOM      8  C   UNL     1     -41.019 -48.486  27.181  1.00  0.00     0.025 C 
ATOM      9  C   UNL     1     -41.836 -47.951  26.056  1.00  0.00    -0.073 C 
ATOM     10  C   UNL     1     -41.930 -46.629  26.073  1.00  0.00    -0.027 C 
ATOM     11  C   UNL     1     -41.189 -46.040  27.222  1.00  0.00     0.035 C 
ATOM     12  C   UNL     1     -42.495 -48.812  25.025  1.00  0.00     0.039 C 
ENDROOT
BRANCH   5  13
ATOM     13  C   UNL     1     -42.164 -49.719  30.644  1.00  0.00    -0.014 C 
ATOM     14  C   UNL     1     -42.094 -51.224  30.951  1.00  0.00     0.007 C 
ATOM     15  C   UNL     1     -43.596 -49.328  30.232  1.00  0.00     0.007 C 
ENDBRANCH   5  13
TORSDOF 1
ENDMDL
MODEL 2
REMARK VINA RESULT:    -6.149      1.288      4.324
REMARK INTER + INTRA:          -6.762
REMARK INTER:                  -6.552
REMARK INTRA:                  -0.210
REMARK UNBOUND:                -0.254
REMARK SMILES CC1=CC[C@@]23[C@@H]([C@@H]12)[C@H](C(C)C)CC[C@@H]3C
REMARK SMILES IDX 15 1 14 2 13 3 12 4 8 5 6 6 5 7 7 8 2 9 3 10 4 11 1 12 9 13
REMARK SMILES IDX 10 14 11 15
REMARK H PARENT
REMARK Flexibility Score: inf
ROOT
ATOM      1  C   UNL     1     -43.409 -46.119  27.693  1.00  0.00     0.008 C 
ATOM      2  C   UNL     1     -42.724 -47.445  27.316  1.00  0.00    -0.007 C 
ATOM      3  C   UNL     1     -41.442 -47.173  26.498  1.00  0.00     0.004 C 
ATOM      4  C   UNL     1     -40.272 -46.765  27.393  1.00  0.00     0.004 C 
ATOM      5  C   UNL     1     -39.850 -47.932  28.306  1.00  0.00    -0.004 C 
ATOM      6  C   UNL     1     -41.046 -48.499  29.119  1.00  0.00     0.007 C 
ATOM      7  C   UNL     1     -42.475 -48.306  28.587  1.00  0.00    -0.013 C 
ATOM      8  C   UNL     1     -41.761 -49.642  28.385  1.00  0.00     0.025 C 
ATOM      9  C   UNL     1     -42.506 -50.600  29.250  1.00  0.00    -0.073 C 
ATOM     10  C   UNL     1     -43.523 -50.034  29.884  1.00  0.00    -0.027 C 
ATOM     11  C   UNL     1     -43.639 -48.587  29.557  1.00  0.00     0.035 C 
ATOM     12  C   UNL     1     -42.137 -52.042  29.400  1.00  0.00     0.039 C 
ENDROOT
BRANCH   5  13
ATOM     13  C   UNL     1     -38.641 -47.542  29.210  1.00  0.00    -0.014 C 
ATOM     14  C   UNL     1     -38.441 -46.018  29.250  1.00  0.00     0.007 C 
ATOM     15  C   UNL     1     -37.323 -48.241  28.826  1.00  0.00     0.007 C 
ENDBRANCH   5  13
TORSDOF 1
ENDMDL
MODEL 3
REMARK VINA RESULT:    -6.140     11.921     14.118
REMARK INTER + INTRA:          -6.753
REMARK INTER:                  -6.547
REMARK INTRA:                  -0.206
REMARK UNBOUND:                -0.254
REMARK SMILES CC1=CC[C@@]23[C@@H]([C@@H]12)[C@H](C(C)C)CC[C@@H]3C
REMARK SMILES IDX 15 1 14 2 13 3 12 4 8 5 6 6 5 7 7 8 2 9 3 10 4 11 1 12 9 13
REMARK SMILES IDX 10 14 11 15
REMARK H PARENT
REMARK Flexibility Score: inf
ROOT
ATOM      1  C   UNL     1     -50.808 -45.912  22.498  1.00  0.00     0.008 C 
ATOM      2  C   UNL     1     -51.439 -47.297  22.730  1.00  0.00    -0.007 C 
ATOM      3  C   UNL     1     -52.729 -47.164  23.570  1.00  0.00     0.004 C 
ATOM      4  C   UNL     1     -53.916 -46.710  22.719  1.00  0.00     0.004 C 
ATOM      5  C   UNL     1     -54.293 -47.789  21.686  1.00  0.00    -0.004 C 
ATOM      6  C   UNL     1     -53.077 -48.219  20.821  1.00  0.00     0.007 C 
ATOM      7  C   UNL     1     -51.655 -48.027  21.374  1.00  0.00    -0.013 C 
ATOM      8  C   UNL     1     -52.316 -49.404  21.431  1.00  0.00     0.025 C 
ATOM      9  C   UNL     1     -51.535 -50.234  20.471  1.00  0.00    -0.073 C 
ATOM     10  C   UNL     1     -50.543 -49.564  19.903  1.00  0.00    -0.027 C 
ATOM     11  C   UNL     1     -50.483 -48.157  20.383  1.00  0.00     0.035 C 
ATOM     12  C   UNL     1     -51.847 -51.666  20.167  1.00  0.00     0.039 C 
ENDROOT
BRANCH   5  13
ATOM     13  C   UNL     1     -55.518 -47.353  20.826  1.00  0.00    -0.014 C 
ATOM     14  C   UNL     1     -55.878 -45.879  21.071  1.00  0.00     0.007 C 
ATOM     15  C   UNL     1     -56.762 -48.241  21.015  1.00  0.00     0.007 C 
ENDBRANCH   5  13
TORSDOF 1
ENDMDL
MODEL 4
REMARK VINA RESULT:    -6.070     11.423     14.548
REMARK INTER + INTRA:          -6.678
REMARK INTER:                  -6.425
REMARK INTRA:                  -0.254
REMARK UNBOUND:                -0.254
REMARK SMILES CC1=CC[C@@]23[C@@H]([C@@H]12)[C@H](C(C)C)CC[C@@H]3C
REMARK SMILES IDX 15 1 14 2 13 3 12 4 8 5 6 6 5 7 7 8 2 9 3 10 4 11 1 12 9 13
REMARK SMILES IDX 10 14 11 15
REMARK H PARENT
REMARK Flexibility Score: inf
ROOT
ATOM      1  C   UNL     1     -55.415 -45.997  21.174  1.00  0.00     0.008 C 
ATOM      2  C   UNL     1     -55.050 -47.358  21.793  1.00  0.00    -0.007 C 
ATOM      3  C   UNL     1     -55.423 -48.504  20.825  1.00  0.00     0.004 C 
ATOM      4  C   UNL     1     -54.386 -48.672  19.715  1.00  0.00     0.004 C 
ATOM      5  C   UNL     1     -53.038 -49.143  20.295  1.00  0.00    -0.004 C 
ATOM      6  C   UNL     1     -52.537 -48.217  21.436  1.00  0.00     0.007 C 
ATOM      7  C   UNL     1     -53.554 -47.374  22.221  1.00  0.00    -0.013 C 
ATOM      8  C   UNL     1     -53.023 -48.676  22.817  1.00  0.00     0.025 C 
ATOM      9  C   UNL     1     -52.186 -48.246  23.972  1.00  0.00    -0.073 C 
ATOM     10  C   UNL     1     -52.175 -46.931  24.136  1.00  0.00    -0.027 C 
ATOM     11  C   UNL     1     -53.005 -46.242  23.111  1.00  0.00     0.035 C 
ATOM     12  C   UNL     1     -51.427 -49.194  24.846  1.00  0.00     0.039 C 
ENDROOT
BRANCH   5  13
ATOM     13  C   UNL     1     -51.974 -49.345  19.173  1.00  0.00    -0.014 C 
ATOM     14  C   UNL     1     -51.971 -50.793  18.658  1.00  0.00     0.007 C 
ATOM     15  C   UNL     1     -50.549 -48.924  19.580  1.00  0.00     0.007 C 
ENDBRANCH   5  13
TORSDOF 1
ENDMDL
MODEL 5
REMARK VINA RESULT:    -5.927      1.245      4.473
REMARK INTER + INTRA:          -6.527
REMARK INTER:                  -6.275
REMARK INTRA:                  -0.252
REMARK UNBOUND:                -0.254
REMARK SMILES CC1=CC[C@@]23[C@@H]([C@@H]12)[C@H](C(C)C)CC[C@@H]3C
REMARK SMILES IDX 15 1 14 2 13 3 12 4 8 5 6 6 5 7 7 8 2 9 3 10 4 11 1 12 9 13
REMARK SMILES IDX 10 14 11 15
REMARK H PARENT
REMARK Flexibility Score: inf
ROOT
ATOM      1  C   UNL     1     -39.279 -48.438  28.486  1.00  0.00     0.008 C 
ATOM      2  C   UNL     1     -40.632 -47.731  28.681  1.00  0.00    -0.007 C 
ATOM      3  C   UNL     1     -40.886 -46.732  27.530  1.00  0.00     0.004 C 
ATOM      4  C   UNL     1     -41.379 -47.436  26.265  1.00  0.00     0.004 C 
ATOM      5  C   UNL     1     -42.772 -48.054  26.492  1.00  0.00    -0.004 C 
ATOM      6  C   UNL     1     -42.803 -48.984  27.735  1.00  0.00     0.007 C 
ATOM      7  C   UNL     1     -41.769 -48.778  28.854  1.00  0.00    -0.013 C 
ATOM      8  C   UNL     1     -43.187 -48.233  29.017  1.00  0.00     0.025 C 
ATOM      9  C   UNL     1     -43.787 -49.065  30.098  1.00  0.00    -0.073 C 
ATOM     10  C   UNL     1     -42.943 -49.966  30.580  1.00  0.00    -0.027 C 
ATOM     11  C   UNL     1     -41.620 -49.899  29.901  1.00  0.00     0.035 C 
ATOM     12  C   UNL     1     -45.195 -48.911  30.579  1.00  0.00     0.039 C 
ENDROOT
BRANCH   5  13
ATOM     13  C   UNL     1     -43.302 -48.755  25.204  1.00  0.00    -0.014 C 
ATOM     14  C   UNL     1     -44.110 -47.782  24.330  1.00  0.00     0.007 C 
ATOM     15  C   UNL     1     -44.123 -50.029  25.478  1.00  0.00     0.007 C 
ENDBRANCH   5  13
TORSDOF 1
ENDMDL
MODEL 6
REMARK VINA RESULT:    -5.903      9.528     12.478
REMARK INTER + INTRA:          -6.501
REMARK INTER:                  -6.299
REMARK INTRA:                  -0.203
REMARK UNBOUND:                -0.254
REMARK SMILES CC1=CC[C@@]23[C@@H]([C@@H]12)[C@H](C(C)C)CC[C@@H]3C
REMARK SMILES IDX 15 1 14 2 13 3 12 4 8 5 6 6 5 7 7 8 2 9 3 10 4 11 1 12 9 13
REMARK SMILES IDX 10 14 11 15
REMARK H PARENT
REMARK Flexibility Score: inf
ROOT
ATOM      1  C   UNL     1     -54.238 -48.971  21.750  1.00  0.00     0.008 C 
ATOM      2  C   UNL     1     -52.907 -48.247  21.474  1.00  0.00    -0.007 C 
ATOM      3  C   UNL     1     -52.411 -47.532  22.751  1.00  0.00     0.004 C 
ATOM      4  C   UNL     1     -51.739 -48.504  23.722  1.00  0.00     0.004 C 
ATOM      5  C   UNL     1     -50.438 -49.066  23.119  1.00  0.00    -0.004 C 
ATOM      6  C   UNL     1     -50.666 -49.695  21.718  1.00  0.00     0.007 C 
ATOM      7  C   UNL     1     -51.867 -49.237  20.875  1.00  0.00    -0.013 C 
ATOM      8  C   UNL     1     -50.475 -48.680  20.583  1.00  0.00     0.025 C 
ATOM      9  C   UNL     1     -50.112 -49.253  19.257  1.00  0.00    -0.073 C 
ATOM     10  C   UNL     1     -51.069 -50.018  18.750  1.00  0.00    -0.027 C 
ATOM     11  C   UNL     1     -52.248 -50.096  19.653  1.00  0.00     0.035 C 
ATOM     12  C   UNL     1     -48.803 -49.006  18.576  1.00  0.00     0.039 C 
ENDROOT
BRANCH   5  13
ATOM     13  C   UNL     1     -49.725 -50.040  24.106  1.00  0.00    -0.014 C 
ATOM     14  C   UNL     1     -50.375 -49.999  25.499  1.00  0.00     0.007 C 
ATOM     15  C   UNL     1     -48.207 -49.812  24.223  1.00  0.00     0.007 C 
ENDBRANCH   5  13
TORSDOF 1
ENDMDL
MODEL 7
REMARK VINA RESULT:    -5.762      3.021      5.281
REMARK INTER + INTRA:          -6.352
REMARK INTER:                  -6.048
REMARK INTRA:                  -0.304
REMARK UNBOUND:                -0.254
REMARK SMILES CC1=CC[C@@]23[C@@H]([C@@H]12)[C@H](C(C)C)CC[C@@H]3C
REMARK SMILES IDX 15 1 14 2 13 3 12 4 8 5 6 6 5 7 7 8 2 9 3 10 4 11 1 12 9 13
REMARK SMILES IDX 10 14 11 15
REMARK H PARENT
REMARK Flexibility Score: inf
ROOT
ATOM      1  C   UNL     1     -42.393 -51.100  31.667  1.00  0.00     0.008 C 
ATOM      2  C   UNL     1     -43.611 -51.106  30.726  1.00  0.00    -0.007 C 
ATOM      3  C   UNL     1     -44.808 -51.812  31.403  1.00  0.00     0.004 C 
ATOM      4  C   UNL     1     -45.519 -50.897  32.401  1.00  0.00     0.004 C 
ATOM      5  C   UNL     1     -46.188 -49.715  31.676  1.00  0.00    -0.004 C 
ATOM      6  C   UNL     1     -45.190 -48.941  30.773  1.00  0.00     0.007 C 
ATOM      7  C   UNL     1     -43.935 -49.660  30.252  1.00  0.00    -0.013 C 
ATOM      8  C   UNL     1     -45.150 -49.491  29.341  1.00  0.00     0.025 C 
ATOM      9  C   UNL     1     -44.702 -48.531  28.292  1.00  0.00    -0.073 C 
ATOM     10  C   UNL     1     -43.441 -48.152  28.450  1.00  0.00    -0.027 C 
ATOM     11  C   UNL     1     -42.819 -48.791  29.640  1.00  0.00     0.035 C 
ATOM     12  C   UNL     1     -45.582 -48.036  27.189  1.00  0.00     0.039 C 
ENDROOT
BRANCH   5  13
ATOM     13  C   UNL     1     -46.940 -48.784  32.675  1.00  0.00    -0.014 C 
ATOM     14  C   UNL     1     -46.330 -47.373  32.693  1.00  0.00     0.007 C 
ATOM     15  C   UNL     1     -47.024 -49.343  34.108  1.00  0.00     0.007 C 
ENDBRANCH   5  13
TORSDOF 1
ENDMDL
MODEL 8
REMARK VINA RESULT:    -5.711      9.646     12.436
REMARK INTER + INTRA:          -6.298
REMARK INTER:                  -6.010
REMARK INTRA:                  -0.288
REMARK UNBOUND:                -0.254
REMARK SMILES CC1=CC[C@@]23[C@@H]([C@@H]12)[C@H](C(C)C)CC[C@@H]3C
REMARK SMILES IDX 15 1 14 2 13 3 12 4 8 5 6 6 5 7 7 8 2 9 3 10 4 11 1 12 9 13
REMARK SMILES IDX 10 14 11 15
REMARK H PARENT
REMARK Flexibility Score: inf
ROOT
ATOM      1  C   UNL     1     -48.310 -48.498  23.179  1.00  0.00     0.008 C 
ATOM      2  C   UNL     1     -49.428 -49.464  22.748  1.00  0.00    -0.007 C 
ATOM      3  C   UNL     1     -50.421 -49.688  23.911  1.00  0.00     0.004 C 
ATOM      4  C   UNL     1     -51.407 -48.527  24.049  1.00  0.00     0.004 C 
ATOM      5  C   UNL     1     -52.334 -48.450  22.822  1.00  0.00    -0.004 C 
ATOM      6  C   UNL     1     -51.537 -48.392  21.490  1.00  0.00     0.007 C 
ATOM      7  C   UNL     1     -50.108 -48.957  21.444  1.00  0.00    -0.013 C 
ATOM      8  C   UNL     1     -51.272 -49.787  20.907  1.00  0.00     0.025 C 
ATOM      9  C   UNL     1     -51.047 -49.841  19.435  1.00  0.00    -0.073 C 
ATOM     10  C   UNL     1     -49.949 -49.200  19.061  1.00  0.00    -0.027 C 
ATOM     11  C   UNL     1     -49.240 -48.598  20.222  1.00  0.00     0.035 C 
ATOM     12  C   UNL     1     -51.969 -50.529  18.479  1.00  0.00     0.039 C 
ENDROOT
BRANCH   5  13
ATOM     13  C   UNL     1     -53.363 -47.287  22.956  1.00  0.00    -0.014 C 
ATOM     14  C   UNL     1     -54.418 -47.341  21.839  1.00  0.00     0.007 C 
ATOM     15  C   UNL     1     -52.722 -45.888  23.013  1.00  0.00     0.007 C 
ENDBRANCH   5  13
TORSDOF 1
ENDMDL
MODEL 9
REMARK VINA RESULT:    -5.699      9.843     13.396
REMARK INTER + INTRA:          -6.286
REMARK INTER:                  -5.979
REMARK INTRA:                  -0.306
REMARK UNBOUND:                -0.254
REMARK SMILES CC1=CC[C@@]23[C@@H]([C@@H]12)[C@H](C(C)C)CC[C@@H]3C
REMARK SMILES IDX 15 1 14 2 13 3 12 4 8 5 6 6 5 7 7 8 2 9 3 10 4 11 1 12 9 13
REMARK SMILES IDX 10 14 11 15
REMARK H PARENT
REMARK Flexibility Score: inf
ROOT
ATOM      1  C   UNL     1     -51.485 -50.743  18.113  1.00  0.00     0.008 C 
ATOM      2  C   UNL     1     -50.222 -50.625  18.985  1.00  0.00    -0.007 C 
ATOM      3  C   UNL     1     -48.983 -51.122  18.205  1.00  0.00     0.004 C 
ATOM      4  C   UNL     1     -48.467 -50.067  17.226  1.00  0.00     0.004 C 
ATOM      5  C   UNL     1     -47.923 -48.840  17.981  1.00  0.00    -0.004 C 
ATOM      6  C   UNL     1     -48.961 -48.260  18.980  1.00  0.00     0.007 C 
ATOM      7  C   UNL     1     -50.071 -49.174  19.525  1.00  0.00    -0.013 C 
ATOM      8  C   UNL     1     -48.838 -48.881  20.378  1.00  0.00     0.025 C 
ATOM      9  C   UNL     1     -49.349 -48.048  21.502  1.00  0.00    -0.073 C 
ATOM     10  C   UNL     1     -50.656 -47.842  21.435  1.00  0.00    -0.027 C 
ATOM     11  C   UNL     1     -51.257 -48.502  20.244  1.00  0.00     0.035 C 
ATOM     12  C   UNL     1     -48.478 -47.490  22.584  1.00  0.00     0.039 C 
ENDROOT
BRANCH   5  13
ATOM     13  C   UNL     1     -47.369 -47.764  16.999  1.00  0.00    -0.014 C 
ATOM     14  C   UNL     1     -48.117 -46.430  17.150  1.00  0.00     0.007 C 
ATOM     15  C   UNL     1     -47.366 -48.207  15.524  1.00  0.00     0.007 C 
ENDBRANCH   5  13
TORSDOF 1
ENDMDL
