MODEL 1
REMARK VINA RESULT:    10.515      0.000      0.000
REMARK INTER + INTRA:          21.496
REMARK INTER:                  22.809
REMARK INTRA:                  -1.313
REMARK UNBOUND:                -1.313
REMARK SMILES CCCCCCCCCCCCCCCCCCCCCC(=O)[O-]
REMARK SMILES IDX 12 1 11 2 10 3 9 4 8 5 7 6 6 7 5 8 4 9 3 10 2 11 1 12 13 13
REMARK SMILES IDX 14 14 15 15 16 16 17 17 18 18 19 19 20 20 21 21 22 22 23 23
REMARK SMILES IDX 24 24
REMARK H PARENT
REMARK Flexibility Score: inf
ROOT
ATOM      1  C   UNL     1     -14.670  29.729 -17.139  1.00  0.00     0.000 C 
ENDROOT
BRANCH   1   2
ATOM      2  C   UNL     1     -13.781  29.088 -16.061  1.00  0.00     0.000 C 
BRANCH   2   3
ATOM      3  C   UNL     1     -12.412  28.636 -16.603  1.00  0.00     0.000 C 
BRANCH   3   4
ATOM      4  C   UNL     1     -12.475  27.598 -17.738  1.00  0.00    -0.000 C 
BRANCH   4   5
ATOM      5  C   UNL     1     -12.045  28.113 -19.125  1.00  0.00    -0.000 C 
BRANCH   5   6
ATOM      6  C   UNL     1     -11.552  27.007 -20.080  1.00  0.00    -0.000 C 
BRANCH   6   7
ATOM      7  C   UNL     1     -11.971  25.599 -19.621  1.00  0.00    -0.000 C 
BRANCH   7   8
ATOM      8  C   UNL     1     -13.099  25.013 -20.485  1.00  0.00    -0.000 C 
BRANCH   8   9
ATOM      9  C   UNL     1     -13.948  23.977 -19.723  1.00  0.00    -0.000 C 
BRANCH   9  10
ATOM     10  C   UNL     1     -14.232  22.720 -20.571  1.00  0.00    -0.000 C 
BRANCH  10  11
ATOM     11  C   UNL     1     -14.248  21.419 -19.752  1.00  0.00    -0.003 C 
ATOM     12  C   UNL     1     -15.123  20.333 -20.375  1.00  0.00     0.004 C 
ENDBRANCH  10  11
ENDBRANCH   9  10
ENDBRANCH   8   9
ENDBRANCH   7   8
ENDBRANCH   6   7
ENDBRANCH   5   6
ENDBRANCH   4   5
ENDBRANCH   3   4
ENDBRANCH   2   3
ENDBRANCH   1   2
BRANCH   1  13
ATOM     13  C   UNL     1     -14.019  30.961 -17.788  1.00  0.00     0.000 C 
BRANCH  13  14
ATOM     14  C   UNL     1     -14.645  31.311 -19.147  1.00  0.00     0.000 C 
BRANCH  14  15
ATOM     15  C   UNL     1     -15.546  32.547 -19.036  1.00  0.00     0.000 C 
BRANCH  15  16
ATOM     16  C   UNL     1     -14.712  33.834 -18.975  1.00  0.00     0.000 C 
BRANCH  16  17
ATOM     17  C   UNL     1     -15.502  35.039 -18.432  1.00  0.00     0.000 C 
BRANCH  17  18
ATOM     18  C   UNL     1     -17.031  34.940 -18.593  1.00  0.00     0.000 C 
BRANCH  18  19
ATOM     19  C   UNL     1     -17.590  35.577 -19.879  1.00  0.00     0.000 C 
BRANCH  19  20
ATOM     20  C   UNL     1     -18.591  34.674 -20.632  1.00  0.00     0.006 C 
BRANCH  20  21
ATOM     21  C   UNL     1     -20.046  35.097 -20.400  1.00  0.00     0.053 C 
BRANCH  21  22
ATOM     22  C   UNL     1     -20.583  34.462 -19.155  1.00  0.00     0.041 C 
ATOM     23  O   UNL     1     -20.917  33.246 -19.156  1.00  0.00    -0.550 OA
ATOM     24  O   UNL     1     -20.769  35.227 -18.009  1.00  0.00    -0.550 OA
ENDBRANCH  21  22
ENDBRANCH  20  21
ENDBRANCH  19  20
ENDBRANCH  18  19
ENDBRANCH  17  18
ENDBRANCH  16  17
ENDBRANCH  15  16
ENDBRANCH  14  15
ENDBRANCH  13  14
ENDBRANCH   1  13
TORSDOF 20
ENDMDL
MODEL 2
REMARK VINA RESULT:    11.656      1.185      2.109
REMARK INTER + INTRA:          23.970
REMARK INTER:                  25.060
REMARK INTRA:                  -1.089
REMARK UNBOUND:                -1.313
REMARK SMILES CCCCCCCCCCCCCCCCCCCCCC(=O)[O-]
REMARK SMILES IDX 12 1 11 2 10 3 9 4 8 5 7 6 6 7 5 8 4 9 3 10 2 11 1 12 13 13
REMARK SMILES IDX 14 14 15 15 16 16 17 17 18 18 19 19 20 20 21 21 22 22 23 23
REMARK SMILES IDX 24 24
REMARK H PARENT
REMARK Flexibility Score: inf
ROOT
ATOM      1  C   UNL     1     -14.411  31.636 -17.820  1.00  0.00     0.000 C 
ENDROOT
BRANCH   1   2
ATOM      2  C   UNL     1     -14.064  30.138 -17.812  1.00  0.00     0.000 C 
BRANCH   2   3
ATOM      3  C   UNL     1     -14.036  29.536 -16.395  1.00  0.00     0.000 C 
BRANCH   3   4
ATOM      4  C   UNL     1     -13.101  28.325 -16.223  1.00  0.00    -0.000 C 
BRANCH   4   5
ATOM      5  C   UNL     1     -12.027  28.165 -17.316  1.00  0.00    -0.000 C 
BRANCH   5   6
ATOM      6  C   UNL     1     -12.010  26.773 -17.981  1.00  0.00    -0.000 C 
BRANCH   6   7
ATOM      7  C   UNL     1     -12.194  26.844 -19.507  1.00  0.00    -0.000 C 
BRANCH   7   8
ATOM      8  C   UNL     1     -11.497  25.683 -20.236  1.00  0.00    -0.000 C 
BRANCH   8   9
ATOM      9  C   UNL     1     -12.257  24.352 -20.088  1.00  0.00    -0.000 C 
BRANCH   9  10
ATOM     10  C   UNL     1     -13.704  24.560 -19.592  1.00  0.00    -0.000 C 
BRANCH  10  11
ATOM     11  C   UNL     1     -14.614  23.345 -19.832  1.00  0.00    -0.003 C 
ATOM     12  C   UNL     1     -13.845  22.099 -20.266  1.00  0.00     0.004 C 
ENDBRANCH  10  11
ENDBRANCH   9  10
ENDBRANCH   8   9
ENDBRANCH   7   8
ENDBRANCH   6   7
ENDBRANCH   5   6
ENDBRANCH   4   5
ENDBRANCH   3   4
ENDBRANCH   2   3
ENDBRANCH   1   2
BRANCH   1  13
ATOM     13  C   UNL     1     -15.091  32.080 -19.125  1.00  0.00     0.000 C 
BRANCH  13  14
ATOM     14  C   UNL     1     -14.797  33.547 -19.473  1.00  0.00     0.000 C 
BRANCH  14  15
ATOM     15  C   UNL     1     -15.667  34.020 -20.644  1.00  0.00     0.000 C 
BRANCH  15  16
ATOM     16  C   UNL     1     -17.149  34.071 -20.245  1.00  0.00     0.000 C 
BRANCH  16  17
ATOM     17  C   UNL     1     -17.695  35.508 -20.139  1.00  0.00     0.000 C 
BRANCH  17  18
ATOM     18  C   UNL     1     -17.635  36.124 -18.729  1.00  0.00     0.000 C 
BRANCH  18  19
ATOM     19  C   UNL     1     -18.583  35.480 -17.700  1.00  0.00     0.000 C 
BRANCH  19  20
ATOM     20  C   UNL     1     -20.034  35.998 -17.788  1.00  0.00     0.006 C 
BRANCH  20  21
ATOM     21  C   UNL     1     -21.051  34.860 -17.940  1.00  0.00     0.053 C 
BRANCH  21  22
ATOM     22  C   UNL     1     -21.107  34.396 -19.362  1.00  0.00     0.041 C 
ATOM     23  O   UNL     1     -21.109  33.163 -19.627  1.00  0.00    -0.550 OA
ATOM     24  O   UNL     1     -21.098  35.323 -20.397  1.00  0.00    -0.550 OA
ENDBRANCH  21  22
ENDBRANCH  20  21
ENDBRANCH  19  20
ENDBRANCH  18  19
ENDBRANCH  17  18
ENDBRANCH  16  17
ENDBRANCH  15  16
ENDBRANCH  14  15
ENDBRANCH  13  14
ENDBRANCH   1  13
TORSDOF 20
ENDMDL
MODEL 3
REMARK VINA RESULT:    11.753      3.824     10.498
REMARK INTER + INTRA:          24.183
REMARK INTER:                  24.907
REMARK INTRA:                  -0.725
REMARK UNBOUND:                -1.313
REMARK SMILES CCCCCCCCCCCCCCCCCCCCCC(=O)[O-]
REMARK SMILES IDX 12 1 11 2 10 3 9 4 8 5 7 6 6 7 5 8 4 9 3 10 2 11 1 12 13 13
REMARK SMILES IDX 14 14 15 15 16 16 17 17 18 18 19 19 20 20 21 21 22 22 23 23
REMARK SMILES IDX 24 24
REMARK H PARENT
REMARK Flexibility Score: inf
ROOT
ATOM      1  C   UNL     1     -14.711  30.444 -17.395  1.00  0.00     0.000 C 
ENDROOT
BRANCH   1   2
ATOM      2  C   UNL     1     -14.299  31.387 -18.538  1.00  0.00     0.000 C 
BRANCH   2   3
ATOM      3  C   UNL     1     -15.486  32.174 -19.124  1.00  0.00     0.000 C 
BRANCH   3   4
ATOM      4  C   UNL     1     -15.165  33.624 -19.530  1.00  0.00    -0.000 C 
BRANCH   4   5
ATOM      5  C   UNL     1     -15.877  34.711 -18.701  1.00  0.00    -0.000 C 
BRANCH   5   6
ATOM      6  C   UNL     1     -16.693  35.710 -19.546  1.00  0.00    -0.000 C 
BRANCH   6   7
ATOM      7  C   UNL     1     -17.141  35.118 -20.894  1.00  0.00    -0.000 C 
BRANCH   7   8
ATOM      8  C   UNL     1     -18.491  34.388 -20.794  1.00  0.00    -0.000 C 
BRANCH   8   9
ATOM      9  C   UNL     1     -19.683  35.307 -21.124  1.00  0.00    -0.000 C 
BRANCH   9  10
ATOM     10  C   UNL     1     -20.689  35.395 -19.958  1.00  0.00    -0.000 C 
BRANCH  10  11
ATOM     11  C   UNL     1     -20.127  34.880 -18.623  1.00  0.00    -0.003 C 
ATOM     12  C   UNL     1     -20.411  35.821 -17.453  1.00  0.00     0.004 C 
ENDBRANCH  10  11
ENDBRANCH   9  10
ENDBRANCH   8   9
ENDBRANCH   7   8
ENDBRANCH   6   7
ENDBRANCH   5   6
ENDBRANCH   4   5
ENDBRANCH   3   4
ENDBRANCH   2   3
ENDBRANCH   1   2
BRANCH   1  13
ATOM     13  C   UNL     1     -13.546  30.117 -16.447  1.00  0.00     0.000 C 
BRANCH  13  14
ATOM     14  C   UNL     1     -13.634  28.694 -15.876  1.00  0.00     0.000 C 
BRANCH  14  15
ATOM     15  C   UNL     1     -12.606  27.769 -16.540  1.00  0.00     0.000 C 
BRANCH  15  16
ATOM     16  C   UNL     1     -12.575  27.983 -18.061  1.00  0.00     0.000 C 
BRANCH  16  17
ATOM     17  C   UNL     1     -11.676  26.968 -18.793  1.00  0.00     0.000 C 
BRANCH  17  18
ATOM     18  C   UNL     1     -12.291  26.353 -20.064  1.00  0.00     0.000 C 
BRANCH  18  19
ATOM     19  C   UNL     1     -12.593  24.846 -19.974  1.00  0.00     0.000 C 
BRANCH  19  20
ATOM     20  C   UNL     1     -13.640  24.363 -21.001  1.00  0.00     0.006 C 
BRANCH  20  21
ATOM     21  C   UNL     1     -13.715  22.833 -21.080  1.00  0.00     0.053 C 
BRANCH  21  22
ATOM     22  C   UNL     1     -14.312  22.274 -19.826  1.00  0.00     0.041 C 
ATOM     23  O   UNL     1     -14.596  21.047 -19.751  1.00  0.00    -0.550 OA
ATOM     24  O   UNL     1     -14.610  23.116 -18.762  1.00  0.00    -0.550 OA
ENDBRANCH  21  22
ENDBRANCH  20  21
ENDBRANCH  19  20
ENDBRANCH  18  19
ENDBRANCH  17  18
ENDBRANCH  16  17
ENDBRANCH  15  16
ENDBRANCH  14  15
ENDBRANCH  13  14
ENDBRANCH   1  13
TORSDOF 20
ENDMDL
MODEL 4
REMARK VINA RESULT:    12.072      2.358      4.503
REMARK INTER + INTRA:          24.874
REMARK INTER:                  25.279
REMARK INTRA:                  -0.405
REMARK UNBOUND:                -1.313
REMARK SMILES CCCCCCCCCCCCCCCCCCCCCC(=O)[O-]
REMARK SMILES IDX 12 1 11 2 10 3 9 4 8 5 7 6 6 7 5 8 4 9 3 10 2 11 1 12 13 13
REMARK SMILES IDX 14 14 15 15 16 16 17 17 18 18 19 19 20 20 21 21 22 22 23 23
REMARK SMILES IDX 24 24
REMARK H PARENT
REMARK Flexibility Score: inf
ROOT
ATOM      1  C   UNL     1     -14.800  34.268 -18.499  1.00  0.00     0.000 C 
ENDROOT
BRANCH   1   2
ATOM      2  C   UNL     1     -14.857  33.480 -19.818  1.00  0.00     0.000 C 
BRANCH   2   3
ATOM      3  C   UNL     1     -14.417  32.012 -19.659  1.00  0.00     0.000 C 
BRANCH   3   4
ATOM      4  C   UNL     1     -14.100  31.583 -18.214  1.00  0.00    -0.000 C 
BRANCH   4   5
ATOM      5  C   UNL     1     -13.353  30.242 -18.076  1.00  0.00    -0.000 C 
BRANCH   5   6
ATOM      6  C   UNL     1     -13.569  29.541 -16.719  1.00  0.00    -0.000 C 
BRANCH   6   7
ATOM      7  C   UNL     1     -12.944  28.136 -16.674  1.00  0.00    -0.000 C 
BRANCH   7   8
ATOM      8  C   UNL     1     -12.089  27.834 -17.916  1.00  0.00    -0.000 C 
BRANCH   8   9
ATOM      9  C   UNL     1     -12.146  26.350 -18.324  1.00  0.00    -0.000 C 
BRANCH   9  10
ATOM     10  C   UNL     1     -12.157  26.168 -19.857  1.00  0.00    -0.000 C 
BRANCH  10  11
ATOM     11  C   UNL     1     -11.775  27.442 -20.627  1.00  0.00    -0.003 C 
ATOM     12  C   UNL     1     -10.300  27.811 -20.476  1.00  0.00     0.004 C 
ENDBRANCH  10  11
ENDBRANCH   9  10
ENDBRANCH   8   9
ENDBRANCH   7   8
ENDBRANCH   6   7
ENDBRANCH   5   6
ENDBRANCH   4   5
ENDBRANCH   3   4
ENDBRANCH   2   3
ENDBRANCH   1   2
BRANCH   1  13
ATOM     13  C   UNL     1     -15.235  35.733 -18.665  1.00  0.00     0.000 C 
BRANCH  13  14
ATOM     14  C   UNL     1     -16.474  36.078 -17.825  1.00  0.00     0.000 C 
BRANCH  14  15
ATOM     15  C   UNL     1     -17.735  36.124 -18.695  1.00  0.00     0.000 C 
BRANCH  15  16
ATOM     16  C   UNL     1     -17.435  35.655 -20.126  1.00  0.00     0.000 C 
BRANCH  16  17
ATOM     17  C   UNL     1     -18.520  34.722 -20.695  1.00  0.00     0.000 C 
BRANCH  17  18
ATOM     18  C   UNL     1     -19.822  35.425 -21.125  1.00  0.00     0.000 C 
BRANCH  18  19
ATOM     19  C   UNL     1     -21.060  35.071 -20.279  1.00  0.00     0.000 C 
BRANCH  19  20
ATOM     20  C   UNL     1     -21.059  35.722 -18.879  1.00  0.00     0.006 C 
BRANCH  20  21
ATOM     21  C   UNL     1     -20.889  34.690 -17.757  1.00  0.00     0.053 C 
BRANCH  21  22
ATOM     22  C   UNL     1     -20.353  35.345 -16.522  1.00  0.00     0.041 C 
ATOM     23  O   UNL     1     -21.085  36.116 -15.844  1.00  0.00    -0.550 OA
ATOM     24  O   UNL     1     -19.028  35.150 -16.151  1.00  0.00    -0.550 OA
ENDBRANCH  21  22
ENDBRANCH  20  21
ENDBRANCH  19  20
ENDBRANCH  18  19
ENDBRANCH  17  18
ENDBRANCH  16  17
ENDBRANCH  15  16
ENDBRANCH  14  15
ENDBRANCH  13  14
ENDBRANCH   1  13
TORSDOF 20
ENDMDL
MODEL 5
REMARK VINA RESULT:    12.128      1.414      2.147
REMARK INTER + INTRA:          24.995
REMARK INTER:                  23.883
REMARK INTRA:                   1.112
REMARK UNBOUND:                -1.313
REMARK SMILES CCCCCCCCCCCCCCCCCCCCCC(=O)[O-]
REMARK SMILES IDX 12 1 11 2 10 3 9 4 8 5 7 6 6 7 5 8 4 9 3 10 2 11 1 12 13 13
REMARK SMILES IDX 14 14 15 15 16 16 17 17 18 18 19 19 20 20 21 21 22 22 23 23
REMARK SMILES IDX 24 24
REMARK H PARENT
REMARK Flexibility Score: inf
ROOT
ATOM      1  C   UNL     1     -14.297  30.965 -18.361  1.00  0.00     0.000 C 
ENDROOT
BRANCH   1   2
ATOM      2  C   UNL     1     -13.604  30.520 -17.063  1.00  0.00     0.000 C 
BRANCH   2   3
ATOM      3  C   UNL     1     -13.934  29.066 -16.674  1.00  0.00     0.000 C 
BRANCH   3   4
ATOM      4  C   UNL     1     -12.887  28.024 -17.110  1.00  0.00    -0.000 C 
BRANCH   4   5
ATOM      5  C   UNL     1     -11.949  28.473 -18.248  1.00  0.00    -0.000 C 
BRANCH   5   6
ATOM      6  C   UNL     1     -11.930  27.517 -19.458  1.00  0.00    -0.000 C 
BRANCH   6   7
ATOM      7  C   UNL     1     -11.766  26.044 -19.046  1.00  0.00    -0.000 C 
BRANCH   7   8
ATOM      8  C   UNL     1     -11.935  25.080 -20.232  1.00  0.00    -0.000 C 
BRANCH   8   9
ATOM      9  C   UNL     1     -13.372  24.541 -20.354  1.00  0.00    -0.000 C 
BRANCH   9  10
ATOM     10  C   UNL     1     -13.403  23.028 -20.657  1.00  0.00    -0.000 C 
BRANCH  10  11
ATOM     11  C   UNL     1     -14.760  22.371 -20.357  1.00  0.00    -0.003 C 
ATOM     12  C   UNL     1     -14.634  21.098 -19.521  1.00  0.00     0.004 C 
ENDBRANCH  10  11
ENDBRANCH   9  10
ENDBRANCH   8   9
ENDBRANCH   7   8
ENDBRANCH   6   7
ENDBRANCH   5   6
ENDBRANCH   4   5
ENDBRANCH   3   4
ENDBRANCH   2   3
ENDBRANCH   1   2
BRANCH   1  13
ATOM     13  C   UNL     1     -14.736  32.438 -18.323  1.00  0.00     0.000 C 
BRANCH  13  14
ATOM     14  C   UNL     1     -15.922  32.723 -19.256  1.00  0.00     0.000 C 
BRANCH  14  15
ATOM     15  C   UNL     1     -15.526  33.705 -20.366  1.00  0.00     0.000 C 
BRANCH  15  16
ATOM     16  C   UNL     1     -16.551  34.841 -20.488  1.00  0.00     0.000 C 
BRANCH  16  17
ATOM     17  C   UNL     1     -17.905  34.372 -21.053  1.00  0.00     0.000 C 
BRANCH  17  18
ATOM     18  C   UNL     1     -19.097  34.516 -20.088  1.00  0.00     0.000 C 
BRANCH  18  19
ATOM     19  C   UNL     1     -19.417  35.961 -19.663  1.00  0.00     0.000 C 
BRANCH  19  20
ATOM     20  C   UNL     1     -20.816  36.125 -19.031  1.00  0.00     0.006 C 
BRANCH  20  21
ATOM     21  C   UNL     1     -20.898  35.504 -17.631  1.00  0.00     0.053 C 
BRANCH  21  22
ATOM     22  C   UNL     1     -19.592  35.654 -16.915  1.00  0.00     0.041 C 
ATOM     23  O   UNL     1     -19.569  36.017 -15.707  1.00  0.00    -0.550 OA
ATOM     24  O   UNL     1     -18.398  35.451 -17.596  1.00  0.00    -0.550 OA
ENDBRANCH  21  22
ENDBRANCH  20  21
ENDBRANCH  19  20
ENDBRANCH  18  19
ENDBRANCH  17  18
ENDBRANCH  16  17
ENDBRANCH  15  16
ENDBRANCH  14  15
ENDBRANCH  13  14
ENDBRANCH   1  13
TORSDOF 20
ENDMDL
MODEL 6
REMARK VINA RESULT:    13.211      2.329      4.203
REMARK INTER + INTRA:          27.345
REMARK INTER:                  26.256
REMARK INTRA:                   1.089
REMARK UNBOUND:                -1.313
REMARK SMILES CCCCCCCCCCCCCCCCCCCCCC(=O)[O-]
REMARK SMILES IDX 12 1 11 2 10 3 9 4 8 5 7 6 6 7 5 8 4 9 3 10 2 11 1 12 13 13
REMARK SMILES IDX 14 14 15 15 16 16 17 17 18 18 19 19 20 20 21 21 22 22 23 23
REMARK SMILES IDX 24 24
REMARK H PARENT
REMARK Flexibility Score: inf
ROOT
ATOM      1  C   UNL     1     -15.542  33.058 -19.443  1.00  0.00     0.000 C 
ENDROOT
BRANCH   1   2
ATOM      2  C   UNL     1     -14.925  31.650 -19.489  1.00  0.00     0.000 C 
BRANCH   2   3
ATOM      3  C   UNL     1     -14.800  31.004 -18.096  1.00  0.00     0.000 C 
BRANCH   3   4
ATOM      4  C   UNL     1     -13.629  30.015 -17.943  1.00  0.00    -0.000 C 
BRANCH   4   5
ATOM      5  C   UNL     1     -13.607  29.224 -16.621  1.00  0.00    -0.000 C 
BRANCH   5   6
ATOM      6  C   UNL     1     -12.520  28.131 -16.563  1.00  0.00    -0.000 C 
BRANCH   6   7
ATOM      7  C   UNL     1     -12.604  27.151 -17.746  1.00  0.00    -0.000 C 
BRANCH   7   8
ATOM      8  C   UNL     1     -11.571  27.464 -18.842  1.00  0.00    -0.000 C 
BRANCH   8   9
ATOM      9  C   UNL     1     -11.754  26.584 -20.093  1.00  0.00    -0.000 C 
BRANCH   9  10
ATOM     10  C   UNL     1     -13.002  25.683 -19.993  1.00  0.00    -0.000 C 
BRANCH  10  11
ATOM     11  C   UNL     1     -12.680  24.181 -20.068  1.00  0.00    -0.003 C 
ATOM     12  C   UNL     1     -13.918  23.297 -19.922  1.00  0.00     0.004 C 
ENDBRANCH  10  11
ENDBRANCH   9  10
ENDBRANCH   8   9
ENDBRANCH   7   8
ENDBRANCH   6   7
ENDBRANCH   5   6
ENDBRANCH   4   5
ENDBRANCH   3   4
ENDBRANCH   2   3
ENDBRANCH   1   2
BRANCH   1  13
ATOM     13  C   UNL     1     -16.267  33.429 -20.747  1.00  0.00     0.000 C 
BRANCH  13  14
ATOM     14  C   UNL     1     -16.079  34.906 -21.125  1.00  0.00     0.000 C 
BRANCH  14  15
ATOM     15  C   UNL     1     -17.022  35.807 -20.318  1.00  0.00     0.000 C 
BRANCH  15  16
ATOM     16  C   UNL     1     -18.456  35.733 -20.864  1.00  0.00     0.000 C 
BRANCH  16  17
ATOM     17  C   UNL     1     -19.461  35.167 -19.843  1.00  0.00     0.000 C 
BRANCH  17  18
ATOM     18  C   UNL     1     -19.596  35.983 -18.543  1.00  0.00     0.000 C 
BRANCH  18  19
ATOM     19  C   UNL     1     -18.653  35.550 -17.405  1.00  0.00     0.000 C 
BRANCH  19  20
ATOM     20  C   UNL     1     -17.225  36.124 -17.533  1.00  0.00     0.006 C 
BRANCH  20  21
ATOM     21  C   UNL     1     -16.160  35.023 -17.610  1.00  0.00     0.053 C 
BRANCH  21  22
ATOM     22  C   UNL     1     -14.792  35.609 -17.447  1.00  0.00     0.041 C 
ATOM     23  O   UNL     1     -14.121  35.946 -18.460  1.00  0.00    -0.550 OA
ATOM     24  O   UNL     1     -14.233  35.727 -16.180  1.00  0.00    -0.550 OA
ENDBRANCH  21  22
ENDBRANCH  20  21
ENDBRANCH  19  20
ENDBRANCH  18  19
ENDBRANCH  17  18
ENDBRANCH  16  17
ENDBRANCH  15  16
ENDBRANCH  14  15
ENDBRANCH  13  14
ENDBRANCH   1  13
TORSDOF 20
ENDMDL
