MODEL 1
REMARK VINA RESULT:    -7.418      0.000      0.000
REMARK INTER + INTRA:         -12.076
REMARK INTER:                 -10.454
REMARK INTRA:                  -1.622
REMARK UNBOUND:                -1.622
REMARK SMILES COc1c(O[C@@H]2O[C@H](C(=O)[O-])[C@H](O)[C@H](O)[C@H]2O)cc(O)c2c(=O)cc(-c3ccccc3)oc12
REMARK SMILES IDX 5 1 6 2 8 3 12 4 7 5 14 6 16 7 9 8 10 9 11 10 13 11 15 13
REMARK SMILES IDX 17 15 4 17 3 18 18 19 33 20 19 21 21 22 32 23 22 24 25 25
REMARK SMILES IDX 24 26 23 27 2 28 1 29 20 30 26 32 27 33 31 34 28 35 30 36
REMARK SMILES IDX 29 37
REMARK H PARENT 13 12 15 14 17 16 20 31
REMARK Flexibility Score: inf
ROOT
ATOM      1  O   UNL     1       7.350  -8.235 -35.328  1.00  0.00    -0.458 OA
ENDROOT
BRANCH   1   2
ATOM      2  C   UNL     1       7.202  -6.889 -35.796  1.00  0.00     0.339 C 
ATOM      3  C   UNL     1       9.533  -6.439 -35.993  1.00  0.00     0.199 C 
ATOM      4  C   UNL     1       9.494  -5.428 -34.817  1.00  0.00     0.180 C 
ATOM      5  O   UNL     1       8.276  -6.528 -36.657  1.00  0.00    -0.328 OA
ATOM      6  C   UNL     1       8.343  -5.735 -33.839  1.00  0.00     0.181 C 
ATOM      7  C   UNL     1       7.032  -5.901 -34.625  1.00  0.00     0.214 C 
BRANCH   3   8
ATOM      8  C   UNL     1      10.085  -7.812 -35.678  1.00  0.00     0.073 C 
ATOM      9  O   UNL     1      10.612  -8.072 -34.562  1.00  0.00    -0.547 OA
ATOM     10  O   UNL     1      10.081  -8.789 -36.669  1.00  0.00    -0.547 OA
ENDBRANCH   3   8
BRANCH   4  11
ATOM     11  O   UNL     1      10.730  -5.392 -34.150  1.00  0.00    -0.387 OA
ATOM     12  H   UNL     1      10.545  -5.584 -33.194  1.00  0.00     0.211 HD
ENDBRANCH   4  11
BRANCH   6  13
ATOM     13  O   UNL     1       8.605  -6.905 -33.104  1.00  0.00    -0.387 OA
ATOM     14  H   UNL     1       8.002  -6.893 -32.310  1.00  0.00     0.211 HD
ENDBRANCH   6  13
BRANCH   7  15
ATOM     15  O   UNL     1       6.626  -4.660 -35.142  1.00  0.00    -0.384 OA
ATOM     16  H   UNL     1       7.047  -3.956 -34.577  1.00  0.00     0.211 HD
ENDBRANCH   7  15
ENDBRANCH   1   2
BRANCH   1  17
ATOM     17  C   UNL     1       6.307  -9.171 -35.318  1.00  0.00     0.172 A 
ATOM     18  C   UNL     1       5.590  -9.458 -34.141  1.00  0.00     0.205 A 
ATOM     19  C   UNL     1       5.973  -9.796 -36.517  1.00  0.00     0.097 A 
ATOM     20  C   UNL     1       4.578 -10.450 -34.177  1.00  0.00     0.188 A 
ATOM     21  C   UNL     1       4.965 -10.758 -36.573  1.00  0.00     0.134 A 
ATOM     22  C   UNL     1       4.260 -11.104 -35.399  1.00  0.00     0.111 A 
ATOM     23  O   UNL     1       3.906 -10.771 -33.072  1.00  0.00    -0.452 OA
ATOM     24  C   UNL     1       3.241 -12.077 -35.387  1.00  0.00     0.197 A 
ATOM     25  C   UNL     1       2.933 -11.677 -33.031  1.00  0.00     0.138 A 
ATOM     26  C   UNL     1       2.574 -12.362 -34.199  1.00  0.00     0.100 A 
ATOM     27  O   UNL     1       2.912 -12.701 -36.433  1.00  0.00    -0.289 OA
BRANCH  18  28
ATOM     28  O   UNL     1       5.906  -8.707 -32.993  1.00  0.00    -0.490 OA
ATOM     29  C   UNL     1       5.064  -7.765 -32.329  1.00  0.00     0.278 C 
ENDBRANCH  18  28
BRANCH  21  30
ATOM     30  O   UNL     1       4.667 -11.366 -37.792  1.00  0.00    -0.507 OA
ATOM     31  H   UNL     1       3.718 -11.420 -38.144  1.00  0.00     0.293 HD
ENDBRANCH  21  30
BRANCH  25  32
ATOM     32  C   UNL     1       2.255 -11.945 -31.741  1.00  0.00     0.017 A 
ATOM     33  C   UNL     1       0.962 -11.456 -31.471  1.00  0.00     0.012 A 
ATOM     34  C   UNL     1       2.922 -12.686 -30.749  1.00  0.00     0.012 A 
ATOM     35  C   UNL     1       0.349 -11.720 -30.241  1.00  0.00     0.001 A 
ATOM     36  C   UNL     1       2.306 -12.948 -29.524  1.00  0.00     0.001 A 
ATOM     37  C   UNL     1       1.020 -12.465 -29.269  1.00  0.00     0.000 A 
ENDBRANCH  25  32
ENDBRANCH   1  17
TORSDOF 9
ENDMDL
MODEL 2
REMARK VINA RESULT:    -7.013      0.905      1.490
REMARK INTER + INTRA:         -11.505
REMARK INTER:                 -10.094
REMARK INTRA:                  -1.411
REMARK UNBOUND:                -1.622
REMARK SMILES COc1c(O[C@@H]2O[C@H](C(=O)[O-])[C@H](O)[C@H](O)[C@H]2O)cc(O)c2c(=O)cc(-c3ccccc3)oc12
REMARK SMILES IDX 5 1 6 2 8 3 12 4 7 5 14 6 16 7 9 8 10 9 11 10 13 11 15 13
REMARK SMILES IDX 17 15 4 17 3 18 18 19 33 20 19 21 21 22 32 23 22 24 25 25
REMARK SMILES IDX 24 26 23 27 2 28 1 29 20 30 26 32 27 33 31 34 28 35 30 36
REMARK SMILES IDX 29 37
REMARK H PARENT 13 12 15 14 17 16 20 31
REMARK Flexibility Score: inf
ROOT
ATOM      1  O   UNL     1       7.032  -8.312 -35.447  1.00  0.00    -0.458 OA
ENDROOT
BRANCH   1   2
ATOM      2  C   UNL     1       7.130  -7.365 -36.518  1.00  0.00     0.339 C 
ATOM      3  C   UNL     1       8.951  -6.137 -35.595  1.00  0.00     0.199 C 
ATOM      4  C   UNL     1       8.057  -4.895 -35.341  1.00  0.00     0.180 C 
ATOM      5  O   UNL     1       8.472  -6.921 -36.683  1.00  0.00    -0.328 OA
ATOM      6  C   UNL     1       6.576  -5.284 -35.167  1.00  0.00     0.181 C 
ATOM      7  C   UNL     1       6.144  -6.195 -36.328  1.00  0.00     0.214 C 
BRANCH   3   8
ATOM      8  C   UNL     1       9.255  -7.000 -34.390  1.00  0.00     0.073 C 
ATOM      9  O   UNL     1       8.872  -6.678 -33.232  1.00  0.00    -0.547 OA
ATOM     10  O   UNL     1      10.042  -8.137 -34.551  1.00  0.00    -0.547 OA
ENDBRANCH   3   8
BRANCH   4  11
ATOM     11  O   UNL     1       8.522  -4.164 -34.235  1.00  0.00    -0.387 OA
ATOM     12  H   UNL     1       8.316  -4.704 -33.428  1.00  0.00     0.211 HD
ENDBRANCH   4  11
BRANCH   6  13
ATOM     13  O   UNL     1       6.370  -5.947 -33.944  1.00  0.00    -0.387 OA
ATOM     14  H   UNL     1       5.652  -6.623 -34.096  1.00  0.00     0.211 HD
ENDBRANCH   6  13
BRANCH   7  15
ATOM     15  O   UNL     1       6.093  -5.456 -37.520  1.00  0.00    -0.384 OA
ATOM     16  H   UNL     1       5.827  -6.085 -38.244  1.00  0.00     0.211 HD
ENDBRANCH   7  15
ENDBRANCH   1   2
BRANCH   1  17
ATOM     17  C   UNL     1       6.004  -9.257 -35.340  1.00  0.00     0.172 A 
ATOM     18  C   UNL     1       5.370  -9.517 -34.110  1.00  0.00     0.205 A 
ATOM     19  C   UNL     1       5.598  -9.922 -36.496  1.00  0.00     0.097 A 
ATOM     20  C   UNL     1       4.369 -10.519 -34.050  1.00  0.00     0.188 A 
ATOM     21  C   UNL     1       4.600 -10.894 -36.456  1.00  0.00     0.134 A 
ATOM     22  C   UNL     1       3.979 -11.212 -35.229  1.00  0.00     0.111 A 
ATOM     23  O   UNL     1       3.775 -10.814 -32.894  1.00  0.00    -0.452 OA
ATOM     24  C   UNL     1       2.974 -12.195 -35.120  1.00  0.00     0.197 A 
ATOM     25  C   UNL     1       2.818 -11.728 -32.762  1.00  0.00     0.138 A 
ATOM     26  C   UNL     1       2.391 -12.451 -33.883  1.00  0.00     0.100 A 
ATOM     27  O   UNL     1       2.584 -12.852 -36.124  1.00  0.00    -0.289 OA
BRANCH  18  28
ATOM     28  O   UNL     1       5.752  -8.728 -33.008  1.00  0.00    -0.490 OA
ATOM     29  C   UNL     1       4.884  -8.051 -32.100  1.00  0.00     0.278 C 
ENDBRANCH  18  28
BRANCH  21  30
ATOM     30  O   UNL     1       4.229 -11.541 -37.636  1.00  0.00    -0.507 OA
ATOM     31  H   UNL     1       4.880 -12.122 -38.153  1.00  0.00     0.293 HD
ENDBRANCH  21  30
BRANCH  25  32
ATOM     32  C   UNL     1       2.231 -11.964 -31.422  1.00  0.00     0.017 A 
ATOM     33  C   UNL     1       2.905 -12.722 -30.444  1.00  0.00     0.012 A 
ATOM     34  C   UNL     1       0.961 -11.443 -31.121  1.00  0.00     0.012 A 
ATOM     35  C   UNL     1       2.324 -12.934 -29.190  1.00  0.00     0.001 A 
ATOM     36  C   UNL     1       0.385 -11.656 -29.867  1.00  0.00     0.001 A 
ATOM     37  C   UNL     1       1.065 -12.401 -28.901  1.00  0.00     0.000 A 
ENDBRANCH  25  32
ENDBRANCH   1  17
TORSDOF 9
ENDMDL
MODEL 3
REMARK VINA RESULT:    -6.798      2.274      8.189
REMARK INTER + INTRA:         -11.202
REMARK INTER:                  -9.360
REMARK INTRA:                  -1.842
REMARK UNBOUND:                -1.622
REMARK SMILES COc1c(O[C@@H]2O[C@H](C(=O)[O-])[C@H](O)[C@H](O)[C@H]2O)cc(O)c2c(=O)cc(-c3ccccc3)oc12
REMARK SMILES IDX 5 1 6 2 8 3 12 4 7 5 14 6 16 7 9 8 10 9 11 10 13 11 15 13
REMARK SMILES IDX 17 15 4 17 3 18 18 19 33 20 19 21 21 22 32 23 22 24 25 25
REMARK SMILES IDX 24 26 23 27 2 28 1 29 20 30 26 32 27 33 31 34 28 35 30 36
REMARK SMILES IDX 29 37
REMARK H PARENT 13 12 15 14 17 16 20 31
REMARK Flexibility Score: inf
ROOT
ATOM      1  O   UNL     1       1.753 -11.090 -32.446  1.00  0.00    -0.458 OA
ENDROOT
BRANCH   1   2
ATOM      2  C   UNL     1       1.171 -12.334 -32.038  1.00  0.00     0.339 C 
ATOM      3  C   UNL     1       0.360 -11.552 -29.940  1.00  0.00     0.199 C 
ATOM      4  C   UNL     1       1.376 -12.427 -29.158  1.00  0.00     0.180 C 
ATOM      5  O   UNL     1       0.038 -12.118 -31.206  1.00  0.00    -0.328 OA
ATOM      6  C   UNL     1       2.634 -12.725 -29.996  1.00  0.00     0.181 C 
ATOM      7  C   UNL     1       2.217 -13.255 -31.379  1.00  0.00     0.214 C 
BRANCH   3   8
ATOM      8  C   UNL     1       0.700 -10.083 -30.066  1.00  0.00     0.073 C 
ATOM      9  O   UNL     1       1.674  -9.574 -29.447  1.00  0.00    -0.547 OA
ATOM     10  O   UNL     1      -0.127  -9.258 -30.823  1.00  0.00    -0.547 OA
ENDBRANCH   3   8
BRANCH   4  11
ATOM     11  O   UNL     1       1.713 -11.825 -27.935  1.00  0.00    -0.387 OA
ATOM     12  H   UNL     1       1.271 -12.357 -27.222  1.00  0.00     0.211 HD
ENDBRANCH   4  11
BRANCH   6  13
ATOM     13  O   UNL     1       3.422 -11.572 -30.150  1.00  0.00    -0.387 OA
ATOM     14  H   UNL     1       2.823 -10.852 -30.494  1.00  0.00     0.211 HD
ENDBRANCH   6  13
BRANCH   7  15
ATOM     15  O   UNL     1       1.664 -14.539 -31.250  1.00  0.00    -0.384 OA
ATOM     16  H   UNL     1       1.365 -14.636 -30.305  1.00  0.00     0.211 HD
ENDBRANCH   7  15
ENDBRANCH   1   2
BRANCH   1  17
ATOM     17  C   UNL     1       2.723 -10.979 -33.450  1.00  0.00     0.172 A 
ATOM     18  C   UNL     1       3.808 -10.090 -33.328  1.00  0.00     0.205 A 
ATOM     19  C   UNL     1       2.605 -11.797 -34.572  1.00  0.00     0.097 A 
ATOM     20  C   UNL     1       4.734  -9.983 -34.397  1.00  0.00     0.188 A 
ATOM     21  C   UNL     1       3.520 -11.719 -35.621  1.00  0.00     0.134 A 
ATOM     22  C   UNL     1       4.592 -10.803 -35.550  1.00  0.00     0.111 A 
ATOM     23  O   UNL     1       5.751  -9.125 -34.328  1.00  0.00    -0.452 OA
ATOM     24  C   UNL     1       5.541 -10.666 -36.583  1.00  0.00     0.197 A 
ATOM     25  C   UNL     1       6.668  -8.981 -35.280  1.00  0.00     0.138 A 
ATOM     26  C   UNL     1       6.584  -9.754 -36.445  1.00  0.00     0.100 A 
ATOM     27  O   UNL     1       5.473 -11.356 -37.637  1.00  0.00    -0.289 OA
BRANCH  18  28
ATOM     28  O   UNL     1       3.926  -9.377 -32.119  1.00  0.00    -0.490 OA
ATOM     29  C   UNL     1       3.543  -8.023 -31.884  1.00  0.00     0.278 C 
ENDBRANCH  18  28
BRANCH  21  30
ATOM     30  O   UNL     1       3.361 -12.551 -36.729  1.00  0.00    -0.507 OA
ATOM     31  H   UNL     1       4.152 -12.857 -37.284  1.00  0.00     0.293 HD
ENDBRANCH  21  30
BRANCH  25  32
ATOM     32  C   UNL     1       7.756  -7.994 -35.086  1.00  0.00     0.017 A 
ATOM     33  C   UNL     1       7.873  -7.250 -33.896  1.00  0.00     0.012 A 
ATOM     34  C   UNL     1       8.683  -7.775 -36.119  1.00  0.00     0.012 A 
ATOM     35  C   UNL     1       8.908  -6.320 -33.743  1.00  0.00     0.001 A 
ATOM     36  C   UNL     1       9.715  -6.847 -35.961  1.00  0.00     0.001 A 
ATOM     37  C   UNL     1       9.828  -6.120 -34.775  1.00  0.00     0.000 A 
ENDBRANCH  25  32
ENDBRANCH   1  17
TORSDOF 9
ENDMDL
MODEL 4
REMARK VINA RESULT:    -6.465      2.473      3.852
REMARK INTER + INTRA:         -10.733
REMARK INTER:                  -9.081
REMARK INTRA:                  -1.652
REMARK UNBOUND:                -1.622
REMARK SMILES COc1c(O[C@@H]2O[C@H](C(=O)[O-])[C@H](O)[C@H](O)[C@H]2O)cc(O)c2c(=O)cc(-c3ccccc3)oc12
REMARK SMILES IDX 5 1 6 2 8 3 12 4 7 5 14 6 16 7 9 8 10 9 11 10 13 11 15 13
REMARK SMILES IDX 17 15 4 17 3 18 18 19 33 20 19 21 21 22 32 23 22 24 25 25
REMARK SMILES IDX 24 26 23 27 2 28 1 29 20 30 26 32 27 33 31 34 28 35 30 36
REMARK SMILES IDX 29 37
REMARK H PARENT 13 12 15 14 17 16 20 31
REMARK Flexibility Score: inf
ROOT
ATOM      1  O   UNL     1       4.728  -8.768 -33.924  1.00  0.00    -0.458 OA
ENDROOT
BRANCH   1   2
ATOM      2  C   UNL     1       4.020  -7.908 -34.825  1.00  0.00     0.339 C 
ATOM      3  C   UNL     1       5.748  -7.790 -36.461  1.00  0.00     0.199 C 
ATOM      4  C   UNL     1       6.015  -6.293 -36.150  1.00  0.00     0.180 C 
ATOM      5  O   UNL     1       4.403  -8.158 -36.173  1.00  0.00    -0.328 OA
ATOM      6  C   UNL     1       5.611  -5.929 -34.708  1.00  0.00     0.181 C 
ATOM      7  C   UNL     1       4.182  -6.426 -34.434  1.00  0.00     0.214 C 
BRANCH   3   8
ATOM      8  C   UNL     1       6.727  -8.781 -35.870  1.00  0.00     0.073 C 
ATOM      9  O   UNL     1       7.770  -8.403 -35.271  1.00  0.00    -0.547 OA
ATOM     10  O   UNL     1       6.510 -10.142 -36.060  1.00  0.00    -0.547 OA
ENDBRANCH   3   8
BRANCH   4  11
ATOM     11  O   UNL     1       7.358  -5.965 -36.397  1.00  0.00    -0.387 OA
ATOM     12  H   UNL     1       7.492  -6.023 -37.380  1.00  0.00     0.211 HD
ENDBRANCH   4  11
BRANCH   6  13
ATOM     13  O   UNL     1       6.496  -6.500 -33.777  1.00  0.00    -0.387 OA
ATOM     14  H   UNL     1       7.421  -6.308 -34.097  1.00  0.00     0.211 HD
ENDBRANCH   6  13
BRANCH   7  15
ATOM     15  O   UNL     1       3.263  -5.666 -35.175  1.00  0.00    -0.384 OA
ATOM     16  H   UNL     1       2.427  -5.609 -34.636  1.00  0.00     0.211 HD
ENDBRANCH   7  15
ENDBRANCH   1   2
BRANCH   1  17
ATOM     17  C   UNL     1       4.121  -9.804 -33.202  1.00  0.00     0.172 A 
ATOM     18  C   UNL     1       4.061  -9.782 -31.796  1.00  0.00     0.205 A 
ATOM     19  C   UNL     1       3.547 -10.854 -33.916  1.00  0.00     0.097 A 
ATOM     20  C   UNL     1       3.478 -10.881 -31.115  1.00  0.00     0.188 A 
ATOM     21  C   UNL     1       2.950 -11.930 -33.261  1.00  0.00     0.134 A 
ATOM     22  C   UNL     1       2.917 -11.961 -31.850  1.00  0.00     0.111 A 
ATOM     23  O   UNL     1       3.439 -10.908 -29.784  1.00  0.00    -0.452 OA
ATOM     24  C   UNL     1       2.343 -13.028 -31.129  1.00  0.00     0.197 A 
ATOM     25  C   UNL     1       2.894 -11.894 -29.076  1.00  0.00     0.138 A 
ATOM     26  C   UNL     1       2.329 -12.991 -29.738  1.00  0.00     0.100 A 
ATOM     27  O   UNL     1       1.833 -14.021 -31.716  1.00  0.00    -0.289 OA
BRANCH  18  28
ATOM     28  O   UNL     1       4.560  -8.637 -31.146  1.00  0.00    -0.490 OA
ATOM     29  C   UNL     1       3.824  -7.470 -30.786  1.00  0.00     0.278 C 
ENDBRANCH  18  28
BRANCH  21  30
ATOM     30  O   UNL     1       2.393 -12.965 -34.014  1.00  0.00    -0.507 OA
ATOM     31  H   UNL     1       2.807 -13.271 -34.887  1.00  0.00     0.293 HD
ENDBRANCH  21  30
BRANCH  25  32
ATOM     32  C   UNL     1       2.908 -11.809 -27.597  1.00  0.00     0.017 A 
ATOM     33  C   UNL     1       3.550 -10.750 -26.925  1.00  0.00     0.012 A 
ATOM     34  C   UNL     1       2.286 -12.816 -26.839  1.00  0.00     0.012 A 
ATOM     35  C   UNL     1       3.551 -10.698 -25.527  1.00  0.00     0.001 A 
ATOM     36  C   UNL     1       2.289 -12.760 -25.444  1.00  0.00     0.001 A 
ATOM     37  C   UNL     1       2.922 -11.702 -24.787  1.00  0.00     0.000 A 
ENDBRANCH  25  32
ENDBRANCH   1  17
TORSDOF 9
ENDMDL
MODEL 5
REMARK VINA RESULT:    -6.454      2.474      4.346
REMARK INTER + INTRA:         -10.717
REMARK INTER:                  -9.189
REMARK INTRA:                  -1.527
REMARK UNBOUND:                -1.622
REMARK SMILES COc1c(O[C@@H]2O[C@H](C(=O)[O-])[C@H](O)[C@H](O)[C@H]2O)cc(O)c2c(=O)cc(-c3ccccc3)oc12
REMARK SMILES IDX 5 1 6 2 8 3 12 4 7 5 14 6 16 7 9 8 10 9 11 10 13 11 15 13
REMARK SMILES IDX 17 15 4 17 3 18 18 19 33 20 19 21 21 22 32 23 22 24 25 25
REMARK SMILES IDX 24 26 23 27 2 28 1 29 20 30 26 32 27 33 31 34 28 35 30 36
REMARK SMILES IDX 29 37
REMARK H PARENT 13 12 15 14 17 16 20 31
REMARK Flexibility Score: inf
ROOT
ATOM      1  O   UNL     1       4.326  -8.087 -33.926  1.00  0.00    -0.458 OA
ENDROOT
BRANCH   1   2
ATOM      2  C   UNL     1       5.702  -7.691 -33.987  1.00  0.00     0.339 C 
ATOM      3  C   UNL     1       5.325  -5.674 -35.195  1.00  0.00     0.199 C 
ATOM      4  C   UNL     1       6.025  -6.236 -36.462  1.00  0.00     0.180 C 
ATOM      5  O   UNL     1       5.824  -6.274 -34.005  1.00  0.00    -0.328 OA
ATOM      6  C   UNL     1       5.954  -7.775 -36.515  1.00  0.00     0.181 C 
ATOM      7  C   UNL     1       6.427  -8.358 -35.173  1.00  0.00     0.214 C 
BRANCH   3   8
ATOM      8  C   UNL     1       3.812  -5.666 -35.214  1.00  0.00     0.073 C 
ATOM      9  O   UNL     1       3.162  -5.996 -36.243  1.00  0.00    -0.547 OA
ATOM     10  O   UNL     1       3.123  -5.211 -34.094  1.00  0.00    -0.547 OA
ENDBRANCH   3   8
BRANCH   4  11
ATOM     11  O   UNL     1       5.484  -5.664 -37.625  1.00  0.00    -0.387 OA
ATOM     12  H   UNL     1       5.825  -6.195 -38.391  1.00  0.00     0.211 HD
ENDBRANCH   4  11
BRANCH   6  13
ATOM     13  O   UNL     1       4.645  -8.211 -36.784  1.00  0.00    -0.387 OA
ATOM     14  H   UNL     1       4.052  -7.412 -36.718  1.00  0.00     0.211 HD
ENDBRANCH   6  13
BRANCH   7  15
ATOM     15  O   UNL     1       7.808  -8.152 -35.024  1.00  0.00    -0.384 OA
ATOM     16  H   UNL     1       8.199  -9.010 -34.701  1.00  0.00     0.211 HD
ENDBRANCH   7  15
ENDBRANCH   1   2
BRANCH   1  17
ATOM     17  C   UNL     1       3.887  -9.279 -33.335  1.00  0.00     0.172 A 
ATOM     18  C   UNL     1       3.785  -9.412 -31.938  1.00  0.00     0.205 A 
ATOM     19  C   UNL     1       3.523 -10.332 -34.172  1.00  0.00     0.097 A 
ATOM     20  C   UNL     1       3.382 -10.658 -31.393  1.00  0.00     0.188 A 
ATOM     21  C   UNL     1       3.104 -11.555 -33.652  1.00  0.00     0.134 A 
ATOM     22  C   UNL     1       3.037 -11.736 -32.253  1.00  0.00     0.111 A 
ATOM     23  O   UNL     1       3.311 -10.828 -30.074  1.00  0.00    -0.452 OA
ATOM     24  C   UNL     1       2.636 -12.953 -31.665  1.00  0.00     0.197 A 
ATOM     25  C   UNL     1       2.925 -11.959 -29.489  1.00  0.00     0.138 A 
ATOM     26  C   UNL     1       2.577 -13.062 -30.279  1.00  0.00     0.100 A 
ATOM     27  O   UNL     1       2.322 -13.953 -32.367  1.00  0.00    -0.289 OA
BRANCH  18  28
ATOM     28  O   UNL     1       4.061  -8.272 -31.158  1.00  0.00    -0.490 OA
ATOM     29  C   UNL     1       3.123  -7.293 -30.715  1.00  0.00     0.278 C 
ENDBRANCH  18  28
BRANCH  21  30
ATOM     30  O   UNL     1       2.755 -12.586 -34.525  1.00  0.00    -0.507 OA
ATOM     31  H   UNL     1       1.993 -12.490 -35.186  1.00  0.00     0.293 HD
ENDBRANCH  21  30
BRANCH  25  32
ATOM     32  C   UNL     1       2.882 -12.025 -28.010  1.00  0.00     0.017 A 
ATOM     33  C   UNL     1       3.423 -10.999 -27.210  1.00  0.00     0.012 A 
ATOM     34  C   UNL     1       2.310 -13.145 -27.383  1.00  0.00     0.012 A 
ATOM     35  C   UNL     1       3.373 -11.091 -25.814  1.00  0.00     0.001 A 
ATOM     36  C   UNL     1       2.262 -13.232 -25.990  1.00  0.00     0.001 A 
ATOM     37  C   UNL     1       2.793 -12.206 -25.206  1.00  0.00     0.000 A 
ENDBRANCH  25  32
ENDBRANCH   1  17
TORSDOF 9
ENDMDL
MODEL 6
REMARK VINA RESULT:    -6.357      4.630      7.125
REMARK INTER + INTRA:         -10.580
REMARK INTER:                  -8.920
REMARK INTRA:                  -1.660
REMARK UNBOUND:                -1.622
REMARK SMILES COc1c(O[C@@H]2O[C@H](C(=O)[O-])[C@H](O)[C@H](O)[C@H]2O)cc(O)c2c(=O)cc(-c3ccccc3)oc12
REMARK SMILES IDX 5 1 6 2 8 3 12 4 7 5 14 6 16 7 9 8 10 9 11 10 13 11 15 13
REMARK SMILES IDX 17 15 4 17 3 18 18 19 33 20 19 21 21 22 32 23 22 24 25 25
REMARK SMILES IDX 24 26 23 27 2 28 1 29 20 30 26 32 27 33 31 34 28 35 30 36
REMARK SMILES IDX 29 37
REMARK H PARENT 13 12 15 14 17 16 20 31
REMARK Flexibility Score: inf
ROOT
ATOM      1  O   UNL     1       0.186  -7.906 -34.524  1.00  0.00    -0.458 OA
ENDROOT
BRANCH   1   2
ATOM      2  C   UNL     1       0.360  -6.488 -34.410  1.00  0.00     0.339 C 
ATOM      3  C   UNL     1      -1.801  -5.908 -35.227  1.00  0.00     0.199 C 
ATOM      4  C   UNL     1      -1.208  -5.300 -36.525  1.00  0.00     0.180 C 
ATOM      5  O   UNL     1      -0.880  -5.843 -34.143  1.00  0.00    -0.328 OA
ATOM      6  C   UNL     1       0.152  -5.933 -36.881  1.00  0.00     0.181 C 
ATOM      7  C   UNL     1       1.070  -5.906 -35.648  1.00  0.00     0.214 C 
BRANCH   3   8
ATOM      8  C   UNL     1      -2.406  -7.290 -35.350  1.00  0.00     0.073 C 
ATOM      9  O   UNL     1      -2.499  -7.873 -36.464  1.00  0.00    -0.547 OA
ATOM     10  O   UNL     1      -2.942  -7.899 -34.219  1.00  0.00    -0.547 OA
ENDBRANCH   3   8
BRANCH   4  11
ATOM     11  O   UNL     1      -2.116  -5.418 -37.590  1.00  0.00    -0.387 OA
ATOM     12  H   UNL     1      -3.026  -5.406 -37.194  1.00  0.00     0.211 HD
ENDBRANCH   4  11
BRANCH   6  13
ATOM     13  O   UNL     1      -0.009  -7.258 -37.322  1.00  0.00    -0.387 OA
ATOM     14  H   UNL     1      -0.559  -7.729 -36.636  1.00  0.00     0.211 HD
ENDBRANCH   6  13
BRANCH   7  15
ATOM     15  O   UNL     1       1.450  -4.584 -35.365  1.00  0.00    -0.384 OA
ATOM     16  H   UNL     1       1.761  -4.179 -36.220  1.00  0.00     0.211 HD
ENDBRANCH   7  15
ENDBRANCH   1   2
BRANCH   1  17
ATOM     17  C   UNL     1       1.009  -8.842 -33.883  1.00  0.00     0.172 A 
ATOM     18  C   UNL     1       0.637  -9.429 -32.659  1.00  0.00     0.205 A 
ATOM     19  C   UNL     1       2.201  -9.204 -34.506  1.00  0.00     0.097 A 
ATOM     20  C   UNL     1       1.531 -10.334 -32.031  1.00  0.00     0.188 A 
ATOM     21  C   UNL     1       3.079 -10.109 -33.911  1.00  0.00     0.134 A 
ATOM     22  C   UNL     1       2.758 -10.679 -32.660  1.00  0.00     0.111 A 
ATOM     23  O   UNL     1       1.226 -10.879 -30.854  1.00  0.00    -0.452 OA
ATOM     24  C   UNL     1       3.610 -11.588 -32.000  1.00  0.00     0.197 A 
ATOM     25  C   UNL     1       2.003 -11.747 -30.213  1.00  0.00     0.138 A 
ATOM     26  C   UNL     1       3.229 -12.125 -30.775  1.00  0.00     0.100 A 
ATOM     27  O   UNL     1       4.717 -11.933 -32.497  1.00  0.00    -0.289 OA
BRANCH  18  28
ATOM     28  O   UNL     1      -0.632  -9.102 -32.144  1.00  0.00    -0.490 OA
ATOM     29  C   UNL     1      -0.932  -8.084 -31.191  1.00  0.00     0.278 C 
ENDBRANCH  18  28
BRANCH  21  30
ATOM     30  O   UNL     1       4.267 -10.439 -34.565  1.00  0.00    -0.507 OA
ATOM     31  H   UNL     1       4.277 -10.738 -35.534  1.00  0.00     0.293 HD
ENDBRANCH  21  30
BRANCH  25  32
ATOM     32  C   UNL     1       1.552 -12.288 -28.909  1.00  0.00     0.017 A 
ATOM     33  C   UNL     1       0.264 -12.020 -28.405  1.00  0.00     0.012 A 
ATOM     34  C   UNL     1       2.433 -13.069 -28.142  1.00  0.00     0.012 A 
ATOM     35  C   UNL     1      -0.132 -12.540 -27.168  1.00  0.00     0.001 A 
ATOM     36  C   UNL     1       2.033 -13.587 -26.909  1.00  0.00     0.001 A 
ATOM     37  C   UNL     1       0.751 -13.322 -26.421  1.00  0.00     0.000 A 
ENDBRANCH  25  32
ENDBRANCH   1  17
TORSDOF 9
ENDMDL
MODEL 7
REMARK VINA RESULT:    -6.102      4.995      9.013
REMARK INTER + INTRA:         -10.221
REMARK INTER:                  -8.449
REMARK INTRA:                  -1.771
REMARK UNBOUND:                -1.622
REMARK SMILES COc1c(O[C@@H]2O[C@H](C(=O)[O-])[C@H](O)[C@H](O)[C@H]2O)cc(O)c2c(=O)cc(-c3ccccc3)oc12
REMARK SMILES IDX 5 1 6 2 8 3 12 4 7 5 14 6 16 7 9 8 10 9 11 10 13 11 15 13
REMARK SMILES IDX 17 15 4 17 3 18 18 19 33 20 19 21 21 22 32 23 22 24 25 25
REMARK SMILES IDX 24 26 23 27 2 28 1 29 20 30 26 32 27 33 31 34 28 35 30 36
REMARK SMILES IDX 29 37
REMARK H PARENT 13 12 15 14 17 16 20 31
REMARK Flexibility Score: inf
ROOT
ATOM      1  O   UNL     1       2.722 -11.956 -30.327  1.00  0.00    -0.458 OA
ENDROOT
BRANCH   1   2
ATOM      2  C   UNL     1       1.623 -12.595 -30.988  1.00  0.00     0.339 C 
ATOM      3  C   UNL     1       2.731 -12.892 -33.076  1.00  0.00     0.199 C 
ATOM      4  C   UNL     1       1.808 -11.859 -33.776  1.00  0.00     0.180 C 
ATOM      5  O   UNL     1       2.085 -13.515 -31.970  1.00  0.00    -0.328 OA
ATOM      6  C   UNL     1       1.246 -10.829 -32.777  1.00  0.00     0.181 C 
ATOM      7  C   UNL     1       0.638 -11.562 -31.570  1.00  0.00     0.214 C 
BRANCH   3   8
ATOM      8  C   UNL     1       4.115 -12.407 -32.701  1.00  0.00     0.073 C 
ATOM      9  O   UNL     1       4.524 -11.260 -33.028  1.00  0.00    -0.547 OA
ATOM     10  O   UNL     1       4.984 -13.276 -32.048  1.00  0.00    -0.547 OA
ENDBRANCH   3   8
BRANCH   4  11
ATOM     11  O   UNL     1       2.482 -11.225 -34.833  1.00  0.00    -0.387 OA
ATOM     12  H   UNL     1       3.251 -10.742 -34.433  1.00  0.00     0.211 HD
ENDBRANCH   4  11
BRANCH   6  13
ATOM     13  O   UNL     1       2.252  -9.951 -32.339  1.00  0.00    -0.387 OA
ATOM     14  H   UNL     1       1.972  -9.608 -31.445  1.00  0.00     0.211 HD
ENDBRANCH   6  13
BRANCH   7  15
ATOM     15  O   UNL     1      -0.533 -12.232 -31.959  1.00  0.00    -0.384 OA
ATOM     16  H   UNL     1      -0.779 -12.848 -31.217  1.00  0.00     0.211 HD
ENDBRANCH   7  15
ENDBRANCH   1   2
BRANCH   1  17
ATOM     17  C   UNL     1       2.719 -11.620 -28.966  1.00  0.00     0.172 A 
ATOM     18  C   UNL     1       2.960 -10.302 -28.535  1.00  0.00     0.205 A 
ATOM     19  C   UNL     1       2.442 -12.625 -28.042  1.00  0.00     0.097 A 
ATOM     20  C   UNL     1       2.994 -10.029 -27.144  1.00  0.00     0.188 A 
ATOM     21  C   UNL     1       2.450 -12.367 -26.672  1.00  0.00     0.134 A 
ATOM     22  C   UNL     1       2.736 -11.066 -26.205  1.00  0.00     0.111 A 
ATOM     23  O   UNL     1       3.255  -8.800 -26.702  1.00  0.00    -0.452 OA
ATOM     24  C   UNL     1       2.774 -10.744 -24.833  1.00  0.00     0.197 A 
ATOM     25  C   UNL     1       3.287  -8.463 -25.416  1.00  0.00     0.138 A 
ATOM     26  C   UNL     1       3.048  -9.438 -24.439  1.00  0.00     0.100 A 
ATOM     27  O   UNL     1       2.562 -11.615 -23.946  1.00  0.00    -0.289 OA
BRANCH  18  28
ATOM     28  O   UNL     1       3.120  -9.317 -29.528  1.00  0.00    -0.490 OA
ATOM     29  C   UNL     1       4.351  -8.838 -30.067  1.00  0.00     0.278 C 
ENDBRANCH  18  28
BRANCH  21  30
ATOM     30  O   UNL     1       2.175 -13.404 -25.780  1.00  0.00    -0.507 OA
ATOM     31  H   UNL     1       2.877 -14.091 -25.527  1.00  0.00     0.293 HD
ENDBRANCH  21  30
BRANCH  25  32
ATOM     32  C   UNL     1       3.586  -7.059 -25.048  1.00  0.00     0.017 A 
ATOM     33  C   UNL     1       4.031  -6.125 -26.003  1.00  0.00     0.012 A 
ATOM     34  C   UNL     1       3.445  -6.649 -23.711  1.00  0.00     0.012 A 
ATOM     35  C   UNL     1       4.311  -4.807 -25.626  1.00  0.00     0.001 A 
ATOM     36  C   UNL     1       3.724  -5.332 -23.339  1.00  0.00     0.001 A 
ATOM     37  C   UNL     1       4.158  -4.411 -24.295  1.00  0.00     0.000 A 
ENDBRANCH  25  32
ENDBRANCH   1  17
TORSDOF 9
ENDMDL
MODEL 8
REMARK VINA RESULT:    -6.078      4.505      9.557
REMARK INTER + INTRA:         -10.187
REMARK INTER:                  -8.723
REMARK INTRA:                  -1.464
REMARK UNBOUND:                -1.622
REMARK SMILES COc1c(O[C@@H]2O[C@H](C(=O)[O-])[C@H](O)[C@H](O)[C@H]2O)cc(O)c2c(=O)cc(-c3ccccc3)oc12
REMARK SMILES IDX 5 1 6 2 8 3 12 4 7 5 14 6 16 7 9 8 10 9 11 10 13 11 15 13
REMARK SMILES IDX 17 15 4 17 3 18 18 19 33 20 19 21 21 22 32 23 22 24 25 25
REMARK SMILES IDX 24 26 23 27 2 28 1 29 20 30 26 32 27 33 31 34 28 35 30 36
REMARK SMILES IDX 29 37
REMARK H PARENT 13 12 15 14 17 16 20 31
REMARK Flexibility Score: inf
ROOT
ATOM      1  O   UNL     1       2.454 -11.479 -27.369  1.00  0.00    -0.458 OA
ENDROOT
BRANCH   1   2
ATOM      2  C   UNL     1       1.411 -10.633 -26.870  1.00  0.00     0.339 C 
ATOM      3  C   UNL     1       1.710 -11.200 -24.576  1.00  0.00     0.199 C 
ATOM      4  C   UNL     1       0.349 -11.944 -24.525  1.00  0.00     0.180 C 
ATOM      5  O   UNL     1       1.714 -10.170 -25.559  1.00  0.00    -0.328 OA
ATOM      6  C   UNL     1      -0.067 -12.467 -25.914  1.00  0.00     0.181 C 
ATOM      7  C   UNL     1       0.037 -11.330 -26.944  1.00  0.00     0.214 C 
BRANCH   3   8
ATOM      8  C   UNL     1       2.944 -12.069 -24.687  1.00  0.00     0.073 C 
ATOM      9  O   UNL     1       2.871 -13.328 -24.654  1.00  0.00    -0.547 OA
ATOM     10  O   UNL     1       4.196 -11.465 -24.750  1.00  0.00    -0.547 OA
ENDBRANCH   3   8
BRANCH   4  11
ATOM     11  O   UNL     1       0.385 -12.984 -23.582  1.00  0.00    -0.387 OA
ATOM     12  H   UNL     1       0.607 -12.571 -22.707  1.00  0.00     0.211 HD
ENDBRANCH   4  11
BRANCH   6  13
ATOM     13  O   UNL     1       0.747 -13.542 -26.312  1.00  0.00    -0.387 OA
ATOM     14  H   UNL     1       1.187 -13.895 -25.490  1.00  0.00     0.211 HD
ENDBRANCH   6  13
BRANCH   7  15
ATOM     15  O   UNL     1      -0.962 -10.374 -26.701  1.00  0.00    -0.384 OA
ATOM     16  H   UNL     1      -0.860 -10.076 -25.756  1.00  0.00     0.211 HD
ENDBRANCH   7  15
ENDBRANCH   1   2
BRANCH   1  17
ATOM     17  C   UNL     1       2.692 -11.694 -28.733  1.00  0.00     0.172 A 
ATOM     18  C   UNL     1       3.494 -10.814 -29.486  1.00  0.00     0.205 A 
ATOM     19  C   UNL     1       2.136 -12.824 -29.328  1.00  0.00     0.097 A 
ATOM     20  C   UNL     1       3.661 -11.053 -30.874  1.00  0.00     0.188 A 
ATOM     21  C   UNL     1       2.310 -13.084 -30.686  1.00  0.00     0.134 A 
ATOM     22  C   UNL     1       3.068 -12.195 -31.479  1.00  0.00     0.111 A 
ATOM     23  O   UNL     1       4.384 -10.220 -31.621  1.00  0.00    -0.452 OA
ATOM     24  C   UNL     1       3.269 -12.394 -32.860  1.00  0.00     0.197 A 
ATOM     25  C   UNL     1       4.600 -10.386 -32.923  1.00  0.00     0.138 A 
ATOM     26  C   UNL     1       4.040 -11.488 -33.583  1.00  0.00     0.100 A 
ATOM     27  O   UNL     1       2.768 -13.382 -33.464  1.00  0.00    -0.289 OA
BRANCH  18  28
ATOM     28  O   UNL     1       4.116  -9.757 -28.796  1.00  0.00    -0.490 OA
ATOM     29  C   UNL     1       3.655  -8.410 -28.700  1.00  0.00     0.278 C 
ENDBRANCH  18  28
BRANCH  21  30
ATOM     30  O   UNL     1       1.730 -14.224 -31.244  1.00  0.00    -0.507 OA
ATOM     31  H   UNL     1       2.034 -15.157 -30.990  1.00  0.00     0.293 HD
ENDBRANCH  21  30
BRANCH  25  32
ATOM     32  C   UNL     1       5.425  -9.392 -33.647  1.00  0.00     0.017 A 
ATOM     33  C   UNL     1       5.801  -8.172 -33.052  1.00  0.00     0.012 A 
ATOM     34  C   UNL     1       5.829  -9.656 -34.967  1.00  0.00     0.012 A 
ATOM     35  C   UNL     1       6.576  -7.248 -33.762  1.00  0.00     0.001 A 
ATOM     36  C   UNL     1       6.603  -8.733 -35.671  1.00  0.00     0.001 A 
ATOM     37  C   UNL     1       6.977  -7.529 -35.070  1.00  0.00     0.000 A 
ENDBRANCH  25  32
ENDBRANCH   1  17
TORSDOF 9
ENDMDL
MODEL 9
REMARK VINA RESULT:    -6.016      4.556      9.719
REMARK INTER + INTRA:         -10.100
REMARK INTER:                  -8.629
REMARK INTRA:                  -1.472
REMARK UNBOUND:                -1.622
REMARK SMILES COc1c(O[C@@H]2O[C@H](C(=O)[O-])[C@H](O)[C@H](O)[C@H]2O)cc(O)c2c(=O)cc(-c3ccccc3)oc12
REMARK SMILES IDX 5 1 6 2 8 3 12 4 7 5 14 6 16 7 9 8 10 9 11 10 13 11 15 13
REMARK SMILES IDX 17 15 4 17 3 18 18 19 33 20 19 21 21 22 32 23 22 24 25 25
REMARK SMILES IDX 24 26 23 27 2 28 1 29 20 30 26 32 27 33 31 34 28 35 30 36
REMARK SMILES IDX 29 37
REMARK H PARENT 13 12 15 14 17 16 20 31
REMARK Flexibility Score: inf
ROOT
ATOM      1  O   UNL     1       2.436 -11.735 -27.275  1.00  0.00    -0.458 OA
ENDROOT
BRANCH   1   2
ATOM      2  C   UNL     1       2.400 -12.820 -26.340  1.00  0.00     0.339 C 
ATOM      3  C   UNL     1       0.237 -12.326 -25.474  1.00  0.00     0.199 C 
ATOM      4  C   UNL     1       0.822 -11.914 -24.097  1.00  0.00     0.180 C 
ATOM      5  O   UNL     1       1.066 -13.274 -26.138  1.00  0.00    -0.328 OA
ATOM      6  C   UNL     1       2.278 -11.423 -24.220  1.00  0.00     0.181 C 
ATOM      7  C   UNL     1       3.100 -12.449 -25.018  1.00  0.00     0.214 C 
BRANCH   3   8
ATOM      8  C   UNL     1      -0.157 -11.197 -26.400  1.00  0.00     0.073 C 
ATOM      9  O   UNL     1      -0.085  -9.990 -26.038  1.00  0.00    -0.547 OA
ATOM     10  O   UNL     1      -0.683 -11.498 -27.652  1.00  0.00    -0.547 OA
ENDBRANCH   3   8
BRANCH   4  11
ATOM     11  O   UNL     1       0.012 -10.945 -23.481  1.00  0.00    -0.387 OA
ATOM     12  H   UNL     1      -0.252 -10.301 -24.189  1.00  0.00     0.211 HD
ENDBRANCH   4  11
BRANCH   6  13
ATOM     13  O   UNL     1       2.336 -10.172 -24.859  1.00  0.00    -0.387 OA
ATOM     14  H   UNL     1       1.400  -9.922 -25.097  1.00  0.00     0.211 HD
ENDBRANCH   6  13
BRANCH   7  15
ATOM     15  O   UNL     1       3.269 -13.618 -24.259  1.00  0.00    -0.384 OA
ATOM     16  H   UNL     1       4.186 -13.586 -23.871  1.00  0.00     0.211 HD
ENDBRANCH   7  15
ENDBRANCH   1   2
BRANCH   1  17
ATOM     17  C   UNL     1       2.644 -11.902 -28.650  1.00  0.00     0.172 A 
ATOM     18  C   UNL     1       3.439 -11.004 -29.388  1.00  0.00     0.205 A 
ATOM     19  C   UNL     1       2.065 -13.006 -29.273  1.00  0.00     0.097 A 
ATOM     20  C   UNL     1       3.575 -11.194 -30.786  1.00  0.00     0.188 A 
ATOM     21  C   UNL     1       2.208 -13.218 -30.644  1.00  0.00     0.134 A 
ATOM     22  C   UNL     1       2.959 -12.308 -31.420  1.00  0.00     0.111 A 
ATOM     23  O   UNL     1       4.290 -10.341 -31.518  1.00  0.00    -0.452 OA
ATOM     24  C   UNL     1       3.129 -12.458 -32.811  1.00  0.00     0.197 A 
ATOM     25  C   UNL     1       4.477 -10.462 -32.829  1.00  0.00     0.138 A 
ATOM     26  C   UNL     1       3.893 -11.534 -33.516  1.00  0.00     0.100 A 
ATOM     27  O   UNL     1       2.605 -13.419 -33.439  1.00  0.00    -0.289 OA
BRANCH  18  28
ATOM     28  O   UNL     1       4.085  -9.977 -28.673  1.00  0.00    -0.490 OA
ATOM     29  C   UNL     1       3.624  -8.640 -28.492  1.00  0.00     0.278 C 
ENDBRANCH  18  28
BRANCH  21  30
ATOM     30  O   UNL     1       1.605 -14.331 -31.230  1.00  0.00    -0.507 OA
ATOM     31  H   UNL     1       0.963 -14.242 -32.009  1.00  0.00     0.293 HD
ENDBRANCH  21  30
BRANCH  25  32
ATOM     32  C   UNL     1       5.297  -9.449 -33.534  1.00  0.00     0.017 A 
ATOM     33  C   UNL     1       5.698  -8.255 -32.903  1.00  0.00     0.012 A 
ATOM     34  C   UNL     1       5.669  -9.668 -34.872  1.00  0.00     0.012 A 
ATOM     35  C   UNL     1       6.468  -7.314 -33.596  1.00  0.00     0.001 A 
ATOM     36  C   UNL     1       6.438  -8.727 -35.559  1.00  0.00     0.001 A 
ATOM     37  C   UNL     1       6.837  -7.550 -34.922  1.00  0.00     0.000 A 
ENDBRANCH  25  32
ENDBRANCH   1  17
TORSDOF 9
ENDMDL
