MODEL 1
REMARK VINA RESULT:    -4.150      0.000      0.000
REMARK INTER + INTRA:          -5.541
REMARK INTER:                  -5.363
REMARK INTRA:                  -0.177
REMARK UNBOUND:                -0.177
REMARK SMILES CCCCCCC(=O)[O-]
REMARK SMILES IDX 5 1 6 2 7 3 8 4 9 5 4 6 3 7 2 8 1 9
REMARK H PARENT
REMARK Flexibility Score: inf
ROOT
ATOM      1  C   UNL     1     -14.302   1.696  -9.705  1.00  0.00     0.006 C 
ENDROOT
BRANCH   1   2
ATOM      2  C   UNL     1     -15.080   0.374  -9.670  1.00  0.00     0.053 C 
BRANCH   2   3
ATOM      3  C   UNL     1     -14.346  -0.724 -10.375  1.00  0.00     0.041 C 
ATOM      4  O   UNL     1     -14.979  -1.698 -10.863  1.00  0.00    -0.550 OA
ATOM      5  O   UNL     1     -12.966  -0.656 -10.524  1.00  0.00    -0.550 OA
ENDBRANCH   2   3
ENDBRANCH   1   2
BRANCH   1   6
ATOM      6  C   UNL     1     -14.878   2.737  -8.734  1.00  0.00     0.000 C 
BRANCH   6   7
ATOM      7  C   UNL     1     -13.865   3.862  -8.472  1.00  0.00    -0.000 C 
BRANCH   7   8
ATOM      8  C   UNL     1     -12.540   3.649  -9.219  1.00  0.00    -0.003 C 
ATOM      9  C   UNL     1     -11.332   3.610  -8.283  1.00  0.00     0.004 C 
ENDBRANCH   7   8
ENDBRANCH   6   7
ENDBRANCH   1   6
TORSDOF 5
ENDMDL
MODEL 2
REMARK VINA RESULT:    -4.147      2.701      4.166
REMARK INTER + INTRA:          -5.536
REMARK INTER:                  -5.354
REMARK INTRA:                  -0.183
REMARK UNBOUND:                -0.177
REMARK SMILES CCCCCCC(=O)[O-]
REMARK SMILES IDX 5 1 6 2 7 3 8 4 9 5 4 6 3 7 2 8 1 9
REMARK H PARENT
REMARK Flexibility Score: inf
ROOT
ATOM      1  C   UNL     1     -14.716   0.861  -9.290  1.00  0.00     0.006 C 
ENDROOT
BRANCH   1   2
ATOM      2  C   UNL     1     -14.864   2.324  -9.729  1.00  0.00     0.053 C 
BRANCH   2   3
ATOM      3  C   UNL     1     -13.898   3.220  -9.018  1.00  0.00     0.041 C 
ATOM      4  O   UNL     1     -14.274   3.891  -8.019  1.00  0.00    -0.550 OA
ATOM      5  O   UNL     1     -12.575   3.289  -9.434  1.00  0.00    -0.550 OA
ENDBRANCH   2   3
ENDBRANCH   1   2
BRANCH   1   6
ATOM      6  C   UNL     1     -14.761  -0.111 -10.478  1.00  0.00     0.000 C 
BRANCH   6   7
ATOM      7  C   UNL     1     -13.440  -0.884 -10.605  1.00  0.00    -0.000 C 
BRANCH   7   8
ATOM      8  C   UNL     1     -12.238  -0.093 -10.066  1.00  0.00    -0.003 C 
ATOM      9  C   UNL     1     -10.928  -0.877 -10.151  1.00  0.00     0.004 C 
ENDBRANCH   7   8
ENDBRANCH   6   7
ENDBRANCH   1   6
TORSDOF 5
ENDMDL
MODEL 3
REMARK VINA RESULT:    -3.909      2.680      4.456
REMARK INTER + INTRA:          -5.229
REMARK INTER:                  -5.214
REMARK INTRA:                  -0.014
REMARK UNBOUND:                -0.177
REMARK SMILES CCCCCCC(=O)[O-]
REMARK SMILES IDX 5 1 6 2 7 3 8 4 9 5 4 6 3 7 2 8 1 9
REMARK H PARENT
REMARK Flexibility Score: inf
ROOT
ATOM      1  C   UNL     1     -14.743   2.738  -9.266  1.00  0.00     0.006 C 
ENDROOT
BRANCH   1   2
ATOM      2  C   UNL     1     -13.980   3.797  -8.461  1.00  0.00     0.053 C 
BRANCH   2   3
ATOM      3  C   UNL     1     -12.529   3.841  -8.831  1.00  0.00     0.041 C 
ATOM      4  O   UNL     1     -12.187   3.918 -10.041  1.00  0.00    -0.550 OA
ATOM      5  O   UNL     1     -11.556   3.830  -7.840  1.00  0.00    -0.550 OA
ENDBRANCH   2   3
ENDBRANCH   1   2
BRANCH   1   6
ATOM      6  C   UNL     1     -13.992   1.400  -9.327  1.00  0.00     0.000 C 
BRANCH   6   7
ATOM      7  C   UNL     1     -14.879   0.299  -9.930  1.00  0.00    -0.000 C 
BRANCH   7   8
ATOM      8  C   UNL     1     -14.065  -0.779 -10.661  1.00  0.00    -0.003 C 
ATOM      9  C   UNL     1     -12.561  -0.646 -10.426  1.00  0.00     0.004 C 
ENDBRANCH   7   8
ENDBRANCH   6   7
ENDBRANCH   1   6
TORSDOF 5
ENDMDL
MODEL 4
REMARK VINA RESULT:    -3.797      7.089      8.527
REMARK INTER + INTRA:          -5.084
REMARK INTER:                  -4.786
REMARK INTRA:                  -0.298
REMARK UNBOUND:                -0.177
REMARK SMILES CCCCCCC(=O)[O-]
REMARK SMILES IDX 5 1 6 2 7 3 8 4 9 5 4 6 3 7 2 8 1 9
REMARK H PARENT
REMARK Flexibility Score: inf
ROOT
ATOM      1  C   UNL     1     -10.642  -6.149  -8.547  1.00  0.00     0.006 C 
ENDROOT
BRANCH   1   2
ATOM      2  C   UNL     1     -10.940  -4.660  -8.767  1.00  0.00     0.053 C 
BRANCH   2   3
ATOM      3  C   UNL     1      -9.712  -3.900  -9.162  1.00  0.00     0.041 C 
ATOM      4  O   UNL     1      -9.531  -3.571 -10.365  1.00  0.00    -0.550 OA
ATOM      5  O   UNL     1      -8.785  -3.524  -8.199  1.00  0.00    -0.550 OA
ENDBRANCH   2   3
ENDBRANCH   1   2
BRANCH   1   6
ATOM      6  C   UNL     1     -10.299  -6.466  -7.084  1.00  0.00     0.000 C 
BRANCH   6   7
ATOM      7  C   UNL     1     -11.020  -5.501  -6.130  1.00  0.00    -0.000 C 
BRANCH   7   8
ATOM      8  C   UNL     1     -11.983  -6.225  -5.177  1.00  0.00    -0.003 C 
ATOM      9  C   UNL     1     -13.320  -6.567  -5.835  1.00  0.00     0.004 C 
ENDBRANCH   7   8
ENDBRANCH   6   7
ENDBRANCH   1   6
TORSDOF 5
ENDMDL
MODEL 5
REMARK VINA RESULT:    -3.725      6.964      8.350
REMARK INTER + INTRA:          -4.991
REMARK INTER:                  -4.855
REMARK INTRA:                  -0.136
REMARK UNBOUND:                -0.177
REMARK SMILES CCCCCCC(=O)[O-]
REMARK SMILES IDX 5 1 6 2 7 3 8 4 9 5 4 6 3 7 2 8 1 9
REMARK H PARENT
REMARK Flexibility Score: inf
ROOT
ATOM      1  C   UNL     1     -10.221  -4.455  -6.993  1.00  0.00     0.006 C 
ENDROOT
BRANCH   1   2
ATOM      2  C   UNL     1      -9.321  -4.367  -8.232  1.00  0.00     0.053 C 
BRANCH   2   3
ATOM      3  C   UNL     1     -10.103  -4.033  -9.465  1.00  0.00     0.041 C 
ATOM      4  O   UNL     1      -9.547  -3.433 -10.423  1.00  0.00    -0.550 OA
ATOM      5  O   UNL     1     -11.434  -4.414  -9.571  1.00  0.00    -0.550 OA
ENDBRANCH   2   3
ENDBRANCH   1   2
BRANCH   1   6
ATOM      6  C   UNL     1     -10.640  -5.898  -6.677  1.00  0.00     0.000 C 
BRANCH   6   7
ATOM      7  C   UNL     1     -11.493  -5.955  -5.401  1.00  0.00    -0.000 C 
BRANCH   7   8
ATOM      8  C   UNL     1     -12.930  -6.429  -5.672  1.00  0.00    -0.003 C 
ATOM      9  C   UNL     1     -13.285  -6.419  -7.159  1.00  0.00     0.004 C 
ENDBRANCH   7   8
ENDBRANCH   6   7
ENDBRANCH   1   6
TORSDOF 5
ENDMDL
MODEL 6
REMARK VINA RESULT:    -3.699      1.991      2.689
REMARK INTER + INTRA:          -4.958
REMARK INTER:                  -4.787
REMARK INTRA:                  -0.171
REMARK UNBOUND:                -0.177
REMARK SMILES CCCCCCC(=O)[O-]
REMARK SMILES IDX 5 1 6 2 7 3 8 4 9 5 4 6 3 7 2 8 1 9
REMARK H PARENT
REMARK Flexibility Score: inf
ROOT
ATOM      1  C   UNL     1     -14.040  -0.341  -9.864  1.00  0.00     0.006 C 
ENDROOT
BRANCH   1   2
ATOM      2  C   UNL     1     -12.839  -0.621 -10.777  1.00  0.00     0.053 C 
BRANCH   2   3
ATOM      3  C   UNL     1     -11.541  -0.509 -10.040  1.00  0.00     0.041 C 
ATOM      4  O   UNL     1     -11.279   0.528  -9.374  1.00  0.00    -0.550 OA
ATOM      5  O   UNL     1     -10.635  -1.562 -10.059  1.00  0.00    -0.550 OA
ENDBRANCH   2   3
ENDBRANCH   1   2
BRANCH   1   6
ATOM      6  C   UNL     1     -14.787   0.941 -10.261  1.00  0.00     0.000 C 
BRANCH   6   7
ATOM      7  C   UNL     1     -14.778   1.960  -9.112  1.00  0.00    -0.000 C 
BRANCH   7   8
ATOM      8  C   UNL     1     -13.551   2.883  -9.151  1.00  0.00    -0.003 C 
ATOM      9  C   UNL     1     -13.753   4.169  -8.349  1.00  0.00     0.004 C 
ENDBRANCH   7   8
ENDBRANCH   6   7
ENDBRANCH   1   6
TORSDOF 5
ENDMDL
MODEL 7
REMARK VINA RESULT:    -3.598     16.602     17.643
REMARK INTER + INTRA:          -4.827
REMARK INTER:                  -4.445
REMARK INTRA:                  -0.382
REMARK UNBOUND:                -0.177
REMARK SMILES CCCCCCC(=O)[O-]
REMARK SMILES IDX 5 1 6 2 7 3 8 4 9 5 4 6 3 7 2 8 1 9
REMARK H PARENT
REMARK Flexibility Score: inf
ROOT
ATOM      1  C   UNL     1     -10.678   3.785   7.703  1.00  0.00     0.006 C 
ENDROOT
BRANCH   1   2
ATOM      2  C   UNL     1     -10.101   5.206   7.735  1.00  0.00     0.053 C 
BRANCH   2   3
ATOM      3  C   UNL     1      -9.881   5.750   6.357  1.00  0.00     0.041 C 
ATOM      4  O   UNL     1     -10.449   5.215   5.368  1.00  0.00    -0.550 OA
ATOM      5  O   UNL     1      -9.076   6.866   6.168  1.00  0.00    -0.550 OA
ENDBRANCH   2   3
ENDBRANCH   1   2
BRANCH   1   6
ATOM      6  C   UNL     1     -11.818   3.597   8.715  1.00  0.00     0.000 C 
BRANCH   6   7
ATOM      7  C   UNL     1     -12.904   4.666   8.524  1.00  0.00    -0.000 C 
BRANCH   7   8
ATOM      8  C   UNL     1     -13.591   4.572   7.153  1.00  0.00    -0.003 C 
ATOM      9  C   UNL     1     -13.851   5.943   6.527  1.00  0.00     0.004 C 
ENDBRANCH   7   8
ENDBRANCH   6   7
ENDBRANCH   1   6
TORSDOF 5
ENDMDL
MODEL 8
REMARK VINA RESULT:    -3.583     15.834     16.876
REMARK INTER + INTRA:          -4.808
REMARK INTER:                  -4.407
REMARK INTRA:                  -0.400
REMARK UNBOUND:                -0.177
REMARK SMILES CCCCCCC(=O)[O-]
REMARK SMILES IDX 5 1 6 2 7 3 8 4 9 5 4 6 3 7 2 8 1 9
REMARK H PARENT
REMARK Flexibility Score: inf
ROOT
ATOM      1  C   UNL     1     -13.092   4.718   7.660  1.00  0.00     0.006 C 
ENDROOT
BRANCH   1   2
ATOM      2  C   UNL     1     -13.302   4.210   6.227  1.00  0.00     0.053 C 
BRANCH   2   3
ATOM      3  C   UNL     1     -13.220   5.319   5.225  1.00  0.00     0.041 C 
ATOM      4  O   UNL     1     -12.817   6.460   5.575  1.00  0.00    -0.550 OA
ATOM      5  O   UNL     1     -13.556   5.086   3.898  1.00  0.00    -0.550 OA
ENDBRANCH   2   3
ENDBRANCH   1   2
BRANCH   1   6
ATOM      6  C   UNL     1     -12.201   3.780   8.486  1.00  0.00     0.000 C 
BRANCH   6   7
ATOM      7  C   UNL     1     -10.747   3.829   7.994  1.00  0.00    -0.000 C 
BRANCH   7   8
ATOM      8  C   UNL     1     -10.191   5.260   7.937  1.00  0.00    -0.003 C 
ATOM      9  C   UNL     1      -9.522   5.582   6.600  1.00  0.00     0.004 C 
ENDBRANCH   7   8
ENDBRANCH   6   7
ENDBRANCH   1   6
TORSDOF 5
ENDMDL
MODEL 9
REMARK VINA RESULT:    -3.531      3.425      4.695
REMARK INTER + INTRA:          -4.740
REMARK INTER:                  -4.568
REMARK INTRA:                  -0.171
REMARK UNBOUND:                -0.177
REMARK SMILES CCCCCCC(=O)[O-]
REMARK SMILES IDX 5 1 6 2 7 3 8 4 9 5 4 6 3 7 2 8 1 9
REMARK H PARENT
REMARK Flexibility Score: inf
ROOT
ATOM      1  C   UNL     1     -11.013  -0.898  -9.416  1.00  0.00     0.006 C 
ENDROOT
BRANCH   1   2
ATOM      2  C   UNL     1     -10.273  -2.083 -10.049  1.00  0.00     0.053 C 
BRANCH   2   3
ATOM      3  C   UNL     1     -10.327  -3.302  -9.181  1.00  0.00     0.041 C 
ATOM      4  O   UNL     1     -10.759  -4.391  -9.645  1.00  0.00    -0.550 OA
ATOM      5  O   UNL     1      -9.870  -3.246  -7.871  1.00  0.00    -0.550 OA
ENDBRANCH   2   3
ENDBRANCH   1   2
BRANCH   1   6
ATOM      6  C   UNL     1     -11.958  -0.203 -10.407  1.00  0.00     0.000 C 
BRANCH   6   7
ATOM      7  C   UNL     1     -13.334  -0.887 -10.425  1.00  0.00    -0.000 C 
BRANCH   7   8
ATOM      8  C   UNL     1     -14.480   0.087 -10.113  1.00  0.00    -0.003 C 
ATOM      9  C   UNL     1     -13.986   1.430  -9.577  1.00  0.00     0.004 C 
ENDBRANCH   7   8
ENDBRANCH   6   7
ENDBRANCH   1   6
TORSDOF 5
ENDMDL
