MODEL 1
REMARK VINA RESULT:     2.211      0.000      0.000
REMARK INTER + INTRA:           9.797
REMARK INTER:                   3.245
REMARK INTRA:                   6.553
REMARK UNBOUND:                 6.553
REMARK SMILES Cc1cc2c(C(C)C)c(O)c(O)c(C=O)c2c(O)c1-c1c(C)cc2c(C(C)C)c(O)c(O)c(C=O)c2c1O
REMARK SMILES IDX 1 1 2 2 3 3 4 4 16 5 13 6 11 7 9 8 5 9 17 10 19 11 20 12
REMARK SMILES IDX 37 13 21 14 36 15 23 16 22 17 24 18 33 19 25 20 31 21 29 22
REMARK SMILES IDX 38 23 34 25 35 26 26 27 27 28 28 29 32 30 30 32 18 34 6 36
REMARK SMILES IDX 7 37 8 38 14 39 15 40 10 41 12 43
REMARK H PARENT 38 24 32 31 30 33 18 35 10 42 12 44
REMARK Flexibility Score: inf
ROOT
ATOM      1  C   UNL     1      35.465  46.694  68.432  1.00  0.00     0.045 C 
ATOM      2  C   UNL     1      36.891  46.750  68.924  1.00  0.00    -0.039 A 
ATOM      3  C   UNL     1      37.606  45.562  69.094  1.00  0.00     0.013 A 
ATOM      4  C   UNL     1      38.948  45.560  69.532  1.00  0.00    -0.006 A 
ATOM      5  C   UNL     1      39.632  46.806  69.638  1.00  0.00     0.039 A 
ATOM      6  C   UNL     1      41.047  46.804  69.817  1.00  0.00     0.072 A 
ATOM      7  C   UNL     1      41.732  45.581  69.975  1.00  0.00     0.169 A 
ATOM      8  C   UNL     1      41.031  44.369  69.988  1.00  0.00     0.162 A 
ATOM      9  C   UNL     1      39.627  44.341  69.838  1.00  0.00     0.008 A 
ATOM     10  C   UNL     1      38.873  48.011  69.580  1.00  0.00     0.132 A 
ATOM     11  C   UNL     1      37.512  47.978  69.210  1.00  0.00     0.031 A 
ENDROOT
BRANCH  11  12
ATOM     12  C   UNL     1      36.736  49.241  69.108  1.00  0.00     0.031 A 
ATOM     13  C   UNL     1      37.343  50.410  68.602  1.00  0.00     0.132 A 
ATOM     14  C   UNL     1      35.384  49.258  69.489  1.00  0.00    -0.039 A 
ATOM     15  C   UNL     1      36.602  51.629  68.504  1.00  0.00     0.039 A 
ATOM     16  C   UNL     1      34.656  50.443  69.392  1.00  0.00     0.013 A 
ATOM     17  C   UNL     1      34.707  48.010  70.001  1.00  0.00     0.045 C 
ATOM     18  C   UNL     1      35.246  51.650  68.954  1.00  0.00    -0.006 A 
ATOM     19  C   UNL     1      37.157  52.816  67.936  1.00  0.00     0.072 A 
ATOM     20  C   UNL     1      34.495  52.866  68.920  1.00  0.00     0.008 A 
ATOM     21  C   UNL     1      36.349  53.958  67.765  1.00  0.00     0.169 A 
ATOM     22  C   UNL     1      35.027  53.968  68.218  1.00  0.00     0.162 A 
BRANCH  13  23
ATOM     23  O   UNL     1      38.678  50.356  68.187  1.00  0.00    -0.507 OA
ATOM     24  H   UNL     1      39.405  49.848  68.676  1.00  0.00     0.293 HD
ENDBRANCH  13  23
BRANCH  19  25
ATOM     25  C   UNL     1      38.565  52.889  67.496  1.00  0.00     0.264 C 
ATOM     26  O   UNL     1      39.415  53.523  68.175  1.00  0.00    -0.298 OA
ENDBRANCH  19  25
BRANCH  20  27
ATOM     27  C   UNL     1      33.123  52.991  69.608  1.00  0.00     0.017 C 
ATOM     28  C   UNL     1      32.015  52.409  68.724  1.00  0.00     0.012 C 
ATOM     29  C   UNL     1      32.780  54.423  70.063  1.00  0.00     0.012 C 
ENDBRANCH  20  27
BRANCH  21  30
ATOM     30  O   UNL     1      36.845  55.125  67.169  1.00  0.00    -0.504 OA
ATOM     31  H   UNL     1      36.667  55.394  66.211  1.00  0.00     0.293 HD
ENDBRANCH  21  30
BRANCH  22  32
ATOM     32  O   UNL     1      34.228  55.087  67.970  1.00  0.00    -0.504 OA
ATOM     33  H   UNL     1      33.686  55.202  67.122  1.00  0.00     0.293 HD
ENDBRANCH  22  32
ENDBRANCH  11  12
BRANCH  10  34
ATOM     34  O   UNL     1      39.463  49.232  69.929  1.00  0.00    -0.507 OA
ATOM     35  H   UNL     1      40.406  49.495  69.675  1.00  0.00     0.293 HD
ENDBRANCH  10  34
BRANCH   9  36
ATOM     36  C   UNL     1      38.867  43.016  70.015  1.00  0.00     0.017 C 
ATOM     37  C   UNL     1      37.806  42.842  68.924  1.00  0.00     0.012 C 
ATOM     38  C   UNL     1      39.788  41.785  70.105  1.00  0.00     0.012 C 
ENDBRANCH   9  36
BRANCH   6  39
ATOM     39  C   UNL     1      41.856  48.037  69.723  1.00  0.00     0.264 C 
ATOM     40  O   UNL     1      42.161  48.517  68.599  1.00  0.00    -0.298 OA
ENDBRANCH   6  39
BRANCH   8  41
ATOM     41  O   UNL     1      41.740  43.173  70.124  1.00  0.00    -0.504 OA
ATOM     42  H   UNL     1      41.813  42.486  69.384  1.00  0.00     0.293 HD
ENDBRANCH   8  41
BRANCH   7  43
ATOM     43  O   UNL     1      43.125  45.536  70.106  1.00  0.00    -0.504 OA
ATOM     44  H   UNL     1      43.768  45.561  69.325  1.00  0.00     0.293 HD
ENDBRANCH   7  43
TORSDOF 11
ENDMDL
