MODEL 1
REMARK VINA RESULT:    -4.678      0.000      0.000
REMARK INTER + INTRA:          -7.117
REMARK INTER:                  -6.319
REMARK INTRA:                  -0.799
REMARK UNBOUND:                -0.799
REMARK SMILES CC(=O)CCC=C(C)CCC=C(C)C
REMARK SMILES IDX 7 1 6 2 8 3 9 4 10 5 11 6 13 7 12 8 14 9 5 10 4 11 2 12 3 13
REMARK SMILES IDX 1 14
REMARK H PARENT
REMARK Flexibility Score: inf
ROOT
ATOM      1  C   UNL     1      -3.863  12.711  -5.004  1.00  0.00    -0.077 C 
ATOM      2  C   UNL     1      -3.613  11.960  -6.101  1.00  0.00    -0.028 C 
ATOM      3  C   UNL     1      -3.193  14.047  -4.781  1.00  0.00     0.039 C 
ENDROOT
BRANCH   1   4
ATOM      4  C   UNL     1      -4.830  12.189  -3.962  1.00  0.00     0.034 C 
BRANCH   4   5
ATOM      5  C   UNL     1      -6.278  12.503  -4.354  1.00  0.00     0.032 C 
BRANCH   5   6
ATOM      6  C   UNL     1      -7.050  11.241  -4.654  1.00  0.00    -0.028 C 
ATOM      7  C   UNL     1      -8.213   9.615  -6.086  1.00  0.00     0.039 C 
ATOM      8  C   UNL     1      -7.447  10.899  -5.898  1.00  0.00    -0.080 C 
ATOM      9  C   UNL     1      -7.141  11.771  -7.092  1.00  0.00     0.039 C 
ENDBRANCH   5   6
ENDBRANCH   4   5
ENDBRANCH   1   4
BRANCH   2  10
ATOM     10  C   UNL     1      -2.701  12.372  -7.233  1.00  0.00     0.035 C 
BRANCH  10  11
ATOM     11  C   UNL     1      -3.076  11.687  -8.555  1.00  0.00     0.079 C 
BRANCH  11  12
ATOM     12  C   UNL     1      -1.874  11.065  -9.221  1.00  0.00     0.130 C 
ATOM     13  O   UNL     1      -0.758  11.497  -8.977  1.00  0.00    -0.300 OA
ATOM     14  C   UNL     1      -2.018   9.912 -10.170  1.00  0.00     0.087 C 
ENDBRANCH  11  12
ENDBRANCH  10  11
ENDBRANCH   2  10
TORSDOF 6
ENDMDL
MODEL 2
REMARK VINA RESULT:    -4.635      2.636      5.808
REMARK INTER + INTRA:          -7.060
REMARK INTER:                  -6.487
REMARK INTRA:                  -0.573
REMARK UNBOUND:                -0.799
REMARK SMILES CC(=O)CCC=C(C)CCC=C(C)C
REMARK SMILES IDX 7 1 6 2 8 3 9 4 10 5 11 6 13 7 12 8 14 9 5 10 4 11 2 12 3 13
REMARK SMILES IDX 1 14
REMARK H PARENT
REMARK Flexibility Score: inf
ROOT
ATOM      1  C   UNL     1      -5.359  12.064  -5.622  1.00  0.00    -0.077 C 
ATOM      2  C   UNL     1      -6.136  11.299  -4.822  1.00  0.00    -0.028 C 
ATOM      3  C   UNL     1      -5.949  13.001  -6.650  1.00  0.00     0.039 C 
ENDROOT
BRANCH   1   4
ATOM      4  C   UNL     1      -3.853  11.965  -5.495  1.00  0.00     0.034 C 
BRANCH   4   5
ATOM      5  C   UNL     1      -3.159  12.640  -6.682  1.00  0.00     0.032 C 
BRANCH   5   6
ATOM      6  C   UNL     1      -2.948  11.667  -7.818  1.00  0.00    -0.028 C 
ATOM      7  C   UNL     1      -1.728  10.643  -9.692  1.00  0.00     0.039 C 
ATOM      8  C   UNL     1      -1.836  11.658  -8.583  1.00  0.00    -0.080 C 
ATOM      9  C   UNL     1      -0.709  12.635  -8.349  1.00  0.00     0.039 C 
ENDBRANCH   5   6
ENDBRANCH   4   5
ENDBRANCH   1   4
BRANCH   2  10
ATOM     10  C   UNL     1      -7.647  11.322  -4.817  1.00  0.00     0.035 C 
BRANCH  10  11
ATOM     11  C   UNL     1      -8.245   9.909  -4.785  1.00  0.00     0.079 C 
BRANCH  11  12
ATOM     12  C   UNL     1      -8.516   9.387  -6.174  1.00  0.00     0.130 C 
ATOM     13  O   UNL     1      -8.555   8.181  -6.368  1.00  0.00    -0.300 OA
ATOM     14  C   UNL     1      -8.754  10.318  -7.325  1.00  0.00     0.087 C 
ENDBRANCH  11  12
ENDBRANCH  10  11
ENDBRANCH   2  10
TORSDOF 6
ENDMDL
MODEL 3
REMARK VINA RESULT:    -4.440      1.809      2.514
REMARK INTER + INTRA:          -6.796
REMARK INTER:                  -6.322
REMARK INTRA:                  -0.473
REMARK UNBOUND:                -0.799
REMARK SMILES CC(=O)CCC=C(C)CCC=C(C)C
REMARK SMILES IDX 7 1 6 2 8 3 9 4 10 5 11 6 13 7 12 8 14 9 5 10 4 11 2 12 3 13
REMARK SMILES IDX 1 14
REMARK H PARENT
REMARK Flexibility Score: inf
ROOT
ATOM      1  C   UNL     1      -5.271  11.933  -5.907  1.00  0.00    -0.077 C 
ATOM      2  C   UNL     1      -3.921  11.899  -5.839  1.00  0.00    -0.028 C 
ATOM      3  C   UNL     1      -5.997  12.590  -7.058  1.00  0.00     0.039 C 
ENDROOT
BRANCH   1   4
ATOM      4  C   UNL     1      -6.078  11.309  -4.788  1.00  0.00     0.034 C 
BRANCH   4   5
ATOM      5  C   UNL     1      -7.406  10.755  -5.314  1.00  0.00     0.032 C 
BRANCH   5   6
ATOM      6  C   UNL     1      -8.248  10.194  -4.193  1.00  0.00    -0.028 C 
ATOM      7  C   UNL     1      -9.987  10.251  -2.455  1.00  0.00     0.039 C 
ATOM      8  C   UNL     1      -9.204  10.908  -3.563  1.00  0.00    -0.080 C 
ATOM      9  C   UNL     1      -9.500  12.339  -3.942  1.00  0.00     0.039 C 
ENDBRANCH   5   6
ENDBRANCH   4   5
ENDBRANCH   1   4
BRANCH   2  10
ATOM     10  C   UNL     1      -2.995  12.451  -6.898  1.00  0.00     0.035 C 
BRANCH  10  11
ATOM     11  C   UNL     1      -2.624  11.393  -7.948  1.00  0.00     0.079 C 
BRANCH  11  12
ATOM     12  C   UNL     1      -1.339  11.740  -8.658  1.00  0.00     0.130 C 
ATOM     13  O   UNL     1      -0.989  11.083  -9.627  1.00  0.00    -0.300 OA
ATOM     14  C   UNL     1      -0.484  12.887  -8.209  1.00  0.00     0.087 C 
ENDBRANCH  11  12
ENDBRANCH  10  11
ENDBRANCH   2  10
TORSDOF 6
ENDMDL
MODEL 4
REMARK VINA RESULT:    -4.400      3.197      5.668
REMARK INTER + INTRA:          -6.742
REMARK INTER:                  -5.708
REMARK INTRA:                  -1.034
REMARK UNBOUND:                -0.799
REMARK SMILES CC(=O)CCC=C(C)CCC=C(C)C
REMARK SMILES IDX 7 1 6 2 8 3 9 4 10 5 11 6 13 7 12 8 14 9 5 10 4 11 2 12 3 13
REMARK SMILES IDX 1 14
REMARK H PARENT
REMARK Flexibility Score: inf
ROOT
ATOM      1  C   UNL     1      -6.872  13.487  -3.888  1.00  0.00    -0.077 C 
ATOM      2  C   UNL     1      -7.792  12.574  -3.503  1.00  0.00    -0.028 C 
ATOM      3  C   UNL     1      -6.904  14.125  -5.257  1.00  0.00     0.039 C 
ENDROOT
BRANCH   1   4
ATOM      4  C   UNL     1      -5.768  13.867  -2.924  1.00  0.00     0.034 C 
BRANCH   4   5
ATOM      5  C   UNL     1      -4.564  12.932  -3.075  1.00  0.00     0.032 C 
BRANCH   5   6
ATOM      6  C   UNL     1      -3.517  13.530  -3.984  1.00  0.00    -0.028 C 
ATOM      7  C   UNL     1      -2.172  13.712  -6.035  1.00  0.00     0.039 C 
ATOM      8  C   UNL     1      -3.238  13.038  -5.210  1.00  0.00    -0.080 C 
ATOM      9  C   UNL     1      -3.967  11.838  -5.764  1.00  0.00     0.039 C 
ENDBRANCH   5   6
ENDBRANCH   4   5
ENDBRANCH   1   4
BRANCH   2  10
ATOM     10  C   UNL     1      -8.963  12.128  -4.347  1.00  0.00     0.035 C 
BRANCH  10  11
ATOM     11  C   UNL     1      -9.108  10.599  -4.371  1.00  0.00     0.079 C 
BRANCH  11  12
ATOM     12  C   UNL     1      -8.473   9.998  -5.600  1.00  0.00     0.130 C 
ATOM     13  O   UNL     1      -8.317   8.788  -5.668  1.00  0.00    -0.300 OA
ATOM     14  C   UNL     1      -8.038  10.855  -6.751  1.00  0.00     0.087 C 
ENDBRANCH  11  12
ENDBRANCH  10  11
ENDBRANCH   2  10
TORSDOF 6
ENDMDL
MODEL 5
REMARK VINA RESULT:    -4.326     12.727     14.534
REMARK INTER + INTRA:          -6.642
REMARK INTER:                  -5.501
REMARK INTRA:                  -1.141
REMARK UNBOUND:                -0.799
REMARK SMILES CC(=O)CCC=C(C)CCC=C(C)C
REMARK SMILES IDX 7 1 6 2 8 3 9 4 10 5 11 6 13 7 12 8 14 9 5 10 4 11 2 12 3 13
REMARK SMILES IDX 1 14
REMARK H PARENT
REMARK Flexibility Score: inf
ROOT
ATOM      1  C   UNL     1       6.559   4.546  -5.558  1.00  0.00    -0.077 C 
ATOM      2  C   UNL     1       7.624   4.285  -4.767  1.00  0.00    -0.028 C 
ATOM      3  C   UNL     1       5.479   3.519  -5.809  1.00  0.00     0.039 C 
ENDROOT
BRANCH   1   4
ATOM      4  C   UNL     1       6.456   5.900  -6.227  1.00  0.00     0.034 C 
BRANCH   4   5
ATOM      5  C   UNL     1       7.113   5.878  -7.612  1.00  0.00     0.032 C 
BRANCH   5   6
ATOM      6  C   UNL     1       6.076   5.850  -8.709  1.00  0.00    -0.028 C 
ATOM      7  C   UNL     1       4.810   4.858 -10.570  1.00  0.00     0.039 C 
ATOM      8  C   UNL     1       5.872   4.778  -9.503  1.00  0.00    -0.080 C 
ATOM      9  C   UNL     1       6.682   3.514  -9.344  1.00  0.00     0.039 C 
ENDBRANCH   5   6
ENDBRANCH   4   5
ENDBRANCH   1   4
BRANCH   2  10
ATOM     10  C   UNL     1       7.836   2.993  -4.013  1.00  0.00     0.035 C 
BRANCH  10  11
ATOM     11  C   UNL     1       8.950   2.138  -4.635  1.00  0.00     0.079 C 
BRANCH  11  12
ATOM     12  C   UNL     1       8.428   1.271  -5.754  1.00  0.00     0.130 C 
ATOM     13  O   UNL     1       7.563   0.441  -5.521  1.00  0.00    -0.300 OA
ATOM     14  C   UNL     1       8.940   1.416  -7.156  1.00  0.00     0.087 C 
ENDBRANCH  11  12
ENDBRANCH  10  11
ENDBRANCH   2  10
TORSDOF 6
ENDMDL
MODEL 6
REMARK VINA RESULT:    -4.304     12.304     14.029
REMARK INTER + INTRA:          -6.612
REMARK INTER:                  -5.442
REMARK INTRA:                  -1.171
REMARK UNBOUND:                -0.799
REMARK SMILES CC(=O)CCC=C(C)CCC=C(C)C
REMARK SMILES IDX 7 1 6 2 8 3 9 4 10 5 11 6 13 7 12 8 14 9 5 10 4 11 2 12 3 13
REMARK SMILES IDX 1 14
REMARK H PARENT
REMARK Flexibility Score: inf
ROOT
ATOM      1  C   UNL     1       7.504   5.240  -8.401  1.00  0.00    -0.077 C 
ATOM      2  C   UNL     1       6.714   5.708  -7.408  1.00  0.00    -0.028 C 
ATOM      3  C   UNL     1       8.549   4.177  -8.157  1.00  0.00     0.039 C 
ENDROOT
BRANCH   1   4
ATOM      4  C   UNL     1       7.347   5.812  -9.794  1.00  0.00     0.034 C 
BRANCH   4   5
ATOM      5  C   UNL     1       6.727   4.781 -10.742  1.00  0.00     0.032 C 
BRANCH   5   6
ATOM      6  C   UNL     1       5.247   4.624 -10.489  1.00  0.00    -0.028 C 
ATOM      7  C   UNL     1       3.216   3.472  -9.714  1.00  0.00     0.039 C 
ATOM      8  C   UNL     1       4.708   3.524  -9.921  1.00  0.00    -0.080 C 
ATOM      9  C   UNL     1       5.565   2.357  -9.495  1.00  0.00     0.039 C 
ENDBRANCH   5   6
ENDBRANCH   4   5
ENDBRANCH   1   4
BRANCH   2  10
ATOM     10  C   UNL     1       6.738   5.205  -5.983  1.00  0.00     0.035 C 
BRANCH  10  11
ATOM     11  C   UNL     1       5.897   3.933  -5.805  1.00  0.00     0.079 C 
BRANCH  11  12
ATOM     12  C   UNL     1       6.705   2.809  -5.206  1.00  0.00     0.130 C 
ATOM     13  O   UNL     1       6.298   1.661  -5.293  1.00  0.00    -0.300 OA
ATOM     14  C   UNL     1       8.010   3.070  -4.514  1.00  0.00     0.087 C 
ENDBRANCH  11  12
ENDBRANCH  10  11
ENDBRANCH   2  10
TORSDOF 6
ENDMDL
MODEL 7
REMARK VINA RESULT:    -4.265     12.210     13.922
REMARK INTER + INTRA:          -6.560
REMARK INTER:                  -5.597
REMARK INTRA:                  -0.963
REMARK UNBOUND:                -0.799
REMARK SMILES CC(=O)CCC=C(C)CCC=C(C)C
REMARK SMILES IDX 7 1 6 2 8 3 9 4 10 5 11 6 13 7 12 8 14 9 5 10 4 11 2 12 3 13
REMARK SMILES IDX 1 14
REMARK H PARENT
REMARK Flexibility Score: inf
ROOT
ATOM      1  C   UNL     1       6.593   5.303  -8.754  1.00  0.00    -0.077 C 
ATOM      2  C   UNL     1       6.708   4.423  -7.733  1.00  0.00    -0.028 C 
ATOM      3  C   UNL     1       6.034   6.692  -8.553  1.00  0.00     0.039 C 
ENDROOT
BRANCH   1   4
ATOM      4  C   UNL     1       7.022   4.876 -10.142  1.00  0.00     0.034 C 
BRANCH   4   5
ATOM      5  C   UNL     1       5.803   4.580 -11.023  1.00  0.00     0.032 C 
BRANCH   5   6
ATOM      6  C   UNL     1       5.455   3.111 -11.000  1.00  0.00    -0.028 C 
ATOM      7  C   UNL     1       4.097   1.140 -10.436  1.00  0.00     0.039 C 
ATOM      8  C   UNL     1       4.348   2.625 -10.399  1.00  0.00    -0.080 C 
ATOM      9  C   UNL     1       3.368   3.535  -9.698  1.00  0.00     0.039 C 
ENDBRANCH   5   6
ENDBRANCH   4   5
ENDBRANCH   1   4
BRANCH   2  10
ATOM     10  C   UNL     1       6.352   4.725  -6.296  1.00  0.00     0.035 C 
BRANCH  10  11
ATOM     11  C   UNL     1       5.746   3.508  -5.583  1.00  0.00     0.079 C 
BRANCH  11  12
ATOM     12  C   UNL     1       6.799   2.491  -5.223  1.00  0.00     0.130 C 
ATOM     13  O   UNL     1       6.612   1.311  -5.479  1.00  0.00    -0.300 OA
ATOM     14  C   UNL     1       8.084   2.898  -4.566  1.00  0.00     0.087 C 
ENDBRANCH  11  12
ENDBRANCH  10  11
ENDBRANCH   2  10
TORSDOF 6
ENDMDL
MODEL 8
REMARK VINA RESULT:    -4.244     12.348     14.245
REMARK INTER + INTRA:          -6.531
REMARK INTER:                  -5.073
REMARK INTRA:                  -1.457
REMARK UNBOUND:                -0.799
REMARK SMILES CC(=O)CCC=C(C)CCC=C(C)C
REMARK SMILES IDX 7 1 6 2 8 3 9 4 10 5 11 6 13 7 12 8 14 9 5 10 4 11 2 12 3 13
REMARK SMILES IDX 1 14
REMARK H PARENT
REMARK Flexibility Score: inf
ROOT
ATOM      1  C   UNL     1       5.196   3.498 -10.055  1.00  0.00    -0.077 C 
ATOM      2  C   UNL     1       6.314   2.754  -9.896  1.00  0.00    -0.028 C 
ATOM      3  C   UNL     1       3.943   3.239  -9.252  1.00  0.00     0.039 C 
ENDROOT
BRANCH   1   4
ATOM      4  C   UNL     1       5.196   4.612 -11.080  1.00  0.00     0.034 C 
BRANCH   4   5
ATOM      5  C   UNL     1       6.237   5.680 -10.728  1.00  0.00     0.032 C 
BRANCH   5   6
ATOM      6  C   UNL     1       5.930   6.327  -9.399  1.00  0.00    -0.028 C 
ATOM      7  C   UNL     1       6.377   6.986  -7.072  1.00  0.00     0.039 C 
ATOM      8  C   UNL     1       6.785   6.308  -8.355  1.00  0.00    -0.080 C 
ATOM      9  C   UNL     1       8.129   5.628  -8.448  1.00  0.00     0.039 C 
ENDBRANCH   5   6
ENDBRANCH   4   5
ENDBRANCH   1   4
BRANCH   2  10
ATOM     10  C   UNL     1       6.466   1.637  -8.890  1.00  0.00     0.035 C 
BRANCH  10  11
ATOM     11  C   UNL     1       7.439   2.005  -7.761  1.00  0.00     0.079 C 
BRANCH  11  12
ATOM     12  C   UNL     1       6.746   2.064  -6.423  1.00  0.00     0.130 C 
ATOM     13  O   UNL     1       6.750   1.082  -5.697  1.00  0.00    -0.300 OA
ATOM     14  C   UNL     1       6.060   3.313  -5.955  1.00  0.00     0.087 C 
ENDBRANCH  11  12
ENDBRANCH  10  11
ENDBRANCH   2  10
TORSDOF 6
ENDMDL
MODEL 9
REMARK VINA RESULT:    -4.236      3.195      6.316
REMARK INTER + INTRA:          -6.521
REMARK INTER:                  -5.838
REMARK INTRA:                  -0.683
REMARK UNBOUND:                -0.799
REMARK SMILES CC(=O)CCC=C(C)CCC=C(C)C
REMARK SMILES IDX 7 1 6 2 8 3 9 4 10 5 11 6 13 7 12 8 14 9 5 10 4 11 2 12 3 13
REMARK SMILES IDX 1 14
REMARK H PARENT
REMARK Flexibility Score: inf
ROOT
ATOM      1  C   UNL     1      -5.309  12.215  -5.572  1.00  0.00    -0.077 C 
ATOM      2  C   UNL     1      -6.027  11.130  -5.201  1.00  0.00    -0.028 C 
ATOM      3  C   UNL     1      -5.946  13.392  -6.273  1.00  0.00     0.039 C 
ENDROOT
BRANCH   1   4
ATOM      4  C   UNL     1      -3.822  12.241  -5.291  1.00  0.00     0.034 C 
BRANCH   4   5
ATOM      5  C   UNL     1      -3.050  12.810  -6.486  1.00  0.00     0.032 C 
BRANCH   5   6
ATOM      6  C   UNL     1      -2.976  11.811  -7.616  1.00  0.00    -0.028 C 
ATOM      7  C   UNL     1      -1.969  10.713  -9.572  1.00  0.00     0.039 C 
ATOM      8  C   UNL     1      -1.940  11.750  -8.479  1.00  0.00    -0.080 C 
ATOM      9  C   UNL     1      -0.765  12.692  -8.370  1.00  0.00     0.039 C 
ENDBRANCH   5   6
ENDBRANCH   4   5
ENDBRANCH   1   4
BRANCH   2  10
ATOM     10  C   UNL     1      -7.519  10.984  -5.388  1.00  0.00     0.035 C 
BRANCH  10  11
ATOM     11  C   UNL     1      -8.267  10.937  -4.048  1.00  0.00     0.079 C 
BRANCH  11  12
ATOM     12  C   UNL     1      -8.883  12.271  -3.707  1.00  0.00     0.130 C 
ATOM     13  O   UNL     1      -8.960  12.619  -2.538  1.00  0.00    -0.300 OA
ATOM     14  C   UNL     1      -9.393  13.191  -4.776  1.00  0.00     0.087 C 
ENDBRANCH  11  12
ENDBRANCH  10  11
ENDBRANCH   2  10
TORSDOF 6
ENDMDL
