MODEL 1
REMARK VINA RESULT:    -3.487      0.000      0.000
REMARK INTER + INTRA:          -6.402
REMARK INTER:                  -5.322
REMARK INTRA:                  -1.080
REMARK UNBOUND:                -1.080
REMARK SMILES CCCCCCCCCCC(=O)[O-]
REMARK SMILES IDX 7 1 8 2 9 3 10 4 11 5 12 6 13 7 6 8 5 9 4 10 3 11 2 12 1 13
REMARK H PARENT
REMARK Flexibility Score: inf
ROOT
ATOM      1  C   UNL     1      16.640  13.826  30.909  1.00  0.00     0.000 C 
ENDROOT
BRANCH   1   2
ATOM      2  C   UNL     1      16.979  15.303  30.641  1.00  0.00     0.000 C 
BRANCH   2   3
ATOM      3  C   UNL     1      16.095  15.992  29.586  1.00  0.00     0.006 C 
BRANCH   3   4
ATOM      4  C   UNL     1      15.378  14.997  28.664  1.00  0.00     0.053 C 
BRANCH   4   5
ATOM      5  C   UNL     1      15.940  15.070  27.280  1.00  0.00     0.041 C 
ATOM      6  O   UNL     1      16.009  16.175  26.681  1.00  0.00    -0.550 OA
ATOM      7  O   UNL     1      16.436  13.924  26.669  1.00  0.00    -0.550 OA
ENDBRANCH   4   5
ENDBRANCH   3   4
ENDBRANCH   2   3
ENDBRANCH   1   2
BRANCH   1   8
ATOM      8  C   UNL     1      17.406  13.242  32.106  1.00  0.00     0.000 C 
BRANCH   8   9
ATOM      9  C   UNL     1      18.622  14.113  32.455  1.00  0.00    -0.000 C 
BRANCH   9  10
ATOM     10  C   UNL     1      19.949  13.502  31.977  1.00  0.00    -0.000 C 
BRANCH  10  11
ATOM     11  C   UNL     1      20.491  14.186  30.711  1.00  0.00    -0.000 C 
BRANCH  11  12
ATOM     12  C   UNL     1      20.200  13.379  29.435  1.00  0.00    -0.003 C 
ATOM     13  C   UNL     1      19.539  14.217  28.341  1.00  0.00     0.004 C 
ENDBRANCH  11  12
ENDBRANCH  10  11
ENDBRANCH   9  10
ENDBRANCH   8   9
ENDBRANCH   1   8
TORSDOF 9
ENDMDL
MODEL 2
REMARK VINA RESULT:    -3.416      2.794      4.978
REMARK INTER + INTRA:          -6.294
REMARK INTER:                  -5.501
REMARK INTRA:                  -0.793
REMARK UNBOUND:                -1.080
REMARK SMILES CCCCCCCCCCC(=O)[O-]
REMARK SMILES IDX 7 1 8 2 9 3 10 4 11 5 12 6 13 7 6 8 5 9 4 10 3 11 2 12 1 13
REMARK H PARENT
REMARK Flexibility Score: inf
ROOT
ATOM      1  C   UNL     1      17.285  15.324  30.593  1.00  0.00     0.000 C 
ENDROOT
BRANCH   1   2
ATOM      2  C   UNL     1      16.832  13.923  31.041  1.00  0.00     0.000 C 
BRANCH   2   3
ATOM      3  C   UNL     1      17.650  13.313  32.194  1.00  0.00     0.006 C 
BRANCH   3   4
ATOM      4  C   UNL     1      18.865  14.166  32.583  1.00  0.00     0.053 C 
BRANCH   4   5
ATOM      5  C   UNL     1      20.113  13.601  31.982  1.00  0.00     0.041 C 
ATOM      6  O   UNL     1      20.535  14.033  30.877  1.00  0.00    -0.550 OA
ATOM      7  O   UNL     1      20.839  12.634  32.666  1.00  0.00    -0.550 OA
ENDBRANCH   4   5
ENDBRANCH   3   4
ENDBRANCH   2   3
ENDBRANCH   1   2
BRANCH   1   8
ATOM      8  C   UNL     1      16.193  16.094  29.836  1.00  0.00     0.000 C 
BRANCH   8   9
ATOM      9  C   UNL     1      15.596  15.234  28.711  1.00  0.00    -0.000 C 
BRANCH   9  10
ATOM     10  C   UNL     1      15.933  15.768  27.310  1.00  0.00    -0.000 C 
BRANCH  10  11
ATOM     11  C   UNL     1      16.839  14.811  26.516  1.00  0.00    -0.000 C 
BRANCH  11  12
ATOM     12  C   UNL     1      18.286  15.322  26.411  1.00  0.00    -0.003 C 
ATOM     13  C   UNL     1      19.177  14.814  27.543  1.00  0.00     0.004 C 
ENDBRANCH  11  12
ENDBRANCH  10  11
ENDBRANCH   9  10
ENDBRANCH   8   9
ENDBRANCH   1   8
TORSDOF 9
ENDMDL
MODEL 3
REMARK VINA RESULT:    -3.403      2.385      4.596
REMARK INTER + INTRA:          -6.274
REMARK INTER:                  -5.465
REMARK INTRA:                  -0.810
REMARK UNBOUND:                -1.080
REMARK SMILES CCCCCCCCCCC(=O)[O-]
REMARK SMILES IDX 7 1 8 2 9 3 10 4 11 5 12 6 13 7 6 8 5 9 4 10 3 11 2 12 1 13
REMARK H PARENT
REMARK Flexibility Score: inf
ROOT
ATOM      1  C   UNL     1      17.414  15.079  26.018  1.00  0.00     0.000 C 
ENDROOT
BRANCH   1   2
ATOM      2  C   UNL     1      16.671  16.306  25.459  1.00  0.00     0.000 C 
BRANCH   2   3
ATOM      3  C   UNL     1      15.743  16.015  24.266  1.00  0.00     0.006 C 
BRANCH   3   4
ATOM      4  C   UNL     1      15.611  14.518  23.960  1.00  0.00     0.053 C 
BRANCH   4   5
ATOM      5  C   UNL     1      14.256  14.022  24.354  1.00  0.00     0.041 C 
ATOM      6  O   UNL     1      13.320  14.001  23.513  1.00  0.00    -0.550 OA
ATOM      7  O   UNL     1      14.040  13.535  25.638  1.00  0.00    -0.550 OA
ENDBRANCH   4   5
ENDBRANCH   3   4
ENDBRANCH   2   3
ENDBRANCH   1   2
BRANCH   1   8
ATOM      8  C   UNL     1      17.179  14.871  27.522  1.00  0.00     0.000 C 
BRANCH   8   9
ATOM      9  C   UNL     1      15.860  15.522  27.967  1.00  0.00    -0.000 C 
BRANCH   9  10
ATOM     10  C   UNL     1      15.687  15.532  29.494  1.00  0.00    -0.000 C 
BRANCH  10  11
ATOM     11  C   UNL     1      17.006  15.806  30.236  1.00  0.00    -0.000 C 
BRANCH  11  12
ATOM     12  C   UNL     1      17.382  14.672  31.205  1.00  0.00    -0.003 C 
ATOM     13  C   UNL     1      16.375  13.523  31.192  1.00  0.00     0.004 C 
ENDBRANCH  11  12
ENDBRANCH  10  11
ENDBRANCH   9  10
ENDBRANCH   8   9
ENDBRANCH   1   8
TORSDOF 9
ENDMDL
MODEL 4
REMARK VINA RESULT:    -3.347      3.281      4.269
REMARK INTER + INTRA:          -6.189
REMARK INTER:                  -5.124
REMARK INTRA:                  -1.065
REMARK UNBOUND:                -1.080
REMARK SMILES CCCCCCCCCCC(=O)[O-]
REMARK SMILES IDX 7 1 8 2 9 3 10 4 11 5 12 6 13 7 6 8 5 9 4 10 3 11 2 12 1 13
REMARK H PARENT
REMARK Flexibility Score: inf
ROOT
ATOM      1  C   UNL     1      15.667  12.571  31.675  1.00  0.00     0.000 C 
ENDROOT
BRANCH   1   2
ATOM      2  C   UNL     1      14.595  12.704  30.578  1.00  0.00     0.000 C 
BRANCH   2   3
ATOM      3  C   UNL     1      13.560  13.819  30.813  1.00  0.00     0.006 C 
BRANCH   3   4
ATOM      4  C   UNL     1      12.178  13.484  30.236  1.00  0.00     0.053 C 
BRANCH   4   5
ATOM      5  C   UNL     1      11.277  14.676  30.314  1.00  0.00     0.041 C 
ATOM      6  O   UNL     1      10.913  15.122  31.434  1.00  0.00    -0.550 OA
ATOM      7  O   UNL     1      10.880  15.324  29.152  1.00  0.00    -0.550 OA
ENDBRANCH   4   5
ENDBRANCH   3   4
ENDBRANCH   2   3
ENDBRANCH   1   2
BRANCH   1   8
ATOM      8  C   UNL     1      17.073  12.953  31.188  1.00  0.00     0.000 C 
BRANCH   8   9
ATOM      9  C   UNL     1      17.347  14.447  31.422  1.00  0.00    -0.000 C 
BRANCH   9  10
ATOM     10  C   UNL     1      17.523  15.233  30.113  1.00  0.00    -0.000 C 
BRANCH  10  11
ATOM     11  C   UNL     1      16.237  15.959  29.684  1.00  0.00    -0.000 C 
BRANCH  11  12
ATOM     12  C   UNL     1      15.822  15.621  28.243  1.00  0.00    -0.003 C 
ATOM     13  C   UNL     1      16.469  14.336  27.727  1.00  0.00     0.004 C 
ENDBRANCH  11  12
ENDBRANCH  10  11
ENDBRANCH   9  10
ENDBRANCH   8   9
ENDBRANCH   1   8
TORSDOF 9
ENDMDL
MODEL 5
REMARK VINA RESULT:    -3.321      1.733      3.238
REMARK INTER + INTRA:          -6.149
REMARK INTER:                  -5.429
REMARK INTRA:                  -0.720
REMARK UNBOUND:                -1.080
REMARK SMILES CCCCCCCCCCC(=O)[O-]
REMARK SMILES IDX 7 1 8 2 9 3 10 4 11 5 12 6 13 7 6 8 5 9 4 10 3 11 2 12 1 13
REMARK H PARENT
REMARK Flexibility Score: inf
ROOT
ATOM      1  C   UNL     1      15.213  14.944  29.286  1.00  0.00     0.000 C 
ENDROOT
BRANCH   1   2
ATOM      2  C   UNL     1      15.132  14.901  27.750  1.00  0.00     0.000 C 
BRANCH   2   3
ATOM      3  C   UNL     1      16.251  15.664  27.018  1.00  0.00     0.006 C 
BRANCH   3   4
ATOM      4  C   UNL     1      17.313  14.736  26.415  1.00  0.00     0.053 C 
BRANCH   4   5
ATOM      5  C   UNL     1      18.686  15.226  26.751  1.00  0.00     0.041 C 
ATOM      6  O   UNL     1      19.178  15.002  27.888  1.00  0.00    -0.550 OA
ATOM      7  O   UNL     1      19.443  15.887  25.792  1.00  0.00    -0.550 OA
ENDBRANCH   4   5
ENDBRANCH   3   4
ENDBRANCH   2   3
ENDBRANCH   1   2
BRANCH   1   8
ATOM      8  C   UNL     1      16.224  15.979  29.804  1.00  0.00     0.000 C 
BRANCH   8   9
ATOM      9  C   UNL     1      17.233  15.327  30.762  1.00  0.00    -0.000 C 
BRANCH   9  10
ATOM     10  C   UNL     1      16.763  13.959  31.281  1.00  0.00    -0.000 C 
BRANCH  10  11
ATOM     11  C   UNL     1      17.906  13.141  31.908  1.00  0.00    -0.000 C 
BRANCH  11  12
ATOM     12  C   UNL     1      18.905  14.020  32.677  1.00  0.00    -0.003 C 
ATOM     13  C   UNL     1      20.337  13.881  32.161  1.00  0.00     0.004 C 
ENDBRANCH  11  12
ENDBRANCH  10  11
ENDBRANCH   9  10
ENDBRANCH   8   9
ENDBRANCH   1   8
TORSDOF 9
ENDMDL
MODEL 6
REMARK VINA RESULT:    -3.309      3.927      4.827
REMARK INTER + INTRA:          -6.130
REMARK INTER:                  -5.340
REMARK INTRA:                  -0.790
REMARK UNBOUND:                -1.080
REMARK SMILES CCCCCCCCCCC(=O)[O-]
REMARK SMILES IDX 7 1 8 2 9 3 10 4 11 5 12 6 13 7 6 8 5 9 4 10 3 11 2 12 1 13
REMARK H PARENT
REMARK Flexibility Score: inf
ROOT
ATOM      1  C   UNL     1      15.167  14.342  28.981  1.00  0.00     0.000 C 
ENDROOT
BRANCH   1   2
ATOM      2  C   UNL     1      14.507  13.979  30.324  1.00  0.00     0.000 C 
BRANCH   2   3
ATOM      3  C   UNL     1      12.978  14.154  30.365  1.00  0.00     0.006 C 
BRANCH   3   4
ATOM      4  C   UNL     1      12.315  13.361  31.498  1.00  0.00     0.053 C 
BRANCH   4   5
ATOM      5  C   UNL     1      11.393  14.240  32.281  1.00  0.00     0.041 C 
ATOM      6  O   UNL     1      10.587  15.003  31.686  1.00  0.00    -0.550 OA
ATOM      7  O   UNL     1      11.386  14.181  33.669  1.00  0.00    -0.550 OA
ENDBRANCH   4   5
ENDBRANCH   3   4
ENDBRANCH   2   3
ENDBRANCH   1   2
BRANCH   1   8
ATOM      8  C   UNL     1      15.874  15.706  29.011  1.00  0.00     0.000 C 
BRANCH   8   9
ATOM      9  C   UNL     1      16.962  15.736  30.096  1.00  0.00    -0.000 C 
BRANCH   9  10
ATOM     10  C   UNL     1      18.229  14.967  29.690  1.00  0.00    -0.000 C 
BRANCH  10  11
ATOM     11  C   UNL     1      18.810  14.136  30.846  1.00  0.00    -0.000 C 
BRANCH  11  12
ATOM     12  C   UNL     1      17.879  14.097  32.069  1.00  0.00    -0.003 C 
ATOM     13  C   UNL     1      17.312  12.704  32.338  1.00  0.00     0.004 C 
ENDBRANCH  11  12
ENDBRANCH  10  11
ENDBRANCH   9  10
ENDBRANCH   8   9
ENDBRANCH   1   8
TORSDOF 9
ENDMDL
MODEL 7
REMARK VINA RESULT:    -3.305      1.145      1.492
REMARK INTER + INTRA:          -6.125
REMARK INTER:                  -5.090
REMARK INTRA:                  -1.035
REMARK UNBOUND:                -1.080
REMARK SMILES CCCCCCCCCCC(=O)[O-]
REMARK SMILES IDX 7 1 8 2 9 3 10 4 11 5 12 6 13 7 6 8 5 9 4 10 3 11 2 12 1 13
REMARK H PARENT
REMARK Flexibility Score: inf
ROOT
ATOM      1  C   UNL     1      16.091  13.884  30.248  1.00  0.00     0.000 C 
ENDROOT
BRANCH   1   2
ATOM      2  C   UNL     1      16.405  15.317  29.780  1.00  0.00     0.000 C 
BRANCH   2   3
ATOM      3  C   UNL     1      15.870  15.676  28.383  1.00  0.00     0.006 C 
BRANCH   3   4
ATOM      4  C   UNL     1      16.465  14.803  27.271  1.00  0.00     0.053 C 
BRANCH   4   5
ATOM      5  C   UNL     1      17.109  15.656  26.225  1.00  0.00     0.041 C 
ATOM      6  O   UNL     1      18.359  15.639  26.075  1.00  0.00    -0.550 OA
ATOM      7  O   UNL     1      16.325  16.433  25.381  1.00  0.00    -0.550 OA
ENDBRANCH   4   5
ENDBRANCH   3   4
ENDBRANCH   2   3
ENDBRANCH   1   2
BRANCH   1   8
ATOM      8  C   UNL     1      16.762  13.528  31.583  1.00  0.00     0.000 C 
BRANCH   8   9
ATOM      9  C   UNL     1      17.948  14.464  31.866  1.00  0.00    -0.000 C 
BRANCH   9  10
ATOM     10  C   UNL     1      19.195  13.712  32.359  1.00  0.00    -0.000 C 
BRANCH  10  11
ATOM     11  C   UNL     1      20.262  13.557  31.263  1.00  0.00    -0.000 C 
BRANCH  11  12
ATOM     12  C   UNL     1      20.039  14.520  30.084  1.00  0.00    -0.003 C 
ATOM     13  C   UNL     1      19.814  13.792  28.759  1.00  0.00     0.004 C 
ENDBRANCH  11  12
ENDBRANCH  10  11
ENDBRANCH   9  10
ENDBRANCH   8   9
ENDBRANCH   1   8
TORSDOF 9
ENDMDL
MODEL 8
REMARK VINA RESULT:    -3.304      2.547      5.059
REMARK INTER + INTRA:          -6.123
REMARK INTER:                  -5.240
REMARK INTRA:                  -0.883
REMARK UNBOUND:                -1.080
REMARK SMILES CCCCCCCCCCC(=O)[O-]
REMARK SMILES IDX 7 1 8 2 9 3 10 4 11 5 12 6 13 7 6 8 5 9 4 10 3 11 2 12 1 13
REMARK H PARENT
REMARK Flexibility Score: inf
ROOT
ATOM      1  C   UNL     1      15.979  15.747  29.058  1.00  0.00     0.000 C 
ENDROOT
BRANCH   1   2
ATOM      2  C   UNL     1      16.872  15.780  30.311  1.00  0.00     0.000 C 
BRANCH   2   3
ATOM      3  C   UNL     1      16.948  14.454  31.089  1.00  0.00     0.006 C 
BRANCH   3   4
ATOM      4  C   UNL     1      18.340  14.182  31.674  1.00  0.00     0.053 C 
BRANCH   4   5
ATOM      5  C   UNL     1      19.293  13.784  30.592  1.00  0.00     0.041 C 
ATOM      6  O   UNL     1      20.373  14.411  30.436  1.00  0.00    -0.550 OA
ATOM      7  O   UNL     1      19.012  12.686  29.787  1.00  0.00    -0.550 OA
ENDBRANCH   4   5
ENDBRANCH   3   4
ENDBRANCH   2   3
ENDBRANCH   1   2
BRANCH   1   8
ATOM      8  C   UNL     1      16.385  14.652  28.061  1.00  0.00     0.000 C 
BRANCH   8   9
ATOM      9  C   UNL     1      17.731  14.983  27.399  1.00  0.00    -0.000 C 
BRANCH   9  10
ATOM     10  C   UNL     1      17.632  15.093  25.869  1.00  0.00    -0.000 C 
BRANCH  10  11
ATOM     11  C   UNL     1      16.833  16.326  25.416  1.00  0.00    -0.000 C 
BRANCH  11  12
ATOM     12  C   UNL     1      15.757  15.980  24.373  1.00  0.00    -0.003 C 
ATOM     13  C   UNL     1      15.313  14.520  24.443  1.00  0.00     0.004 C 
ENDBRANCH  11  12
ENDBRANCH  10  11
ENDBRANCH   9  10
ENDBRANCH   8   9
ENDBRANCH   1   8
TORSDOF 9
ENDMDL
MODEL 9
REMARK VINA RESULT:    -3.235      3.777      5.075
REMARK INTER + INTRA:          -6.017
REMARK INTER:                  -5.207
REMARK INTRA:                  -0.811
REMARK UNBOUND:                -1.080
REMARK SMILES CCCCCCCCCCC(=O)[O-]
REMARK SMILES IDX 7 1 8 2 9 3 10 4 11 5 12 6 13 7 6 8 5 9 4 10 3 11 2 12 1 13
REMARK H PARENT
REMARK Flexibility Score: inf
ROOT
ATOM      1  C   UNL     1      14.824  13.328  28.323  1.00  0.00     0.000 C 
ENDROOT
BRANCH   1   2
ATOM      2  C   UNL     1      13.562  14.181  28.542  1.00  0.00     0.000 C 
BRANCH   2   3
ATOM      3  C   UNL     1      13.006  14.164  29.977  1.00  0.00     0.006 C 
BRANCH   3   4
ATOM      4  C   UNL     1      11.665  14.896  30.109  1.00  0.00     0.053 C 
BRANCH   4   5
ATOM      5  C   UNL     1      10.982  14.511  31.383  1.00  0.00     0.041 C 
ATOM      6  O   UNL     1      11.661  14.205  32.398  1.00  0.00    -0.550 OA
ATOM      7  O   UNL     1       9.595  14.539  31.465  1.00  0.00    -0.550 OA
ENDBRANCH   4   5
ENDBRANCH   3   4
ENDBRANCH   2   3
ENDBRANCH   1   2
BRANCH   1   8
ATOM      8  C   UNL     1      16.046  14.160  27.907  1.00  0.00     0.000 C 
BRANCH   8   9
ATOM      9  C   UNL     1      15.890  15.623  28.352  1.00  0.00    -0.000 C 
BRANCH   9  10
ATOM     10  C   UNL     1      16.332  15.852  29.806  1.00  0.00    -0.000 C 
BRANCH  10  11
ATOM     11  C   UNL     1      17.690  15.203  30.120  1.00  0.00    -0.000 C 
BRANCH  11  12
ATOM     12  C   UNL     1      17.682  14.435  31.453  1.00  0.00    -0.003 C 
ATOM     13  C   UNL     1      16.535  13.430  31.551  1.00  0.00     0.004 C 
ENDBRANCH  11  12
ENDBRANCH  10  11
ENDBRANCH   9  10
ENDBRANCH   8   9
ENDBRANCH   1   8
TORSDOF 9
ENDMDL
