MODEL 1
REMARK VINA RESULT:    -3.711      0.000      0.000
REMARK INTER + INTRA:          -5.328
REMARK INTER:                  -4.796
REMARK INTRA:                  -0.532
REMARK UNBOUND:                -0.532
REMARK SMILES C=CC(=O)CCCCC
REMARK SMILES IDX 6 1 7 2 8 3 9 4 5 5 3 6 4 7 2 8 1 9
REMARK H PARENT
REMARK Flexibility Score: inf
ROOT
ATOM      1  C   UNL     1      -1.161   0.814  27.829  1.00  0.00     0.008 C 
ENDROOT
BRANCH   1   2
ATOM      2  C   UNL     1      -1.140  -0.360  26.840  1.00  0.00     0.000 C 
BRANCH   2   3
ATOM      3  C   UNL     1      -2.343  -0.349  25.885  1.00  0.00    -0.003 C 
ATOM      4  C   UNL     1      -3.332   0.775  26.192  1.00  0.00     0.004 C 
ENDBRANCH   2   3
ENDBRANCH   1   2
BRANCH   1   5
ATOM      5  C   UNL     1      -0.803   0.345  29.244  1.00  0.00     0.080 C 
BRANCH   5   6
ATOM      6  C   UNL     1      -1.996   0.438  30.148  1.00  0.00     0.155 C 
ATOM      7  O   UNL     1      -2.099   1.418  30.937  1.00  0.00    -0.295 OA
BRANCH   6   8
ATOM      8  C   UNL     1      -3.012  -0.632  30.142  1.00  0.00     0.039 C 
ATOM      9  C   UNL     1      -4.212  -0.476  29.586  1.00  0.00     0.012 C 
ENDBRANCH   6   8
ENDBRANCH   5   6
ENDBRANCH   1   5
TORSDOF 5
ENDMDL
MODEL 2
REMARK VINA RESULT:    -3.639      1.318      3.645
REMARK INTER + INTRA:          -5.235
REMARK INTER:                  -4.894
REMARK INTRA:                  -0.342
REMARK UNBOUND:                -0.532
REMARK SMILES C=CC(=O)CCCCC
REMARK SMILES IDX 6 1 7 2 8 3 9 4 5 5 3 6 4 7 2 8 1 9
REMARK H PARENT
REMARK Flexibility Score: inf
ROOT
ATOM      1  C   UNL     1      -1.939   0.617  30.196  1.00  0.00     0.008 C 
ENDROOT
BRANCH   1   2
ATOM      2  C   UNL     1      -2.788  -0.660  30.280  1.00  0.00     0.000 C 
BRANCH   2   3
ATOM      3  C   UNL     1      -4.259  -0.416  29.911  1.00  0.00    -0.003 C 
ATOM      4  C   UNL     1      -5.221  -0.782  31.040  1.00  0.00     0.004 C 
ENDBRANCH   2   3
ENDBRANCH   1   2
BRANCH   1   5
ATOM      5  C   UNL     1      -0.742   0.419  29.259  1.00  0.00     0.080 C 
BRANCH   5   6
ATOM      6  C   UNL     1      -1.105   0.799  27.854  1.00  0.00     0.155 C 
ATOM      7  O   UNL     1      -1.358   2.006  27.587  1.00  0.00    -0.295 OA
BRANCH   6   8
ATOM      8  C   UNL     1      -1.206  -0.239  26.810  1.00  0.00     0.039 C 
ATOM      9  C   UNL     1      -2.272  -0.358  26.022  1.00  0.00     0.012 C 
ENDBRANCH   6   8
ENDBRANCH   5   6
ENDBRANCH   1   5
TORSDOF 5
ENDMDL
MODEL 3
REMARK VINA RESULT:    -3.512      0.994      1.068
REMARK INTER + INTRA:          -5.071
REMARK INTER:                  -4.649
REMARK INTRA:                  -0.422
REMARK UNBOUND:                -0.532
REMARK SMILES C=CC(=O)CCCCC
REMARK SMILES IDX 6 1 7 2 8 3 9 4 5 5 3 6 4 7 2 8 1 9
REMARK H PARENT
REMARK Flexibility Score: inf
ROOT
ATOM      1  C   UNL     1      -0.769   0.525  28.466  1.00  0.00     0.008 C 
ENDROOT
BRANCH   1   2
ATOM      2  C   UNL     1      -1.155  -0.357  27.270  1.00  0.00     0.000 C 
BRANCH   2   3
ATOM      3  C   UNL     1      -1.746   0.453  26.106  1.00  0.00    -0.003 C 
ATOM      4  C   UNL     1      -3.244   0.210  25.917  1.00  0.00     0.004 C 
ENDBRANCH   2   3
ENDBRANCH   1   2
BRANCH   1   5
ATOM      5  C   UNL     1      -1.510   0.083  29.733  1.00  0.00     0.080 C 
BRANCH   5   6
ATOM      6  C   UNL     1      -2.971   0.408  29.630  1.00  0.00     0.155 C 
ATOM      7  O   UNL     1      -3.334   1.616  29.589  1.00  0.00    -0.295 OA
BRANCH   6   8
ATOM      8  C   UNL     1      -3.971  -0.677  29.623  1.00  0.00     0.039 C 
ATOM      9  C   UNL     1      -5.063  -0.648  30.383  1.00  0.00     0.012 C 
ENDBRANCH   6   8
ENDBRANCH   5   6
ENDBRANCH   1   5
TORSDOF 5
ENDMDL
MODEL 4
REMARK VINA RESULT:    -3.450      1.591      3.819
REMARK INTER + INTRA:          -4.991
REMARK INTER:                  -4.408
REMARK INTRA:                  -0.583
REMARK UNBOUND:                -0.532
REMARK SMILES C=CC(=O)CCCCC
REMARK SMILES IDX 6 1 7 2 8 3 9 4 5 5 3 6 4 7 2 8 1 9
REMARK H PARENT
REMARK Flexibility Score: inf
ROOT
ATOM      1  C   UNL     1      -3.202  -0.162  30.163  1.00  0.00     0.008 C 
ENDROOT
BRANCH   1   2
ATOM      2  C   UNL     1      -1.680  -0.045  30.323  1.00  0.00     0.000 C 
BRANCH   2   3
ATOM      3  C   UNL     1      -1.205   1.415  30.397  1.00  0.00    -0.003 C 
ATOM      4  C   UNL     1      -0.054   1.713  29.436  1.00  0.00     0.004 C 
ENDBRANCH   2   3
ENDBRANCH   1   2
BRANCH   1   5
ATOM      5  C   UNL     1      -3.565  -0.794  28.815  1.00  0.00     0.080 C 
BRANCH   5   6
ATOM      6  C   UNL     1      -3.333   0.179  27.697  1.00  0.00     0.155 C 
ATOM      7  O   UNL     1      -3.853   1.327  27.759  1.00  0.00    -0.295 OA
BRANCH   6   8
ATOM      8  C   UNL     1      -2.540  -0.223  26.519  1.00  0.00     0.039 C 
ATOM      9  C   UNL     1      -1.263  -0.588  26.608  1.00  0.00     0.012 C 
ENDBRANCH   6   8
ENDBRANCH   5   6
ENDBRANCH   1   5
TORSDOF 5
ENDMDL
MODEL 5
REMARK VINA RESULT:    -3.423      1.636      2.330
REMARK INTER + INTRA:          -4.955
REMARK INTER:                  -4.654
REMARK INTRA:                  -0.301
REMARK UNBOUND:                -0.532
REMARK SMILES C=CC(=O)CCCCC
REMARK SMILES IDX 6 1 7 2 8 3 9 4 5 5 3 6 4 7 2 8 1 9
REMARK H PARENT
REMARK Flexibility Score: inf
ROOT
ATOM      1  C   UNL     1      -1.492   0.907  29.910  1.00  0.00     0.008 C 
ENDROOT
BRANCH   1   2
ATOM      2  C   UNL     1      -0.578   0.666  28.700  1.00  0.00     0.000 C 
BRANCH   2   3
ATOM      3  C   UNL     1      -1.340   0.706  27.367  1.00  0.00    -0.003 C 
ATOM      4  C   UNL     1      -1.339  -0.641  26.644  1.00  0.00     0.004 C 
ENDBRANCH   2   3
ENDBRANCH   1   2
BRANCH   1   5
ATOM      5  C   UNL     1      -2.087  -0.411  30.417  1.00  0.00     0.080 C 
BRANCH   5   6
ATOM      6  C   UNL     1      -3.571  -0.439  30.196  1.00  0.00     0.155 C 
ATOM      7  O   UNL     1      -4.022  -0.800  29.074  1.00  0.00    -0.295 OA
BRANCH   6   8
ATOM      8  C   UNL     1      -4.486  -0.005  31.269  1.00  0.00     0.039 C 
ATOM      9  C   UNL     1      -5.442  -0.792  31.755  1.00  0.00     0.012 C 
ENDBRANCH   6   8
ENDBRANCH   5   6
ENDBRANCH   1   5
TORSDOF 5
ENDMDL
MODEL 6
REMARK VINA RESULT:    -3.281      1.294      2.412
REMARK INTER + INTRA:          -4.772
REMARK INTER:                  -4.298
REMARK INTRA:                  -0.474
REMARK UNBOUND:                -0.532
REMARK SMILES C=CC(=O)CCCCC
REMARK SMILES IDX 6 1 7 2 8 3 9 4 5 5 3 6 4 7 2 8 1 9
REMARK H PARENT
REMARK Flexibility Score: inf
ROOT
ATOM      1  C   UNL     1      -1.987  -0.718  27.045  1.00  0.00     0.008 C 
ENDROOT
BRANCH   1   2
ATOM      2  C   UNL     1      -2.374   0.209  25.883  1.00  0.00     0.000 C 
BRANCH   2   3
ATOM      3  C   UNL     1      -3.138   1.456  26.353  1.00  0.00    -0.003 C 
ATOM      4  C   UNL     1      -2.217   2.646  26.625  1.00  0.00     0.004 C 
ENDBRANCH   2   3
ENDBRANCH   1   2
BRANCH   1   5
ATOM      5  C   UNL     1      -2.869  -0.458  28.271  1.00  0.00     0.080 C 
BRANCH   5   6
ATOM      6  C   UNL     1      -2.037  -0.001  29.432  1.00  0.00     0.155 C 
ATOM      7  O   UNL     1      -2.568   0.095  30.573  1.00  0.00    -0.295 OA
BRANCH   6   8
ATOM      8  C   UNL     1      -0.625   0.376  29.227  1.00  0.00     0.039 C 
ATOM      9  C   UNL     1      -0.169   1.602  29.471  1.00  0.00     0.012 C 
ENDBRANCH   6   8
ENDBRANCH   5   6
ENDBRANCH   1   5
TORSDOF 5
ENDMDL
MODEL 7
REMARK VINA RESULT:    -3.273      2.083      4.033
REMARK INTER + INTRA:          -4.762
REMARK INTER:                  -4.493
REMARK INTRA:                  -0.269
REMARK UNBOUND:                -0.532
REMARK SMILES C=CC(=O)CCCCC
REMARK SMILES IDX 6 1 7 2 8 3 9 4 5 5 3 6 4 7 2 8 1 9
REMARK H PARENT
REMARK Flexibility Score: inf
ROOT
ATOM      1  C   UNL     1      -0.297   0.717  28.905  1.00  0.00     0.008 C 
ENDROOT
BRANCH   1   2
ATOM      2  C   UNL     1       0.091   1.980  29.686  1.00  0.00     0.000 C 
BRANCH   2   3
ATOM      3  C   UNL     1      -0.894   2.299  30.821  1.00  0.00    -0.003 C 
ATOM      4  C   UNL     1      -0.221   2.970  32.018  1.00  0.00     0.004 C 
ENDBRANCH   2   3
ENDBRANCH   1   2
BRANCH   1   5
ATOM      5  C   UNL     1      -1.645   0.168  29.386  1.00  0.00     0.080 C 
BRANCH   5   6
ATOM      6  C   UNL     1      -2.498  -0.233  28.219  1.00  0.00     0.155 C 
ATOM      7  O   UNL     1      -3.753  -0.257  28.351  1.00  0.00    -0.295 OA
BRANCH   6   8
ATOM      8  C   UNL     1      -1.868  -0.636  26.947  1.00  0.00     0.039 C 
ATOM      9  C   UNL     1      -2.249  -0.139  25.772  1.00  0.00     0.012 C 
ENDBRANCH   6   8
ENDBRANCH   5   6
ENDBRANCH   1   5
TORSDOF 5
ENDMDL
MODEL 8
REMARK VINA RESULT:    -3.229     10.978     11.802
REMARK INTER + INTRA:          -4.705
REMARK INTER:                  -4.492
REMARK INTRA:                  -0.212
REMARK UNBOUND:                -0.532
REMARK SMILES C=CC(=O)CCCCC
REMARK SMILES IDX 6 1 7 2 8 3 9 4 5 5 3 6 4 7 2 8 1 9
REMARK H PARENT
REMARK Flexibility Score: inf
ROOT
ATOM      1  C   UNL     1     -12.871  -0.069  30.886  1.00  0.00     0.008 C 
ENDROOT
BRANCH   1   2
ATOM      2  C   UNL     1     -13.229   1.171  30.054  1.00  0.00     0.000 C 
BRANCH   2   3
ATOM      3  C   UNL     1     -14.136   0.839  28.859  1.00  0.00    -0.003 C 
ATOM      4  C   UNL     1     -15.098   1.975  28.512  1.00  0.00     0.004 C 
ENDBRANCH   2   3
ENDBRANCH   1   2
BRANCH   1   5
ATOM      5  C   UNL     1     -13.513   0.001  32.276  1.00  0.00     0.080 C 
BRANCH   5   6
ATOM      6  C   UNL     1     -12.692   0.860  33.193  1.00  0.00     0.155 C 
ATOM      7  O   UNL     1     -11.439   0.898  33.047  1.00  0.00    -0.295 OA
BRANCH   6   8
ATOM      8  C   UNL     1     -13.345   1.616  34.279  1.00  0.00     0.039 C 
ATOM      9  C   UNL     1     -14.661   1.592  34.476  1.00  0.00     0.012 C 
ENDBRANCH   6   8
ENDBRANCH   5   6
ENDBRANCH   1   5
TORSDOF 5
ENDMDL
MODEL 9
REMARK VINA RESULT:    -3.213     16.781     17.722
REMARK INTER + INTRA:          -4.684
REMARK INTER:                  -4.397
REMARK INTRA:                  -0.288
REMARK UNBOUND:                -0.532
REMARK SMILES C=CC(=O)CCCCC
REMARK SMILES IDX 6 1 7 2 8 3 9 4 5 5 3 6 4 7 2 8 1 9
REMARK H PARENT
REMARK Flexibility Score: inf
ROOT
ATOM      1  C   UNL     1     -11.899  11.621  17.651  1.00  0.00     0.008 C 
ENDROOT
BRANCH   1   2
ATOM      2  C   UNL     1     -10.603  11.393  18.443  1.00  0.00     0.000 C 
BRANCH   2   3
ATOM      3  C   UNL     1      -9.753  12.668  18.562  1.00  0.00    -0.003 C 
ATOM      4  C   UNL     1      -8.562  12.498  19.505  1.00  0.00     0.004 C 
ENDBRANCH   2   3
ENDBRANCH   1   2
BRANCH   1   5
ATOM      5  C   UNL     1     -13.097  10.990  18.368  1.00  0.00     0.080 C 
BRANCH   5   6
ATOM      6  C   UNL     1     -13.273  11.592  19.731  1.00  0.00     0.155 C 
ATOM      7  O   UNL     1     -13.336  12.847  19.848  1.00  0.00    -0.295 OA
BRANCH   6   8
ATOM      8  C   UNL     1     -13.325  10.723  20.922  1.00  0.00     0.039 C 
ATOM      9  C   UNL     1     -13.598   9.422  20.847  1.00  0.00     0.012 C 
ENDBRANCH   6   8
ENDBRANCH   5   6
ENDBRANCH   1   5
TORSDOF 5
ENDMDL
