MODEL 1
REMARK VINA RESULT:    -4.629      0.000      0.000
REMARK INTER + INTRA:         -10.553
REMARK INTER:                  -8.418
REMARK INTRA:                  -2.135
REMARK UNBOUND:                -2.135
REMARK SMILES CCCCCCCCCCCCCC[C@H](C)C(=O)[O-]
REMARK SMILES IDX 9 1 10 2 11 3 12 4 13 5 14 6 15 7 16 8 17 9 18 10 19 11 8 12
REMARK SMILES IDX 7 13 6 14 5 15 4 16 3 17 2 18 1 19
REMARK H PARENT
REMARK Flexibility Score: inf
ROOT
ATOM      1  C   UNL     1      42.703  63.589   9.877  1.00  0.00     0.000 C 
ENDROOT
BRANCH   1   2
ATOM      2  C   UNL     1      42.030  63.067   8.598  1.00  0.00     0.000 C 
BRANCH   2   3
ATOM      3  C   UNL     1      43.039  62.540   7.566  1.00  0.00     0.000 C 
BRANCH   3   4
ATOM      4  C   UNL     1      42.938  63.270   6.216  1.00  0.00     0.000 C 
BRANCH   4   5
ATOM      5  C   UNL     1      43.600  64.658   6.246  1.00  0.00     0.001 C 
BRANCH   5   6
ATOM      6  C   UNL     1      42.623  65.792   5.886  1.00  0.00     0.009 C 
BRANCH   6   7
ATOM      7  C   UNL     1      42.651  66.933   6.924  1.00  0.00     0.032 C 
ATOM      8  C   UNL     1      43.723  66.667   7.987  1.00  0.00     0.014 C 
BRANCH   7   9
ATOM      9  C   UNL     1      41.311  67.103   7.585  1.00  0.00     0.044 C 
ATOM     10  O   UNL     1      40.970  66.339   8.528  1.00  0.00    -0.550 OA
ATOM     11  O   UNL     1      40.439  68.100   7.163  1.00  0.00    -0.550 OA
ENDBRANCH   7   9
ENDBRANCH   6   7
ENDBRANCH   5   6
ENDBRANCH   4   5
ENDBRANCH   3   4
ENDBRANCH   2   3
ENDBRANCH   1   2
BRANCH   1  12
ATOM     12  C   UNL     1      41.808  63.354  11.102  1.00  0.00     0.000 C 
BRANCH  12  13
ATOM     13  C   UNL     1      42.557  63.548  12.431  1.00  0.00    -0.000 C 
BRANCH  13  14
ATOM     14  C   UNL     1      44.067  63.748  12.235  1.00  0.00    -0.000 C 
BRANCH  14  15
ATOM     15  C   UNL     1      44.868  62.761  13.092  1.00  0.00    -0.000 C 
BRANCH  15  16
ATOM     16  C   UNL     1      44.031  61.518  13.429  1.00  0.00    -0.000 C 
BRANCH  16  17
ATOM     17  C   UNL     1      44.456  60.274  12.629  1.00  0.00    -0.000 C 
BRANCH  17  18
ATOM     18  C   UNL     1      43.926  60.221  11.185  1.00  0.00    -0.003 C 
ATOM     19  C   UNL     1      45.003  60.517  10.142  1.00  0.00     0.004 C 
ENDBRANCH  17  18
ENDBRANCH  16  17
ENDBRANCH  15  16
ENDBRANCH  14  15
ENDBRANCH  13  14
ENDBRANCH  12  13
ENDBRANCH   1  12
TORSDOF 14
ENDMDL
MODEL 2
REMARK VINA RESULT:    -4.623      1.156      2.993
REMARK INTER + INTRA:         -10.542
REMARK INTER:                  -8.355
REMARK INTRA:                  -2.187
REMARK UNBOUND:                -2.135
REMARK SMILES CCCCCCCCCCCCCC[C@H](C)C(=O)[O-]
REMARK SMILES IDX 9 1 10 2 11 3 12 4 13 5 14 6 15 7 16 8 17 9 18 10 19 11 8 12
REMARK SMILES IDX 7 13 6 14 5 15 4 16 3 17 2 18 1 19
REMARK H PARENT
REMARK Flexibility Score: inf
ROOT
ATOM      1  C   UNL     1      44.859  60.715   9.230  1.00  0.00     0.000 C 
ENDROOT
BRANCH   1   2
ATOM      2  C   UNL     1      43.366  60.373   9.109  1.00  0.00     0.000 C 
BRANCH   2   3
ATOM      3  C   UNL     1      42.648  61.211   8.037  1.00  0.00     0.000 C 
BRANCH   3   4
ATOM      4  C   UNL     1      43.574  62.251   7.384  1.00  0.00     0.000 C 
BRANCH   4   5
ATOM      5  C   UNL     1      42.795  63.365   6.665  1.00  0.00     0.001 C 
BRANCH   5   6
ATOM      6  C   UNL     1      43.656  64.610   6.385  1.00  0.00     0.009 C 
BRANCH   6   7
ATOM      7  C   UNL     1      42.795  65.850   6.066  1.00  0.00     0.032 C 
ATOM      8  C   UNL     1      43.224  66.475   4.735  1.00  0.00     0.014 C 
BRANCH   7   9
ATOM      9  C   UNL     1      42.889  66.876   7.163  1.00  0.00     0.044 C 
ATOM     10  O   UNL     1      42.134  67.885   7.150  1.00  0.00    -0.550 OA
ATOM     11  O   UNL     1      43.807  66.721   8.195  1.00  0.00    -0.550 OA
ENDBRANCH   7   9
ENDBRANCH   6   7
ENDBRANCH   5   6
ENDBRANCH   4   5
ENDBRANCH   3   4
ENDBRANCH   2   3
ENDBRANCH   1   2
BRANCH   1  12
ATOM     12  C   UNL     1      45.279  60.818  10.703  1.00  0.00     0.000 C 
BRANCH  12  13
ATOM     13  C   UNL     1      44.164  60.386  11.671  1.00  0.00    -0.000 C 
BRANCH  13  14
ATOM     14  C   UNL     1      44.283  61.059  13.046  1.00  0.00    -0.000 C 
BRANCH  14  15
ATOM     15  C   UNL     1      44.651  62.541  12.903  1.00  0.00    -0.000 C 
BRANCH  15  16
ATOM     16  C   UNL     1      43.414  63.386  12.564  1.00  0.00    -0.000 C 
BRANCH  16  17
ATOM     17  C   UNL     1      43.573  64.187  11.260  1.00  0.00    -0.000 C 
BRANCH  17  18
ATOM     18  C   UNL     1      42.373  64.107  10.300  1.00  0.00    -0.003 C 
ATOM     19  C   UNL     1      41.280  63.156  10.787  1.00  0.00     0.004 C 
ENDBRANCH  17  18
ENDBRANCH  16  17
ENDBRANCH  15  16
ENDBRANCH  14  15
ENDBRANCH  13  14
ENDBRANCH  12  13
ENDBRANCH   1  12
TORSDOF 14
ENDMDL
MODEL 3
REMARK VINA RESULT:    -4.551      0.787      2.447
REMARK INTER + INTRA:         -10.410
REMARK INTER:                  -8.592
REMARK INTRA:                  -1.818
REMARK UNBOUND:                -2.135
REMARK SMILES CCCCCCCCCCCCCC[C@H](C)C(=O)[O-]
REMARK SMILES IDX 9 1 10 2 11 3 12 4 13 5 14 6 15 7 16 8 17 9 18 10 19 11 8 12
REMARK SMILES IDX 7 13 6 14 5 15 4 16 3 17 2 18 1 19
REMARK H PARENT
REMARK Flexibility Score: inf
ROOT
ATOM      1  C   UNL     1      43.332  60.366   8.873  1.00  0.00     0.000 C 
ENDROOT
BRANCH   1   2
ATOM      2  C   UNL     1      42.584  61.430   8.054  1.00  0.00     0.000 C 
BRANCH   2   3
ATOM      3  C   UNL     1      43.526  62.460   7.412  1.00  0.00     0.000 C 
BRANCH   3   4
ATOM      4  C   UNL     1      42.790  63.422   6.463  1.00  0.00     0.000 C 
BRANCH   4   5
ATOM      5  C   UNL     1      43.568  64.727   6.227  1.00  0.00     0.001 C 
BRANCH   5   6
ATOM      6  C   UNL     1      42.655  65.903   5.835  1.00  0.00     0.009 C 
BRANCH   6   7
ATOM      7  C   UNL     1      42.620  66.997   6.921  1.00  0.00     0.032 C 
ATOM      8  C   UNL     1      43.689  66.732   7.987  1.00  0.00     0.014 C 
BRANCH   7   9
ATOM      9  C   UNL     1      41.266  67.081   7.570  1.00  0.00     0.044 C 
ATOM     10  O   UNL     1      40.950  66.268   8.480  1.00  0.00    -0.550 OA
ATOM     11  O   UNL     1      40.352  68.051   7.172  1.00  0.00    -0.550 OA
ENDBRANCH   7   9
ENDBRANCH   6   7
ENDBRANCH   5   6
ENDBRANCH   4   5
ENDBRANCH   3   4
ENDBRANCH   2   3
ENDBRANCH   1   2
BRANCH   1  12
ATOM     12  C   UNL     1      44.806  60.753   9.054  1.00  0.00     0.000 C 
BRANCH  12  13
ATOM     13  C   UNL     1      45.288  60.596  10.506  1.00  0.00    -0.000 C 
BRANCH  13  14
ATOM     14  C   UNL     1      44.137  60.305  11.482  1.00  0.00    -0.000 C 
BRANCH  14  15
ATOM     15  C   UNL     1      44.585  60.507  12.934  1.00  0.00    -0.000 C 
BRANCH  15  16
ATOM     16  C   UNL     1      44.664  61.999  13.285  1.00  0.00    -0.000 C 
BRANCH  16  17
ATOM     17  C   UNL     1      43.469  62.806  12.746  1.00  0.00    -0.000 C 
BRANCH  17  18
ATOM     18  C   UNL     1      43.841  63.948  11.783  1.00  0.00    -0.003 C 
ATOM     19  C   UNL     1      42.799  64.168  10.687  1.00  0.00     0.004 C 
ENDBRANCH  17  18
ENDBRANCH  16  17
ENDBRANCH  15  16
ENDBRANCH  14  15
ENDBRANCH  13  14
ENDBRANCH  12  13
ENDBRANCH   1  12
TORSDOF 14
ENDMDL
MODEL 4
REMARK VINA RESULT:    -4.550      1.386      3.105
REMARK INTER + INTRA:         -10.409
REMARK INTER:                  -8.092
REMARK INTRA:                  -2.317
REMARK UNBOUND:                -2.135
REMARK SMILES CCCCCCCCCCCCCC[C@H](C)C(=O)[O-]
REMARK SMILES IDX 9 1 10 2 11 3 12 4 13 5 14 6 15 7 16 8 17 9 18 10 19 11 8 12
REMARK SMILES IDX 7 13 6 14 5 15 4 16 3 17 2 18 1 19
REMARK H PARENT
REMARK Flexibility Score: inf
ROOT
ATOM      1  C   UNL     1      45.279  60.736  11.187  1.00  0.00     0.000 C 
ENDROOT
BRANCH   1   2
ATOM      2  C   UNL     1      44.455  60.065  10.077  1.00  0.00     0.000 C 
BRANCH   2   3
ATOM      3  C   UNL     1      44.602  60.768   8.718  1.00  0.00     0.000 C 
BRANCH   3   4
ATOM      4  C   UNL     1      43.260  61.287   8.174  1.00  0.00     0.000 C 
BRANCH   4   5
ATOM      5  C   UNL     1      43.411  62.599   7.387  1.00  0.00     0.001 C 
BRANCH   5   6
ATOM      6  C   UNL     1      42.156  63.488   7.463  1.00  0.00     0.009 C 
BRANCH   6   7
ATOM      7  C   UNL     1      42.423  64.913   6.936  1.00  0.00     0.032 C 
ATOM      8  C   UNL     1      43.566  64.905   5.916  1.00  0.00     0.014 C 
BRANCH   7   9
ATOM      9  C   UNL     1      42.752  65.859   8.059  1.00  0.00     0.044 C 
ATOM     10  O   UNL     1      42.124  65.788   9.149  1.00  0.00    -0.550 OA
ATOM     11  O   UNL     1      43.748  66.817   7.904  1.00  0.00    -0.550 OA
ENDBRANCH   7   9
ENDBRANCH   6   7
ENDBRANCH   5   6
ENDBRANCH   4   5
ENDBRANCH   3   4
ENDBRANCH   2   3
ENDBRANCH   1   2
BRANCH   1  12
ATOM     12  C   UNL     1      44.643  60.496  12.563  1.00  0.00     0.000 C 
BRANCH  12  13
ATOM     13  C   UNL     1      44.132  61.791  13.216  1.00  0.00    -0.000 C 
BRANCH  13  14
ATOM     14  C   UNL     1      44.609  63.052  12.479  1.00  0.00    -0.000 C 
BRANCH  14  15
ATOM     15  C   UNL     1      43.432  63.781  11.821  1.00  0.00    -0.000 C 
BRANCH  15  16
ATOM     16  C   UNL     1      42.096  63.122  12.194  1.00  0.00    -0.000 C 
BRANCH  16  17
ATOM     17  C   UNL     1      41.079  63.131  11.039  1.00  0.00    -0.000 C 
BRANCH  17  18
ATOM     18  C   UNL     1      40.650  61.739  10.543  1.00  0.00    -0.003 C 
ATOM     19  C   UNL     1      41.073  60.612  11.484  1.00  0.00     0.004 C 
ENDBRANCH  17  18
ENDBRANCH  16  17
ENDBRANCH  15  16
ENDBRANCH  14  15
ENDBRANCH  13  14
ENDBRANCH  12  13
ENDBRANCH   1  12
TORSDOF 14
ENDMDL
MODEL 5
REMARK VINA RESULT:    -4.541      1.389      1.997
REMARK INTER + INTRA:         -10.393
REMARK INTER:                  -8.211
REMARK INTRA:                  -2.182
REMARK UNBOUND:                -2.135
REMARK SMILES CCCCCCCCCCCCCC[C@H](C)C(=O)[O-]
REMARK SMILES IDX 9 1 10 2 11 3 12 4 13 5 14 6 15 7 16 8 17 9 18 10 19 11 8 12
REMARK SMILES IDX 7 13 6 14 5 15 4 16 3 17 2 18 1 19
REMARK H PARENT
REMARK Flexibility Score: inf
ROOT
ATOM      1  C   UNL     1      42.929  63.702  10.628  1.00  0.00     0.000 C 
ENDROOT
BRANCH   1   2
ATOM      2  C   UNL     1      41.549  63.220  10.157  1.00  0.00     0.000 C 
BRANCH   2   3
ATOM      3  C   UNL     1      41.532  62.815   8.674  1.00  0.00     0.000 C 
BRANCH   3   4
ATOM      4  C   UNL     1      42.947  62.613   8.102  1.00  0.00     0.000 C 
BRANCH   4   5
ATOM      5  C   UNL     1      43.144  63.326   6.754  1.00  0.00     0.001 C 
BRANCH   5   6
ATOM      6  C   UNL     1      42.427  64.686   6.689  1.00  0.00     0.009 C 
BRANCH   6   7
ATOM      7  C   UNL     1      43.420  65.859   6.559  1.00  0.00     0.032 C 
ATOM      8  C   UNL     1      43.481  66.661   7.864  1.00  0.00     0.014 C 
BRANCH   7   9
ATOM      9  C   UNL     1      43.044  66.770   5.421  1.00  0.00     0.044 C 
ATOM     10  O   UNL     1      43.568  66.611   4.286  1.00  0.00    -0.550 OA
ATOM     11  O   UNL     1      42.120  67.791   5.613  1.00  0.00    -0.550 OA
ENDBRANCH   7   9
ENDBRANCH   6   7
ENDBRANCH   5   6
ENDBRANCH   4   5
ENDBRANCH   3   4
ENDBRANCH   2   3
ENDBRANCH   1   2
BRANCH   1  12
ATOM     12  C   UNL     1      43.126  63.424  12.125  1.00  0.00     0.000 C 
BRANCH  12  13
ATOM     13  C   UNL     1      44.599  63.506  12.556  1.00  0.00    -0.000 C 
BRANCH  13  14
ATOM     14  C   UNL     1      45.019  62.330  13.451  1.00  0.00    -0.000 C 
BRANCH  14  15
ATOM     15  C   UNL     1      43.834  61.392  13.716  1.00  0.00    -0.000 C 
BRANCH  15  16
ATOM     16  C   UNL     1      44.045  60.032  13.036  1.00  0.00    -0.000 C 
BRANCH  16  17
ATOM     17  C   UNL     1      42.981  59.724  11.968  1.00  0.00    -0.000 C 
BRANCH  17  18
ATOM     18  C   UNL     1      43.443  59.931  10.514  1.00  0.00    -0.003 C 
ATOM     19  C   UNL     1      44.918  60.316  10.405  1.00  0.00     0.004 C 
ENDBRANCH  17  18
ENDBRANCH  16  17
ENDBRANCH  15  16
ENDBRANCH  14  15
ENDBRANCH  13  14
ENDBRANCH  12  13
ENDBRANCH   1  12
TORSDOF 14
ENDMDL
MODEL 6
REMARK VINA RESULT:    -4.435      2.117      6.003
REMARK INTER + INTRA:         -10.199
REMARK INTER:                  -8.170
REMARK INTRA:                  -2.030
REMARK UNBOUND:                -2.135
REMARK SMILES CCCCCCCCCCCCCC[C@H](C)C(=O)[O-]
REMARK SMILES IDX 9 1 10 2 11 3 12 4 13 5 14 6 15 7 16 8 17 9 18 10 19 11 8 12
REMARK SMILES IDX 7 13 6 14 5 15 4 16 3 17 2 18 1 19
REMARK H PARENT
REMARK Flexibility Score: inf
ROOT
ATOM      1  C   UNL     1      45.311  60.701  10.381  1.00  0.00     0.000 C 
ENDROOT
BRANCH   1   2
ATOM      2  C   UNL     1      44.257  60.506  11.482  1.00  0.00     0.000 C 
BRANCH   2   3
ATOM      3  C   UNL     1      44.608  61.249  12.782  1.00  0.00     0.000 C 
BRANCH   3   4
ATOM      4  C   UNL     1      44.667  62.775  12.591  1.00  0.00     0.000 C 
BRANCH   4   5
ATOM      5  C   UNL     1      43.271  63.418  12.557  1.00  0.00     0.001 C 
BRANCH   5   6
ATOM      6  C   UNL     1      42.930  64.027  11.184  1.00  0.00     0.009 C 
BRANCH   6   7
ATOM      7  C   UNL     1      41.811  63.245  10.466  1.00  0.00     0.032 C 
ATOM      8  C   UNL     1      41.054  64.157   9.494  1.00  0.00     0.014 C 
BRANCH   7   9
ATOM      9  C   UNL     1      40.846  62.642  11.451  1.00  0.00     0.044 C 
ATOM     10  O   UNL     1      40.027  63.377  12.063  1.00  0.00    -0.550 OA
ATOM     11  O   UNL     1      40.853  61.273  11.695  1.00  0.00    -0.550 OA
ENDBRANCH   7   9
ENDBRANCH   6   7
ENDBRANCH   5   6
ENDBRANCH   4   5
ENDBRANCH   3   4
ENDBRANCH   2   3
ENDBRANCH   1   2
BRANCH   1  12
ATOM     12  C   UNL     1      44.842  60.081   9.058  1.00  0.00     0.000 C 
BRANCH  12  13
ATOM     13  C   UNL     1      43.491  60.642   8.585  1.00  0.00    -0.000 C 
BRANCH  13  14
ATOM     14  C   UNL     1      43.644  61.907   7.727  1.00  0.00    -0.000 C 
BRANCH  14  15
ATOM     15  C   UNL     1      42.397  62.142   6.867  1.00  0.00    -0.000 C 
BRANCH  15  16
ATOM     16  C   UNL     1      42.599  63.329   5.914  1.00  0.00    -0.000 C 
BRANCH  16  17
ATOM     17  C   UNL     1      43.608  64.362   6.448  1.00  0.00    -0.000 C 
BRANCH  17  18
ATOM     18  C   UNL     1      43.114  65.819   6.428  1.00  0.00    -0.003 C 
ATOM     19  C   UNL     1      43.412  66.570   7.725  1.00  0.00     0.004 C 
ENDBRANCH  17  18
ENDBRANCH  16  17
ENDBRANCH  15  16
ENDBRANCH  14  15
ENDBRANCH  13  14
ENDBRANCH  12  13
ENDBRANCH   1  12
TORSDOF 14
ENDMDL
MODEL 7
REMARK VINA RESULT:    -4.425      1.657      3.223
REMARK INTER + INTRA:         -10.181
REMARK INTER:                  -8.053
REMARK INTRA:                  -2.128
REMARK UNBOUND:                -2.135
REMARK SMILES CCCCCCCCCCCCCC[C@H](C)C(=O)[O-]
REMARK SMILES IDX 9 1 10 2 11 3 12 4 13 5 14 6 15 7 16 8 17 9 18 10 19 11 8 12
REMARK SMILES IDX 7 13 6 14 5 15 4 16 3 17 2 18 1 19
REMARK H PARENT
REMARK Flexibility Score: inf
ROOT
ATOM      1  C   UNL     1      43.376  60.308   8.883  1.00  0.00     0.000 C 
ENDROOT
BRANCH   1   2
ATOM      2  C   UNL     1      42.600  61.426   8.168  1.00  0.00     0.000 C 
BRANCH   2   3
ATOM      3  C   UNL     1      42.669  62.769   8.912  1.00  0.00     0.000 C 
BRANCH   3   4
ATOM      4  C   UNL     1      41.288  63.429   9.066  1.00  0.00     0.000 C 
BRANCH   4   5
ATOM      5  C   UNL     1      41.342  64.956   8.894  1.00  0.00     0.001 C 
BRANCH   5   6
ATOM      6  C   UNL     1      42.776  65.484   8.705  1.00  0.00     0.009 C 
BRANCH   6   7
ATOM      7  C   UNL     1      42.856  66.564   7.607  1.00  0.00     0.032 C 
ATOM      8  C   UNL     1      41.487  67.218   7.394  1.00  0.00     0.014 C 
BRANCH   7   9
ATOM      9  C   UNL     1      43.351  65.988   6.308  1.00  0.00     0.044 C 
ATOM     10  O   UNL     1      43.417  66.713   5.280  1.00  0.00    -0.550 OA
ATOM     11  O   UNL     1      43.737  64.654   6.232  1.00  0.00    -0.550 OA
ENDBRANCH   7   9
ENDBRANCH   6   7
ENDBRANCH   5   6
ENDBRANCH   4   5
ENDBRANCH   3   4
ENDBRANCH   2   3
ENDBRANCH   1   2
BRANCH   1  12
ATOM     12  C   UNL     1      44.812  60.751   9.195  1.00  0.00     0.000 C 
BRANCH  12  13
ATOM     13  C   UNL     1      45.143  60.680  10.695  1.00  0.00    -0.000 C 
BRANCH  13  14
ATOM     14  C   UNL     1      43.960  60.182  11.538  1.00  0.00    -0.000 C 
BRANCH  14  15
ATOM     15  C   UNL     1      44.299  60.215  13.033  1.00  0.00    -0.000 C 
BRANCH  15  16
ATOM     16  C   UNL     1      43.788  61.507  13.687  1.00  0.00    -0.000 C 
BRANCH  16  17
ATOM     17  C   UNL     1      42.528  62.067  13.004  1.00  0.00    -0.000 C 
BRANCH  17  18
ATOM     18  C   UNL     1      42.645  63.524  12.522  1.00  0.00    -0.003 C 
ATOM     19  C   UNL     1      44.068  63.906  12.115  1.00  0.00     0.004 C 
ENDBRANCH  17  18
ENDBRANCH  16  17
ENDBRANCH  15  16
ENDBRANCH  14  15
ENDBRANCH  13  14
ENDBRANCH  12  13
ENDBRANCH   1  12
TORSDOF 14
ENDMDL
MODEL 8
REMARK VINA RESULT:    -4.390      2.635      6.558
REMARK INTER + INTRA:         -10.118
REMARK INTER:                  -8.293
REMARK INTRA:                  -1.825
REMARK UNBOUND:                -2.135
REMARK SMILES CCCCCCCCCCCCCC[C@H](C)C(=O)[O-]
REMARK SMILES IDX 9 1 10 2 11 3 12 4 13 5 14 6 15 7 16 8 17 9 18 10 19 11 8 12
REMARK SMILES IDX 7 13 6 14 5 15 4 16 3 17 2 18 1 19
REMARK H PARENT
REMARK Flexibility Score: inf
ROOT
ATOM      1  C   UNL     1      42.928  62.784   7.170  1.00  0.00     0.000 C 
ENDROOT
BRANCH   1   2
ATOM      2  C   UNL     1      42.935  61.381   7.796  1.00  0.00     0.000 C 
BRANCH   2   3
ATOM      3  C   UNL     1      44.265  61.042   8.488  1.00  0.00     0.000 C 
BRANCH   3   4
ATOM      4  C   UNL     1      44.071  60.553   9.934  1.00  0.00     0.000 C 
BRANCH   4   5
ATOM      5  C   UNL     1      45.295  60.836  10.820  1.00  0.00     0.001 C 
BRANCH   5   6
ATOM      6  C   UNL     1      44.978  61.791  11.986  1.00  0.00     0.009 C 
BRANCH   6   7
ATOM      7  C   UNL     1      43.591  62.449  11.835  1.00  0.00     0.032 C 
ATOM      8  C   UNL     1      43.725  63.973  11.746  1.00  0.00     0.014 C 
BRANCH   7   9
ATOM      9  C   UNL     1      42.686  62.086  12.981  1.00  0.00     0.044 C 
ATOM     10  O   UNL     1      42.874  61.016  13.620  1.00  0.00    -0.550 OA
ATOM     11  O   UNL     1      41.637  62.924  13.343  1.00  0.00    -0.550 OA
ENDBRANCH   7   9
ENDBRANCH   6   7
ENDBRANCH   5   6
ENDBRANCH   4   5
ENDBRANCH   3   4
ENDBRANCH   2   3
ENDBRANCH   1   2
BRANCH   1  12
ATOM     12  C   UNL     1      42.093  62.805   5.883  1.00  0.00     0.000 C 
BRANCH  12  13
ATOM     13  C   UNL     1      42.381  64.035   5.007  1.00  0.00    -0.000 C 
BRANCH  13  14
ATOM     14  C   UNL     1      43.550  64.878   5.539  1.00  0.00    -0.000 C 
BRANCH  14  15
ATOM     15  C   UNL     1      43.274  66.375   5.357  1.00  0.00    -0.000 C 
BRANCH  15  16
ATOM     16  C   UNL     1      42.566  66.959   6.589  1.00  0.00    -0.000 C 
BRANCH  16  17
ATOM     17  C   UNL     1      43.190  66.492   7.916  1.00  0.00    -0.000 C 
BRANCH  17  18
ATOM     18  C   UNL     1      42.221  65.768   8.868  1.00  0.00    -0.003 C 
ATOM     19  C   UNL     1      40.776  65.780   8.373  1.00  0.00     0.004 C 
ENDBRANCH  17  18
ENDBRANCH  16  17
ENDBRANCH  15  16
ENDBRANCH  14  15
ENDBRANCH  13  14
ENDBRANCH  12  13
ENDBRANCH   1  12
TORSDOF 14
ENDMDL
MODEL 9
REMARK VINA RESULT:    -4.340      2.024      6.292
REMARK INTER + INTRA:         -10.027
REMARK INTER:                  -8.079
REMARK INTRA:                  -1.949
REMARK UNBOUND:                -2.135
REMARK SMILES CCCCCCCCCCCCCC[C@H](C)C(=O)[O-]
REMARK SMILES IDX 9 1 10 2 11 3 12 4 13 5 14 6 15 7 16 8 17 9 18 10 19 11 8 12
REMARK SMILES IDX 7 13 6 14 5 15 4 16 3 17 2 18 1 19
REMARK H PARENT
REMARK Flexibility Score: inf
ROOT
ATOM      1  C   UNL     1      43.425  60.241   8.876  1.00  0.00     0.000 C 
ENDROOT
BRANCH   1   2
ATOM      2  C   UNL     1      44.861  60.737   9.108  1.00  0.00     0.000 C 
BRANCH   2   3
ATOM      3  C   UNL     1      45.360  60.472  10.538  1.00  0.00     0.000 C 
BRANCH   3   4
ATOM      4  C   UNL     1      44.412  61.041  11.608  1.00  0.00     0.000 C 
BRANCH   4   5
ATOM      5  C   UNL     1      45.008  62.257  12.336  1.00  0.00     0.001 C 
BRANCH   5   6
ATOM      6  C   UNL     1      44.049  63.461  12.368  1.00  0.00     0.009 C 
BRANCH   6   7
ATOM      7  C   UNL     1      42.908  63.320  11.340  1.00  0.00     0.032 C 
ATOM      8  C   UNL     1      42.869  64.536  10.407  1.00  0.00     0.014 C 
BRANCH   7   9
ATOM      9  C   UNL     1      41.575  63.160  12.020  1.00  0.00     0.044 C 
ATOM     10  O   UNL     1      40.511  63.243  11.352  1.00  0.00    -0.550 OA
ATOM     11  O   UNL     1      41.508  62.922  13.389  1.00  0.00    -0.550 OA
ENDBRANCH   7   9
ENDBRANCH   6   7
ENDBRANCH   5   6
ENDBRANCH   4   5
ENDBRANCH   3   4
ENDBRANCH   2   3
ENDBRANCH   1   2
BRANCH   1  12
ATOM     12  C   UNL     1      42.575  61.324   8.198  1.00  0.00     0.000 C 
BRANCH  12  13
ATOM     13  C   UNL     1      43.421  62.341   7.414  1.00  0.00    -0.000 C 
BRANCH  13  14
ATOM     14  C   UNL     1      42.576  63.470   6.807  1.00  0.00    -0.000 C 
BRANCH  14  15
ATOM     15  C   UNL     1      43.462  64.489   6.079  1.00  0.00    -0.000 C 
BRANCH  15  16
ATOM     16  C   UNL     1      43.492  65.828   6.830  1.00  0.00    -0.000 C 
BRANCH  16  17
ATOM     17  C   UNL     1      42.607  66.903   6.174  1.00  0.00    -0.000 C 
BRANCH  17  18
ATOM     18  C   UNL     1      41.633  67.612   7.131  1.00  0.00    -0.003 C 
ATOM     19  C   UNL     1      40.879  66.645   8.042  1.00  0.00     0.004 C 
ENDBRANCH  17  18
ENDBRANCH  16  17
ENDBRANCH  15  16
ENDBRANCH  14  15
ENDBRANCH  13  14
ENDBRANCH  12  13
ENDBRANCH   1  12
TORSDOF 14
ENDMDL
