MODEL 1
REMARK VINA RESULT:    48.476      0.000      0.000
REMARK INTER + INTRA:          72.317
REMARK INTER:                  71.147
REMARK INTRA:                   1.170
REMARK UNBOUND:                 1.170
REMARK SMILES Cc1cc2c(C(C)C)c(O)c(O)c(C=O)c2c(O)c1-c1c(C)cc2c(C(C)C)c(O)c(O)c(C=O)c2c1O
REMARK SMILES IDX 1 1 2 2 3 3 4 4 16 5 13 6 11 7 9 8 5 9 17 10 19 11 20 12
REMARK SMILES IDX 37 13 21 14 36 15 23 16 22 17 24 18 33 19 25 20 31 21 29 22
REMARK SMILES IDX 38 23 34 25 35 26 26 27 27 28 28 29 32 30 30 32 18 34 6 36
REMARK SMILES IDX 7 37 8 38 14 39 15 40 10 41 12 43
REMARK H PARENT 38 24 32 31 30 33 18 35 10 42 12 44
REMARK Flexibility Score: inf
ROOT
ATOM      1  C   UNL     1      35.830  40.077   7.070  1.00  0.00     0.045 C 
ATOM      2  C   UNL     1      35.783  40.018   5.563  1.00  0.00    -0.039 A 
ATOM      3  C   UNL     1      35.927  41.197   4.828  1.00  0.00     0.013 A 
ATOM      4  C   UNL     1      35.862  41.209   3.417  1.00  0.00    -0.006 A 
ATOM      5  C   UNL     1      35.700  39.970   2.729  1.00  0.00     0.039 A 
ATOM      6  C   UNL     1      35.628  39.979   1.307  1.00  0.00     0.072 A 
ATOM      7  C   UNL     1      35.951  41.144   0.596  1.00  0.00     0.169 A 
ATOM      8  C   UNL     1      36.213  42.343   1.282  1.00  0.00     0.162 A 
ATOM      9  C   UNL     1      36.001  42.425   2.676  1.00  0.00     0.008 A 
ATOM     10  C   UNL     1      35.674  38.758   3.479  1.00  0.00     0.132 A 
ATOM     11  C   UNL     1      35.676  38.791   4.889  1.00  0.00     0.031 A 
ENDROOT
BRANCH  11  12
ATOM     12  C   UNL     1      35.607  37.526   5.667  1.00  0.00     0.031 A 
ATOM     13  C   UNL     1      36.792  36.850   6.028  1.00  0.00     0.132 A 
ATOM     14  C   UNL     1      34.359  37.026   6.075  1.00  0.00    -0.039 A 
ATOM     15  C   UNL     1      36.734  35.623   6.758  1.00  0.00     0.039 A 
ATOM     16  C   UNL     1      34.301  35.852   6.824  1.00  0.00     0.013 A 
ATOM     17  C   UNL     1      33.082  37.778   5.783  1.00  0.00     0.045 C 
ATOM     18  C   UNL     1      35.457  35.099   7.128  1.00  0.00    -0.006 A 
ATOM     19  C   UNL     1      37.910  34.924   7.168  1.00  0.00     0.072 A 
ATOM     20  C   UNL     1      35.363  33.859   7.833  1.00  0.00     0.008 A 
ATOM     21  C   UNL     1      37.800  33.784   7.992  1.00  0.00     0.169 A 
ATOM     22  C   UNL     1      36.543  33.287   8.353  1.00  0.00     0.162 A 
BRANCH  13  23
ATOM     23  O   UNL     1      38.026  37.409   5.674  1.00  0.00    -0.507 OA
ATOM     24  H   UNL     1      38.195  37.907   4.809  1.00  0.00     0.293 HD
ENDBRANCH  13  23
BRANCH  19  25
ATOM     25  C   UNL     1      39.261  35.357   6.758  1.00  0.00     0.264 C 
ATOM     26  O   UNL     1      39.564  36.578   6.734  1.00  0.00    -0.298 OA
ENDBRANCH  19  25
BRANCH  20  27
ATOM     27  C   UNL     1      34.014  33.149   8.050  1.00  0.00     0.017 C 
ATOM     28  C   UNL     1      33.735  32.953   9.544  1.00  0.00     0.012 C 
ATOM     29  C   UNL     1      33.875  31.823   7.277  1.00  0.00     0.012 C 
ENDBRANCH  20  27
BRANCH  21  30
ATOM     30  O   UNL     1      38.929  33.094   8.447  1.00  0.00    -0.504 OA
ATOM     31  H   UNL     1      38.945  32.106   8.661  1.00  0.00     0.293 HD
ENDBRANCH  21  30
BRANCH  22  32
ATOM     32  O   UNL     1      36.464  32.208   9.236  1.00  0.00    -0.504 OA
ATOM     33  H   UNL     1      36.909  31.316   9.060  1.00  0.00     0.293 HD
ENDBRANCH  22  32
ENDBRANCH  11  12
BRANCH  10  34
ATOM     34  O   UNL     1      35.700  37.523   2.820  1.00  0.00    -0.507 OA
ATOM     35  H   UNL     1      34.929  36.868   2.817  1.00  0.00     0.293 HD
ENDBRANCH  10  34
BRANCH   9  36
ATOM     36  C   UNL     1      35.986  43.801   3.365  1.00  0.00     0.017 C 
ATOM     37  C   UNL     1      34.752  43.952   4.260  1.00  0.00     0.012 C 
ATOM     38  C   UNL     1      37.279  44.125   4.137  1.00  0.00     0.012 C 
ENDBRANCH   9  36
BRANCH   6  39
ATOM     39  C   UNL     1      35.144  38.826   0.514  1.00  0.00     0.264 C 
ATOM     40  O   UNL     1      35.124  38.872  -0.744  1.00  0.00    -0.298 OA
ENDBRANCH   6  39
BRANCH   8  41
ATOM     41  O   UNL     1      36.694  43.463   0.597  1.00  0.00    -0.504 OA
ATOM     42  H   UNL     1      37.137  43.428  -0.309  1.00  0.00     0.293 HD
ENDBRANCH   8  41
BRANCH   7  43
ATOM     43  O   UNL     1      35.954  41.093  -0.804  1.00  0.00    -0.504 OA
ATOM     44  H   UNL     1      35.144  40.870  -1.364  1.00  0.00     0.293 HD
ENDBRANCH   7  43
TORSDOF 11
ENDMDL
MODEL 2
REMARK VINA RESULT:    48.921      1.408      8.955
REMARK INTER + INTRA:          72.970
REMARK INTER:                  70.959
REMARK INTRA:                   2.011
REMARK UNBOUND:                 1.170
REMARK SMILES Cc1cc2c(C(C)C)c(O)c(O)c(C=O)c2c(O)c1-c1c(C)cc2c(C(C)C)c(O)c(O)c(C=O)c2c1O
REMARK SMILES IDX 1 1 2 2 3 3 4 4 16 5 13 6 11 7 9 8 5 9 17 10 19 11 20 12
REMARK SMILES IDX 37 13 21 14 36 15 23 16 22 17 24 18 33 19 25 20 31 21 29 22
REMARK SMILES IDX 38 23 34 25 35 26 26 27 27 28 28 29 32 30 30 32 18 34 6 36
REMARK SMILES IDX 7 37 8 38 14 39 15 40 10 41 12 43
REMARK H PARENT 38 24 32 31 30 33 18 35 10 42 12 44
REMARK Flexibility Score: inf
ROOT
ATOM      1  C   UNL     1      32.903  36.985   4.620  1.00  0.00     0.045 C 
ATOM      2  C   UNL     1      34.201  36.541   5.249  1.00  0.00    -0.039 A 
ATOM      3  C   UNL     1      34.187  35.500   6.180  1.00  0.00     0.013 A 
ATOM      4  C   UNL     1      35.365  35.060   6.824  1.00  0.00    -0.006 A 
ATOM      5  C   UNL     1      36.607  35.665   6.467  1.00  0.00     0.039 A 
ATOM      6  C   UNL     1      37.795  35.228   7.119  1.00  0.00     0.072 A 
ATOM      7  C   UNL     1      37.776  34.071   7.911  1.00  0.00     0.169 A 
ATOM      8  C   UNL     1      36.561  33.414   8.177  1.00  0.00     0.162 A 
ATOM      9  C   UNL     1      35.337  33.999   7.783  1.00  0.00     0.008 A 
ATOM     10  C   UNL     1      36.630  36.643   5.431  1.00  0.00     0.132 A 
ATOM     11  C   UNL     1      35.426  37.103   4.857  1.00  0.00     0.031 A 
ENDROOT
BRANCH  11  12
ATOM     12  C   UNL     1      35.452  38.154   3.805  1.00  0.00     0.031 A 
ATOM     13  C   UNL     1      35.777  39.485   4.143  1.00  0.00     0.132 A 
ATOM     14  C   UNL     1      35.188  37.810   2.470  1.00  0.00    -0.039 A 
ATOM     15  C   UNL     1      35.784  40.506   3.143  1.00  0.00     0.039 A 
ATOM     16  C   UNL     1      35.235  38.795   1.484  1.00  0.00     0.013 A 
ATOM     17  C   UNL     1      34.928  36.378   2.067  1.00  0.00     0.045 C 
ATOM     18  C   UNL     1      35.469  40.153   1.794  1.00  0.00    -0.006 A 
ATOM     19  C   UNL     1      36.137  41.859   3.436  1.00  0.00     0.072 A 
ATOM     20  C   UNL     1      35.438  41.156   0.775  1.00  0.00     0.008 A 
ATOM     21  C   UNL     1      36.248  42.800   2.391  1.00  0.00     0.169 A 
ATOM     22  C   UNL     1      35.944  42.438   1.075  1.00  0.00     0.162 A 
BRANCH  13  23
ATOM     23  O   UNL     1      36.110  39.787   5.468  1.00  0.00    -0.507 OA
ATOM     24  H   UNL     1      35.716  39.315   6.273  1.00  0.00     0.293 HD
ENDBRANCH  13  23
BRANCH  19  25
ATOM     25  C   UNL     1      36.398  42.318   4.816  1.00  0.00     0.264 C 
ATOM     26  O   UNL     1      36.071  43.478   5.179  1.00  0.00    -0.298 OA
ENDBRANCH  19  25
BRANCH  20  27
ATOM     27  C   UNL     1      34.887  40.866  -0.633  1.00  0.00     0.017 C 
ATOM     28  C   UNL     1      33.439  41.348  -0.763  1.00  0.00     0.012 C 
ATOM     29  C   UNL     1      35.027  39.393  -1.067  1.00  0.00     0.012 C 
ENDBRANCH  20  27
BRANCH  21  30
ATOM     30  O   UNL     1      36.629  44.125   2.633  1.00  0.00    -0.504 OA
ATOM     31  H   UNL     1      37.587  44.441   2.687  1.00  0.00     0.293 HD
ENDBRANCH  21  30
BRANCH  22  32
ATOM     32  O   UNL     1      36.142  43.366   0.050  1.00  0.00    -0.504 OA
ATOM     33  H   UNL     1      36.103  43.123  -0.932  1.00  0.00     0.293 HD
ENDBRANCH  22  32
ENDBRANCH  11  12
BRANCH  10  34
ATOM     34  O   UNL     1      37.851  37.116   4.937  1.00  0.00    -0.507 OA
ATOM     35  H   UNL     1      37.986  37.456   3.994  1.00  0.00     0.293 HD
ENDBRANCH  10  34
BRANCH   9  36
ATOM     36  C   UNL     1      34.013  33.446   8.342  1.00  0.00     0.017 C 
ATOM     37  C   UNL     1      33.656  32.109   7.683  1.00  0.00     0.012 C 
ATOM     38  C   UNL     1      33.983  33.337   9.878  1.00  0.00     0.012 C 
ENDBRANCH   9  36
BRANCH   6  39
ATOM     39  C   UNL     1      39.067  35.986   7.075  1.00  0.00     0.264 C 
ATOM     40  O   UNL     1      39.161  37.046   6.400  1.00  0.00    -0.298 OA
ENDBRANCH   6  39
BRANCH   8  41
ATOM     41  O   UNL     1      36.549  32.175   8.825  1.00  0.00    -0.504 OA
ATOM     42  H   UNL     1      37.213  31.899   9.533  1.00  0.00     0.293 HD
ENDBRANCH   8  41
BRANCH   7  43
ATOM     43  O   UNL     1      38.980  33.621   8.466  1.00  0.00    -0.504 OA
ATOM     44  H   UNL     1      39.808  33.409   7.927  1.00  0.00     0.293 HD
ENDBRANCH   7  43
TORSDOF 11
ENDMDL
MODEL 3
REMARK VINA RESULT:    49.873      0.657      9.095
REMARK INTER + INTRA:          74.367
REMARK INTER:                  72.744
REMARK INTRA:                   1.623
REMARK UNBOUND:                 1.170
REMARK SMILES Cc1cc2c(C(C)C)c(O)c(O)c(C=O)c2c(O)c1-c1c(C)cc2c(C(C)C)c(O)c(O)c(C=O)c2c1O
REMARK SMILES IDX 1 1 2 2 3 3 4 4 16 5 13 6 11 7 9 8 5 9 17 10 19 11 20 12
REMARK SMILES IDX 37 13 21 14 36 15 23 16 22 17 24 18 33 19 25 20 31 21 29 22
REMARK SMILES IDX 38 23 34 25 35 26 26 27 27 28 28 29 32 30 30 32 18 34 6 36
REMARK SMILES IDX 7 37 8 38 14 39 15 40 10 41 12 43
REMARK H PARENT 38 24 32 31 30 33 18 35 10 42 12 44
REMARK Flexibility Score: inf
ROOT
ATOM      1  C   UNL     1      32.920  37.402   5.316  1.00  0.00     0.045 C 
ATOM      2  C   UNL     1      34.225  36.835   5.819  1.00  0.00    -0.039 A 
ATOM      3  C   UNL     1      34.218  35.643   6.545  1.00  0.00     0.013 A 
ATOM      4  C   UNL     1      35.404  35.079   7.065  1.00  0.00    -0.006 A 
ATOM      5  C   UNL     1      36.647  35.724   6.791  1.00  0.00     0.039 A 
ATOM      6  C   UNL     1      37.844  35.163   7.319  1.00  0.00     0.072 A 
ATOM      7  C   UNL     1      37.825  33.881   7.888  1.00  0.00     0.169 A 
ATOM      8  C   UNL     1      36.607  33.201   8.064  1.00  0.00     0.162 A 
ATOM      9  C   UNL     1      35.383  33.861   7.816  1.00  0.00     0.008 A 
ATOM     10  C   UNL     1      36.660  36.875   5.949  1.00  0.00     0.132 A 
ATOM     11  C   UNL     1      35.450  37.445   5.501  1.00  0.00     0.031 A 
ENDROOT
BRANCH  11  12
ATOM     12  C   UNL     1      35.466  38.669   4.658  1.00  0.00     0.031 A 
ATOM     13  C   UNL     1      35.343  38.566   3.256  1.00  0.00     0.132 A 
ATOM     14  C   UNL     1      35.569  39.932   5.265  1.00  0.00    -0.039 A 
ATOM     15  C   UNL     1      35.379  39.736   2.436  1.00  0.00     0.039 A 
ATOM     16  C   UNL     1      35.561  41.078   4.471  1.00  0.00     0.013 A 
ATOM     17  C   UNL     1      35.609  40.076   6.767  1.00  0.00     0.045 C 
ATOM     18  C   UNL     1      35.528  41.013   3.061  1.00  0.00    -0.006 A 
ATOM     19  C   UNL     1      35.226  39.677   1.017  1.00  0.00     0.072 A 
ATOM     20  C   UNL     1      35.598  42.200   2.267  1.00  0.00     0.008 A 
ATOM     21  C   UNL     1      35.146  40.870   0.268  1.00  0.00     0.169 A 
ATOM     22  C   UNL     1      35.286  42.113   0.894  1.00  0.00     0.162 A 
BRANCH  13  23
ATOM     23  O   UNL     1      35.167  37.302   2.682  1.00  0.00    -0.507 OA
ATOM     24  H   UNL     1      35.299  36.430   3.180  1.00  0.00     0.293 HD
ENDBRANCH  13  23
BRANCH  19  25
ATOM     25  C   UNL     1      35.146  38.394   0.291  1.00  0.00     0.264 C 
ATOM     26  O   UNL     1      35.456  38.325  -0.927  1.00  0.00    -0.298 OA
ENDBRANCH  19  25
BRANCH  20  27
ATOM     27  C   UNL     1      35.984  43.561   2.874  1.00  0.00     0.017 C 
ATOM     28  C   UNL     1      37.237  44.125   2.197  1.00  0.00     0.012 C 
ATOM     29  C   UNL     1      36.139  43.539   4.408  1.00  0.00     0.012 C 
ENDBRANCH  20  27
BRANCH  21  30
ATOM     30  O   UNL     1      34.958  40.855  -1.119  1.00  0.00    -0.504 OA
ATOM     31  H   UNL     1      35.300  40.129  -1.732  1.00  0.00     0.293 HD
ENDBRANCH  21  30
BRANCH  22  32
ATOM     32  O   UNL     1      35.119  43.277   0.142  1.00  0.00    -0.504 OA
ATOM     33  H   UNL     1      35.611  43.450  -0.726  1.00  0.00     0.293 HD
ENDBRANCH  22  32
ENDBRANCH  11  12
BRANCH  10  34
ATOM     34  O   UNL     1      37.876  37.416   5.517  1.00  0.00    -0.507 OA
ATOM     35  H   UNL     1      38.511  37.927   6.116  1.00  0.00     0.293 HD
ENDBRANCH  10  34
BRANCH   9  36
ATOM     36  C   UNL     1      34.065  33.231   8.301  1.00  0.00     0.017 C 
ATOM     37  C   UNL     1      33.684  32.023   7.438  1.00  0.00     0.012 C 
ATOM     38  C   UNL     1      34.061  32.870   9.799  1.00  0.00     0.012 C 
ENDBRANCH   9  36
BRANCH   6  39
ATOM     39  C   UNL     1      39.126  35.901   7.379  1.00  0.00     0.264 C 
ATOM     40  O   UNL     1      39.546  36.541   6.378  1.00  0.00    -0.298 OA
ENDBRANCH   6  39
BRANCH   8  41
ATOM     41  O   UNL     1      36.591  31.865   8.475  1.00  0.00    -0.504 OA
ATOM     42  H   UNL     1      36.820  31.084   7.877  1.00  0.00     0.293 HD
ENDBRANCH   8  41
BRANCH   7  43
ATOM     43  O   UNL     1      39.036  33.323   8.319  1.00  0.00    -0.504 OA
ATOM     44  H   UNL     1      39.494  33.567   9.185  1.00  0.00     0.293 HD
ENDBRANCH   7  43
TORSDOF 11
ENDMDL
MODEL 4
REMARK VINA RESULT:    50.703      1.435      3.051
REMARK INTER + INTRA:          75.586
REMARK INTER:                  74.205
REMARK INTRA:                   1.381
REMARK UNBOUND:                 1.170
REMARK SMILES Cc1cc2c(C(C)C)c(O)c(O)c(C=O)c2c(O)c1-c1c(C)cc2c(C(C)C)c(O)c(O)c(C=O)c2c1O
REMARK SMILES IDX 1 1 2 2 3 3 4 4 16 5 13 6 11 7 9 8 5 9 17 10 19 11 20 12
REMARK SMILES IDX 37 13 21 14 36 15 23 16 22 17 24 18 33 19 25 20 31 21 29 22
REMARK SMILES IDX 38 23 34 25 35 26 26 27 27 28 28 29 32 30 30 32 18 34 6 36
REMARK SMILES IDX 7 37 8 38 14 39 15 40 10 41 12 43
REMARK H PARENT 38 24 32 31 30 33 18 35 10 42 12 44
REMARK Flexibility Score: inf
ROOT
ATOM      1  C   UNL     1      34.707  36.385   2.231  1.00  0.00     0.045 C 
ATOM      2  C   UNL     1      35.099  37.791   2.616  1.00  0.00    -0.039 A 
ATOM      3  C   UNL     1      35.043  38.803   1.656  1.00  0.00     0.013 A 
ATOM      4  C   UNL     1      35.425  40.131   1.949  1.00  0.00    -0.006 A 
ATOM      5  C   UNL     1      35.827  40.450   3.281  1.00  0.00     0.039 A 
ATOM      6  C   UNL     1      36.219  41.786   3.579  1.00  0.00     0.072 A 
ATOM      7  C   UNL     1      35.984  42.809   2.648  1.00  0.00     0.169 A 
ATOM      8  C   UNL     1      35.489  42.504   1.368  1.00  0.00     0.162 A 
ATOM      9  C   UNL     1      35.372  41.158   0.955  1.00  0.00     0.008 A 
ATOM     10  C   UNL     1      35.768  39.439   4.284  1.00  0.00     0.132 A 
ATOM     11  C   UNL     1      35.443  38.110   3.940  1.00  0.00     0.031 A 
ENDROOT
BRANCH  11  12
ATOM     12  C   UNL     1      35.424  37.050   4.982  1.00  0.00     0.031 A 
ATOM     13  C   UNL     1      36.634  36.566   5.524  1.00  0.00     0.132 A 
ATOM     14  C   UNL     1      34.196  36.558   5.453  1.00  0.00    -0.039 A 
ATOM     15  C   UNL     1      36.626  35.533   6.511  1.00  0.00     0.039 A 
ATOM     16  C   UNL     1      34.182  35.580   6.447  1.00  0.00     0.013 A 
ATOM     17  C   UNL     1      32.886  37.123   4.958  1.00  0.00     0.045 C 
ATOM     18  C   UNL     1      35.372  35.008   6.950  1.00  0.00    -0.006 A 
ATOM     19  C   UNL     1      37.827  35.038   7.106  1.00  0.00     0.072 A 
ATOM     20  C   UNL     1      35.330  33.953   7.914  1.00  0.00     0.008 A 
ATOM     21  C   UNL     1      37.756  34.107   8.163  1.00  0.00     0.169 A 
ATOM     22  C   UNL     1      36.520  33.607   8.587  1.00  0.00     0.162 A 
BRANCH  13  23
ATOM     23  O   UNL     1      37.842  37.127   5.091  1.00  0.00    -0.507 OA
ATOM     24  H   UNL     1      38.443  36.708   4.393  1.00  0.00     0.293 HD
ENDBRANCH  13  23
BRANCH  19  25
ATOM     25  C   UNL     1      39.163  35.473   6.651  1.00  0.00     0.264 C 
ATOM     26  O   UNL     1      39.506  36.681   6.731  1.00  0.00    -0.298 OA
ENDBRANCH  19  25
BRANCH  20  27
ATOM     27  C   UNL     1      34.024  33.207   8.245  1.00  0.00     0.017 C 
ATOM     28  C   UNL     1      33.747  33.233   9.752  1.00  0.00     0.012 C 
ATOM     29  C   UNL     1      33.971  31.769   7.692  1.00  0.00     0.012 C 
ENDBRANCH  20  27
BRANCH  21  30
ATOM     30  O   UNL     1      38.907  33.627   8.798  1.00  0.00    -0.504 OA
ATOM     31  H   UNL     1      39.219  32.666   8.760  1.00  0.00     0.293 HD
ENDBRANCH  21  30
BRANCH  22  32
ATOM     32  O   UNL     1      36.474  32.750   9.689  1.00  0.00    -0.504 OA
ATOM     33  H   UNL     1      35.895  32.925  10.501  1.00  0.00     0.293 HD
ENDBRANCH  22  32
ENDBRANCH  11  12
BRANCH  10  34
ATOM     34  O   UNL     1      35.979  39.769   5.628  1.00  0.00    -0.507 OA
ATOM     35  H   UNL     1      36.645  39.297   6.227  1.00  0.00     0.293 HD
ENDBRANCH  10  34
BRANCH   9  36
ATOM     36  C   UNL     1      35.133  40.836  -0.532  1.00  0.00     0.017 C 
ATOM     37  C   UNL     1      35.531  39.391  -0.850  1.00  0.00     0.012 C 
ATOM     38  C   UNL     1      33.702  41.140  -1.012  1.00  0.00     0.012 C 
ENDBRANCH   9  36
BRANCH   6  39
ATOM     39  C   UNL     1      36.951  42.158   4.811  1.00  0.00     0.264 C 
ATOM     40  O   UNL     1      37.016  43.360   5.183  1.00  0.00    -0.298 OA
ENDBRANCH   6  39
BRANCH   8  41
ATOM     41  O   UNL     1      35.098  43.523   0.495  1.00  0.00    -0.504 OA
ATOM     42  H   UNL     1      34.709  44.406   0.792  1.00  0.00     0.293 HD
ENDBRANCH   8  41
BRANCH   7  43
ATOM     43  O   UNL     1      36.302  44.125   3.008  1.00  0.00    -0.504 OA
ATOM     44  H   UNL     1      35.649  44.895   2.973  1.00  0.00     0.293 HD
ENDBRANCH   7  43
TORSDOF 11
ENDMDL
