MODEL 1
REMARK VINA RESULT:    -4.448      0.000      0.000
REMARK INTER + INTRA:          -5.309
REMARK INTER:                  -6.009
REMARK INTRA:                   0.699
REMARK UNBOUND:                 0.699
REMARK SMILES C=C1CCC=C(C)CC[C@H]2[C@@H]1CC2(C)C
REMARK SMILES IDX 11 1 12 2 13 3 10 4 14 5 15 6 9 7 8 8 6 9 7 10 5 11 2 13
REMARK SMILES IDX 1 14 3 15 4 16
REMARK H PARENT
REMARK Flexibility Score: 70.00
ROOT
ATOM      1  C   UNL     1      -2.451   4.449  12.989  1.00  0.00     0.018 C 
ATOM      2  C   UNL     1      -3.131   5.700  12.411  1.00  0.00     0.015 C 
ATOM      3  C   UNL     1      -2.879   5.211  10.979  1.00  0.00    -0.031 C 
ATOM      4  C   UNL     1      -2.221   3.925  11.542  1.00  0.00     0.002 C 
ATOM      5  C   UNL     1      -1.965   6.177  10.196  1.00  0.00     0.011 C 
ATOM      6  C   UNL     1      -4.183   4.929  10.209  1.00  0.00     0.011 C 
ENDROOT
BRANCH   4   7
ATOM      7  C   UNL     1      -0.826   3.563  10.973  1.00  0.00     0.009 C 
BRANCH   7   8
ATOM      8  C   UNL     1       0.074   2.674  11.873  1.00  0.00     0.030 C 
BRANCH   8   9
ATOM      9  C   UNL     1      -0.667   1.633  12.691  1.00  0.00    -0.077 C 
ATOM     10  C   UNL     1      -1.322   0.478  11.979  1.00  0.00     0.039 C 
ATOM     11  C   UNL     1      -0.795   1.713  14.032  1.00  0.00    -0.028 CG0
ATOM     12  G   UNL     1      -0.149   2.762  14.907  1.00  0.00     0.000 G0
ENDBRANCH   8   9
ENDBRANCH   7   8
ENDBRANCH   4   7
BRANCH   1  13
ATOM     13  C   UNL     1      -1.360   4.815  14.006  1.00  0.00    -0.074 C 
ATOM     14  C   UNL     1      -0.824   6.047  13.906  1.00  0.00     0.008 C 
BRANCH  13  15
ATOM     15  C   UNL     1      -0.989   3.993  15.227  1.00  0.00     0.035 C 
BRANCH  15  16
ATOM     16  C   UNL     1      -0.133   2.760  14.902  1.00  0.00     0.032 CG0
ATOM     17  G   UNL     1      -0.806   1.722  14.034  1.00  0.00     0.000 G0
ENDBRANCH  15  16
ENDBRANCH  13  15
ENDBRANCH   1  13
TORSDOF 0
ENDMDL
MODEL 2
REMARK VINA RESULT:    -4.397      1.612      3.290
REMARK INTER + INTRA:          -5.241
REMARK INTER:                  -5.088
REMARK INTRA:                  -0.153
REMARK UNBOUND:                 0.699
REMARK SMILES C=C1CCC=C(C)CC[C@H]2[C@@H]1CC2(C)C
REMARK SMILES IDX 11 1 12 2 13 3 10 4 14 5 15 6 9 7 8 8 6 9 7 10 5 11 2 13
REMARK SMILES IDX 1 14 3 15 4 16
REMARK H PARENT
REMARK Flexibility Score: 70.00
ROOT
ATOM      1  C   UNL     1      -0.614   4.748  10.786  1.00  0.00     0.018 C 
ATOM      2  C   UNL     1      -1.078   6.116  10.260  1.00  0.00     0.015 C 
ATOM      3  C   UNL     1      -0.553   6.812  11.523  1.00  0.00    -0.031 C 
ATOM      4  C   UNL     1      -0.047   5.446  12.055  1.00  0.00     0.002 C 
ATOM      5  C   UNL     1      -1.688   7.492  12.316  1.00  0.00     0.011 C 
ATOM      6  C   UNL     1       0.591   7.800  11.226  1.00  0.00     0.011 C 
ENDROOT
BRANCH   4   7
ATOM      7  C   UNL     1      -0.469   5.074  13.499  1.00  0.00     0.009 C 
BRANCH   7   8
ATOM      8  C   UNL     1       0.088   3.735  14.054  1.00  0.00     0.030 C 
BRANCH   8   9
ATOM      9  C   UNL     1      -0.943   2.636  14.226  1.00  0.00    -0.077 C 
ATOM     10  C   UNL     1      -1.685   2.530  15.534  1.00  0.00     0.039 C 
ATOM     11  C   UNL     1      -1.204   1.721  13.267  1.00  0.00    -0.028 CG0
ATOM     12  G   UNL     1      -0.602   1.720  11.881  1.00  0.00     0.000 G0
ENDBRANCH   8   9
ENDBRANCH   7   8
ENDBRANCH   4   7
BRANCH   1  13
ATOM     13  C   UNL     1      -1.748   3.713  10.749  1.00  0.00    -0.074 C 
ATOM     14  C   UNL     1      -2.988   4.178  10.502  1.00  0.00     0.008 C 
BRANCH  13  15
ATOM     15  C   UNL     1      -1.560   2.207  10.761  1.00  0.00     0.035 C 
BRANCH  15  16
ATOM     16  C   UNL     1      -0.620   1.712  11.870  1.00  0.00     0.032 CG0
ATOM     17  G   UNL     1      -1.207   1.728  13.263  1.00  0.00     0.000 G0
ENDBRANCH  15  16
ENDBRANCH  13  15
ENDBRANCH   1  13
TORSDOF 0
ENDMDL
MODEL 3
REMARK VINA RESULT:    -4.330      1.646      3.649
REMARK INTER + INTRA:          -5.149
REMARK INTER:                  -5.058
REMARK INTRA:                  -0.091
REMARK UNBOUND:                 0.699
REMARK SMILES C=C1CCC=C(C)CC[C@H]2[C@@H]1CC2(C)C
REMARK SMILES IDX 11 1 12 2 13 3 10 4 14 5 15 6 9 7 8 8 6 9 7 10 5 11 2 13
REMARK SMILES IDX 1 14 3 15 4 16
REMARK H PARENT
REMARK Flexibility Score: 70.00
ROOT
ATOM      1  C   UNL     1      -0.317   4.541  11.930  1.00  0.00     0.018 C 
ATOM      2  C   UNL     1      -0.354   5.974  12.485  1.00  0.00     0.015 C 
ATOM      3  C   UNL     1       0.061   5.478  13.876  1.00  0.00    -0.031 C 
ATOM      4  C   UNL     1       0.139   4.030  13.327  1.00  0.00     0.002 C 
ATOM      5  C   UNL     1      -1.024   5.766  14.934  1.00  0.00     0.011 C 
ATOM      6  C   UNL     1       1.432   6.025  14.318  1.00  0.00     0.011 C 
ENDROOT
BRANCH   4   7
ATOM      7  C   UNL     1      -0.623   2.949  14.135  1.00  0.00     0.009 C 
BRANCH   7   8
ATOM      8  C   UNL     1      -0.171   1.480  13.914  1.00  0.00     0.030 C 
BRANCH   8   9
ATOM      9  C   UNL     1      -1.198   0.588  13.244  1.00  0.00    -0.077 C 
ATOM     10  C   UNL     1      -1.885  -0.475  14.062  1.00  0.00     0.039 C 
ATOM     11  C   UNL     1      -1.502   0.680  11.931  1.00  0.00    -0.028 CG0
ATOM     12  G   UNL     1      -0.959   1.726  10.985  1.00  0.00     0.000 G0
ENDBRANCH   8   9
ENDBRANCH   7   8
ENDBRANCH   4   7
BRANCH   1  13
ATOM     13  C   UNL     1      -1.625   4.177  11.212  1.00  0.00    -0.074 C 
ATOM     14  C   UNL     1      -2.491   5.182  10.978  1.00  0.00     0.008 C 
BRANCH  13  15
ATOM     15  C   UNL     1      -1.926   2.837  10.567  1.00  0.00     0.035 C 
BRANCH  15  16
ATOM     16  C   UNL     1      -0.947   1.724  10.973  1.00  0.00     0.032 CG0
ATOM     17  G   UNL     1      -1.507   0.692  11.923  1.00  0.00     0.000 G0
ENDBRANCH  15  16
ENDBRANCH  13  15
ENDBRANCH   1  13
TORSDOF 0
ENDMDL
MODEL 4
REMARK VINA RESULT:    -4.296      2.342      4.644
REMARK INTER + INTRA:          -5.104
REMARK INTER:                  -4.925
REMARK INTRA:                  -0.179
REMARK UNBOUND:                 0.699
REMARK SMILES C=C1CCC=C(C)CC[C@H]2[C@@H]1CC2(C)C
REMARK SMILES IDX 11 1 12 2 13 3 10 4 14 5 15 6 9 7 8 8 6 9 7 10 5 11 2 13
REMARK SMILES IDX 1 14 3 15 4 16
REMARK H PARENT
REMARK Flexibility Score: 70.00
ROOT
ATOM      1  C   UNL     1       0.120   3.872  13.068  1.00  0.00     0.018 C 
ATOM      2  C   UNL     1       0.106   2.874  14.236  1.00  0.00     0.015 C 
ATOM      3  C   UNL     1      -1.224   2.281  13.752  1.00  0.00    -0.031 C 
ATOM      4  C   UNL     1      -1.210   3.257  12.547  1.00  0.00     0.002 C 
ATOM      5  C   UNL     1      -2.348   2.471  14.791  1.00  0.00     0.011 C 
ATOM      6  C   UNL     1      -1.098   0.805  13.329  1.00  0.00     0.011 C 
ENDROOT
BRANCH   4   7
ATOM      7  C   UNL     1      -2.503   4.079  12.317  1.00  0.00     0.009 C 
BRANCH   7   8
ATOM      8  C   UNL     1      -2.623   4.804  10.949  1.00  0.00     0.030 C 
BRANCH   8   9
ATOM      9  C   UNL     1      -2.569   6.318  11.018  1.00  0.00    -0.077 C 
ATOM     10  C   UNL     1      -3.856   7.098  10.942  1.00  0.00     0.039 C 
ATOM     11  C   UNL     1      -1.410   7.004  11.112  1.00  0.00    -0.028 CG0
ATOM     12  G   UNL     1      -0.041   6.383  11.264  1.00  0.00     0.000 G0
ENDBRANCH   8   9
ENDBRANCH   7   8
ENDBRANCH   4   7
BRANCH   1  13
ATOM     13  C   UNL     1       0.323   5.314  13.557  1.00  0.00    -0.074 C 
ATOM     14  C   UNL     1       0.459   5.493  14.885  1.00  0.00     0.008 C 
BRANCH  13  15
ATOM     15  C   UNL     1       0.590   6.513  12.664  1.00  0.00     0.035 C 
BRANCH  15  16
ATOM     16  C   UNL     1      -0.029   6.387  11.264  1.00  0.00     0.032 CG0
ATOM     17  G   UNL     1      -1.407   6.989  11.115  1.00  0.00     0.000 G0
ENDBRANCH  15  16
ENDBRANCH  13  15
ENDBRANCH   1  13
TORSDOF 0
ENDMDL
MODEL 5
REMARK VINA RESULT:    -4.224      1.489      2.917
REMARK INTER + INTRA:          -5.007
REMARK INTER:                  -5.272
REMARK INTRA:                   0.265
REMARK UNBOUND:                 0.699
REMARK SMILES C=C1CCC=C(C)CC[C@H]2[C@@H]1CC2(C)C
REMARK SMILES IDX 11 1 12 2 13 3 10 4 14 5 15 6 9 7 8 8 6 9 7 10 5 11 2 13
REMARK SMILES IDX 1 14 3 15 4 16
REMARK H PARENT
REMARK Flexibility Score: 70.00
ROOT
ATOM      1  C   UNL     1      -1.325   5.976  12.032  1.00  0.00     0.018 C 
ATOM      2  C   UNL     1      -2.353   7.029  11.588  1.00  0.00     0.015 C 
ATOM      3  C   UNL     1      -3.306   6.617  12.718  1.00  0.00    -0.031 C 
ATOM      4  C   UNL     1      -2.267   5.573  13.203  1.00  0.00     0.002 C 
ATOM      5  C   UNL     1      -4.641   6.071  12.172  1.00  0.00     0.011 C 
ATOM      6  C   UNL     1      -3.541   7.746  13.739  1.00  0.00     0.011 C 
ENDROOT
BRANCH   4   7
ATOM      7  C   UNL     1      -2.794   4.133  13.422  1.00  0.00     0.009 C 
BRANCH   7   8
ATOM      8  C   UNL     1      -1.988   3.249  14.412  1.00  0.00     0.030 C 
BRANCH   8   9
ATOM      9  C   UNL     1      -1.485   1.939  13.837  1.00  0.00    -0.077 C 
ATOM     10  C   UNL     1      -2.018   0.645  14.397  1.00  0.00     0.039 C 
ATOM     11  C   UNL     1      -0.550   1.878  12.865  1.00  0.00    -0.028 CG0
ATOM     12  G   UNL     1       0.039   3.071  12.150  1.00  0.00     0.000 G0
ENDBRANCH   8   9
ENDBRANCH   7   8
ENDBRANCH   4   7
BRANCH   1  13
ATOM     13  C   UNL     1      -0.894   5.077  10.863  1.00  0.00    -0.074 C 
ATOM     14  C   UNL     1      -0.424   5.695   9.762  1.00  0.00     0.008 C 
BRANCH  13  15
ATOM     15  C   UNL     1      -0.759   3.567  10.922  1.00  0.00     0.035 C 
BRANCH  15  16
ATOM     16  C   UNL     1       0.042   3.068  12.135  1.00  0.00     0.032 CG0
ATOM     17  G   UNL     1      -0.556   1.882  12.855  1.00  0.00     0.000 G0
ENDBRANCH  15  16
ENDBRANCH  13  15
ENDBRANCH   1  13
TORSDOF 0
ENDMDL
MODEL 6
REMARK VINA RESULT:    -4.103      2.624      4.839
REMARK INTER + INTRA:          -4.843
REMARK INTER:                  -4.630
REMARK INTRA:                  -0.212
REMARK UNBOUND:                 0.699
REMARK SMILES C=C1CCC=C(C)CC[C@H]2[C@@H]1CC2(C)C
REMARK SMILES IDX 11 1 12 2 13 3 10 4 14 5 15 6 9 7 8 8 6 9 7 10 5 11 2 13
REMARK SMILES IDX 1 14 3 15 4 16
REMARK H PARENT
REMARK Flexibility Score: 70.00
ROOT
ATOM      1  C   UNL     1      -1.845   4.983  12.997  1.00  0.00     0.018 C 
ATOM      2  C   UNL     1      -2.401   3.580  12.706  1.00  0.00     0.015 C 
ATOM      3  C   UNL     1      -1.674   3.005  13.928  1.00  0.00    -0.031 C 
ATOM      4  C   UNL     1      -1.131   4.420  14.260  1.00  0.00     0.002 C 
ATOM      5  C   UNL     1      -0.636   1.936  13.529  1.00  0.00     0.011 C 
ATOM      6  C   UNL     1      -2.643   2.470  14.999  1.00  0.00     0.011 C 
ENDROOT
BRANCH   4   7
ATOM      7  C   UNL     1       0.395   4.528  14.502  1.00  0.00     0.009 C 
BRANCH   7   8
ATOM      8  C   UNL     1       0.913   5.897  15.021  1.00  0.00     0.030 C 
BRANCH   8   9
ATOM      9  C   UNL     1       1.754   6.681  14.032  1.00  0.00    -0.077 C 
ATOM     10  C   UNL     1       3.255   6.553  14.089  1.00  0.00     0.039 C 
ATOM     11  C   UNL     1       1.218   7.520  13.120  1.00  0.00    -0.028 CG0
ATOM     12  G   UNL     1      -0.261   7.717  12.884  1.00  0.00     0.000 G0
ENDBRANCH   8   9
ENDBRANCH   7   8
ENDBRANCH   4   7
BRANCH   1  13
ATOM     13  C   UNL     1      -1.161   5.590  11.763  1.00  0.00    -0.074 C 
ATOM     14  C   UNL     1      -1.032   4.792  10.685  1.00  0.00     0.008 C 
BRANCH  13  15
ATOM     15  C   UNL     1      -0.813   7.056  11.587  1.00  0.00     0.035 C 
BRANCH  15  16
ATOM     16  C   UNL     1      -0.279   7.720  12.865  1.00  0.00     0.032 CG0
ATOM     17  G   UNL     1       1.197   7.522  13.122  1.00  0.00     0.000 G0
ENDBRANCH  15  16
ENDBRANCH  13  15
ENDBRANCH   1  13
TORSDOF 0
ENDMDL
MODEL 7
REMARK VINA RESULT:    -4.098      1.703      2.430
REMARK INTER + INTRA:          -4.835
REMARK INTER:                  -4.755
REMARK INTRA:                  -0.081
REMARK UNBOUND:                 0.699
REMARK SMILES C=C1CCC=C(C)CC[C@H]2[C@@H]1CC2(C)C
REMARK SMILES IDX 11 1 12 2 13 3 10 4 14 5 15 6 9 7 8 8 6 9 7 10 5 11 2 13
REMARK SMILES IDX 1 14 3 15 4 16
REMARK H PARENT
REMARK Flexibility Score: 70.00
ROOT
ATOM      1  C   UNL     1      -0.815   6.706  11.927  1.00  0.00     0.018 C 
ATOM      2  C   UNL     1      -0.256   7.786  10.987  1.00  0.00     0.015 C 
ATOM      3  C   UNL     1      -0.739   7.007   9.757  1.00  0.00    -0.031 C 
ATOM      4  C   UNL     1      -1.341   5.924  10.689  1.00  0.00     0.002 C 
ATOM      5  C   UNL     1       0.434   6.576   8.853  1.00  0.00     0.011 C 
ATOM      6  C   UNL     1      -1.812   7.768   8.954  1.00  0.00     0.011 C 
ENDROOT
BRANCH   4   7
ATOM      7  C   UNL     1      -0.954   4.457  10.374  1.00  0.00     0.009 C 
BRANCH   7   8
ATOM      8  C   UNL     1      -1.915   3.362  10.912  1.00  0.00     0.030 C 
BRANCH   8   9
ATOM      9  C   UNL     1      -1.330   2.470  11.990  1.00  0.00    -0.077 C 
ATOM     10  C   UNL     1      -1.037   1.028  11.664  1.00  0.00     0.039 C 
ATOM     11  C   UNL     1      -1.091   2.903  13.247  1.00  0.00    -0.028 CG0
ATOM     12  G   UNL     1      -1.265   4.326  13.724  1.00  0.00     0.000 G0
ENDBRANCH   8   9
ENDBRANCH   7   8
ENDBRANCH   4   7
BRANCH   1  13
ATOM     13  C   UNL     1       0.246   6.219  12.925  1.00  0.00    -0.074 C 
ATOM     14  C   UNL     1       1.367   6.959  13.030  1.00  0.00     0.008 C 
BRANCH  13  15
ATOM     15  C   UNL     1       0.050   5.107  13.939  1.00  0.00     0.035 C 
BRANCH  15  16
ATOM     16  C   UNL     1      -1.255   4.321  13.746  1.00  0.00     0.032 CG0
ATOM     17  G   UNL     1      -1.084   2.906  13.244  1.00  0.00     0.000 G0
ENDBRANCH  15  16
ENDBRANCH  13  15
ENDBRANCH   1  13
TORSDOF 0
ENDMDL
MODEL 8
REMARK VINA RESULT:    -3.971      1.469      3.202
REMARK INTER + INTRA:          -4.665
REMARK INTER:                  -5.018
REMARK INTRA:                   0.354
REMARK UNBOUND:                 0.699
REMARK SMILES C=C1CCC=C(C)CC[C@H]2[C@@H]1CC2(C)C
REMARK SMILES IDX 11 1 12 2 13 3 10 4 14 5 15 6 9 7 8 8 6 9 7 10 5 11 2 13
REMARK SMILES IDX 1 14 3 15 4 16
REMARK H PARENT
REMARK Flexibility Score: 70.00
ROOT
ATOM      1  C   UNL     1      -1.682   3.874  10.724  1.00  0.00     0.018 C 
ATOM      2  C   UNL     1      -3.171   4.098  10.414  1.00  0.00     0.015 C 
ATOM      3  C   UNL     1      -3.054   5.583  10.785  1.00  0.00    -0.031 C 
ATOM      4  C   UNL     1      -1.542   5.385  11.068  1.00  0.00     0.002 C 
ATOM      5  C   UNL     1      -3.948   5.946  11.988  1.00  0.00     0.011 C 
ATOM      6  C   UNL     1      -3.322   6.516   9.589  1.00  0.00     0.011 C 
ENDROOT
BRANCH   4   7
ATOM      7  C   UNL     1      -1.026   5.909  12.431  1.00  0.00     0.009 C 
BRANCH   7   8
ATOM      8  C   UNL     1       0.490   5.725  12.709  1.00  0.00     0.030 C 
BRANCH   8   9
ATOM      9  C   UNL     1       0.831   5.219  14.098  1.00  0.00    -0.077 C 
ATOM     10  C   UNL     1       1.279   6.207  15.144  1.00  0.00     0.039 C 
ATOM     11  C   UNL     1       0.782   3.912  14.432  1.00  0.00    -0.028 CG0
ATOM     12  G   UNL     1       0.295   2.802  13.531  1.00  0.00     0.000 G0
ENDBRANCH   8   9
ENDBRANCH   7   8
ENDBRANCH   4   7
BRANCH   1  13
ATOM     13  C   UNL     1      -1.475   2.699  11.691  1.00  0.00    -0.074 C 
ATOM     14  C   UNL     1      -1.338   1.476  11.143  1.00  0.00     0.008 C 
BRANCH  13  15
ATOM     15  C   UNL     1      -1.206   2.827  13.180  1.00  0.00     0.035 C 
BRANCH  15  16
ATOM     16  C   UNL     1       0.287   2.782  13.541  1.00  0.00     0.032 CG0
ATOM     17  G   UNL     1       0.767   3.909  14.426  1.00  0.00     0.000 G0
ENDBRANCH  15  16
ENDBRANCH  13  15
ENDBRANCH   1  13
TORSDOF 0
ENDMDL
MODEL 9
REMARK VINA RESULT:    -3.892      2.810      5.389
REMARK INTER + INTRA:          -4.557
REMARK INTER:                  -4.398
REMARK INTRA:                  -0.159
REMARK UNBOUND:                 0.699
REMARK SMILES C=C1CCC=C(C)CC[C@H]2[C@@H]1CC2(C)C
REMARK SMILES IDX 11 1 12 2 13 3 10 4 14 5 15 6 9 7 8 8 6 9 7 10 5 11 2 13
REMARK SMILES IDX 1 14 3 15 4 16
REMARK H PARENT
REMARK Flexibility Score: 70.00
ROOT
ATOM      1  C   UNL     1      -1.539   4.494  10.639  1.00  0.00     0.018 C 
ATOM      2  C   UNL     1      -0.246   3.825  11.132  1.00  0.00     0.015 C 
ATOM      3  C   UNL     1      -0.974   3.253  12.355  1.00  0.00    -0.031 C 
ATOM      4  C   UNL     1      -2.297   3.890  11.856  1.00  0.00     0.002 C 
ATOM      5  C   UNL     1      -0.392   3.797  13.676  1.00  0.00     0.011 C 
ATOM      6  C   UNL     1      -1.015   1.713  12.356  1.00  0.00     0.011 C 
ENDROOT
BRANCH   4   7
ATOM      7  C   UNL     1      -3.079   4.742  12.888  1.00  0.00     0.009 C 
BRANCH   7   8
ATOM      8  C   UNL     1      -4.574   5.010  12.565  1.00  0.00     0.030 C 
BRANCH   8   9
ATOM      9  C   UNL     1      -4.913   6.456  12.257  1.00  0.00    -0.077 C 
ATOM     10  C   UNL     1      -5.648   7.269  13.291  1.00  0.00     0.039 C 
ATOM     11  C   UNL     1      -4.614   7.042  11.077  1.00  0.00    -0.028 CG0
ATOM     12  G   UNL     1      -3.826   6.396   9.961  1.00  0.00     0.000 G0
ENDBRANCH   8   9
ENDBRANCH   7   8
ENDBRANCH   4   7
BRANCH   1  13
ATOM     13  C   UNL     1      -1.330   5.988  10.350  1.00  0.00    -0.074 C 
ATOM     14  C   UNL     1      -0.069   6.453  10.435  1.00  0.00     0.008 C 
BRANCH  13  15
ATOM     15  C   UNL     1      -2.379   6.926   9.781  1.00  0.00     0.035 C 
BRANCH  15  16
ATOM     16  C   UNL     1      -3.817   6.409   9.940  1.00  0.00     0.032 CG0
ATOM     17  G   UNL     1      -4.602   7.032  11.071  1.00  0.00     0.000 G0
ENDBRANCH  15  16
ENDBRANCH  13  15
ENDBRANCH   1  13
TORSDOF 0
ENDMDL
