MODEL 1
REMARK VINA RESULT:    -7.268      0.000      0.000
REMARK INTER + INTRA:          -9.562
REMARK INTER:                  -8.968
REMARK INTRA:                  -0.594
REMARK UNBOUND:                -0.594
REMARK SMILES CC(C)=CCC[C@H](C)c1ccc(C)cc1
REMARK SMILES IDX 6 1 7 2 8 3 9 4 13 5 12 6 11 7 14 8 10 9 15 10 5 11 4 12
REMARK SMILES IDX 2 13 1 14 3 15
REMARK H PARENT
REMARK Flexibility Score: inf
ROOT
ATOM      1  C   UNL     1     -37.520  19.162 -10.015  1.00  0.00     0.012 C 
ENDROOT
BRANCH   1   2
ATOM      2  C   UNL     1     -36.071  18.866  -9.559  1.00  0.00     0.016 C 
ATOM      3  C   UNL     1     -35.815  19.272  -8.100  1.00  0.00     0.013 C 
BRANCH   2   4
ATOM      4  C   UNL     1     -35.081  19.558 -10.480  1.00  0.00    -0.045 A 
ATOM      5  C   UNL     1     -32.239  21.463 -13.118  1.00  0.00     0.044 C 
ATOM      6  C   UNL     1     -33.226  20.826 -12.185  1.00  0.00    -0.051 A 
ATOM      7  C   UNL     1     -32.780  20.048 -11.108  1.00  0.00     0.004 A 
ATOM      8  C   UNL     1     -34.603  20.945 -12.424  1.00  0.00     0.004 A 
ATOM      9  C   UNL     1     -33.699  19.424 -10.259  1.00  0.00     0.004 A 
ATOM     10  C   UNL     1     -35.523  20.321 -11.578  1.00  0.00     0.004 A 
ENDBRANCH   2   4
ENDBRANCH   1   2
BRANCH   1  11
ATOM     11  C   UNL     1     -38.204  17.978 -10.728  1.00  0.00     0.028 C 
BRANCH  11  12
ATOM     12  C   UNL     1     -39.051  18.424 -11.898  1.00  0.00    -0.028 C 
ATOM     13  C   UNL     1     -40.391  18.264 -11.974  1.00  0.00    -0.080 C 
ATOM     14  C   UNL     1     -41.100  18.745 -13.214  1.00  0.00     0.039 C 
ATOM     15  C   UNL     1     -41.193  17.653 -10.848  1.00  0.00     0.039 C 
ENDBRANCH  11  12
ENDBRANCH   1  11
TORSDOF 4
ENDMDL
MODEL 2
REMARK VINA RESULT:    -6.707      1.513      2.404
REMARK INTER + INTRA:          -8.870
REMARK INTER:                  -8.113
REMARK INTRA:                  -0.756
REMARK UNBOUND:                -0.594
REMARK SMILES CC(C)=CCC[C@H](C)c1ccc(C)cc1
REMARK SMILES IDX 6 1 7 2 8 3 9 4 13 5 12 6 11 7 14 8 10 9 15 10 5 11 4 12
REMARK SMILES IDX 2 13 1 14 3 15
REMARK H PARENT
REMARK Flexibility Score: inf
ROOT
ATOM      1  C   UNL     1     -36.550  18.248 -11.325  1.00  0.00     0.012 C 
ENDROOT
BRANCH   1   2
ATOM      2  C   UNL     1     -36.659  19.362 -12.393  1.00  0.00     0.016 C 
ATOM      3  C   UNL     1     -37.283  18.863 -13.705  1.00  0.00     0.013 C 
BRANCH   2   4
ATOM      4  C   UNL     1     -35.293  19.972 -12.655  1.00  0.00    -0.045 A 
ATOM      5  C   UNL     1     -31.379  21.643 -13.394  1.00  0.00     0.044 C 
ATOM      6  C   UNL     1     -32.747  21.089 -13.127  1.00  0.00    -0.051 A 
ATOM      7  C   UNL     1     -33.031  20.468 -11.903  1.00  0.00     0.004 A 
ATOM      8  C   UNL     1     -33.731  21.125 -14.125  1.00  0.00     0.004 A 
ATOM      9  C   UNL     1     -34.295  19.919 -11.666  1.00  0.00     0.004 A 
ATOM     10  C   UNL     1     -34.995  20.576 -13.891  1.00  0.00     0.004 A 
ENDBRANCH   2   4
ENDBRANCH   1   2
BRANCH   1  11
ATOM     11  C   UNL     1     -37.507  18.433 -10.129  1.00  0.00     0.028 C 
BRANCH  11  12
ATOM     12  C   UNL     1     -38.828  17.729 -10.335  1.00  0.00    -0.028 C 
ATOM     13  C   UNL     1     -40.021  18.357 -10.429  1.00  0.00    -0.080 C 
ATOM     14  C   UNL     1     -41.259  17.518 -10.618  1.00  0.00     0.039 C 
ATOM     15  C   UNL     1     -40.143  19.863 -10.383  1.00  0.00     0.039 C 
ENDBRANCH  11  12
ENDBRANCH   1  11
TORSDOF 4
ENDMDL
MODEL 3
REMARK VINA RESULT:    -6.685      1.351      6.653
REMARK INTER + INTRA:          -8.842
REMARK INTER:                  -8.086
REMARK INTRA:                  -0.756
REMARK UNBOUND:                -0.594
REMARK SMILES CC(C)=CCC[C@H](C)c1ccc(C)cc1
REMARK SMILES IDX 6 1 7 2 8 3 9 4 13 5 12 6 11 7 14 8 10 9 15 10 5 11 4 12
REMARK SMILES IDX 2 13 1 14 3 15
REMARK H PARENT
REMARK Flexibility Score: inf
ROOT
ATOM      1  C   UNL     1     -35.000  20.346 -11.588  1.00  0.00     0.012 C 
ENDROOT
BRANCH   1   2
ATOM      2  C   UNL     1     -35.646  19.518 -12.724  1.00  0.00     0.016 C 
ATOM      3  C   UNL     1     -35.776  20.312 -14.033  1.00  0.00     0.013 C 
BRANCH   2   4
ATOM      4  C   UNL     1     -37.003  18.995 -12.286  1.00  0.00    -0.045 A 
ATOM      5  C   UNL     1     -40.870  17.566 -10.999  1.00  0.00     0.044 C 
ATOM      6  C   UNL     1     -39.519  18.034 -11.450  1.00  0.00    -0.051 A 
ATOM      7  C   UNL     1     -38.494  18.239 -10.516  1.00  0.00     0.004 A 
ATOM      8  C   UNL     1     -39.290  18.338 -12.800  1.00  0.00     0.004 A 
ATOM      9  C   UNL     1     -37.245  18.710 -10.931  1.00  0.00     0.004 A 
ATOM     10  C   UNL     1     -38.043  18.811 -13.216  1.00  0.00     0.004 A 
ENDBRANCH   2   4
ENDBRANCH   1   2
BRANCH   1  11
ATOM     11  C   UNL     1     -33.468  20.195 -11.498  1.00  0.00     0.028 C 
BRANCH  11  12
ATOM     12  C   UNL     1     -32.738  21.243 -12.305  1.00  0.00    -0.028 C 
ATOM     13  C   UNL     1     -31.944  20.974 -13.366  1.00  0.00    -0.080 C 
ATOM     14  C   UNL     1     -31.267  22.125 -14.064  1.00  0.00     0.039 C 
ATOM     15  C   UNL     1     -31.746  19.568 -13.885  1.00  0.00     0.039 C 
ENDBRANCH  11  12
ENDBRANCH   1  11
TORSDOF 4
ENDMDL
MODEL 4
REMARK VINA RESULT:    -6.684      1.423      6.627
REMARK INTER + INTRA:          -8.841
REMARK INTER:                  -8.357
REMARK INTRA:                  -0.484
REMARK UNBOUND:                -0.594
REMARK SMILES CC(C)=CCC[C@H](C)c1ccc(C)cc1
REMARK SMILES IDX 6 1 7 2 8 3 9 4 13 5 12 6 11 7 14 8 10 9 15 10 5 11 4 12
REMARK SMILES IDX 2 13 1 14 3 15
REMARK H PARENT
REMARK Flexibility Score: inf
ROOT
ATOM      1  C   UNL     1     -36.060  18.582 -11.964  1.00  0.00     0.012 C 
ENDROOT
BRANCH   1   2
ATOM      2  C   UNL     1     -37.263  18.249 -12.879  1.00  0.00     0.016 C 
ATOM      3  C   UNL     1     -37.444  19.269 -14.013  1.00  0.00     0.013 C 
BRANCH   2   4
ATOM      4  C   UNL     1     -38.534  18.144 -12.055  1.00  0.00    -0.045 A 
ATOM      5  C   UNL     1     -42.124  17.894  -9.665  1.00  0.00     0.044 C 
ATOM      6  C   UNL     1     -40.882  17.953 -10.504  1.00  0.00    -0.051 A 
ATOM      7  C   UNL     1     -39.641  17.607  -9.953  1.00  0.00     0.004 A 
ATOM      8  C   UNL     1     -40.943  18.422 -11.824  1.00  0.00     0.004 A 
ATOM      9  C   UNL     1     -38.477  17.696 -10.723  1.00  0.00     0.004 A 
ATOM     10  C   UNL     1     -39.781  18.513 -12.595  1.00  0.00     0.004 A 
ENDBRANCH   2   4
ENDBRANCH   1   2
BRANCH   1  11
ATOM     11  C   UNL     1     -35.883  20.089 -11.691  1.00  0.00     0.028 C 
BRANCH  11  12
ATOM     12  C   UNL     1     -34.732  20.683 -12.470  1.00  0.00    -0.028 C 
ATOM     13  C   UNL     1     -33.450  20.705 -12.041  1.00  0.00    -0.080 C 
ATOM     14  C   UNL     1     -32.411  21.348 -12.923  1.00  0.00     0.039 C 
ATOM     15  C   UNL     1     -33.030  20.077 -10.731  1.00  0.00     0.039 C 
ENDBRANCH  11  12
ENDBRANCH   1  11
TORSDOF 4
ENDMDL
MODEL 5
REMARK VINA RESULT:    -6.642     16.634     19.360
REMARK INTER + INTRA:          -8.789
REMARK INTER:                  -7.264
REMARK INTRA:                  -1.524
REMARK UNBOUND:                -0.594
REMARK SMILES CC(C)=CCC[C@H](C)c1ccc(C)cc1
REMARK SMILES IDX 6 1 7 2 8 3 9 4 13 5 12 6 11 7 14 8 10 9 15 10 5 11 4 12
REMARK SMILES IDX 2 13 1 14 3 15
REMARK H PARENT
REMARK Flexibility Score: inf
ROOT
ATOM      1  C   UNL     1     -25.713  16.240   5.365  1.00  0.00     0.012 C 
ENDROOT
BRANCH   1   2
ATOM      2  C   UNL     1     -24.169  16.153   5.415  1.00  0.00     0.016 C 
ATOM      3  C   UNL     1     -23.502  17.535   5.499  1.00  0.00     0.013 C 
BRANCH   2   4
ATOM      4  C   UNL     1     -23.649  15.388   4.210  1.00  0.00    -0.045 A 
ATOM      5  C   UNL     1     -22.220  13.238   0.747  1.00  0.00     0.044 C 
ATOM      6  C   UNL     1     -22.705  13.964   1.967  1.00  0.00    -0.051 A 
ATOM      7  C   UNL     1     -23.990  13.719   2.471  1.00  0.00     0.004 A 
ATOM      8  C   UNL     1     -21.903  14.943   2.572  1.00  0.00     0.004 A 
ATOM      9  C   UNL     1     -24.456  14.421   3.586  1.00  0.00     0.004 A 
ATOM     10  C   UNL     1     -22.368  15.647   3.686  1.00  0.00     0.004 A 
ENDBRANCH   2   4
ENDBRANCH   1   2
BRANCH   1  11
ATOM     11  C   UNL     1     -26.245  17.508   4.665  1.00  0.00     0.028 C 
BRANCH  11  12
ATOM     12  C   UNL     1     -26.888  17.203   3.333  1.00  0.00    -0.028 C 
ATOM     13  C   UNL     1     -26.305  17.425   2.134  1.00  0.00    -0.080 C 
ATOM     14  C   UNL     1     -27.078  17.084   0.886  1.00  0.00     0.039 C 
ATOM     15  C   UNL     1     -24.899  17.968   2.013  1.00  0.00     0.039 C 
ENDBRANCH  11  12
ENDBRANCH   1  11
TORSDOF 4
ENDMDL
MODEL 6
REMARK VINA RESULT:    -6.597     15.807     18.528
REMARK INTER + INTRA:          -8.734
REMARK INTER:                  -8.133
REMARK INTRA:                  -0.601
REMARK UNBOUND:                -0.594
REMARK SMILES CC(C)=CCC[C@H](C)c1ccc(C)cc1
REMARK SMILES IDX 6 1 7 2 8 3 9 4 13 5 12 6 11 7 14 8 10 9 15 10 5 11 4 12
REMARK SMILES IDX 2 13 1 14 3 15
REMARK H PARENT
REMARK Flexibility Score: inf
ROOT
ATOM      1  C   UNL     1     -26.944  16.706   4.379  1.00  0.00     0.012 C 
ENDROOT
BRANCH   1   2
ATOM      2  C   UNL     1     -25.682  16.163   5.092  1.00  0.00     0.016 C 
ATOM      3  C   UNL     1     -24.878  17.269   5.793  1.00  0.00     0.013 C 
BRANCH   2   4
ATOM      4  C   UNL     1     -24.803  15.416   4.104  1.00  0.00    -0.045 A 
ATOM      5  C   UNL     1     -22.304  13.348   1.252  1.00  0.00     0.044 C 
ATOM      6  C   UNL     1     -23.182  14.040   2.252  1.00  0.00    -0.051 A 
ATOM      7  C   UNL     1     -24.475  14.446   1.895  1.00  0.00     0.004 A 
ATOM      8  C   UNL     1     -22.691  14.349   3.529  1.00  0.00     0.004 A 
ATOM      9  C   UNL     1     -25.281  15.123   2.815  1.00  0.00     0.004 A 
ATOM     10  C   UNL     1     -23.494  15.027   4.449  1.00  0.00     0.004 A 
ENDBRANCH   2   4
ENDBRANCH   1   2
BRANCH   1  11
ATOM     11  C   UNL     1     -26.829  18.182   3.946  1.00  0.00     0.028 C 
BRANCH  11  12
ATOM     12  C   UNL     1     -28.165  18.772   3.557  1.00  0.00    -0.028 C 
ATOM     13  C   UNL     1     -28.750  18.607   2.350  1.00  0.00    -0.080 C 
ATOM     14  C   UNL     1     -30.080  19.271   2.102  1.00  0.00     0.039 C 
ATOM     15  C   UNL     1     -28.131  17.754   1.266  1.00  0.00     0.039 C 
ENDBRANCH  11  12
ENDBRANCH   1  11
TORSDOF 4
ENDMDL
MODEL 7
REMARK VINA RESULT:    -6.479      1.144      5.857
REMARK INTER + INTRA:          -8.588
REMARK INTER:                  -7.835
REMARK INTRA:                  -0.753
REMARK UNBOUND:                -0.594
REMARK SMILES CC(C)=CCC[C@H](C)c1ccc(C)cc1
REMARK SMILES IDX 6 1 7 2 8 3 9 4 13 5 12 6 11 7 14 8 10 9 15 10 5 11 4 12
REMARK SMILES IDX 2 13 1 14 3 15
REMARK H PARENT
REMARK Flexibility Score: inf
ROOT
ATOM      1  C   UNL     1     -34.619  19.275 -10.467  1.00  0.00     0.012 C 
ENDROOT
BRANCH   1   2
ATOM      2  C   UNL     1     -35.927  19.588  -9.704  1.00  0.00     0.016 C 
ATOM      3  C   UNL     1     -36.002  18.881  -8.342  1.00  0.00     0.013 C 
BRANCH   2   4
ATOM      4  C   UNL     1     -37.131  19.223 -10.555  1.00  0.00    -0.045 A 
ATOM      5  C   UNL     1     -40.527  18.118 -12.985  1.00  0.00     0.044 C 
ATOM      6  C   UNL     1     -39.351  18.529 -12.150  1.00  0.00    -0.051 A 
ATOM      7  C   UNL     1     -38.057  18.495 -12.687  1.00  0.00     0.004 A 
ATOM      8  C   UNL     1     -39.530  18.885 -10.805  1.00  0.00     0.004 A 
ATOM      9  C   UNL     1     -36.956  18.844 -11.898  1.00  0.00     0.004 A 
ATOM     10  C   UNL     1     -38.431  19.232 -10.015  1.00  0.00     0.004 A 
ENDBRANCH   2   4
ENDBRANCH   1   2
BRANCH   1  11
ATOM     11  C   UNL     1     -33.825  20.529 -10.886  1.00  0.00     0.028 C 
BRANCH  11  12
ATOM     12  C   UNL     1     -32.740  20.214 -11.890  1.00  0.00    -0.028 C 
ATOM     13  C   UNL     1     -32.894  20.288 -13.230  1.00  0.00    -0.080 C 
ATOM     14  C   UNL     1     -31.723  19.927 -14.108  1.00  0.00     0.039 C 
ATOM     15  C   UNL     1     -34.186  20.751 -13.866  1.00  0.00     0.039 C 
ENDBRANCH  11  12
ENDBRANCH   1  11
TORSDOF 4
ENDMDL
MODEL 8
REMARK VINA RESULT:    -6.368     15.113     18.042
REMARK INTER + INTRA:          -8.451
REMARK INTER:                  -7.899
REMARK INTRA:                  -0.552
REMARK UNBOUND:                -0.594
REMARK SMILES CC(C)=CCC[C@H](C)c1ccc(C)cc1
REMARK SMILES IDX 6 1 7 2 8 3 9 4 13 5 12 6 11 7 14 8 10 9 15 10 5 11 4 12
REMARK SMILES IDX 2 13 1 14 3 15
REMARK H PARENT
REMARK Flexibility Score: inf
ROOT
ATOM      1  C   UNL     1     -26.591  15.895   2.587  1.00  0.00     0.012 C 
ENDROOT
BRANCH   1   2
ATOM      2  C   UNL     1     -26.561  17.330   2.011  1.00  0.00     0.016 C 
ATOM      3  C   UNL     1     -25.265  18.079   2.359  1.00  0.00     0.013 C 
BRANCH   2   4
ATOM      4  C   UNL     1     -27.769  18.114   2.492  1.00  0.00    -0.045 A 
ATOM      5  C   UNL     1     -31.166  20.396   3.877  1.00  0.00     0.044 C 
ATOM      6  C   UNL     1     -30.001  19.579   3.403  1.00  0.00    -0.051 A 
ATOM      7  C   UNL     1     -28.952  19.268   4.280  1.00  0.00     0.004 A 
ATOM      8  C   UNL     1     -29.917  19.178   2.062  1.00  0.00     0.004 A 
ATOM      9  C   UNL     1     -27.849  18.537   3.831  1.00  0.00     0.004 A 
ATOM     10  C   UNL     1     -28.814  18.449   1.610  1.00  0.00     0.004 A 
ENDBRANCH   2   4
ENDBRANCH   1   2
BRANCH   1  11
ATOM     11  C   UNL     1     -25.222  15.396   3.093  1.00  0.00     0.028 C 
BRANCH  11  12
ATOM     12  C   UNL     1     -24.497  14.561   2.063  1.00  0.00    -0.028 C 
ATOM     13  C   UNL     1     -23.168  14.317   2.076  1.00  0.00    -0.080 C 
ATOM     14  C   UNL     1     -22.583  13.477   0.970  1.00  0.00     0.039 C 
ATOM     15  C   UNL     1     -22.267  14.830   3.176  1.00  0.00     0.039 C 
ENDBRANCH  11  12
ENDBRANCH   1  11
TORSDOF 4
ENDMDL
MODEL 9
REMARK VINA RESULT:    -6.356     15.079     18.062
REMARK INTER + INTRA:          -8.437
REMARK INTER:                  -7.896
REMARK INTRA:                  -0.541
REMARK UNBOUND:                -0.594
REMARK SMILES CC(C)=CCC[C@H](C)c1ccc(C)cc1
REMARK SMILES IDX 6 1 7 2 8 3 9 4 13 5 12 6 11 7 14 8 10 9 15 10 5 11 4 12
REMARK SMILES IDX 2 13 1 14 3 15
REMARK H PARENT
REMARK Flexibility Score: inf
ROOT
ATOM      1  C   UNL     1     -26.595  15.909   2.745  1.00  0.00     0.012 C 
ENDROOT
BRANCH   1   2
ATOM      2  C   UNL     1     -26.537  17.326   2.127  1.00  0.00     0.016 C 
ATOM      3  C   UNL     1     -25.247  18.077   2.490  1.00  0.00     0.013 C 
BRANCH   2   4
ATOM      4  C   UNL     1     -27.754  18.131   2.547  1.00  0.00    -0.045 A 
ATOM      5  C   UNL     1     -31.256  20.368   3.726  1.00  0.00     0.044 C 
ATOM      6  C   UNL     1     -30.026  19.617   3.311  1.00  0.00    -0.051 A 
ATOM      7  C   UNL     1     -29.867  19.200   1.982  1.00  0.00     0.004 A 
ATOM      8  C   UNL     1     -29.058  19.265   4.263  1.00  0.00     0.004 A 
ATOM      9  C   UNL     1     -28.738  18.468   1.602  1.00  0.00     0.004 A 
ATOM     10  C   UNL     1     -27.930  18.532   3.886  1.00  0.00     0.004 A 
ENDBRANCH   2   4
ENDBRANCH   1   2
BRANCH   1  11
ATOM     11  C   UNL     1     -25.220  15.361   3.181  1.00  0.00     0.028 C 
BRANCH  11  12
ATOM     12  C   UNL     1     -24.533  14.589   2.078  1.00  0.00    -0.028 C 
ATOM     13  C   UNL     1     -23.207  14.333   2.038  1.00  0.00    -0.080 C 
ATOM     14  C   UNL     1     -22.661  13.562   0.863  1.00  0.00     0.039 C 
ATOM     15  C   UNL     1     -22.271  14.763   3.145  1.00  0.00     0.039 C 
ENDBRANCH  11  12
ENDBRANCH   1  11
TORSDOF 4
ENDMDL
