MODEL 1
REMARK VINA RESULT:    -3.098      0.000      0.000
REMARK INTER + INTRA:          -8.900
REMARK INTER:                  -5.995
REMARK INTRA:                  -2.904
REMARK UNBOUND:                -2.904
REMARK SMILES CCCCCCCCCCCCCCCCCC(=O)[O-]
REMARK SMILES IDX 10 1 11 2 12 3 13 4 14 5 15 6 16 7 17 8 18 9 19 10 20 11
REMARK SMILES IDX 9 12 8 13 7 14 6 15 5 16 4 17 3 18 2 19 1 20
REMARK H PARENT
REMARK Flexibility Score: inf
ROOT
ATOM      1  C   UNL     1      61.019  33.405  58.903  1.00  0.00     0.000 C 
ENDROOT
BRANCH   1   2
ATOM      2  C   UNL     1      60.930  32.868  60.336  1.00  0.00     0.000 C 
BRANCH   2   3
ATOM      3  C   UNL     1      60.933  31.333  60.349  1.00  0.00     0.000 C 
BRANCH   3   4
ATOM      4  C   UNL     1      61.636  30.747  61.585  1.00  0.00     0.000 C 
BRANCH   4   5
ATOM      5  C   UNL     1      62.323  29.390  61.320  1.00  0.00     0.000 C 
BRANCH   5   6
ATOM      6  C   UNL     1      62.594  29.158  59.826  1.00  0.00     0.000 C 
BRANCH   6   7
ATOM      7  C   UNL     1      63.942  28.458  59.613  1.00  0.00     0.006 C 
BRANCH   7   8
ATOM      8  C   UNL     1      64.857  28.647  60.825  1.00  0.00     0.053 C 
BRANCH   8   9
ATOM      9  C   UNL     1      66.254  28.952  60.386  1.00  0.00     0.041 C 
ATOM     10  O   UNL     1      67.215  28.806  61.187  1.00  0.00    -0.550 OA
ATOM     11  O   UNL     1      66.500  29.354  59.080  1.00  0.00    -0.550 OA
ENDBRANCH   8   9
ENDBRANCH   7   8
ENDBRANCH   6   7
ENDBRANCH   5   6
ENDBRANCH   4   5
ENDBRANCH   3   4
ENDBRANCH   2   3
ENDBRANCH   1   2
BRANCH   1  12
ATOM     12  C   UNL     1      61.038  34.942  58.890  1.00  0.00     0.000 C 
BRANCH  12  13
ATOM     13  C   UNL     1      60.596  35.551  60.230  1.00  0.00    -0.000 C 
BRANCH  13  14
ATOM     14  C   UNL     1      61.531  36.671  60.709  1.00  0.00    -0.000 C 
BRANCH  14  15
ATOM     15  C   UNL     1      62.963  36.443  60.212  1.00  0.00    -0.000 C 
BRANCH  15  16
ATOM     16  C   UNL     1      63.867  35.942  61.350  1.00  0.00    -0.000 C 
BRANCH  16  17
ATOM     17  C   UNL     1      64.125  34.428  61.278  1.00  0.00    -0.000 C 
BRANCH  17  18
ATOM     18  C   UNL     1      64.529  33.964  59.867  1.00  0.00    -0.000 C 
BRANCH  18  19
ATOM     19  C   UNL     1      64.502  32.435  59.723  1.00  0.00    -0.003 C 
ATOM     20  C   UNL     1      64.320  31.982  58.274  1.00  0.00     0.004 C 
ENDBRANCH  18  19
ENDBRANCH  17  18
ENDBRANCH  16  17
ENDBRANCH  15  16
ENDBRANCH  14  15
ENDBRANCH  13  14
ENDBRANCH  12  13
ENDBRANCH   1  12
TORSDOF 16
ENDMDL
MODEL 2
REMARK VINA RESULT:    -3.008     10.794     12.740
REMARK INTER + INTRA:          -8.727
REMARK INTER:                  -5.845
REMARK INTRA:                  -2.882
REMARK UNBOUND:                -2.904
REMARK SMILES CCCCCCCCCCCCCCCCCC(=O)[O-]
REMARK SMILES IDX 10 1 11 2 12 3 13 4 14 5 15 6 16 7 17 8 18 9 19 10 20 11
REMARK SMILES IDX 9 12 8 13 7 14 6 15 5 16 4 17 3 18 2 19 1 20
REMARK H PARENT
REMARK Flexibility Score: inf
ROOT
ATOM      1  C   UNL     1      57.795  26.879  53.022  1.00  0.00     0.000 C 
ENDROOT
BRANCH   1   2
ATOM      2  C   UNL     1      56.883  25.916  52.252  1.00  0.00     0.000 C 
BRANCH   2   3
ATOM      3  C   UNL     1      57.158  25.988  50.744  1.00  0.00     0.000 C 
BRANCH   3   4
ATOM      4  C   UNL     1      55.876  26.148  49.909  1.00  0.00     0.000 C 
BRANCH   4   5
ATOM      5  C   UNL     1      54.748  26.901  50.646  1.00  0.00     0.000 C 
BRANCH   5   6
ATOM      6  C   UNL     1      53.808  27.633  49.676  1.00  0.00     0.000 C 
BRANCH   6   7
ATOM      7  C   UNL     1      53.326  28.960  50.273  1.00  0.00     0.006 C 
BRANCH   7   8
ATOM      8  C   UNL     1      54.503  29.787  50.796  1.00  0.00     0.053 C 
BRANCH   8   9
ATOM      9  C   UNL     1      54.262  30.207  52.211  1.00  0.00     0.041 C 
ATOM     10  O   UNL     1      53.652  29.440  53.003  1.00  0.00    -0.550 OA
ATOM     11  O   UNL     1      54.752  31.423  52.669  1.00  0.00    -0.550 OA
ENDBRANCH   8   9
ENDBRANCH   7   8
ENDBRANCH   6   7
ENDBRANCH   5   6
ENDBRANCH   4   5
ENDBRANCH   3   4
ENDBRANCH   2   3
ENDBRANCH   1   2
BRANCH   1  12
ATOM     12  C   UNL     1      57.474  28.341  52.674  1.00  0.00     0.000 C 
BRANCH  12  13
ATOM     13  C   UNL     1      58.694  29.264  52.814  1.00  0.00    -0.000 C 
BRANCH  13  14
ATOM     14  C   UNL     1      59.104  29.912  51.483  1.00  0.00    -0.000 C 
BRANCH  14  15
ATOM     15  C   UNL     1      58.198  29.441  50.340  1.00  0.00    -0.000 C 
BRANCH  15  16
ATOM     16  C   UNL     1      59.026  28.847  49.190  1.00  0.00    -0.000 C 
BRANCH  16  17
ATOM     17  C   UNL     1      60.359  28.248  49.668  1.00  0.00    -0.000 C 
BRANCH  17  18
ATOM     18  C   UNL     1      60.340  26.710  49.692  1.00  0.00    -0.000 C 
BRANCH  18  19
ATOM     19  C   UNL     1      61.348  26.126  50.695  1.00  0.00    -0.003 C 
ATOM     20  C   UNL     1      61.381  26.898  52.014  1.00  0.00     0.004 C 
ENDBRANCH  18  19
ENDBRANCH  17  18
ENDBRANCH  16  17
ENDBRANCH  15  16
ENDBRANCH  14  15
ENDBRANCH  13  14
ENDBRANCH  12  13
ENDBRANCH   1  12
TORSDOF 16
ENDMDL
MODEL 3
REMARK VINA RESULT:    -2.994     10.397     12.520
REMARK INTER + INTRA:          -8.699
REMARK INTER:                  -5.932
REMARK INTRA:                  -2.768
REMARK UNBOUND:                -2.904
REMARK SMILES CCCCCCCCCCCCCCCCCC(=O)[O-]
REMARK SMILES IDX 10 1 11 2 12 3 13 4 14 5 15 6 16 7 17 8 18 9 19 10 20 11
REMARK SMILES IDX 9 12 8 13 7 14 6 15 5 16 4 17 3 18 2 19 1 20
REMARK H PARENT
REMARK Flexibility Score: inf
ROOT
ATOM      1  C   UNL     1      57.151  27.102  53.506  1.00  0.00     0.000 C 
ENDROOT
BRANCH   1   2
ATOM      2  C   UNL     1      58.253  28.121  53.191  1.00  0.00     0.000 C 
BRANCH   2   3
ATOM      3  C   UNL     1      57.661  29.397  52.577  1.00  0.00     0.000 C 
BRANCH   3   4
ATOM      4  C   UNL     1      58.454  29.896  51.356  1.00  0.00     0.000 C 
BRANCH   4   5
ATOM      5  C   UNL     1      58.029  29.232  50.029  1.00  0.00     0.000 C 
BRANCH   5   6
ATOM      6  C   UNL     1      59.223  28.631  49.272  1.00  0.00     0.000 C 
BRANCH   6   7
ATOM      7  C   UNL     1      59.393  27.143  49.603  1.00  0.00     0.006 C 
BRANCH   7   8
ATOM      8  C   UNL     1      60.859  26.808  49.889  1.00  0.00     0.053 C 
BRANCH   8   9
ATOM      9  C   UNL     1      61.144  26.908  51.354  1.00  0.00     0.041 C 
ATOM     10  O   UNL     1      60.805  25.975  52.130  1.00  0.00    -0.550 OA
ATOM     11  O   UNL     1      61.825  28.009  51.856  1.00  0.00    -0.550 OA
ENDBRANCH   8   9
ENDBRANCH   7   8
ENDBRANCH   6   7
ENDBRANCH   5   6
ENDBRANCH   4   5
ENDBRANCH   3   4
ENDBRANCH   2   3
ENDBRANCH   1   2
BRANCH   1  12
ATOM     12  C   UNL     1      56.063  27.113  52.421  1.00  0.00     0.000 C 
BRANCH  12  13
ATOM     13  C   UNL     1      56.181  25.925  51.452  1.00  0.00    -0.000 C 
BRANCH  13  14
ATOM     14  C   UNL     1      55.347  26.115  50.177  1.00  0.00    -0.000 C 
BRANCH  14  15
ATOM     15  C   UNL     1      55.005  27.593  49.958  1.00  0.00    -0.000 C 
BRANCH  15  16
ATOM     16  C   UNL     1      53.502  27.778  49.699  1.00  0.00    -0.000 C 
BRANCH  16  17
ATOM     17  C   UNL     1      52.978  29.133  50.203  1.00  0.00    -0.000 C 
BRANCH  17  18
ATOM     18  C   UNL     1      54.107  30.066  50.674  1.00  0.00    -0.000 C 
BRANCH  18  19
ATOM     19  C   UNL     1      53.718  30.875  51.921  1.00  0.00    -0.003 C 
ATOM     20  C   UNL     1      54.086  30.165  53.223  1.00  0.00     0.004 C 
ENDBRANCH  18  19
ENDBRANCH  17  18
ENDBRANCH  16  17
ENDBRANCH  15  16
ENDBRANCH  14  15
ENDBRANCH  13  14
ENDBRANCH  12  13
ENDBRANCH   1  12
TORSDOF 16
ENDMDL
MODEL 4
REMARK VINA RESULT:    -2.971     11.164     13.196
REMARK INTER + INTRA:          -8.654
REMARK INTER:                  -6.413
REMARK INTRA:                  -2.241
REMARK UNBOUND:                -2.904
REMARK SMILES CCCCCCCCCCCCCCCCCC(=O)[O-]
REMARK SMILES IDX 10 1 11 2 12 3 13 4 14 5 15 6 16 7 17 8 18 9 19 10 20 11
REMARK SMILES IDX 9 12 8 13 7 14 6 15 5 16 4 17 3 18 2 19 1 20
REMARK H PARENT
REMARK Flexibility Score: inf
ROOT
ATOM      1  C   UNL     1      56.790  27.362  51.534  1.00  0.00     0.000 C 
ENDROOT
BRANCH   1   2
ATOM      2  C   UNL     1      56.365  26.771  50.185  1.00  0.00     0.000 C 
BRANCH   2   3
ATOM      3  C   UNL     1      55.121  25.886  50.340  1.00  0.00     0.000 C 
BRANCH   3   4
ATOM      4  C   UNL     1      53.849  26.693  50.652  1.00  0.00     0.000 C 
BRANCH   4   5
ATOM      5  C   UNL     1      53.445  27.671  49.528  1.00  0.00     0.000 C 
BRANCH   5   6
ATOM      6  C   UNL     1      53.000  29.035  50.077  1.00  0.00     0.000 C 
BRANCH   6   7
ATOM      7  C   UNL     1      54.161  29.754  50.775  1.00  0.00     0.006 C 
BRANCH   7   8
ATOM      8  C   UNL     1      53.649  30.893  51.660  1.00  0.00     0.053 C 
BRANCH   8   9
ATOM      9  C   UNL     1      54.670  31.257  52.690  1.00  0.00     0.041 C 
ATOM     10  O   UNL     1      55.694  30.539  52.848  1.00  0.00    -0.550 OA
ATOM     11  O   UNL     1      54.517  32.413  53.444  1.00  0.00    -0.550 OA
ENDBRANCH   8   9
ENDBRANCH   7   8
ENDBRANCH   6   7
ENDBRANCH   5   6
ENDBRANCH   4   5
ENDBRANCH   3   4
ENDBRANCH   2   3
ENDBRANCH   1   2
BRANCH   1  12
ATOM     12  C   UNL     1      58.072  28.197  51.392  1.00  0.00     0.000 C 
BRANCH  12  13
ATOM     13  C   UNL     1      57.933  29.323  50.355  1.00  0.00    -0.000 C 
BRANCH  13  14
ATOM     14  C   UNL     1      59.009  29.258  49.261  1.00  0.00    -0.000 C 
BRANCH  14  15
ATOM     15  C   UNL     1      59.711  27.895  49.260  1.00  0.00    -0.000 C 
BRANCH  15  16
ATOM     16  C   UNL     1      61.223  28.055  49.480  1.00  0.00    -0.000 C 
BRANCH  16  17
ATOM     17  C   UNL     1      61.802  26.982  50.418  1.00  0.00    -0.000 C 
BRANCH  17  18
ATOM     18  C   UNL     1      60.993  25.673  50.387  1.00  0.00    -0.000 C 
BRANCH  18  19
ATOM     19  C   UNL     1      60.484  25.265  51.778  1.00  0.00    -0.003 C 
ATOM     20  C   UNL     1      59.162  24.501  51.721  1.00  0.00     0.004 C 
ENDBRANCH  18  19
ENDBRANCH  17  18
ENDBRANCH  16  17
ENDBRANCH  15  16
ENDBRANCH  14  15
ENDBRANCH  13  14
ENDBRANCH  12  13
ENDBRANCH   1  12
TORSDOF 16
ENDMDL
MODEL 5
REMARK VINA RESULT:    -2.966      1.213      2.953
REMARK INTER + INTRA:          -8.645
REMARK INTER:                  -5.812
REMARK INTRA:                  -2.833
REMARK UNBOUND:                -2.904
REMARK SMILES CCCCCCCCCCCCCCCCCC(=O)[O-]
REMARK SMILES IDX 10 1 11 2 12 3 13 4 14 5 15 6 16 7 17 8 18 9 19 10 20 11
REMARK SMILES IDX 9 12 8 13 7 14 6 15 5 16 4 17 3 18 2 19 1 20
REMARK H PARENT
REMARK Flexibility Score: inf
ROOT
ATOM      1  C   UNL     1      61.352  30.997  58.272  1.00  0.00     0.000 C 
ENDROOT
BRANCH   1   2
ATOM      2  C   UNL     1      60.373  31.521  59.328  1.00  0.00     0.000 C 
BRANCH   2   3
ATOM      3  C   UNL     1      60.409  30.651  60.592  1.00  0.00     0.000 C 
BRANCH   3   4
ATOM      4  C   UNL     1      61.516  31.069  61.574  1.00  0.00     0.000 C 
BRANCH   4   5
ATOM      5  C   UNL     1      62.734  30.120  61.576  1.00  0.00     0.000 C 
BRANCH   5   6
ATOM      6  C   UNL     1      62.348  28.681  61.199  1.00  0.00     0.000 C 
BRANCH   6   7
ATOM      7  C   UNL     1      63.559  27.910  60.660  1.00  0.00     0.006 C 
BRANCH   7   8
ATOM      8  C   UNL     1      64.125  28.584  59.407  1.00  0.00     0.053 C 
BRANCH   8   9
ATOM      9  C   UNL     1      65.598  28.801  59.549  1.00  0.00     0.041 C 
ATOM     10  O   UNL     1      66.050  29.467  60.518  1.00  0.00    -0.550 OA
ATOM     11  O   UNL     1      66.477  28.230  58.637  1.00  0.00    -0.550 OA
ENDBRANCH   8   9
ENDBRANCH   7   8
ENDBRANCH   6   7
ENDBRANCH   5   6
ENDBRANCH   4   5
ENDBRANCH   3   4
ENDBRANCH   2   3
ENDBRANCH   1   2
BRANCH   1  12
ATOM     12  C   UNL     1      62.292  32.112  57.788  1.00  0.00     0.000 C 
BRANCH  12  13
ATOM     13  C   UNL     1      63.686  32.031  58.429  1.00  0.00    -0.000 C 
BRANCH  13  14
ATOM     14  C   UNL     1      64.189  33.393  58.929  1.00  0.00    -0.000 C 
BRANCH  14  15
ATOM     15  C   UNL     1      64.091  33.489  60.456  1.00  0.00    -0.000 C 
BRANCH  15  16
ATOM     16  C   UNL     1      63.324  34.751  60.880  1.00  0.00    -0.000 C 
BRANCH  16  17
ATOM     17  C   UNL     1      61.835  34.694  60.501  1.00  0.00    -0.000 C 
BRANCH  17  18
ATOM     18  C   UNL     1      61.182  36.087  60.463  1.00  0.00    -0.000 C 
BRANCH  18  19
ATOM     19  C   UNL     1      60.029  36.166  59.450  1.00  0.00    -0.003 C 
ATOM     20  C   UNL     1      60.193  35.182  58.292  1.00  0.00     0.004 C 
ENDBRANCH  18  19
ENDBRANCH  17  18
ENDBRANCH  16  17
ENDBRANCH  15  16
ENDBRANCH  14  15
ENDBRANCH  13  14
ENDBRANCH  12  13
ENDBRANCH   1  12
TORSDOF 16
ENDMDL
MODEL 6
REMARK VINA RESULT:    -2.958      1.615      3.127
REMARK INTER + INTRA:          -8.630
REMARK INTER:                  -6.031
REMARK INTRA:                  -2.599
REMARK UNBOUND:                -2.904
REMARK SMILES CCCCCCCCCCCCCCCCCC(=O)[O-]
REMARK SMILES IDX 10 1 11 2 12 3 13 4 14 5 15 6 16 7 17 8 18 9 19 10 20 11
REMARK SMILES IDX 9 12 8 13 7 14 6 15 5 16 4 17 3 18 2 19 1 20
REMARK H PARENT
REMARK Flexibility Score: inf
ROOT
ATOM      1  C   UNL     1      63.014  32.048  58.237  1.00  0.00     0.000 C 
ENDROOT
BRANCH   1   2
ATOM      2  C   UNL     1      63.880  32.510  59.415  1.00  0.00     0.000 C 
BRANCH   2   3
ATOM      3  C   UNL     1      63.208  32.177  60.754  1.00  0.00     0.000 C 
BRANCH   3   4
ATOM      4  C   UNL     1      61.676  32.082  60.647  1.00  0.00     0.000 C 
BRANCH   4   5
ATOM      5  C   UNL     1      61.064  30.964  61.518  1.00  0.00     0.000 C 
BRANCH   5   6
ATOM      6  C   UNL     1      60.487  29.819  60.672  1.00  0.00     0.000 C 
BRANCH   6   7
ATOM      7  C   UNL     1      61.366  28.566  60.770  1.00  0.00     0.006 C 
BRANCH   7   8
ATOM      8  C   UNL     1      62.554  28.652  59.807  1.00  0.00     0.053 C 
BRANCH   8   9
ATOM      9  C   UNL     1      63.807  28.187  60.478  1.00  0.00     0.041 C 
ATOM     10  O   UNL     1      63.917  26.991  60.857  1.00  0.00    -0.550 OA
ATOM     11  O   UNL     1      64.873  29.063  60.645  1.00  0.00    -0.550 OA
ENDBRANCH   8   9
ENDBRANCH   7   8
ENDBRANCH   6   7
ENDBRANCH   5   6
ENDBRANCH   4   5
ENDBRANCH   3   4
ENDBRANCH   2   3
ENDBRANCH   1   2
BRANCH   1  12
ATOM     12  C   UNL     1      62.780  33.194  57.241  1.00  0.00     0.000 C 
BRANCH  12  13
ATOM     13  C   UNL     1      63.470  34.499  57.668  1.00  0.00    -0.000 C 
BRANCH  13  14
ATOM     14  C   UNL     1      62.480  35.656  57.869  1.00  0.00    -0.000 C 
BRANCH  14  15
ATOM     15  C   UNL     1      61.191  35.166  58.541  1.00  0.00    -0.000 C 
BRANCH  15  16
ATOM     16  C   UNL     1      60.971  35.869  59.889  1.00  0.00    -0.000 C 
BRANCH  16  17
ATOM     17  C   UNL     1      62.163  35.700  60.845  1.00  0.00    -0.000 C 
BRANCH  17  18
ATOM     18  C   UNL     1      62.783  37.046  61.260  1.00  0.00    -0.000 C 
BRANCH  18  19
ATOM     19  C   UNL     1      64.221  36.894  61.781  1.00  0.00    -0.003 C 
ATOM     20  C   UNL     1      64.749  35.467  61.646  1.00  0.00     0.004 C 
ENDBRANCH  18  19
ENDBRANCH  17  18
ENDBRANCH  16  17
ENDBRANCH  15  16
ENDBRANCH  14  15
ENDBRANCH  13  14
ENDBRANCH  12  13
ENDBRANCH   1  12
TORSDOF 16
ENDMDL
MODEL 7
REMARK VINA RESULT:    -2.931     10.871     13.358
REMARK INTER + INTRA:          -8.577
REMARK INTER:                  -6.569
REMARK INTRA:                  -2.008
REMARK UNBOUND:                -2.904
REMARK SMILES CCCCCCCCCCCCCCCCCC(=O)[O-]
REMARK SMILES IDX 10 1 11 2 12 3 13 4 14 5 15 6 16 7 17 8 18 9 19 10 20 11
REMARK SMILES IDX 9 12 8 13 7 14 6 15 5 16 4 17 3 18 2 19 1 20
REMARK H PARENT
REMARK Flexibility Score: inf
ROOT
ATOM      1  C   UNL     1      59.172  24.034  52.299  1.00  0.00     0.000 C 
ENDROOT
BRANCH   1   2
ATOM      2  C   UNL     1      59.422  24.639  50.912  1.00  0.00     0.000 C 
BRANCH   2   3
ATOM      3  C   UNL     1      60.831  25.242  50.822  1.00  0.00     0.000 C 
BRANCH   3   4
ATOM      4  C   UNL     1      60.863  26.575  50.054  1.00  0.00     0.000 C 
BRANCH   4   5
ATOM      5  C   UNL     1      59.475  27.039  49.564  1.00  0.00     0.000 C 
BRANCH   5   6
ATOM      6  C   UNL     1      59.453  28.535  49.213  1.00  0.00     0.000 C 
BRANCH   6   7
ATOM      7  C   UNL     1      58.382  29.275  50.022  1.00  0.00     0.006 C 
BRANCH   7   8
ATOM      8  C   UNL     1      58.505  28.958  51.515  1.00  0.00     0.053 C 
BRANCH   8   9
ATOM      9  C   UNL     1      57.643  29.878  52.320  1.00  0.00     0.041 C 
ATOM     10  O   UNL     1      56.544  29.472  52.783  1.00  0.00    -0.550 OA
ATOM     11  O   UNL     1      58.074  31.169  52.599  1.00  0.00    -0.550 OA
ENDBRANCH   8   9
ENDBRANCH   7   8
ENDBRANCH   6   7
ENDBRANCH   5   6
ENDBRANCH   4   5
ENDBRANCH   3   4
ENDBRANCH   2   3
ENDBRANCH   1   2
BRANCH   1  12
ATOM     12  C   UNL     1      57.768  24.390  52.812  1.00  0.00     0.000 C 
BRANCH  12  13
ATOM     13  C   UNL     1      57.327  25.803  52.397  1.00  0.00    -0.000 C 
BRANCH  13  14
ATOM     14  C   UNL     1      55.965  25.815  51.687  1.00  0.00    -0.000 C 
BRANCH  14  15
ATOM     15  C   UNL     1      56.105  26.288  50.236  1.00  0.00    -0.000 C 
BRANCH  15  16
ATOM     16  C   UNL     1      54.778  26.134  49.476  1.00  0.00    -0.000 C 
BRANCH  16  17
ATOM     17  C   UNL     1      53.721  27.159  49.919  1.00  0.00    -0.000 C 
BRANCH  17  18
ATOM     18  C   UNL     1      54.332  28.531  50.254  1.00  0.00    -0.000 C 
BRANCH  18  19
ATOM     19  C   UNL     1      53.276  29.646  50.304  1.00  0.00    -0.003 C 
ATOM     20  C   UNL     1      53.495  30.613  51.468  1.00  0.00     0.004 C 
ENDBRANCH  18  19
ENDBRANCH  17  18
ENDBRANCH  16  17
ENDBRANCH  15  16
ENDBRANCH  14  15
ENDBRANCH  13  14
ENDBRANCH  12  13
ENDBRANCH   1  12
TORSDOF 16
ENDMDL
MODEL 8
REMARK VINA RESULT:    -2.929      1.151      2.797
REMARK INTER + INTRA:          -8.573
REMARK INTER:                  -6.033
REMARK INTRA:                  -2.540
REMARK UNBOUND:                -2.904
REMARK SMILES CCCCCCCCCCCCCCCCCC(=O)[O-]
REMARK SMILES IDX 10 1 11 2 12 3 13 4 14 5 15 6 16 7 17 8 18 9 19 10 20 11
REMARK SMILES IDX 9 12 8 13 7 14 6 15 5 16 4 17 3 18 2 19 1 20
REMARK H PARENT
REMARK Flexibility Score: inf
ROOT
ATOM      1  C   UNL     1      61.671  32.803  60.350  1.00  0.00     0.000 C 
ENDROOT
BRANCH   1   2
ATOM      2  C   UNL     1      60.790  31.550  60.422  1.00  0.00     0.000 C 
BRANCH   2   3
ATOM      3  C   UNL     1      61.255  30.615  61.547  1.00  0.00     0.000 C 
BRANCH   3   4
ATOM      4  C   UNL     1      61.435  29.161  61.080  1.00  0.00     0.000 C 
BRANCH   4   5
ATOM      5  C   UNL     1      62.895  28.665  61.151  1.00  0.00     0.000 C 
BRANCH   5   6
ATOM      6  C   UNL     1      63.734  29.159  59.963  1.00  0.00     0.000 C 
BRANCH   6   7
ATOM      7  C   UNL     1      65.026  29.830  60.444  1.00  0.00     0.006 C 
BRANCH   7   8
ATOM      8  C   UNL     1      65.922  30.208  59.261  1.00  0.00     0.053 C 
BRANCH   8   9
ATOM      9  C   UNL     1      67.162  29.371  59.253  1.00  0.00     0.041 C 
ATOM     10  O   UNL     1      68.163  29.728  58.578  1.00  0.00    -0.550 OA
ATOM     11  O   UNL     1      67.228  28.219  60.028  1.00  0.00    -0.550 OA
ENDBRANCH   8   9
ENDBRANCH   7   8
ENDBRANCH   6   7
ENDBRANCH   5   6
ENDBRANCH   4   5
ENDBRANCH   3   4
ENDBRANCH   2   3
ENDBRANCH   1   2
BRANCH   1  12
ATOM     12  C   UNL     1      62.667  32.710  59.184  1.00  0.00     0.000 C 
BRANCH  12  13
ATOM     13  C   UNL     1      64.039  33.311  59.528  1.00  0.00    -0.000 C 
BRANCH  13  14
ATOM     14  C   UNL     1      64.097  33.881  60.953  1.00  0.00    -0.000 C 
BRANCH  14  15
ATOM     15  C   UNL     1      64.778  35.254  60.969  1.00  0.00    -0.000 C 
BRANCH  15  16
ATOM     16  C   UNL     1      63.896  36.298  61.670  1.00  0.00    -0.000 C 
BRANCH  16  17
ATOM     17  C   UNL     1      62.486  36.385  61.063  1.00  0.00    -0.000 C 
BRANCH  17  18
ATOM     18  C   UNL     1      62.473  37.094  59.697  1.00  0.00    -0.000 C 
BRANCH  18  19
ATOM     19  C   UNL     1      61.727  36.286  58.624  1.00  0.00    -0.003 C 
ATOM     20  C   UNL     1      60.311  35.903  59.052  1.00  0.00     0.004 C 
ENDBRANCH  18  19
ENDBRANCH  17  18
ENDBRANCH  16  17
ENDBRANCH  15  16
ENDBRANCH  14  15
ENDBRANCH  13  14
ENDBRANCH  12  13
ENDBRANCH   1  12
TORSDOF 16
ENDMDL
MODEL 9
REMARK VINA RESULT:    -2.886      2.664      3.798
REMARK INTER + INTRA:          -8.490
REMARK INTER:                  -5.441
REMARK INTRA:                  -3.049
REMARK UNBOUND:                -2.904
REMARK SMILES CCCCCCCCCCCCCCCCCC(=O)[O-]
REMARK SMILES IDX 10 1 11 2 12 3 13 4 14 5 15 6 16 7 17 8 18 9 19 10 20 11
REMARK SMILES IDX 9 12 8 13 7 14 6 15 5 16 4 17 3 18 2 19 1 20
REMARK H PARENT
REMARK Flexibility Score: inf
ROOT
ATOM      1  C   UNL     1      61.637  32.820  57.650  1.00  0.00     0.000 C 
ENDROOT
BRANCH   1   2
ATOM      2  C   UNL     1      62.799  31.828  57.781  1.00  0.00     0.000 C 
BRANCH   2   3
ATOM      3  C   UNL     1      64.083  32.541  58.227  1.00  0.00     0.000 C 
BRANCH   3   4
ATOM      4  C   UNL     1      64.606  32.037  59.583  1.00  0.00     0.000 C 
BRANCH   4   5
ATOM      5  C   UNL     1      63.507  31.905  60.659  1.00  0.00     0.000 C 
BRANCH   5   6
ATOM      6  C   UNL     1      63.452  30.493  61.262  1.00  0.00     0.000 C 
BRANCH   6   7
ATOM      7  C   UNL     1      62.022  30.126  61.675  1.00  0.00     0.006 C 
BRANCH   7   8
ATOM      8  C   UNL     1      60.995  30.893  60.838  1.00  0.00     0.053 C 
BRANCH   8   9
ATOM      9  C   UNL     1      60.159  29.946  60.037  1.00  0.00     0.041 C 
ATOM     10  O   UNL     1      60.003  28.757  60.422  1.00  0.00    -0.550 OA
ATOM     11  O   UNL     1      59.514  30.388  58.889  1.00  0.00    -0.550 OA
ENDBRANCH   8   9
ENDBRANCH   7   8
ENDBRANCH   6   7
ENDBRANCH   5   6
ENDBRANCH   4   5
ENDBRANCH   3   4
ENDBRANCH   2   3
ENDBRANCH   1   2
BRANCH   1  12
ATOM     12  C   UNL     1      62.149  34.227  57.305  1.00  0.00     0.000 C 
BRANCH  12  13
ATOM     13  C   UNL     1      61.563  35.311  58.223  1.00  0.00    -0.000 C 
BRANCH  13  14
ATOM     14  C   UNL     1      61.340  34.816  59.659  1.00  0.00    -0.000 C 
BRANCH  14  15
ATOM     15  C   UNL     1      61.250  35.993  60.639  1.00  0.00    -0.000 C 
BRANCH  15  16
ATOM     16  C   UNL     1      62.641  36.579  60.924  1.00  0.00    -0.000 C 
BRANCH  16  17
ATOM     17  C   UNL     1      63.676  35.500  61.281  1.00  0.00    -0.000 C 
BRANCH  17  18
ATOM     18  C   UNL     1      65.016  35.702  60.550  1.00  0.00    -0.000 C 
BRANCH  18  19
ATOM     19  C   UNL     1      64.906  36.704  59.390  1.00  0.00    -0.003 C 
ATOM     20  C   UNL     1      65.260  36.083  58.039  1.00  0.00     0.004 C 
ENDBRANCH  18  19
ENDBRANCH  17  18
ENDBRANCH  16  17
ENDBRANCH  15  16
ENDBRANCH  14  15
ENDBRANCH  13  14
ENDBRANCH  12  13
ENDBRANCH   1  12
TORSDOF 16
ENDMDL
