MODEL 1
REMARK VINA RESULT:    -8.806      0.000      0.000
REMARK INTER + INTRA:         -13.336
REMARK INTER:                 -12.152
REMARK INTRA:                  -1.184
REMARK UNBOUND:                -1.184
REMARK SMILES O=C([O-])[C@H]1O[C@H](Oc2cc3oc(-c4ccccc4)cc(=O)c3c(O)c2O)[C@@H](O)[C@H](O)[C@@H]1O
REMARK SMILES IDX 7 1 6 2 4 3 31 4 5 5 29 6 27 7 2 8 1 9 3 10 32 11 30 13
REMARK SMILES IDX 28 15 8 17 25 18 9 19 23 20 10 21 22 22 11 23 20 24 12 25
REMARK SMILES IDX 19 26 21 27 26 28 24 30 13 32 14 33 18 34 15 35 17 36 16 37
REMARK H PARENT 32 12 30 14 28 16 26 29 24 31
REMARK Flexibility Score: inf
ROOT
ATOM      1  O   UNL     1      13.206  46.494   6.341  1.00  0.00    -0.458 OA
ENDROOT
BRANCH   1   2
ATOM      2  C   UNL     1      13.820  45.808   5.245  1.00  0.00     0.339 C 
ATOM      3  C   UNL     1      15.166  44.352   6.510  1.00  0.00     0.199 C 
ATOM      4  C   UNL     1      14.599  43.040   5.888  1.00  0.00     0.180 C 
ATOM      5  O   UNL     1      15.150  45.412   5.570  1.00  0.00    -0.328 OA
ATOM      6  C   UNL     1      13.795  43.352   4.608  1.00  0.00     0.181 C 
ATOM      7  C   UNL     1      12.927  44.605   4.819  1.00  0.00     0.214 C 
BRANCH   3   8
ATOM      8  C   UNL     1      16.587  44.150   6.954  1.00  0.00     0.073 C 
ATOM      9  O   UNL     1      16.991  43.002   7.280  1.00  0.00    -0.547 OA
ATOM     10  O   UNL     1      17.472  45.223   6.995  1.00  0.00    -0.547 OA
ENDBRANCH   3   8
BRANCH   4  11
ATOM     11  O   UNL     1      13.781  42.379   6.823  1.00  0.00    -0.387 OA
ATOM     12  H   UNL     1      13.225  41.737   6.313  1.00  0.00     0.211 HD
ENDBRANCH   4  11
BRANCH   6  13
ATOM     13  O   UNL     1      12.993  42.249   4.259  1.00  0.00    -0.387 OA
ATOM     14  H   UNL     1      13.539  41.674   3.668  1.00  0.00     0.211 HD
ENDBRANCH   6  13
BRANCH   7  15
ATOM     15  O   UNL     1      12.238  44.906   3.630  1.00  0.00    -0.384 OA
ATOM     16  H   UNL     1      12.537  44.244   2.950  1.00  0.00     0.211 HD
ENDBRANCH   7  15
ENDBRANCH   1   2
BRANCH   1  17
ATOM     17  C   UNL     1      11.866  46.383   6.770  1.00  0.00     0.172 A 
ATOM     18  C   UNL     1      10.751  46.864   6.042  1.00  0.00     0.201 A 
ATOM     19  C   UNL     1      11.666  45.762   8.003  1.00  0.00     0.098 A 
ATOM     20  C   UNL     1       9.441  46.698   6.571  1.00  0.00     0.176 A 
ATOM     21  C   UNL     1      10.389  45.567   8.513  1.00  0.00     0.146 A 
ATOM     22  C   UNL     1       9.263  46.045   7.815  1.00  0.00     0.111 A 
ATOM     23  O   UNL     1      10.249  44.912   9.662  1.00  0.00    -0.456 OA
ATOM     24  C   UNL     1       7.998  45.839   8.405  1.00  0.00     0.197 A 
ATOM     25  C   UNL     1       9.071  44.664  10.223  1.00  0.00     0.138 A 
ATOM     26  C   UNL     1       7.899  45.145   9.611  1.00  0.00     0.100 A 
ATOM     27  O   UNL     1       6.941  46.289   7.880  1.00  0.00    -0.289 OA
BRANCH  18  28
ATOM     28  O   UNL     1      10.965  47.512   4.824  1.00  0.00    -0.502 OA
ATOM     29  H   UNL     1      11.413  47.105   4.020  1.00  0.00     0.293 HD
ENDBRANCH  18  28
BRANCH  20  30
ATOM     30  O   UNL     1       8.308  47.162   5.887  1.00  0.00    -0.504 OA
ATOM     31  H   UNL     1       8.313  47.900   5.199  1.00  0.00     0.293 HD
ENDBRANCH  20  30
BRANCH  25  32
ATOM     32  C   UNL     1       9.035  43.884  11.486  1.00  0.00     0.017 A 
ATOM     33  C   UNL     1      10.191  43.713  12.280  1.00  0.00     0.012 A 
ATOM     34  C   UNL     1       7.812  43.351  11.939  1.00  0.00     0.012 A 
ATOM     35  C   UNL     1      10.116  43.029  13.497  1.00  0.00     0.001 A 
ATOM     36  C   UNL     1       7.745  42.665  13.155  1.00  0.00     0.001 A 
ATOM     37  C   UNL     1       8.892  42.514  13.938  1.00  0.00     0.000 A 
ENDBRANCH  25  32
ENDBRANCH   1  17
TORSDOF 9
ENDMDL
MODEL 2
REMARK VINA RESULT:    -8.790      2.318      3.979
REMARK INTER + INTRA:         -13.314
REMARK INTER:                 -12.179
REMARK INTRA:                  -1.135
REMARK UNBOUND:                -1.184
REMARK SMILES O=C([O-])[C@H]1O[C@H](Oc2cc3oc(-c4ccccc4)cc(=O)c3c(O)c2O)[C@@H](O)[C@H](O)[C@@H]1O
REMARK SMILES IDX 7 1 6 2 4 3 31 4 5 5 29 6 27 7 2 8 1 9 3 10 32 11 30 13
REMARK SMILES IDX 28 15 8 17 25 18 9 19 23 20 10 21 22 22 11 23 20 24 12 25
REMARK SMILES IDX 19 26 21 27 26 28 24 30 13 32 14 33 18 34 15 35 17 36 16 37
REMARK H PARENT 32 12 30 14 28 16 26 29 24 31
REMARK Flexibility Score: inf
ROOT
ATOM      1  O   UNL     1      14.384  45.408   7.845  1.00  0.00    -0.458 OA
ENDROOT
BRANCH   1   2
ATOM      2  C   UNL     1      14.794  44.037   7.866  1.00  0.00     0.339 C 
ATOM      3  C   UNL     1      16.154  44.093   5.949  1.00  0.00     0.199 C 
ATOM      4  C   UNL     1      17.446  43.590   6.663  1.00  0.00     0.180 C 
ATOM      5  O   UNL     1      14.993  43.542   6.545  1.00  0.00    -0.328 OA
ATOM      6  C   UNL     1      17.103  43.003   8.049  1.00  0.00     0.181 C 
ATOM      7  C   UNL     1      16.063  43.888   8.757  1.00  0.00     0.214 C 
BRANCH   3   8
ATOM      8  C   UNL     1      16.166  43.691   4.502  1.00  0.00     0.073 C 
ATOM      9  O   UNL     1      17.115  43.000   4.044  1.00  0.00    -0.547 OA
ATOM     10  O   UNL     1      15.124  44.065   3.658  1.00  0.00    -0.547 OA
ENDBRANCH   3   8
BRANCH   4  11
ATOM     11  O   UNL     1      18.362  44.649   6.801  1.00  0.00    -0.387 OA
ATOM     12  H   UNL     1      18.199  45.268   6.045  1.00  0.00     0.211 HD
ENDBRANCH   4  11
BRANCH   6  13
ATOM     13  O   UNL     1      18.269  42.892   8.829  1.00  0.00    -0.387 OA
ATOM     14  H   UNL     1      19.036  42.924   8.204  1.00  0.00     0.211 HD
ENDBRANCH   6  13
BRANCH   7  15
ATOM     15  O   UNL     1      15.723  43.315   9.996  1.00  0.00    -0.384 OA
ATOM     16  H   UNL     1      16.142  42.413  10.019  1.00  0.00     0.211 HD
ENDBRANCH   7  15
ENDBRANCH   1   2
BRANCH   1  17
ATOM     17  C   UNL     1      13.199  45.934   7.286  1.00  0.00     0.172 A 
ATOM     18  C   UNL     1      13.095  46.452   5.973  1.00  0.00     0.201 A 
ATOM     19  C   UNL     1      12.078  45.936   8.117  1.00  0.00     0.098 A 
ATOM     20  C   UNL     1      11.848  46.957   5.513  1.00  0.00     0.176 A 
ATOM     21  C   UNL     1      10.848  46.397   7.667  1.00  0.00     0.146 A 
ATOM     22  C   UNL     1      10.719  46.928   6.368  1.00  0.00     0.111 A 
ATOM     23  O   UNL     1       9.796  46.316   8.477  1.00  0.00    -0.456 OA
ATOM     24  C   UNL     1       9.448  47.407   5.987  1.00  0.00     0.197 A 
ATOM     25  C   UNL     1       8.578  46.719   8.133  1.00  0.00     0.138 A 
ATOM     26  C   UNL     1       8.373  47.301   6.869  1.00  0.00     0.100 A 
ATOM     27  O   UNL     1       9.256  47.956   4.865  1.00  0.00    -0.289 OA
BRANCH  18  28
ATOM     28  O   UNL     1      14.230  46.474   5.162  1.00  0.00    -0.502 OA
ATOM     29  H   UNL     1      14.799  47.284   4.978  1.00  0.00     0.293 HD
ENDBRANCH  18  28
BRANCH  20  30
ATOM     30  O   UNL     1      11.699  47.484   4.222  1.00  0.00    -0.504 OA
ATOM     31  H   UNL     1      10.819  47.577   3.737  1.00  0.00     0.293 HD
ENDBRANCH  20  30
BRANCH  25  32
ATOM     32  C   UNL     1       7.470  46.539   9.105  1.00  0.00     0.017 A 
ATOM     33  C   UNL     1       6.544  47.573   9.368  1.00  0.00     0.012 A 
ATOM     34  C   UNL     1       7.296  45.292   9.738  1.00  0.00     0.012 A 
ATOM     35  C   UNL     1       5.472  47.356  10.239  1.00  0.00     0.001 A 
ATOM     36  C   UNL     1       6.224  45.083  10.611  1.00  0.00     0.001 A 
ATOM     37  C   UNL     1       5.308  46.109  10.852  1.00  0.00     0.000 A 
ENDBRANCH  25  32
ENDBRANCH   1  17
TORSDOF 9
ENDMDL
MODEL 3
REMARK VINA RESULT:    -8.765      1.686      2.179
REMARK INTER + INTRA:         -13.280
REMARK INTER:                 -12.332
REMARK INTRA:                  -0.947
REMARK UNBOUND:                -1.184
REMARK SMILES O=C([O-])[C@H]1O[C@H](Oc2cc3oc(-c4ccccc4)cc(=O)c3c(O)c2O)[C@@H](O)[C@H](O)[C@@H]1O
REMARK SMILES IDX 7 1 6 2 4 3 31 4 5 5 29 6 27 7 2 8 1 9 3 10 32 11 30 13
REMARK SMILES IDX 28 15 8 17 25 18 9 19 23 20 10 21 22 22 11 23 20 24 12 25
REMARK SMILES IDX 19 26 21 27 26 28 24 30 13 32 14 33 18 34 15 35 17 36 16 37
REMARK H PARENT 32 12 30 14 28 16 26 29 24 31
REMARK Flexibility Score: inf
ROOT
ATOM      1  O   UNL     1      13.211  44.895   5.602  1.00  0.00    -0.458 OA
ENDROOT
BRANCH   1   2
ATOM      2  C   UNL     1      14.566  45.337   5.724  1.00  0.00     0.339 C 
ATOM      3  C   UNL     1      15.274  43.733   7.290  1.00  0.00     0.199 C 
ATOM      4  C   UNL     1      16.443  43.176   6.421  1.00  0.00     0.180 C 
ATOM      5  O   UNL     1      15.062  45.111   7.040  1.00  0.00    -0.328 OA
ATOM      6  C   UNL     1      16.748  44.133   5.250  1.00  0.00     0.181 C 
ATOM      7  C   UNL     1      15.437  44.649   4.632  1.00  0.00     0.214 C 
BRANCH   3   8
ATOM      8  C   UNL     1      15.582  43.570   8.751  1.00  0.00     0.073 C 
ATOM      9  O   UNL     1      14.827  42.877   9.484  1.00  0.00    -0.547 OA
ATOM     10  O   UNL     1      16.711  44.168   9.304  1.00  0.00    -0.547 OA
ENDBRANCH   3   8
BRANCH   4  11
ATOM     11  O   UNL     1      16.112  41.901   5.929  1.00  0.00    -0.387 OA
ATOM     12  H   UNL     1      15.818  41.362   6.707  1.00  0.00     0.211 HD
ENDBRANCH   4  11
BRANCH   6  13
ATOM     13  O   UNL     1      17.527  43.477   4.279  1.00  0.00    -0.387 OA
ATOM     14  H   UNL     1      17.606  44.094   3.510  1.00  0.00     0.211 HD
ENDBRANCH   6  13
BRANCH   7  15
ATOM     15  O   UNL     1      15.730  45.558   3.598  1.00  0.00    -0.384 OA
ATOM     16  H   UNL     1      15.729  45.037   2.750  1.00  0.00     0.211 HD
ENDBRANCH   7  15
ENDBRANCH   1   2
BRANCH   1  17
ATOM     17  C   UNL     1      12.051  45.577   6.031  1.00  0.00     0.172 A 
ATOM     18  C   UNL     1      11.443  46.642   5.326  1.00  0.00     0.201 A 
ATOM     19  C   UNL     1      11.502  45.151   7.241  1.00  0.00     0.098 A 
ATOM     20  C   UNL     1      10.274  47.257   5.852  1.00  0.00     0.176 A 
ATOM     21  C   UNL     1      10.343  45.724   7.748  1.00  0.00     0.146 A 
ATOM     22  C   UNL     1       9.723  46.793   7.071  1.00  0.00     0.111 A 
ATOM     23  O   UNL     1       9.824  45.237   8.871  1.00  0.00    -0.456 OA
ATOM     24  C   UNL     1       8.565  47.347   7.657  1.00  0.00     0.197 A 
ATOM     25  C   UNL     1       8.713  45.709   9.426  1.00  0.00     0.138 A 
ATOM     26  C   UNL     1       8.056  46.804   8.837  1.00  0.00     0.100 A 
ATOM     27  O   UNL     1       7.982  48.347   7.153  1.00  0.00    -0.289 OA
BRANCH  18  28
ATOM     28  O   UNL     1      12.018  47.080   4.132  1.00  0.00    -0.502 OA
ATOM     29  H   UNL     1      12.924  47.513   4.047  1.00  0.00     0.293 HD
ENDBRANCH  18  28
BRANCH  20  30
ATOM     30  O   UNL     1       9.639  48.318   5.190  1.00  0.00    -0.504 OA
ATOM     31  H   UNL     1       9.866  49.293   5.315  1.00  0.00     0.293 HD
ENDBRANCH  20  30
BRANCH  25  32
ATOM     32  C   UNL     1       8.203  45.057  10.659  1.00  0.00     0.017 A 
ATOM     33  C   UNL     1       8.147  43.650  10.781  1.00  0.00     0.012 A 
ATOM     34  C   UNL     1       7.821  45.851  11.758  1.00  0.00     0.012 A 
ATOM     35  C   UNL     1       7.724  43.061  11.977  1.00  0.00     0.001 A 
ATOM     36  C   UNL     1       7.395  45.256  12.950  1.00  0.00     0.001 A 
ATOM     37  C   UNL     1       7.357  43.864  13.062  1.00  0.00     0.000 A 
ENDBRANCH  25  32
ENDBRANCH   1  17
TORSDOF 9
ENDMDL
MODEL 4
REMARK VINA RESULT:    -8.749      1.569      3.019
REMARK INTER + INTRA:         -13.258
REMARK INTER:                 -12.304
REMARK INTRA:                  -0.953
REMARK UNBOUND:                -1.184
REMARK SMILES O=C([O-])[C@H]1O[C@H](Oc2cc3oc(-c4ccccc4)cc(=O)c3c(O)c2O)[C@@H](O)[C@H](O)[C@@H]1O
REMARK SMILES IDX 7 1 6 2 4 3 31 4 5 5 29 6 27 7 2 8 1 9 3 10 32 11 30 13
REMARK SMILES IDX 28 15 8 17 25 18 9 19 23 20 10 21 22 22 11 23 20 24 12 25
REMARK SMILES IDX 19 26 21 27 26 28 24 30 13 32 14 33 18 34 15 35 17 36 16 37
REMARK H PARENT 32 12 30 14 28 16 26 29 24 31
REMARK Flexibility Score: inf
ROOT
ATOM      1  O   UNL     1      14.156  45.194   7.599  1.00  0.00    -0.458 OA
ENDROOT
BRANCH   1   2
ATOM      2  C   UNL     1      14.716  43.881   7.693  1.00  0.00     0.339 C 
ATOM      3  C   UNL     1      16.188  44.043   5.867  1.00  0.00     0.199 C 
ATOM      4  C   UNL     1      17.478  43.713   6.680  1.00  0.00     0.180 C 
ATOM      5  O   UNL     1      15.059  43.378   6.406  1.00  0.00    -0.328 OA
ATOM      6  C   UNL     1      17.111  43.127   8.059  1.00  0.00     0.181 C 
ATOM      7  C   UNL     1      15.931  43.903   8.668  1.00  0.00     0.214 C 
BRANCH   3   8
ATOM      8  C   UNL     1      16.343  43.608   4.438  1.00  0.00     0.073 C 
ATOM      9  O   UNL     1      17.490  43.381   3.966  1.00  0.00    -0.547 OA
ATOM     10  O   UNL     1      15.225  43.437   3.627  1.00  0.00    -0.547 OA
ENDBRANCH   3   8
BRANCH   4  11
ATOM     11  O   UNL     1      18.256  44.874   6.839  1.00  0.00    -0.387 OA
ATOM     12  H   UNL     1      18.759  44.767   7.686  1.00  0.00     0.211 HD
ENDBRANCH   4  11
BRANCH   6  13
ATOM     13  O   UNL     1      18.227  43.172   8.916  1.00  0.00    -0.387 OA
ATOM     14  H   UNL     1      18.202  44.050   9.372  1.00  0.00     0.211 HD
ENDBRANCH   6  13
BRANCH   7  15
ATOM     15  O   UNL     1      15.575  43.328   9.902  1.00  0.00    -0.384 OA
ATOM     16  H   UNL     1      14.586  43.220   9.894  1.00  0.00     0.211 HD
ENDBRANCH   7  15
ENDBRANCH   1   2
BRANCH   1  17
ATOM     17  C   UNL     1      12.786  45.537   7.603  1.00  0.00     0.172 A 
ATOM     18  C   UNL     1      12.129  46.217   6.550  1.00  0.00     0.201 A 
ATOM     19  C   UNL     1      12.067  45.174   8.742  1.00  0.00     0.098 A 
ATOM     20  C   UNL     1      10.743  46.512   6.661  1.00  0.00     0.176 A 
ATOM     21  C   UNL     1      10.705  45.429   8.846  1.00  0.00     0.146 A 
ATOM     22  C   UNL     1      10.029  46.114   7.817  1.00  0.00     0.111 A 
ATOM     23  O   UNL     1      10.053  45.004   9.924  1.00  0.00    -0.456 OA
ATOM     24  C   UNL     1       8.653  46.366   8.001  1.00  0.00     0.197 A 
ATOM     25  C   UNL     1       8.750  45.188  10.108  1.00  0.00     0.138 A 
ATOM     26  C   UNL     1       8.009  45.901   9.149  1.00  0.00     0.100 A 
ATOM     27  O   UNL     1       7.983  47.028   7.160  1.00  0.00    -0.289 OA
BRANCH  18  28
ATOM     28  O   UNL     1      12.866  46.603   5.429  1.00  0.00    -0.502 OA
ATOM     29  H   UNL     1      13.870  46.659   5.384  1.00  0.00     0.293 HD
ENDBRANCH  18  28
BRANCH  20  30
ATOM     30  O   UNL     1      10.051  47.187   5.645  1.00  0.00    -0.504 OA
ATOM     31  H   UNL     1       9.267  46.811   5.133  1.00  0.00     0.293 HD
ENDBRANCH  20  30
BRANCH  25  32
ATOM     32  C   UNL     1       8.120  44.631  11.332  1.00  0.00     0.017 A 
ATOM     33  C   UNL     1       8.397  43.317  11.771  1.00  0.00     0.012 A 
ATOM     34  C   UNL     1       7.274  45.445  12.111  1.00  0.00     0.012 A 
ATOM     35  C   UNL     1       7.841  42.838  12.962  1.00  0.00     0.001 A 
ATOM     36  C   UNL     1       6.719  44.960  13.299  1.00  0.00     0.001 A 
ATOM     37  C   UNL     1       7.011  43.663  13.729  1.00  0.00     0.000 A 
ENDBRANCH  25  32
ENDBRANCH   1  17
TORSDOF 9
ENDMDL
MODEL 5
REMARK VINA RESULT:    -8.677      1.975      4.161
REMARK INTER + INTRA:         -13.158
REMARK INTER:                 -12.379
REMARK INTRA:                  -0.778
REMARK UNBOUND:                -1.184
REMARK SMILES O=C([O-])[C@H]1O[C@H](Oc2cc3oc(-c4ccccc4)cc(=O)c3c(O)c2O)[C@@H](O)[C@H](O)[C@@H]1O
REMARK SMILES IDX 7 1 6 2 4 3 31 4 5 5 29 6 27 7 2 8 1 9 3 10 32 11 30 13
REMARK SMILES IDX 28 15 8 17 25 18 9 19 23 20 10 21 22 22 11 23 20 24 12 25
REMARK SMILES IDX 19 26 21 27 26 28 24 30 13 32 14 33 18 34 15 35 17 36 16 37
REMARK H PARENT 32 12 30 14 28 16 26 29 24 31
REMARK Flexibility Score: inf
ROOT
ATOM      1  O   UNL     1      13.159  46.407   6.494  1.00  0.00    -0.458 OA
ENDROOT
BRANCH   1   2
ATOM      2  C   UNL     1      13.781  45.841   5.335  1.00  0.00     0.339 C 
ATOM      3  C   UNL     1      15.373  44.522   6.453  1.00  0.00     0.199 C 
ATOM      4  C   UNL     1      14.931  43.171   5.811  1.00  0.00     0.180 C 
ATOM      5  O   UNL     1      15.166  45.604   5.562  1.00  0.00    -0.328 OA
ATOM      6  C   UNL     1      14.014  43.425   4.596  1.00  0.00     0.181 C 
ATOM      7  C   UNL     1      13.015  44.552   4.912  1.00  0.00     0.214 C 
BRANCH   3   8
ATOM      8  C   UNL     1      16.833  44.483   6.803  1.00  0.00     0.073 C 
ATOM      9  O   UNL     1      17.265  45.136   7.790  1.00  0.00    -0.547 OA
ATOM     10  O   UNL     1      17.718  43.715   6.051  1.00  0.00    -0.547 OA
ENDBRANCH   3   8
BRANCH   4  11
ATOM     11  O   UNL     1      14.262  42.382   6.764  1.00  0.00    -0.387 OA
ATOM     12  H   UNL     1      14.173  42.934   7.581  1.00  0.00     0.211 HD
ENDBRANCH   4  11
BRANCH   6  13
ATOM     13  O   UNL     1      13.333  42.244   4.249  1.00  0.00    -0.387 OA
ATOM     14  H   UNL     1      13.009  41.842   5.093  1.00  0.00     0.211 HD
ENDBRANCH   6  13
BRANCH   7  15
ATOM     15  O   UNL     1      12.219  44.807   3.780  1.00  0.00    -0.384 OA
ATOM     16  H   UNL     1      11.627  45.572   4.013  1.00  0.00     0.211 HD
ENDBRANCH   7  15
ENDBRANCH   1   2
BRANCH   1  17
ATOM     17  C   UNL     1      12.145  45.825   7.285  1.00  0.00     0.172 A 
ATOM     18  C   UNL     1      12.382  45.080   8.466  1.00  0.00     0.201 A 
ATOM     19  C   UNL     1      10.837  46.007   6.838  1.00  0.00     0.098 A 
ATOM     20  C   UNL     1      11.283  44.538   9.187  1.00  0.00     0.176 A 
ATOM     21  C   UNL     1       9.755  45.509   7.552  1.00  0.00     0.146 A 
ATOM     22  C   UNL     1       9.962  44.756   8.724  1.00  0.00     0.111 A 
ATOM     23  O   UNL     1       8.524  45.767   7.117  1.00  0.00    -0.456 OA
ATOM     24  C   UNL     1       8.820  44.255   9.384  1.00  0.00     0.197 A 
ATOM     25  C   UNL     1       7.428  45.346   7.738  1.00  0.00     0.138 A 
ATOM     26  C   UNL     1       7.548  44.551   8.891  1.00  0.00     0.100 A 
ATOM     27  O   UNL     1       8.914  43.517  10.405  1.00  0.00    -0.289 OA
BRANCH  18  28
ATOM     28  O   UNL     1      13.697  44.878   8.887  1.00  0.00    -0.502 OA
ATOM     29  H   UNL     1      13.976  44.613   9.817  1.00  0.00     0.293 HD
ENDBRANCH  18  28
BRANCH  20  30
ATOM     30  O   UNL     1      11.469  43.792  10.359  1.00  0.00    -0.504 OA
ATOM     31  H   UNL     1      10.962  42.950  10.593  1.00  0.00     0.293 HD
ENDBRANCH  20  30
BRANCH  25  32
ATOM     32  C   UNL     1       6.106  45.732   7.183  1.00  0.00     0.017 A 
ATOM     33  C   UNL     1       5.978  46.772   6.235  1.00  0.00     0.012 A 
ATOM     34  C   UNL     1       4.956  45.011   7.561  1.00  0.00     0.012 A 
ATOM     35  C   UNL     1       4.731  47.073   5.680  1.00  0.00     0.001 A 
ATOM     36  C   UNL     1       3.711  45.319   7.005  1.00  0.00     0.001 A 
ATOM     37  C   UNL     1       3.600  46.340   6.059  1.00  0.00     0.000 A 
ENDBRANCH  25  32
ENDBRANCH   1  17
TORSDOF 9
ENDMDL
MODEL 6
REMARK VINA RESULT:    -8.649      1.321      2.972
REMARK INTER + INTRA:         -13.119
REMARK INTER:                 -12.292
REMARK INTRA:                  -0.827
REMARK UNBOUND:                -1.184
REMARK SMILES O=C([O-])[C@H]1O[C@H](Oc2cc3oc(-c4ccccc4)cc(=O)c3c(O)c2O)[C@@H](O)[C@H](O)[C@@H]1O
REMARK SMILES IDX 7 1 6 2 4 3 31 4 5 5 29 6 27 7 2 8 1 9 3 10 32 11 30 13
REMARK SMILES IDX 28 15 8 17 25 18 9 19 23 20 10 21 22 22 11 23 20 24 12 25
REMARK SMILES IDX 19 26 21 27 26 28 24 30 13 32 14 33 18 34 15 35 17 36 16 37
REMARK H PARENT 32 12 30 14 28 16 26 29 24 31
REMARK Flexibility Score: inf
ROOT
ATOM      1  O   UNL     1      14.702  45.512   6.917  1.00  0.00    -0.458 OA
ENDROOT
BRANCH   1   2
ATOM      2  C   UNL     1      15.323  44.239   6.714  1.00  0.00     0.339 C 
ATOM      3  C   UNL     1      14.112  43.607   4.801  1.00  0.00     0.199 C 
ATOM      4  C   UNL     1      15.362  43.393   3.892  1.00  0.00     0.180 C 
ATOM      5  O   UNL     1      14.406  43.305   6.154  1.00  0.00    -0.328 OA
ATOM      6  C   UNL     1      16.647  43.339   4.745  1.00  0.00     0.181 C 
ATOM      7  C   UNL     1      16.601  44.418   5.841  1.00  0.00     0.214 C 
BRANCH   3   8
ATOM      8  C   UNL     1      12.986  42.715   4.362  1.00  0.00     0.073 C 
ATOM      9  O   UNL     1      12.264  42.139   5.219  1.00  0.00    -0.547 OA
ATOM     10  O   UNL     1      12.721  42.527   3.008  1.00  0.00    -0.547 OA
ENDBRANCH   3   8
BRANCH   4  11
ATOM     11  O   UNL     1      15.452  44.430   2.947  1.00  0.00    -0.387 OA
ATOM     12  H   UNL     1      14.743  44.268   2.275  1.00  0.00     0.211 HD
ENDBRANCH   4  11
BRANCH   6  13
ATOM     13  O   UNL     1      17.778  43.514   3.927  1.00  0.00    -0.387 OA
ATOM     14  H   UNL     1      17.584  43.059   3.070  1.00  0.00     0.211 HD
ENDBRANCH   6  13
BRANCH   7  15
ATOM     15  O   UNL     1      17.755  44.325   6.641  1.00  0.00    -0.384 OA
ATOM     16  H   UNL     1      17.725  43.434   7.085  1.00  0.00     0.211 HD
ENDBRANCH   7  15
ENDBRANCH   1   2
BRANCH   1  17
ATOM     17  C   UNL     1      13.329  45.765   7.127  1.00  0.00     0.172 A 
ATOM     18  C   UNL     1      12.518  46.541   6.264  1.00  0.00     0.201 A 
ATOM     19  C   UNL     1      12.770  45.205   8.276  1.00  0.00     0.098 A 
ATOM     20  C   UNL     1      11.144  46.731   6.573  1.00  0.00     0.176 A 
ATOM     21  C   UNL     1      11.422  45.358   8.570  1.00  0.00     0.146 A 
ATOM     22  C   UNL     1      10.594  46.134   7.734  1.00  0.00     0.111 A 
ATOM     23  O   UNL     1      10.925  44.749   9.643  1.00  0.00    -0.456 OA
ATOM     24  C   UNL     1       9.241  46.273   8.108  1.00  0.00     0.197 A 
ATOM     25  C   UNL     1       9.647  44.824   9.999  1.00  0.00     0.138 A 
ATOM     26  C   UNL     1       8.764  45.615   9.243  1.00  0.00     0.100 A 
ATOM     27  O   UNL     1       8.444  47.001   7.453  1.00  0.00    -0.289 OA
BRANCH  18  28
ATOM     28  O   UNL     1      13.095  47.123   5.134  1.00  0.00    -0.502 OA
ATOM     29  H   UNL     1      14.039  46.972   4.819  1.00  0.00     0.293 HD
ENDBRANCH  18  28
BRANCH  20  30
ATOM     30  O   UNL     1      10.304  47.495   5.750  1.00  0.00    -0.504 OA
ATOM     31  H   UNL     1      10.298  48.504   5.711  1.00  0.00     0.293 HD
ENDBRANCH  20  30
BRANCH  25  32
ATOM     32  C   UNL     1       9.197  44.066  11.194  1.00  0.00     0.017 A 
ATOM     33  C   UNL     1       7.882  43.561  11.294  1.00  0.00     0.012 A 
ATOM     34  C   UNL     1      10.114  43.789  12.227  1.00  0.00     0.012 A 
ATOM     35  C   UNL     1       7.502  42.794  12.401  1.00  0.00     0.001 A 
ATOM     36  C   UNL     1       9.727  43.025  13.333  1.00  0.00     0.001 A 
ATOM     37  C   UNL     1       8.428  42.520  13.414  1.00  0.00     0.000 A 
ENDBRANCH  25  32
ENDBRANCH   1  17
TORSDOF 9
ENDMDL
MODEL 7
REMARK VINA RESULT:    -8.413      2.920      7.633
REMARK INTER + INTRA:         -12.793
REMARK INTER:                 -11.567
REMARK INTRA:                  -1.226
REMARK UNBOUND:                -1.184
REMARK SMILES O=C([O-])[C@H]1O[C@H](Oc2cc3oc(-c4ccccc4)cc(=O)c3c(O)c2O)[C@@H](O)[C@H](O)[C@@H]1O
REMARK SMILES IDX 7 1 6 2 4 3 31 4 5 5 29 6 27 7 2 8 1 9 3 10 32 11 30 13
REMARK SMILES IDX 28 15 8 17 25 18 9 19 23 20 10 21 22 22 11 23 20 24 12 25
REMARK SMILES IDX 19 26 21 27 26 28 24 30 13 32 14 33 18 34 15 35 17 36 16 37
REMARK H PARENT 32 12 30 14 28 16 26 29 24 31
REMARK Flexibility Score: inf
ROOT
ATOM      1  O   UNL     1       8.954  46.775   8.256  1.00  0.00    -0.458 OA
ENDROOT
BRANCH   1   2
ATOM      2  C   UNL     1       7.855  45.907   8.550  1.00  0.00     0.339 C 
ATOM      3  C   UNL     1       6.146  47.272   7.687  1.00  0.00     0.199 C 
ATOM      4  C   UNL     1       5.594  46.211   6.686  1.00  0.00     0.180 C 
ATOM      5  O   UNL     1       6.678  46.654   8.845  1.00  0.00    -0.328 OA
ATOM      6  C   UNL     1       6.155  44.813   7.017  1.00  0.00     0.181 C 
ATOM      7  C   UNL     1       7.649  44.911   7.370  1.00  0.00     0.214 C 
BRANCH   3   8
ATOM      8  C   UNL     1       5.050  48.203   8.121  1.00  0.00     0.073 C 
ATOM      9  O   UNL     1       4.150  48.543   7.309  1.00  0.00    -0.547 OA
ATOM     10  O   UNL     1       5.011  48.685   9.426  1.00  0.00    -0.547 OA
ENDBRANCH   3   8
BRANCH   4  11
ATOM     11  O   UNL     1       5.935  46.569   5.369  1.00  0.00    -0.387 OA
ATOM     12  H   UNL     1       5.591  45.852   4.779  1.00  0.00     0.211 HD
ENDBRANCH   4  11
BRANCH   6  13
ATOM     13  O   UNL     1       5.962  43.944   5.927  1.00  0.00    -0.387 OA
ATOM     14  H   UNL     1       5.192  43.366   6.155  1.00  0.00     0.211 HD
ENDBRANCH   6  13
BRANCH   7  15
ATOM     15  O   UNL     1       8.136  43.637   7.717  1.00  0.00    -0.384 OA
ATOM     16  H   UNL     1       7.348  43.030   7.754  1.00  0.00     0.211 HD
ENDBRANCH   7  15
ENDBRANCH   1   2
BRANCH   1  17
ATOM     17  C   UNL     1       9.983  46.556   7.314  1.00  0.00     0.172 A 
ATOM     18  C   UNL     1       9.947  47.003   5.972  1.00  0.00     0.201 A 
ATOM     19  C   UNL     1      11.089  45.838   7.770  1.00  0.00     0.098 A 
ATOM     20  C   UNL     1      11.042  46.726   5.108  1.00  0.00     0.176 A 
ATOM     21  C   UNL     1      12.178  45.590   6.944  1.00  0.00     0.146 A 
ATOM     22  C   UNL     1      12.163  46.014   5.601  1.00  0.00     0.111 A 
ATOM     23  O   UNL     1      13.235  44.958   7.447  1.00  0.00    -0.456 OA
ATOM     24  C   UNL     1      13.289  45.703   4.810  1.00  0.00     0.197 A 
ATOM     25  C   UNL     1      14.327  44.687   6.740  1.00  0.00     0.138 A 
ATOM     26  C   UNL     1      14.376  45.039   5.380  1.00  0.00     0.100 A 
ATOM     27  O   UNL     1      13.334  45.989   3.580  1.00  0.00    -0.289 OA
BRANCH  18  28
ATOM     28  O   UNL     1       8.821  47.693   5.518  1.00  0.00    -0.502 OA
ATOM     29  H   UNL     1       7.994  47.878   6.060  1.00  0.00     0.293 HD
ENDBRANCH  18  28
BRANCH  20  30
ATOM     30  O   UNL     1      11.048  47.146   3.770  1.00  0.00    -0.504 OA
ATOM     31  H   UNL     1      11.775  46.932   3.103  1.00  0.00     0.293 HD
ENDBRANCH  20  30
BRANCH  25  32
ATOM     32  C   UNL     1      15.463  44.015   7.420  1.00  0.00     0.017 A 
ATOM     33  C   UNL     1      16.490  44.756   8.047  1.00  0.00     0.012 A 
ATOM     34  C   UNL     1      15.494  42.609   7.498  1.00  0.00     0.012 A 
ATOM     35  C   UNL     1      17.515  44.099   8.736  1.00  0.00     0.001 A 
ATOM     36  C   UNL     1      16.523  41.958   8.185  1.00  0.00     0.001 A 
ATOM     37  C   UNL     1      17.525  42.702   8.812  1.00  0.00     0.000 A 
ENDBRANCH  25  32
ENDBRANCH   1  17
TORSDOF 9
ENDMDL
MODEL 8
REMARK VINA RESULT:    -8.255      2.657      5.288
REMARK INTER + INTRA:         -12.576
REMARK INTER:                 -11.674
REMARK INTRA:                  -0.902
REMARK UNBOUND:                -1.184
REMARK SMILES O=C([O-])[C@H]1O[C@H](Oc2cc3oc(-c4ccccc4)cc(=O)c3c(O)c2O)[C@@H](O)[C@H](O)[C@@H]1O
REMARK SMILES IDX 7 1 6 2 4 3 31 4 5 5 29 6 27 7 2 8 1 9 3 10 32 11 30 13
REMARK SMILES IDX 28 15 8 17 25 18 9 19 23 20 10 21 22 22 11 23 20 24 12 25
REMARK SMILES IDX 19 26 21 27 26 28 24 30 13 32 14 33 18 34 15 35 17 36 16 37
REMARK H PARENT 32 12 30 14 28 16 26 29 24 31
REMARK Flexibility Score: inf
ROOT
ATOM      1  O   UNL     1      11.994  44.752   7.561  1.00  0.00    -0.458 OA
ENDROOT
BRANCH   1   2
ATOM      2  C   UNL     1      13.003  43.739   7.487  1.00  0.00     0.339 C 
ATOM      3  C   UNL     1      13.833  44.287   5.357  1.00  0.00     0.199 C 
ATOM      4  C   UNL     1      15.307  44.503   5.818  1.00  0.00     0.180 C 
ATOM      5  O   UNL     1      13.191  43.300   6.146  1.00  0.00    -0.328 OA
ATOM      6  C   UNL     1      15.520  43.927   7.234  1.00  0.00     0.181 C 
ATOM      7  C   UNL     1      14.319  44.269   8.132  1.00  0.00     0.214 C 
BRANCH   3   8
ATOM      8  C   UNL     1      13.793  43.833   3.926  1.00  0.00     0.073 C 
ATOM      9  O   UNL     1      12.774  43.244   3.477  1.00  0.00    -0.547 OA
ATOM     10  O   UNL     1      14.873  44.071   3.080  1.00  0.00    -0.547 OA
ENDBRANCH   3   8
BRANCH   4  11
ATOM     11  O   UNL     1      15.619  45.875   5.803  1.00  0.00    -0.387 OA
ATOM     12  H   UNL     1      15.328  46.225   4.923  1.00  0.00     0.211 HD
ENDBRANCH   4  11
BRANCH   6  13
ATOM     13  O   UNL     1      16.710  44.434   7.788  1.00  0.00    -0.387 OA
ATOM     14  H   UNL     1      16.629  44.346   8.770  1.00  0.00     0.211 HD
ENDBRANCH   6  13
BRANCH   7  15
ATOM     15  O   UNL     1      14.503  43.696   9.404  1.00  0.00    -0.384 OA
ATOM     16  H   UNL     1      13.649  43.242   9.640  1.00  0.00     0.211 HD
ENDBRANCH   7  15
ENDBRANCH   1   2
BRANCH   1  17
ATOM     17  C   UNL     1      10.788  44.699   8.293  1.00  0.00     0.172 A 
ATOM     18  C   UNL     1      10.705  44.417   9.678  1.00  0.00     0.201 A 
ATOM     19  C   UNL     1       9.620  44.938   7.568  1.00  0.00     0.098 A 
ATOM     20  C   UNL     1       9.434  44.390  10.314  1.00  0.00     0.176 A 
ATOM     21  C   UNL     1       8.377  44.945   8.187  1.00  0.00     0.146 A 
ATOM     22  C   UNL     1       8.264  44.657   9.561  1.00  0.00     0.111 A 
ATOM     23  O   UNL     1       7.301  45.243   7.463  1.00  0.00    -0.456 OA
ATOM     24  C   UNL     1       6.968  44.653  10.119  1.00  0.00     0.197 A 
ATOM     25  C   UNL     1       6.073  45.289   7.967  1.00  0.00     0.138 A 
ATOM     26  C   UNL     1       5.868  44.971   9.322  1.00  0.00     0.100 A 
ATOM     27  O   UNL     1       6.768  44.343  11.327  1.00  0.00    -0.289 OA
BRANCH  18  28
ATOM     28  O   UNL     1      11.877  44.149  10.386  1.00  0.00    -0.502 OA
ATOM     29  H   UNL     1      12.688  43.683  10.015  1.00  0.00     0.293 HD
ENDBRANCH  18  28
BRANCH  20  30
ATOM     30  O   UNL     1       9.302  44.111  11.682  1.00  0.00    -0.504 OA
ATOM     31  H   UNL     1       9.216  44.809  12.407  1.00  0.00     0.293 HD
ENDBRANCH  20  30
BRANCH  25  32
ATOM     32  C   UNL     1       4.952  45.675   7.072  1.00  0.00     0.017 A 
ATOM     33  C   UNL     1       5.167  46.462   5.919  1.00  0.00     0.012 A 
ATOM     34  C   UNL     1       3.653  45.200   7.340  1.00  0.00     0.012 A 
ATOM     35  C   UNL     1       4.106  46.758   5.058  1.00  0.00     0.001 A 
ATOM     36  C   UNL     1       2.596  45.502   6.477  1.00  0.00     0.001 A 
ATOM     37  C   UNL     1       2.823  46.270   5.333  1.00  0.00     0.000 A 
ENDBRANCH  25  32
ENDBRANCH   1  17
TORSDOF 9
ENDMDL
MODEL 9
REMARK VINA RESULT:    -8.188      2.032      7.708
REMARK INTER + INTRA:         -12.482
REMARK INTER:                 -11.493
REMARK INTRA:                  -0.989
REMARK UNBOUND:                -1.184
REMARK SMILES O=C([O-])[C@H]1O[C@H](Oc2cc3oc(-c4ccccc4)cc(=O)c3c(O)c2O)[C@@H](O)[C@H](O)[C@@H]1O
REMARK SMILES IDX 7 1 6 2 4 3 31 4 5 5 29 6 27 7 2 8 1 9 3 10 32 11 30 13
REMARK SMILES IDX 28 15 8 17 25 18 9 19 23 20 10 21 22 22 11 23 20 24 12 25
REMARK SMILES IDX 19 26 21 27 26 28 24 30 13 32 14 33 18 34 15 35 17 36 16 37
REMARK H PARENT 32 12 30 14 28 16 26 29 24 31
REMARK Flexibility Score: inf
ROOT
ATOM      1  O   UNL     1       8.896  46.389   8.883  1.00  0.00    -0.458 OA
ENDROOT
BRANCH   1   2
ATOM      2  C   UNL     1       8.084  45.284   9.296  1.00  0.00     0.339 C 
ATOM      3  C   UNL     1       8.677  45.300  11.571  1.00  0.00     0.199 C 
ATOM      4  C   UNL     1       7.221  45.453  12.108  1.00  0.00     0.180 C 
ATOM      5  O   UNL     1       8.701  44.565  10.360  1.00  0.00    -0.328 OA
ATOM      6  C   UNL     1       6.200  45.158  10.990  1.00  0.00     0.181 C 
ATOM      7  C   UNL     1       6.661  45.796   9.668  1.00  0.00     0.214 C 
BRANCH   3   8
ATOM      8  C   UNL     1       9.530  44.571  12.570  1.00  0.00     0.073 C 
ATOM      9  O   UNL     1       9.537  44.931  13.778  1.00  0.00    -0.547 OA
ATOM     10  O   UNL     1      10.307  43.486  12.176  1.00  0.00    -0.547 OA
ENDBRANCH   3   8
BRANCH   4  11
ATOM     11  O   UNL     1       7.028  46.754  12.608  1.00  0.00    -0.387 OA
ATOM     12  H   UNL     1       7.927  47.126  12.793  1.00  0.00     0.211 HD
ENDBRANCH   4  11
BRANCH   6  13
ATOM     13  O   UNL     1       4.930  45.642  11.355  1.00  0.00    -0.387 OA
ATOM     14  H   UNL     1       4.693  45.206  12.211  1.00  0.00     0.211 HD
ENDBRANCH   6  13
BRANCH   7  15
ATOM     15  O   UNL     1       5.746  45.477   8.647  1.00  0.00    -0.384 OA
ATOM     16  H   UNL     1       5.188  44.726   8.987  1.00  0.00     0.211 HD
ENDBRANCH   7  15
ENDBRANCH   1   2
BRANCH   1  17
ATOM     17  C   UNL     1       9.660  46.488   7.701  1.00  0.00     0.172 A 
ATOM     18  C   UNL     1       9.231  47.147   6.524  1.00  0.00     0.201 A 
ATOM     19  C   UNL     1      10.913  45.874   7.728  1.00  0.00     0.098 A 
ATOM     20  C   UNL     1      10.086  47.186   5.389  1.00  0.00     0.176 A 
ATOM     21  C   UNL     1      11.768  45.934   6.635  1.00  0.00     0.146 A 
ATOM     22  C   UNL     1      11.362  46.574   5.447  1.00  0.00     0.111 A 
ATOM     23  O   UNL     1      12.977  45.389   6.735  1.00  0.00    -0.456 OA
ATOM     24  C   UNL     1      12.269  46.572   4.367  1.00  0.00     0.197 A 
ATOM     25  C   UNL     1      13.870  45.407   5.751  1.00  0.00     0.138 A 
ATOM     26  C   UNL     1      13.527  45.988   4.517  1.00  0.00     0.100 A 
ATOM     27  O   UNL     1      11.964  47.067   3.245  1.00  0.00    -0.289 OA
BRANCH  18  28
ATOM     28  O   UNL     1       7.963  47.730   6.498  1.00  0.00    -0.502 OA
ATOM     29  H   UNL     1       7.592  48.347   7.202  1.00  0.00     0.293 HD
ENDBRANCH  18  28
BRANCH  20  30
ATOM     30  O   UNL     1       9.702  47.824   4.201  1.00  0.00    -0.504 OA
ATOM     31  H   UNL     1       8.750  48.040   3.944  1.00  0.00     0.293 HD
ENDBRANCH  20  30
BRANCH  25  32
ATOM     32  C   UNL     1      15.205  44.804   5.992  1.00  0.00     0.017 A 
ATOM     33  C   UNL     1      15.762  43.861   5.100  1.00  0.00     0.012 A 
ATOM     34  C   UNL     1      15.966  45.222   7.102  1.00  0.00     0.012 A 
ATOM     35  C   UNL     1      17.048  43.358   5.316  1.00  0.00     0.001 A 
ATOM     36  C   UNL     1      17.250  44.713   7.315  1.00  0.00     0.001 A 
ATOM     37  C   UNL     1      17.794  43.791   6.418  1.00  0.00     0.000 A 
ENDBRANCH  25  32
ENDBRANCH   1  17
TORSDOF 9
ENDMDL
