MODEL 1
REMARK VINA RESULT:    -3.346      0.000      0.000
REMARK INTER + INTRA:          -4.340
REMARK INTER:                  -4.226
REMARK INTRA:                  -0.114
REMARK UNBOUND:                -0.114
REMARK SMILES CCCCCCO
REMARK SMILES IDX 4 1 3 2 2 3 1 4 5 5 6 6 7 7
REMARK H PARENT 7 8
REMARK Flexibility Score: inf
ROOT
ATOM      1  C   UNL     1     117.512 118.619 118.590  1.00  0.00     0.002 C 
ENDROOT
BRANCH   1   2
ATOM      2  C   UNL     1     118.076 119.469 117.446  1.00  0.00    -0.000 C 
BRANCH   2   3
ATOM      3  C   UNL     1     119.051 118.658 116.585  1.00  0.00    -0.003 C 
ATOM      4  C   UNL     1     118.746 118.824 115.100  1.00  0.00     0.004 C 
ENDBRANCH   2   3
ENDBRANCH   1   2
BRANCH   1   5
ATOM      5  C   UNL     1     117.819 117.132 118.373  1.00  0.00     0.028 C 
BRANCH   5   6
ATOM      6  C   UNL     1     117.792 116.365 119.694  1.00  0.00     0.156 C 
BRANCH   6   7
ATOM      7  O   UNL     1     119.086 115.930 120.007  1.00  0.00    -0.396 OA
ATOM      8  H   UNL     1     119.667 116.732 119.944  1.00  0.00     0.210 HD
ENDBRANCH   6   7
ENDBRANCH   5   6
ENDBRANCH   1   5
TORSDOF 5
ENDMDL
MODEL 2
REMARK VINA RESULT:    -3.335      2.836      3.510
REMARK INTER + INTRA:          -4.327
REMARK INTER:                  -4.211
REMARK INTRA:                  -0.116
REMARK UNBOUND:                -0.114
REMARK SMILES CCCCCCO
REMARK SMILES IDX 4 1 3 2 2 3 1 4 5 5 6 6 7 7
REMARK H PARENT 7 8
REMARK Flexibility Score: inf
ROOT
ATOM      1  C   UNL     1     120.125 118.945 118.554  1.00  0.00     0.002 C 
ENDROOT
BRANCH   1   2
ATOM      2  C   UNL     1     119.420 118.118 117.473  1.00  0.00    -0.000 C 
BRANCH   2   3
ATOM      3  C   UNL     1     118.545 119.007 116.582  1.00  0.00    -0.003 C 
ATOM      4  C   UNL     1     118.840 118.767 115.104  1.00  0.00     0.004 C 
ENDBRANCH   2   3
ENDBRANCH   1   2
BRANCH   1   5
ATOM      5  C   UNL     1     119.796 120.436 118.409  1.00  0.00     0.028 C 
BRANCH   5   6
ATOM      6  C   UNL     1     119.818 121.141 119.764  1.00  0.00     0.156 C 
BRANCH   6   7
ATOM      7  O   UNL     1     118.560 121.699 120.019  1.00  0.00    -0.396 OA
ATOM      8  H   UNL     1     118.654 122.216 120.861  1.00  0.00     0.210 HD
ENDBRANCH   6   7
ENDBRANCH   5   6
ENDBRANCH   1   5
TORSDOF 5
ENDMDL
MODEL 3
REMARK VINA RESULT:    -3.331      2.445      2.547
REMARK INTER + INTRA:          -4.322
REMARK INTER:                  -4.206
REMARK INTRA:                  -0.115
REMARK UNBOUND:                -0.114
REMARK SMILES CCCCCCO
REMARK SMILES IDX 4 1 3 2 2 3 1 4 5 5 6 6 7 7
REMARK H PARENT 7 8
REMARK Flexibility Score: inf
ROOT
ATOM      1  C   UNL     1     119.025 117.535 118.670  1.00  0.00     0.002 C 
ENDROOT
BRANCH   1   2
ATOM      2  C   UNL     1     118.178 118.057 117.504  1.00  0.00    -0.000 C 
BRANCH   2   3
ATOM      3  C   UNL     1     118.974 119.045 116.644  1.00  0.00    -0.003 C 
ATOM      4  C   UNL     1     118.751 118.787 115.157  1.00  0.00     0.004 C 
ENDBRANCH   2   3
ENDBRANCH   1   2
BRANCH   1   5
ATOM      5  C   UNL     1     120.504 117.893 118.480  1.00  0.00     0.028 C 
BRANCH   5   6
ATOM      6  C   UNL     1     121.234 117.956 119.821  1.00  0.00     0.156 C 
BRANCH   6   7
ATOM      7  O   UNL     1     121.605 119.279 120.088  1.00  0.00    -0.396 OA
ATOM      8  H   UNL     1     122.594 119.308 120.010  1.00  0.00     0.210 HD
ENDBRANCH   6   7
ENDBRANCH   5   6
ENDBRANCH   1   5
TORSDOF 5
ENDMDL
MODEL 4
REMARK VINA RESULT:    -3.306      2.344      2.452
REMARK INTER + INTRA:          -4.289
REMARK INTER:                  -4.174
REMARK INTRA:                  -0.115
REMARK UNBOUND:                -0.114
REMARK SMILES CCCCCCO
REMARK SMILES IDX 4 1 3 2 2 3 1 4 5 5 6 6 7 7
REMARK H PARENT 7 8
REMARK Flexibility Score: inf
ROOT
ATOM      1  C   UNL     1     118.603 120.074 118.692  1.00  0.00     0.002 C 
ENDROOT
BRANCH   1   2
ATOM      2  C   UNL     1     119.421 119.510 117.525  1.00  0.00    -0.000 C 
BRANCH   2   3
ATOM      3  C   UNL     1     118.547 118.647 116.607  1.00  0.00    -0.003 C 
ATOM      4  C   UNL     1     118.877 118.895 115.138  1.00  0.00     0.004 C 
ENDBRANCH   2   3
ENDBRANCH   1   2
BRANCH   1   5
ATOM      5  C   UNL     1     117.108 119.790 118.505  1.00  0.00     0.028 C 
BRANCH   5   6
ATOM      6  C   UNL     1     116.385 119.729 119.850  1.00  0.00     0.156 C 
BRANCH   6   7
ATOM      7  O   UNL     1     115.987 118.412 120.106  1.00  0.00    -0.396 OA
ATOM      8  H   UNL     1     116.159 118.256 121.071  1.00  0.00     0.210 HD
ENDBRANCH   6   7
ENDBRANCH   5   6
ENDBRANCH   1   5
TORSDOF 5
ENDMDL
MODEL 5
REMARK VINA RESULT:    -3.268      2.191      2.729
REMARK INTER + INTRA:          -4.241
REMARK INTER:                  -4.078
REMARK INTRA:                  -0.164
REMARK UNBOUND:                -0.114
REMARK SMILES CCCCCCO
REMARK SMILES IDX 4 1 3 2 2 3 1 4 5 5 6 6 7 7
REMARK H PARENT 7 8
REMARK Flexibility Score: inf
ROOT
ATOM      1  C   UNL     1     117.750 119.668 117.775  1.00  0.00     0.002 C 
ENDROOT
BRANCH   1   2
ATOM      2  C   UNL     1     118.144 118.198 117.595  1.00  0.00    -0.000 C 
BRANCH   2   3
ATOM      3  C   UNL     1     119.653 118.057 117.362  1.00  0.00    -0.003 C 
ATOM      4  C   UNL     1     120.393 117.816 118.674  1.00  0.00     0.004 C 
ENDBRANCH   2   3
ENDBRANCH   1   2
BRANCH   1   5
ATOM      5  C   UNL     1     116.721 119.828 118.900  1.00  0.00     0.028 C 
BRANCH   5   6
ATOM      6  C   UNL     1     116.996 118.852 120.043  1.00  0.00     0.156 C 
BRANCH   6   7
ATOM      7  O   UNL     1     115.852 118.080 120.282  1.00  0.00    -0.396 OA
ATOM      8  H   UNL     1     115.082 118.704 120.217  1.00  0.00     0.210 HD
ENDBRANCH   6   7
ENDBRANCH   5   6
ENDBRANCH   1   5
TORSDOF 5
ENDMDL
MODEL 6
REMARK VINA RESULT:    -3.267      2.802      3.736
REMARK INTER + INTRA:          -4.241
REMARK INTER:                  -4.071
REMARK INTRA:                  -0.169
REMARK UNBOUND:                -0.114
REMARK SMILES CCCCCCO
REMARK SMILES IDX 4 1 3 2 2 3 1 4 5 5 6 6 7 7
REMARK H PARENT 7 8
REMARK Flexibility Score: inf
ROOT
ATOM      1  C   UNL     1     119.695 119.830 117.819  1.00  0.00     0.002 C 
ENDROOT
BRANCH   1   2
ATOM      2  C   UNL     1     118.237 119.474 117.504  1.00  0.00    -0.000 C 
BRANCH   2   3
ATOM      3  C   UNL     1     118.068 117.961 117.318  1.00  0.00    -0.003 C 
ATOM      4  C   UNL     1     117.887 117.257 118.659  1.00  0.00     0.004 C 
ENDBRANCH   2   3
ENDBRANCH   1   2
BRANCH   1   5
ATOM      5  C   UNL     1     119.775 120.925 118.890  1.00  0.00     0.028 C 
BRANCH   5   6
ATOM      6  C   UNL     1     118.821 120.637 120.048  1.00  0.00     0.156 C 
BRANCH   6   7
ATOM      7  O   UNL     1     117.995 121.747 120.259  1.00  0.00    -0.396 OA
ATOM      8  H   UNL     1     118.099 121.988 121.216  1.00  0.00     0.210 HD
ENDBRANCH   6   7
ENDBRANCH   5   6
ENDBRANCH   1   5
TORSDOF 5
ENDMDL
MODEL 7
REMARK VINA RESULT:    -3.243      2.515      3.151
REMARK INTER + INTRA:          -4.210
REMARK INTER:                  -4.059
REMARK INTRA:                  -0.150
REMARK UNBOUND:                -0.114
REMARK SMILES CCCCCCO
REMARK SMILES IDX 4 1 3 2 2 3 1 4 5 5 6 6 7 7
REMARK H PARENT 7 8
REMARK Flexibility Score: inf
ROOT
ATOM      1  C   UNL     1     119.924 117.936 117.854  1.00  0.00     0.002 C 
ENDROOT
BRANCH   1   2
ATOM      2  C   UNL     1     119.541 119.401 117.622  1.00  0.00    -0.000 C 
BRANCH   2   3
ATOM      3  C   UNL     1     118.037 119.542 117.358  1.00  0.00    -0.003 C 
ATOM      4  C   UNL     1     117.263 119.718 118.660  1.00  0.00     0.004 C 
ENDBRANCH   2   3
ENDBRANCH   1   2
BRANCH   1   5
ATOM      5  C   UNL     1     120.932 117.804 119.002  1.00  0.00     0.028 C 
BRANCH   5   6
ATOM      6  C   UNL     1     120.981 119.080 119.842  1.00  0.00     0.156 C 
BRANCH   6   7
ATOM      7  O   UNL     1     121.320 118.756 121.161  1.00  0.00    -0.396 OA
ATOM      8  H   UNL     1     121.767 117.870 121.120  1.00  0.00     0.210 HD
ENDBRANCH   6   7
ENDBRANCH   5   6
ENDBRANCH   1   5
TORSDOF 5
ENDMDL
MODEL 8
REMARK VINA RESULT:    -3.190      2.930      3.557
REMARK INTER + INTRA:          -4.144
REMARK INTER:                  -3.987
REMARK INTRA:                  -0.157
REMARK UNBOUND:                -0.114
REMARK SMILES CCCCCCO
REMARK SMILES IDX 4 1 3 2 2 3 1 4 5 5 6 6 7 7
REMARK H PARENT 7 8
REMARK Flexibility Score: inf
ROOT
ATOM      1  C   UNL     1     117.896 119.564 117.585  1.00  0.00     0.002 C 
ENDROOT
BRANCH   1   2
ATOM      2  C   UNL     1     119.408 119.354 117.444  1.00  0.00    -0.000 C 
BRANCH   2   3
ATOM      3  C   UNL     1     119.797 117.908 117.774  1.00  0.00    -0.003 C 
ATOM      4  C   UNL     1     120.846 117.857 118.880  1.00  0.00     0.004 C 
ENDBRANCH   2   3
ENDBRANCH   1   2
BRANCH   1   5
ATOM      5  C   UNL     1     117.492 119.687 119.058  1.00  0.00     0.028 C 
BRANCH   5   6
ATOM      6  C   UNL     1     118.348 120.727 119.781  1.00  0.00     0.156 C 
BRANCH   6   7
ATOM      7  O   UNL     1     117.521 121.727 120.306  1.00  0.00    -0.396 OA
ATOM      8  H   UNL     1     117.782 121.827 121.258  1.00  0.00     0.210 HD
ENDBRANCH   6   7
ENDBRANCH   5   6
ENDBRANCH   1   5
TORSDOF 5
ENDMDL
MODEL 9
REMARK VINA RESULT:    -3.183      2.079      2.646
REMARK INTER + INTRA:          -4.134
REMARK INTER:                  -3.975
REMARK INTRA:                  -0.159
REMARK UNBOUND:                -0.114
REMARK SMILES CCCCCCO
REMARK SMILES IDX 4 1 3 2 2 3 1 4 5 5 6 6 7 7
REMARK H PARENT 7 8
REMARK Flexibility Score: inf
ROOT
ATOM      1  C   UNL     1     117.948 117.957 117.774  1.00  0.00     0.002 C 
ENDROOT
BRANCH   1   2
ATOM      2  C   UNL     1     118.187 119.454 117.547  1.00  0.00    -0.000 C 
BRANCH   2   3
ATOM      3  C   UNL     1     119.656 119.821 117.788  1.00  0.00    -0.003 C 
ATOM      4  C   UNL     1     119.792 120.850 118.905  1.00  0.00     0.004 C 
ENDBRANCH   2   3
ENDBRANCH   1   2
BRANCH   1   5
ATOM      5  C   UNL     1     117.456 117.689 119.201  1.00  0.00     0.028 C 
BRANCH   5   6
ATOM      6  C   UNL     1     116.586 118.837 119.710  1.00  0.00     0.156 C 
BRANCH   6   7
ATOM      7  O   UNL     1     116.329 118.657 121.075  1.00  0.00    -0.396 OA
ATOM      8  H   UNL     1     117.197 118.405 121.486  1.00  0.00     0.210 HD
ENDBRANCH   6   7
ENDBRANCH   5   6
ENDBRANCH   1   5
TORSDOF 5
ENDMDL
