MODEL 1
REMARK VINA RESULT:    -4.767      0.000      0.000
REMARK INTER + INTRA:          -5.432
REMARK INTER:                  -5.185
REMARK INTRA:                  -0.247
REMARK UNBOUND:                -0.247
REMARK SMILES O=C([O-])c1ccccc1O
REMARK SMILES IDX 4 1 9 2 5 3 8 4 6 5 7 6 2 7 1 8 3 9 10 10
REMARK H PARENT 10 11
REMARK Flexibility Score: inf
ROOT
ATOM      1  C   UNL     1       3.046 -27.100  20.965  1.00  0.00     0.039 A 
ATOM      2  C   UNL     1       3.173 -25.924  20.183  1.00  0.00     0.124 A 
ATOM      3  C   UNL     1       4.192 -27.876  21.219  1.00  0.00     0.014 A 
ATOM      4  C   UNL     1       4.416 -25.591  19.629  1.00  0.00     0.047 A 
ATOM      5  C   UNL     1       5.429 -27.519  20.675  1.00  0.00     0.001 A 
ATOM      6  C   UNL     1       5.538 -26.384  19.873  1.00  0.00     0.004 A 
ENDROOT
BRANCH   1   7
ATOM      7  C   UNL     1       1.745 -27.565  21.494  1.00  0.00     0.075 C 
ATOM      8  O   UNL     1       0.998 -26.771  22.125  1.00  0.00    -0.545 OA
ATOM      9  O   UNL     1       1.357 -28.894  21.363  1.00  0.00    -0.545 OA
ENDBRANCH   1   7
BRANCH   2  10
ATOM     10  O   UNL     1       2.109 -25.047  19.965  1.00  0.00    -0.507 OA
ATOM     11  H   UNL     1       2.219 -24.045  19.890  1.00  0.00     0.293 HD
ENDBRANCH   2  10
TORSDOF 2
ENDMDL
MODEL 2
REMARK VINA RESULT:    -4.740      1.163      2.209
REMARK INTER + INTRA:          -5.403
REMARK INTER:                  -5.151
REMARK INTRA:                  -0.251
REMARK UNBOUND:                -0.247
REMARK SMILES O=C([O-])c1ccccc1O
REMARK SMILES IDX 4 1 9 2 5 3 8 4 6 5 7 6 2 7 1 8 3 9 10 10
REMARK H PARENT 10 11
REMARK Flexibility Score: inf
ROOT
ATOM      1  C   UNL     1       3.328 -26.562  20.884  1.00  0.00     0.039 A 
ATOM      2  C   UNL     1       4.459 -27.392  21.092  1.00  0.00     0.124 A 
ATOM      3  C   UNL     1       3.477 -25.387  20.125  1.00  0.00     0.014 A 
ATOM      4  C   UNL     1       5.708 -26.999  20.594  1.00  0.00     0.047 A 
ATOM      5  C   UNL     1       4.726 -25.019  19.618  1.00  0.00     0.001 A 
ATOM      6  C   UNL     1       5.842 -25.819  19.862  1.00  0.00     0.004 A 
ENDROOT
BRANCH   1   7
ATOM      7  C   UNL     1       2.003 -26.865  21.469  1.00  0.00     0.075 C 
ATOM      8  O   UNL     1       1.385 -25.985  22.125  1.00  0.00    -0.545 OA
ATOM      9  O   UNL     1       1.453 -28.137  21.362  1.00  0.00    -0.545 OA
ENDBRANCH   1   7
BRANCH   2  10
ATOM     10  O   UNL     1       4.379 -28.622  21.748  1.00  0.00    -0.507 OA
ATOM     11  H   UNL     1       3.562 -28.927  22.260  1.00  0.00     0.293 HD
ENDBRANCH   2  10
TORSDOF 2
ENDMDL
MODEL 3
REMARK VINA RESULT:    -4.579      2.668      4.415
REMARK INTER + INTRA:          -5.228
REMARK INTER:                  -4.995
REMARK INTRA:                  -0.232
REMARK UNBOUND:                -0.247
REMARK SMILES O=C([O-])c1ccccc1O
REMARK SMILES IDX 4 1 9 2 5 3 8 4 6 5 7 6 2 7 1 8 3 9 10 10
REMARK H PARENT 10 11
REMARK Flexibility Score: inf
ROOT
ATOM      1  C   UNL     1       4.856 -26.059  20.218  1.00  0.00     0.039 A 
ATOM      2  C   UNL     1       4.566 -27.358  20.707  1.00  0.00     0.124 A 
ATOM      3  C   UNL     1       3.792 -25.172  19.968  1.00  0.00     0.014 A 
ATOM      4  C   UNL     1       3.232 -27.754  20.872  1.00  0.00     0.047 A 
ATOM      5  C   UNL     1       2.468 -25.577  20.158  1.00  0.00     0.001 A 
ATOM      6  C   UNL     1       2.189 -26.869  20.599  1.00  0.00     0.004 A 
ENDROOT
BRANCH   1   7
ATOM      7  C   UNL     1       6.235 -25.612  19.923  1.00  0.00     0.075 C 
ATOM      8  O   UNL     1       7.129 -26.456  19.648  1.00  0.00    -0.545 OA
ATOM      9  O   UNL     1       6.581 -24.268  20.011  1.00  0.00    -0.545 OA
ENDBRANCH   1   7
BRANCH   2  10
ATOM     10  O   UNL     1       5.563 -28.264  21.073  1.00  0.00    -0.507 OA
ATOM     11  H   UNL     1       6.545 -28.116  20.884  1.00  0.00     0.293 HD
ENDBRANCH   2  10
TORSDOF 2
ENDMDL
MODEL 4
REMARK VINA RESULT:    -4.437      1.765      3.507
REMARK INTER + INTRA:          -5.073
REMARK INTER:                  -4.821
REMARK INTRA:                  -0.253
REMARK UNBOUND:                -0.247
REMARK SMILES O=C([O-])c1ccccc1O
REMARK SMILES IDX 4 1 9 2 5 3 8 4 6 5 7 6 2 7 1 8 3 9 10 10
REMARK H PARENT 10 11
REMARK Flexibility Score: inf
ROOT
ATOM      1  C   UNL     1       4.145 -25.724  20.533  1.00  0.00     0.039 A 
ATOM      2  C   UNL     1       2.739 -25.902  20.502  1.00  0.00     0.124 A 
ATOM      3  C   UNL     1       4.968 -26.842  20.760  1.00  0.00     0.014 A 
ATOM      4  C   UNL     1       2.195 -27.167  20.758  1.00  0.00     0.047 A 
ATOM      5  C   UNL     1       4.410 -28.102  20.993  1.00  0.00     0.001 A 
ATOM      6  C   UNL     1       3.025 -28.261  21.002  1.00  0.00     0.004 A 
ENDROOT
BRANCH   1   7
ATOM      7  C   UNL     1       4.781 -24.398  20.374  1.00  0.00     0.075 C 
ATOM      8  O   UNL     1       5.883 -24.292  19.772  1.00  0.00    -0.545 OA
ATOM      9  O   UNL     1       4.212 -23.262  20.940  1.00  0.00    -0.545 OA
ENDBRANCH   1   7
BRANCH   2  10
ATOM     10  O   UNL     1       1.857 -24.867  20.187  1.00  0.00    -0.507 OA
ATOM     11  H   UNL     1       0.868 -25.007  20.027  1.00  0.00     0.293 HD
ENDBRANCH   2  10
TORSDOF 2
ENDMDL
MODEL 5
REMARK VINA RESULT:    -4.410     14.544     15.998
REMARK INTER + INTRA:          -5.045
REMARK INTER:                  -4.822
REMARK INTRA:                  -0.223
REMARK UNBOUND:                -0.247
REMARK SMILES O=C([O-])c1ccccc1O
REMARK SMILES IDX 4 1 9 2 5 3 8 4 6 5 7 6 2 7 1 8 3 9 10 10
REMARK H PARENT 10 11
REMARK Flexibility Score: inf
ROOT
ATOM      1  C   UNL     1       8.914 -12.529  18.617  1.00  0.00     0.039 A 
ATOM      2  C   UNL     1       7.932 -11.562  18.284  1.00  0.00     0.124 A 
ATOM      3  C   UNL     1       8.503 -13.838  18.928  1.00  0.00     0.014 A 
ATOM      4  C   UNL     1       6.575 -11.908  18.332  1.00  0.00     0.047 A 
ATOM      5  C   UNL     1       7.147 -14.172  18.950  1.00  0.00     0.001 A 
ATOM      6  C   UNL     1       6.184 -13.205  18.663  1.00  0.00     0.004 A 
ENDROOT
BRANCH   1   7
ATOM      7  C   UNL     1      10.356 -12.204  18.688  1.00  0.00     0.075 C 
ATOM      8  O   UNL     1      11.208 -13.126  18.789  1.00  0.00    -0.545 OA
ATOM      9  O   UNL     1      10.787 -10.882  18.712  1.00  0.00    -0.545 OA
ENDBRANCH   1   7
BRANCH   2  10
ATOM     10  O   UNL     1       8.259 -10.270  17.870  1.00  0.00    -0.507 OA
ATOM     11  H   UNL     1       7.625  -9.672  17.356  1.00  0.00     0.293 HD
ENDBRANCH   2  10
TORSDOF 2
ENDMDL
MODEL 6
REMARK VINA RESULT:    -4.410      2.481      3.869
REMARK INTER + INTRA:          -5.044
REMARK INTER:                  -4.799
REMARK INTRA:                  -0.246
REMARK UNBOUND:                -0.247
REMARK SMILES O=C([O-])c1ccccc1O
REMARK SMILES IDX 4 1 9 2 5 3 8 4 6 5 7 6 2 7 1 8 3 9 10 10
REMARK H PARENT 10 11
REMARK Flexibility Score: inf
ROOT
ATOM      1  C   UNL     1       5.293 -26.303  20.284  1.00  0.00     0.039 A 
ATOM      2  C   UNL     1       4.047 -25.755  19.887  1.00  0.00     0.124 A 
ATOM      3  C   UNL     1       5.307 -27.517  20.995  1.00  0.00     0.014 A 
ATOM      4  C   UNL     1       2.858 -26.393  20.262  1.00  0.00     0.047 A 
ATOM      5  C   UNL     1       4.112 -28.152  21.344  1.00  0.00     0.001 A 
ATOM      6  C   UNL     1       2.889 -27.585  20.987  1.00  0.00     0.004 A 
ENDROOT
BRANCH   1   7
ATOM      7  C   UNL     1       6.580 -25.628  20.010  1.00  0.00     0.075 C 
ATOM      8  O   UNL     1       6.647 -24.370  20.008  1.00  0.00    -0.545 OA
ATOM      9  O   UNL     1       7.715 -26.363  19.687  1.00  0.00    -0.545 OA
ENDBRANCH   1   7
BRANCH   2  10
ATOM     10  O   UNL     1       3.948 -24.609  19.096  1.00  0.00    -0.507 OA
ATOM     11  H   UNL     1       4.659 -23.891  19.064  1.00  0.00     0.293 HD
ENDBRANCH   2  10
TORSDOF 2
ENDMDL
MODEL 7
REMARK VINA RESULT:    -4.259      2.566      3.811
REMARK INTER + INTRA:          -4.880
REMARK INTER:                  -4.658
REMARK INTRA:                  -0.222
REMARK UNBOUND:                -0.247
REMARK SMILES O=C([O-])c1ccccc1O
REMARK SMILES IDX 4 1 9 2 5 3 8 4 6 5 7 6 2 7 1 8 3 9 10 10
REMARK H PARENT 10 11
REMARK Flexibility Score: inf
ROOT
ATOM      1  C   UNL     1       5.591 -25.140  20.905  1.00  0.00     0.039 A 
ATOM      2  C   UNL     1       6.313 -26.023  20.062  1.00  0.00     0.124 A 
ATOM      3  C   UNL     1       6.281 -24.451  21.920  1.00  0.00     0.014 A 
ATOM      4  C   UNL     1       7.677 -26.241  20.293  1.00  0.00     0.047 A 
ATOM      5  C   UNL     1       7.647 -24.665  22.123  1.00  0.00     0.001 A 
ATOM      6  C   UNL     1       8.341 -25.567  21.318  1.00  0.00     0.004 A 
ENDROOT
BRANCH   1   7
ATOM      7  C   UNL     1       4.130 -24.942  20.782  1.00  0.00     0.075 C 
ATOM      8  O   UNL     1       3.424 -25.796  20.182  1.00  0.00    -0.545 OA
ATOM      9  O   UNL     1       3.525 -23.786  21.262  1.00  0.00    -0.545 OA
ENDBRANCH   1   7
BRANCH   2  10
ATOM     10  O   UNL     1       5.727 -26.669  18.972  1.00  0.00    -0.507 OA
ATOM     11  H   UNL     1       5.913 -26.419  18.011  1.00  0.00     0.293 HD
ENDBRANCH   2  10
TORSDOF 2
ENDMDL
MODEL 8
REMARK VINA RESULT:    -4.250     14.705     16.171
REMARK INTER + INTRA:          -4.870
REMARK INTER:                  -4.629
REMARK INTRA:                  -0.241
REMARK UNBOUND:                -0.247
REMARK SMILES O=C([O-])c1ccccc1O
REMARK SMILES IDX 4 1 9 2 5 3 8 4 6 5 7 6 2 7 1 8 3 9 10 10
REMARK H PARENT 10 11
REMARK Flexibility Score: inf
ROOT
ATOM      1  C   UNL     1       8.463 -12.107  18.669  1.00  0.00     0.039 A 
ATOM      2  C   UNL     1       8.760 -10.785  19.087  1.00  0.00     0.124 A 
ATOM      3  C   UNL     1       9.524 -12.992  18.405  1.00  0.00     0.014 A 
ATOM      4  C   UNL     1      10.095 -10.368  19.168  1.00  0.00     0.047 A 
ATOM      5  C   UNL     1      10.851 -12.566  18.511  1.00  0.00     0.001 A 
ATOM      6  C   UNL     1      11.134 -11.252  18.882  1.00  0.00     0.004 A 
ENDROOT
BRANCH   1   7
ATOM      7  C   UNL     1       7.077 -12.582  18.463  1.00  0.00     0.075 C 
ATOM      8  O   UNL     1       6.177 -11.774  18.109  1.00  0.00    -0.545 OA
ATOM      9  O   UNL     1       6.731 -13.904  18.721  1.00  0.00    -0.545 OA
ENDBRANCH   1   7
BRANCH   2  10
ATOM     10  O   UNL     1       7.770  -9.875  19.463  1.00  0.00    -0.507 OA
ATOM     11  H   UNL     1       6.780 -10.058  19.366  1.00  0.00     0.293 HD
ENDBRANCH   2  10
TORSDOF 2
ENDMDL
MODEL 9
REMARK VINA RESULT:    -4.052     14.333     16.067
REMARK INTER + INTRA:          -4.655
REMARK INTER:                  -4.412
REMARK INTRA:                  -0.242
REMARK UNBOUND:                -0.247
REMARK SMILES O=C([O-])c1ccccc1O
REMARK SMILES IDX 4 1 9 2 5 3 8 4 6 5 7 6 2 7 1 8 3 9 10 10
REMARK H PARENT 10 11
REMARK Flexibility Score: inf
ROOT
ATOM      1  C   UNL     1       9.537 -12.230  19.201  1.00  0.00     0.039 A 
ATOM      2  C   UNL     1       8.345 -12.593  18.524  1.00  0.00     0.124 A 
ATOM      3  C   UNL     1      10.164 -13.177  20.031  1.00  0.00     0.014 A 
ATOM      4  C   UNL     1       7.783 -13.858  18.742  1.00  0.00     0.047 A 
ATOM      5  C   UNL     1       9.602 -14.441  20.221  1.00  0.00     0.001 A 
ATOM      6  C   UNL     1       8.407 -14.777  19.585  1.00  0.00     0.004 A 
ENDROOT
BRANCH   1   7
ATOM      7  C   UNL     1      10.128 -10.877  19.097  1.00  0.00     0.075 C 
ATOM      8  O   UNL     1       9.386  -9.875  18.917  1.00  0.00    -0.545 OA
ATOM      9  O   UNL     1      11.506 -10.698  19.128  1.00  0.00    -0.545 OA
ENDBRANCH   1   7
BRANCH   2  10
ATOM     10  O   UNL     1       7.714 -11.750  17.608  1.00  0.00    -0.507 OA
ATOM     11  H   UNL     1       7.195 -12.086  16.808  1.00  0.00     0.293 HD
ENDBRANCH   2  10
TORSDOF 2
ENDMDL
