MODEL 1
REMARK VINA RESULT:    -3.487      0.000      0.000
REMARK INTER + INTRA:          -4.168
REMARK INTER:                  -4.099
REMARK INTRA:                  -0.070
REMARK UNBOUND:                -0.070
REMARK SMILES CCCCC(=O)[O-]
REMARK SMILES IDX 4 1 5 2 6 3 7 4 3 5 2 6 1 7
REMARK H PARENT
REMARK Flexibility Score: inf
ROOT
ATOM      1  C   UNL     1      12.394 -30.734  22.373  1.00  0.00     0.053 C 
ENDROOT
BRANCH   1   2
ATOM      2  C   UNL     1      13.320 -31.015  21.232  1.00  0.00     0.041 C 
ATOM      3  O   UNL     1      13.016 -31.877  20.366  1.00  0.00    -0.550 OA
ATOM      4  O   UNL     1      14.543 -30.360  21.152  1.00  0.00    -0.550 OA
ENDBRANCH   1   2
BRANCH   1   5
ATOM      5  C   UNL     1      13.147 -30.040  23.515  1.00  0.00     0.006 C 
BRANCH   5   6
ATOM      6  C   UNL     1      12.402 -28.806  24.049  1.00  0.00    -0.003 C 
ATOM      7  C   UNL     1      11.207 -28.415  23.181  1.00  0.00     0.004 C 
ENDBRANCH   5   6
ENDBRANCH   1   5
TORSDOF 3
ENDMDL
MODEL 2
REMARK VINA RESULT:    -3.483      0.210      1.239
REMARK INTER + INTRA:          -4.164
REMARK INTER:                  -4.076
REMARK INTRA:                  -0.087
REMARK UNBOUND:                -0.070
REMARK SMILES CCCCC(=O)[O-]
REMARK SMILES IDX 4 1 5 2 6 3 7 4 3 5 2 6 1 7
REMARK H PARENT
REMARK Flexibility Score: inf
ROOT
ATOM      1  C   UNL     1      12.432 -30.819  22.396  1.00  0.00     0.053 C 
ENDROOT
BRANCH   1   2
ATOM      2  C   UNL     1      13.368 -31.019  21.246  1.00  0.00     0.041 C 
ATOM      3  O   UNL     1      14.413 -30.324  21.150  1.00  0.00    -0.550 OA
ATOM      4  O   UNL     1      13.061 -31.940  20.253  1.00  0.00    -0.550 OA
ENDBRANCH   1   2
BRANCH   1   5
ATOM      5  C   UNL     1      13.192 -30.283  23.616  1.00  0.00     0.006 C 
BRANCH   5   6
ATOM      6  C   UNL     1      12.722 -28.881  24.035  1.00  0.00    -0.003 C 
ATOM      7  C   UNL     1      11.401 -28.480  23.381  1.00  0.00     0.004 C 
ENDBRANCH   5   6
ENDBRANCH   1   5
TORSDOF 3
ENDMDL
MODEL 3
REMARK VINA RESULT:    -3.279      1.696      1.978
REMARK INTER + INTRA:          -3.923
REMARK INTER:                  -3.793
REMARK INTRA:                  -0.131
REMARK UNBOUND:                -0.070
REMARK SMILES CCCCC(=O)[O-]
REMARK SMILES IDX 4 1 5 2 6 3 7 4 3 5 2 6 1 7
REMARK H PARENT
REMARK Flexibility Score: inf
ROOT
ATOM      1  C   UNL     1      14.477 -30.131  23.039  1.00  0.00     0.053 C 
ENDROOT
BRANCH   1   2
ATOM      2  C   UNL     1      13.475 -31.236  22.912  1.00  0.00     0.041 C 
ATOM      3  O   UNL     1      13.405 -32.132  23.793  1.00  0.00    -0.550 OA
ATOM      4  O   UNL     1      12.653 -31.304  21.794  1.00  0.00    -0.550 OA
ENDBRANCH   1   2
BRANCH   1   5
ATOM      5  C   UNL     1      13.771 -28.769  23.054  1.00  0.00     0.006 C 
BRANCH   5   6
ATOM      6  C   UNL     1      12.681 -28.681  24.133  1.00  0.00    -0.003 C 
ATOM      7  C   UNL     1      11.331 -28.233  23.575  1.00  0.00     0.004 C 
ENDBRANCH   5   6
ENDBRANCH   1   5
TORSDOF 3
ENDMDL
MODEL 4
REMARK VINA RESULT:    -3.249      1.336      2.004
REMARK INTER + INTRA:          -3.888
REMARK INTER:                  -3.849
REMARK INTRA:                  -0.039
REMARK UNBOUND:                -0.070
REMARK SMILES CCCCC(=O)[O-]
REMARK SMILES IDX 4 1 5 2 6 3 7 4 3 5 2 6 1 7
REMARK H PARENT
REMARK Flexibility Score: inf
ROOT
ATOM      1  C   UNL     1      13.497 -31.047  21.205  1.00  0.00     0.053 C 
ENDROOT
BRANCH   1   2
ATOM      2  C   UNL     1      13.965 -32.468  21.241  1.00  0.00     0.041 C 
ATOM      3  O   UNL     1      14.457 -32.947  22.296  1.00  0.00    -0.550 OA
ATOM      4  O   UNL     1      13.903 -33.249  20.094  1.00  0.00    -0.550 OA
ENDBRANCH   1   2
BRANCH   1   5
ATOM      5  C   UNL     1      12.496 -30.786  22.338  1.00  0.00     0.006 C 
BRANCH   5   6
ATOM      6  C   UNL     1      13.096 -29.943  23.474  1.00  0.00    -0.003 C 
ATOM      7  C   UNL     1      12.185 -28.795  23.904  1.00  0.00     0.004 C 
ENDBRANCH   5   6
ENDBRANCH   1   5
TORSDOF 3
ENDMDL
MODEL 5
REMARK VINA RESULT:    -3.240      2.590      3.683
REMARK INTER + INTRA:          -3.877
REMARK INTER:                  -3.789
REMARK INTRA:                  -0.088
REMARK UNBOUND:                -0.070
REMARK SMILES CCCCC(=O)[O-]
REMARK SMILES IDX 4 1 5 2 6 3 7 4 3 5 2 6 1 7
REMARK H PARENT
REMARK Flexibility Score: inf
ROOT
ATOM      1  C   UNL     1      12.499 -28.758  24.162  1.00  0.00     0.053 C 
ENDROOT
BRANCH   1   2
ATOM      2  C   UNL     1      11.421 -28.411  23.183  1.00  0.00     0.041 C 
ATOM      3  O   UNL     1      10.976 -27.235  23.123  1.00  0.00    -0.550 OA
ATOM      4  O   UNL     1      10.875 -29.397  22.372  1.00  0.00    -0.550 OA
ENDBRANCH   1   2
BRANCH   1   5
ATOM      5  C   UNL     1      13.479 -29.763  23.543  1.00  0.00     0.006 C 
BRANCH   5   6
ATOM      6  C   UNL     1      14.293 -29.160  22.388  1.00  0.00    -0.003 C 
ATOM      7  C   UNL     1      14.531 -30.153  21.251  1.00  0.00     0.004 C 
ENDBRANCH   5   6
ENDBRANCH   1   5
TORSDOF 3
ENDMDL
MODEL 6
REMARK VINA RESULT:    -3.240      1.654      2.074
REMARK INTER + INTRA:          -3.877
REMARK INTER:                  -3.831
REMARK INTRA:                  -0.047
REMARK UNBOUND:                -0.070
REMARK SMILES CCCCC(=O)[O-]
REMARK SMILES IDX 4 1 5 2 6 3 7 4 3 5 2 6 1 7
REMARK H PARENT
REMARK Flexibility Score: inf
ROOT
ATOM      1  C   UNL     1      13.400 -31.537  21.320  1.00  0.00     0.053 C 
ENDROOT
BRANCH   1   2
ATOM      2  C   UNL     1      14.096 -32.854  21.177  1.00  0.00     0.041 C 
ATOM      3  O   UNL     1      14.101 -33.451  20.068  1.00  0.00    -0.550 OA
ATOM      4  O   UNL     1      14.697 -33.446  22.280  1.00  0.00    -0.550 OA
ENDBRANCH   1   2
BRANCH   1   5
ATOM      5  C   UNL     1      12.974 -31.313  22.777  1.00  0.00     0.006 C 
BRANCH   5   6
ATOM      6  C   UNL     1      13.620 -30.064  23.396  1.00  0.00    -0.003 C 
ATOM      7  C   UNL     1      12.596 -29.113  24.013  1.00  0.00     0.004 C 
ENDBRANCH   5   6
ENDBRANCH   1   5
TORSDOF 3
ENDMDL
MODEL 7
REMARK VINA RESULT:    -3.220     10.006     10.741
REMARK INTER + INTRA:          -3.855
REMARK INTER:                  -3.748
REMARK INTRA:                  -0.106
REMARK UNBOUND:                -0.070
REMARK SMILES CCCCC(=O)[O-]
REMARK SMILES IDX 4 1 5 2 6 3 7 4 3 5 2 6 1 7
REMARK H PARENT
REMARK Flexibility Score: inf
ROOT
ATOM      1  C   UNL     1      22.045 -25.099  20.752  1.00  0.00     0.053 C 
ENDROOT
BRANCH   1   2
ATOM      2  C   UNL     1      23.149 -25.012  19.747  1.00  0.00     0.041 C 
ATOM      3  O   UNL     1      23.361 -25.966  18.954  1.00  0.00    -0.550 OA
ATOM      4  O   UNL     1      23.976 -23.896  19.718  1.00  0.00    -0.550 OA
ENDBRANCH   1   2
BRANCH   1   5
ATOM      5  C   UNL     1      20.819 -25.790  20.142  1.00  0.00     0.006 C 
BRANCH   5   6
ATOM      6  C   UNL     1      20.306 -26.953  21.005  1.00  0.00    -0.003 C 
ATOM      7  C   UNL     1      21.192 -28.194  20.913  1.00  0.00     0.004 C 
ENDBRANCH   5   6
ENDBRANCH   1   5
TORSDOF 3
ENDMDL
MODEL 8
REMARK VINA RESULT:    -3.192     10.001     10.787
REMARK INTER + INTRA:          -3.821
REMARK INTER:                  -3.723
REMARK INTRA:                  -0.098
REMARK UNBOUND:                -0.070
REMARK SMILES CCCCC(=O)[O-]
REMARK SMILES IDX 4 1 5 2 6 3 7 4 3 5 2 6 1 7
REMARK H PARENT
REMARK Flexibility Score: inf
ROOT
ATOM      1  C   UNL     1      22.047 -25.029  20.765  1.00  0.00     0.053 C 
ENDROOT
BRANCH   1   2
ATOM      2  C   UNL     1      23.180 -24.977  19.789  1.00  0.00     0.041 C 
ATOM      3  O   UNL     1      23.919 -23.960  19.729  1.00  0.00    -0.550 OA
ATOM      4  O   UNL     1      23.389 -26.033  18.911  1.00  0.00    -0.550 OA
ENDBRANCH   1   2
BRANCH   1   5
ATOM      5  C   UNL     1      20.848 -25.764  20.154  1.00  0.00     0.006 C 
BRANCH   5   6
ATOM      6  C   UNL     1      20.307 -26.874  21.069  1.00  0.00    -0.003 C 
ATOM      7  C   UNL     1      21.069 -28.189  20.916  1.00  0.00     0.004 C 
ENDBRANCH   5   6
ENDBRANCH   1   5
TORSDOF 3
ENDMDL
MODEL 9
REMARK VINA RESULT:    -3.175      2.813      3.724
REMARK INTER + INTRA:          -3.801
REMARK INTER:                  -3.745
REMARK INTRA:                  -0.056
REMARK UNBOUND:                -0.070
REMARK SMILES CCCCC(=O)[O-]
REMARK SMILES IDX 4 1 5 2 6 3 7 4 3 5 2 6 1 7
REMARK H PARENT
REMARK Flexibility Score: inf
ROOT
ATOM      1  C   UNL     1      13.579 -29.146  23.036  1.00  0.00     0.053 C 
ENDROOT
BRANCH   1   2
ATOM      2  C   UNL     1      12.796 -28.178  23.867  1.00  0.00     0.041 C 
ATOM      3  O   UNL     1      11.560 -28.343  24.035  1.00  0.00    -0.550 OA
ATOM      4  O   UNL     1      13.424 -27.067  24.416  1.00  0.00    -0.550 OA
ENDBRANCH   1   2
BRANCH   1   5
ATOM      5  C   UNL     1      13.480 -30.559  23.625  1.00  0.00     0.006 C 
BRANCH   5   6
ATOM      6  C   UNL     1      13.544 -31.653  22.548  1.00  0.00    -0.003 C 
ATOM      7  C   UNL     1      12.896 -31.226  21.232  1.00  0.00     0.004 C 
ENDBRANCH   5   6
ENDBRANCH   1   5
TORSDOF 3
ENDMDL
