MODEL 1
REMARK VINA RESULT:    -5.349      0.000      0.000
REMARK INTER + INTRA:          -8.867
REMARK INTER:                  -8.163
REMARK INTRA:                  -0.705
REMARK UNBOUND:                -0.705
REMARK SMILES CCCCCCCCCC=CC(=O)[O-]
REMARK SMILES IDX 7 1 8 2 9 3 10 4 11 5 12 6 13 7 14 8 6 9 5 10 4 11 3 12 2 13
REMARK SMILES IDX 1 14
REMARK H PARENT
REMARK Flexibility Score: inf
ROOT
ATOM      1  C   UNL     1      25.872  11.147  34.599  1.00  0.00     0.000 C 
ENDROOT
BRANCH   1   2
ATOM      2  C   UNL     1      27.396  11.225  34.779  1.00  0.00     0.004 C 
BRANCH   2   3
ATOM      3  C   UNL     1      27.981  12.553  34.272  1.00  0.00     0.027 C 
BRANCH   3   4
ATOM      4  C   UNL     1      27.064  13.204  33.273  1.00  0.00    -0.025 C 
ATOM      5  C   UNL     1      27.125  13.064  31.940  1.00  0.00     0.020 C 
BRANCH   5   6
ATOM      6  C   UNL     1      28.071  12.216  31.185  1.00  0.00     0.064 C 
ATOM      7  O   UNL     1      29.083  12.752  30.660  1.00  0.00    -0.545 OA
ATOM      8  O   UNL     1      27.869  10.854  31.008  1.00  0.00    -0.545 OA
ENDBRANCH   5   6
ENDBRANCH   3   4
ENDBRANCH   2   3
ENDBRANCH   1   2
BRANCH   1   9
ATOM      9  C   UNL     1      25.113  11.379  35.917  1.00  0.00     0.000 C 
BRANCH   9  10
ATOM     10  C   UNL     1      24.172  12.596  35.857  1.00  0.00     0.000 C 
BRANCH  10  11
ATOM     11  C   UNL     1      22.703  12.264  35.535  1.00  0.00    -0.000 C 
BRANCH  11  12
ATOM     12  C   UNL     1      22.334  10.770  35.628  1.00  0.00    -0.000 C 
BRANCH  12  13
ATOM     13  C   UNL     1      20.814  10.502  35.601  1.00  0.00    -0.003 C 
ATOM     14  C   UNL     1      19.986  11.779  35.740  1.00  0.00     0.004 C 
ENDBRANCH  12  13
ENDBRANCH  11  12
ENDBRANCH  10  11
ENDBRANCH   9  10
ENDBRANCH   1   9
TORSDOF 9
ENDMDL
MODEL 2
REMARK VINA RESULT:    -5.282      4.144      7.053
REMARK INTER + INTRA:          -8.765
REMARK INTER:                  -7.967
REMARK INTRA:                  -0.798
REMARK UNBOUND:                -0.705
REMARK SMILES CCCCCCCCCC=CC(=O)[O-]
REMARK SMILES IDX 7 1 8 2 9 3 10 4 11 5 12 6 13 7 14 8 6 9 5 10 4 11 3 12 2 13
REMARK SMILES IDX 1 14
REMARK H PARENT
REMARK Flexibility Score: inf
ROOT
ATOM      1  C   UNL     1      24.348  12.486  35.638  1.00  0.00     0.000 C 
ENDROOT
BRANCH   1   2
ATOM      2  C   UNL     1      22.825  12.279  35.648  1.00  0.00     0.004 C 
BRANCH   2   3
ATOM      3  C   UNL     1      22.383  11.121  34.738  1.00  0.00     0.027 C 
BRANCH   3   4
ATOM      4  C   UNL     1      21.653  10.065  35.522  1.00  0.00    -0.025 C 
ATOM      5  C   UNL     1      20.366  10.110  35.897  1.00  0.00     0.020 C 
BRANCH   5   6
ATOM      6  C   UNL     1      19.394  11.179  35.586  1.00  0.00     0.064 C 
ATOM      7  O   UNL     1      18.633  11.040  34.593  1.00  0.00    -0.545 OA
ATOM      8  O   UNL     1      19.310  12.346  36.334  1.00  0.00    -0.545 OA
ENDBRANCH   5   6
ENDBRANCH   3   4
ENDBRANCH   2   3
ENDBRANCH   1   2
BRANCH   1   9
ATOM      9  C   UNL     1      25.121  11.156  35.673  1.00  0.00     0.000 C 
BRANCH   9  10
ATOM     10  C   UNL     1      26.080  10.992  34.479  1.00  0.00     0.000 C 
BRANCH  10  11
ATOM     11  C   UNL     1      27.556  11.307  34.785  1.00  0.00    -0.000 C 
BRANCH  11  12
ATOM     12  C   UNL     1      28.195  12.383  33.885  1.00  0.00    -0.000 C 
BRANCH  12  13
ATOM     13  C   UNL     1      27.389  13.697  33.816  1.00  0.00    -0.003 C 
ATOM     14  C   UNL     1      27.454  14.499  35.117  1.00  0.00     0.004 C 
ENDBRANCH  12  13
ENDBRANCH  11  12
ENDBRANCH  10  11
ENDBRANCH   9  10
ENDBRANCH   1   9
TORSDOF 9
ENDMDL
MODEL 3
REMARK VINA RESULT:    -5.221      3.431      6.227
REMARK INTER + INTRA:          -8.673
REMARK INTER:                  -7.638
REMARK INTRA:                  -1.035
REMARK UNBOUND:                -0.705
REMARK SMILES CCCCCCCCCC=CC(=O)[O-]
REMARK SMILES IDX 7 1 8 2 9 3 10 4 11 5 12 6 13 7 14 8 6 9 5 10 4 11 3 12 2 13
REMARK SMILES IDX 1 14
REMARK H PARENT
REMARK Flexibility Score: inf
ROOT
ATOM      1  C   UNL     1      26.050  11.102  35.128  1.00  0.00     0.000 C 
ENDROOT
BRANCH   1   2
ATOM      2  C   UNL     1      25.196  12.080  35.949  1.00  0.00     0.004 C 
BRANCH   2   3
ATOM      3  C   UNL     1      23.843  12.382  35.284  1.00  0.00     0.027 C 
BRANCH   3   4
ATOM      4  C   UNL     1      22.810  11.358  35.666  1.00  0.00    -0.025 C 
ATOM      5  C   UNL     1      21.479  11.515  35.593  1.00  0.00     0.020 C 
BRANCH   5   6
ATOM      6  C   UNL     1      20.759  12.702  35.087  1.00  0.00     0.064 C 
ATOM      7  O   UNL     1      20.134  13.429  35.903  1.00  0.00    -0.545 OA
ATOM      8  O   UNL     1      20.722  13.029  33.738  1.00  0.00    -0.545 OA
ENDBRANCH   5   6
ENDBRANCH   3   4
ENDBRANCH   2   3
ENDBRANCH   1   2
BRANCH   1   9
ATOM      9  C   UNL     1      27.525  11.531  35.053  1.00  0.00     0.000 C 
BRANCH   9  10
ATOM     10  C   UNL     1      27.697  13.056  34.926  1.00  0.00     0.000 C 
BRANCH  10  11
ATOM     11  C   UNL     1      27.465  13.619  33.511  1.00  0.00    -0.000 C 
BRANCH  11  12
ATOM     12  C   UNL     1      28.018  12.752  32.362  1.00  0.00    -0.000 C 
BRANCH  12  13
ATOM     13  C   UNL     1      26.955  12.349  31.319  1.00  0.00    -0.003 C 
ATOM     14  C   UNL     1      25.530  12.659  31.778  1.00  0.00     0.004 C 
ENDBRANCH  12  13
ENDBRANCH  11  12
ENDBRANCH  10  11
ENDBRANCH   9  10
ENDBRANCH   1   9
TORSDOF 9
ENDMDL
MODEL 4
REMARK VINA RESULT:    -5.220      1.096      1.604
REMARK INTER + INTRA:          -8.671
REMARK INTER:                  -7.992
REMARK INTRA:                  -0.679
REMARK UNBOUND:                -0.705
REMARK SMILES CCCCCCCCCC=CC(=O)[O-]
REMARK SMILES IDX 7 1 8 2 9 3 10 4 11 5 12 6 13 7 14 8 6 9 5 10 4 11 3 12 2 13
REMARK SMILES IDX 1 14
REMARK H PARENT
REMARK Flexibility Score: inf
ROOT
ATOM      1  C   UNL     1      26.022  12.552  35.483  1.00  0.00     0.000 C 
ENDROOT
BRANCH   1   2
ATOM      2  C   UNL     1      26.369  11.215  34.809  1.00  0.00     0.004 C 
BRANCH   2   3
ATOM      3  C   UNL     1      27.843  11.137  34.379  1.00  0.00     0.027 C 
BRANCH   3   4
ATOM      4  C   UNL     1      28.270  12.398  33.679  1.00  0.00    -0.025 C 
ATOM      5  C   UNL     1      28.059  12.693  32.387  1.00  0.00     0.020 C 
BRANCH   5   6
ATOM      6  C   UNL     1      27.332  11.866  31.401  1.00  0.00     0.064 C 
ATOM      7  O   UNL     1      26.119  12.117  31.173  1.00  0.00    -0.545 OA
ATOM      8  O   UNL     1      27.930  10.802  30.739  1.00  0.00    -0.545 OA
ENDBRANCH   5   6
ENDBRANCH   3   4
ENDBRANCH   2   3
ENDBRANCH   1   2
BRANCH   1   9
ATOM      9  C   UNL     1      24.544  12.633  35.901  1.00  0.00     0.000 C 
BRANCH   9  10
ATOM     10  C   UNL     1      23.831  11.269  35.840  1.00  0.00     0.000 C 
BRANCH  10  11
ATOM     11  C   UNL     1      22.359  11.327  35.392  1.00  0.00    -0.000 C 
BRANCH  11  12
ATOM     12  C   UNL     1      21.853  12.725  34.983  1.00  0.00    -0.000 C 
BRANCH  12  13
ATOM     13  C   UNL     1      20.516  13.121  35.644  1.00  0.00    -0.003 C 
ATOM     14  C   UNL     1      19.564  11.935  35.808  1.00  0.00     0.004 C 
ENDBRANCH  12  13
ENDBRANCH  11  12
ENDBRANCH  10  11
ENDBRANCH   9  10
ENDBRANCH   1   9
TORSDOF 9
ENDMDL
MODEL 5
REMARK VINA RESULT:    -5.174      1.622      1.913
REMARK INTER + INTRA:          -8.601
REMARK INTER:                  -7.744
REMARK INTRA:                  -0.857
REMARK UNBOUND:                -0.705
REMARK SMILES CCCCCCCCCC=CC(=O)[O-]
REMARK SMILES IDX 7 1 8 2 9 3 10 4 11 5 12 6 13 7 14 8 6 9 5 10 4 11 3 12 2 13
REMARK SMILES IDX 1 14
REMARK H PARENT
REMARK Flexibility Score: inf
ROOT
ATOM      1  C   UNL     1      27.230  11.393  35.007  1.00  0.00     0.000 C 
ENDROOT
BRANCH   1   2
ATOM      2  C   UNL     1      27.629  12.875  35.093  1.00  0.00     0.004 C 
BRANCH   2   3
ATOM      3  C   UNL     1      27.490  13.601  33.745  1.00  0.00     0.027 C 
BRANCH   3   4
ATOM      4  C   UNL     1      28.040  12.766  32.621  1.00  0.00    -0.025 C 
ATOM      5  C   UNL     1      27.414  12.488  31.466  1.00  0.00     0.020 C 
BRANCH   5   6
ATOM      6  C   UNL     1      26.082  12.974  31.047  1.00  0.00     0.064 C 
ATOM      7  O   UNL     1      26.009  13.824  30.122  1.00  0.00    -0.545 OA
ATOM      8  O   UNL     1      24.910  12.546  31.656  1.00  0.00    -0.545 OA
ENDBRANCH   5   6
ENDBRANCH   3   4
ENDBRANCH   2   3
ENDBRANCH   1   2
BRANCH   1   9
ATOM      9  C   UNL     1      25.707  11.201  34.913  1.00  0.00     0.000 C 
BRANCH   9  10
ATOM     10  C   UNL     1      24.936  12.016  35.967  1.00  0.00     0.000 C 
BRANCH  10  11
ATOM     11  C   UNL     1      23.445  12.240  35.651  1.00  0.00    -0.000 C 
BRANCH  11  12
ATOM     12  C   UNL     1      22.553  10.990  35.786  1.00  0.00    -0.000 C 
BRANCH  12  13
ATOM     13  C   UNL     1      21.722  10.678  34.523  1.00  0.00    -0.003 C 
ATOM     14  C   UNL     1      22.051  11.609  33.355  1.00  0.00     0.004 C 
ENDBRANCH  12  13
ENDBRANCH  11  12
ENDBRANCH  10  11
ENDBRANCH   9  10
ENDBRANCH   1   9
TORSDOF 9
ENDMDL
MODEL 6
REMARK VINA RESULT:    -5.024      1.294      1.893
REMARK INTER + INTRA:          -8.373
REMARK INTER:                  -7.764
REMARK INTRA:                  -0.609
REMARK UNBOUND:                -0.705
REMARK SMILES CCCCCCCCCC=CC(=O)[O-]
REMARK SMILES IDX 7 1 8 2 9 3 10 4 11 5 12 6 13 7 14 8 6 9 5 10 4 11 3 12 2 13
REMARK SMILES IDX 1 14
REMARK H PARENT
REMARK Flexibility Score: inf
ROOT
ATOM      1  C   UNL     1      24.884  12.691  36.160  1.00  0.00     0.000 C 
ENDROOT
BRANCH   1   2
ATOM      2  C   UNL     1      26.182  13.082  35.437  1.00  0.00     0.004 C 
BRANCH   2   3
ATOM      3  C   UNL     1      26.955  11.861  34.912  1.00  0.00     0.027 C 
BRANCH   3   4
ATOM      4  C   UNL     1      28.157  12.282  34.113  1.00  0.00    -0.025 C 
ATOM      5  C   UNL     1      28.282  12.208  32.778  1.00  0.00     0.020 C 
BRANCH   5   6
ATOM      6  C   UNL     1      27.257  11.738  31.822  1.00  0.00     0.064 C 
ATOM      7  O   UNL     1      27.476  10.689  31.162  1.00  0.00    -0.545 OA
ATOM      8  O   UNL     1      26.074  12.430  31.604  1.00  0.00    -0.545 OA
ENDBRANCH   5   6
ENDBRANCH   3   4
ENDBRANCH   2   3
ENDBRANCH   1   2
BRANCH   1   9
ATOM      9  C   UNL     1      24.459  11.243  35.859  1.00  0.00     0.000 C 
BRANCH   9  10
ATOM     10  C   UNL     1      23.205  11.161  34.969  1.00  0.00     0.000 C 
BRANCH  10  11
ATOM     11  C   UNL     1      22.000  11.980  35.470  1.00  0.00    -0.000 C 
BRANCH  11  12
ATOM     12  C   UNL     1      20.691  11.183  35.637  1.00  0.00    -0.000 C 
BRANCH  12  13
ATOM     13  C   UNL     1      20.893   9.653  35.660  1.00  0.00    -0.003 C 
ATOM     14  C   UNL     1      19.797   8.925  36.439  1.00  0.00     0.004 C 
ENDBRANCH  12  13
ENDBRANCH  11  12
ENDBRANCH  10  11
ENDBRANCH   9  10
ENDBRANCH   1   9
TORSDOF 9
ENDMDL
MODEL 7
REMARK VINA RESULT:    -4.992      2.025      3.791
REMARK INTER + INTRA:          -8.323
REMARK INTER:                  -7.408
REMARK INTRA:                  -0.915
REMARK UNBOUND:                -0.705
REMARK SMILES CCCCCCCCCC=CC(=O)[O-]
REMARK SMILES IDX 7 1 8 2 9 3 10 4 11 5 12 6 13 7 14 8 6 9 5 10 4 11 3 12 2 13
REMARK SMILES IDX 1 14
REMARK H PARENT
REMARK Flexibility Score: inf
ROOT
ATOM      1  C   UNL     1      22.511  10.886  35.845  1.00  0.00     0.000 C 
ENDROOT
BRANCH   1   2
ATOM      2  C   UNL     1      23.379  11.608  34.802  1.00  0.00     0.004 C 
BRANCH   2   3
ATOM      3  C   UNL     1      24.478  12.469  35.445  1.00  0.00     0.027 C 
BRANCH   3   4
ATOM      4  C   UNL     1      25.774  11.712  35.540  1.00  0.00    -0.025 C 
ATOM      5  C   UNL     1      26.976  12.153  35.139  1.00  0.00     0.020 C 
BRANCH   5   6
ATOM      6  C   UNL     1      27.281  13.480  34.563  1.00  0.00     0.064 C 
ATOM      7  O   UNL     1      27.531  13.567  33.332  1.00  0.00    -0.545 OA
ATOM      8  O   UNL     1      27.328  14.632  35.337  1.00  0.00    -0.545 OA
ENDBRANCH   5   6
ENDBRANCH   3   4
ENDBRANCH   2   3
ENDBRANCH   1   2
BRANCH   1   9
ATOM      9  C   UNL     1      21.487   9.937  35.200  1.00  0.00     0.000 C 
BRANCH   9  10
ATOM     10  C   UNL     1      20.084  10.061  35.822  1.00  0.00     0.000 C 
BRANCH  10  11
ATOM     11  C   UNL     1      19.240  11.235  35.289  1.00  0.00    -0.000 C 
BRANCH  11  12
ATOM     12  C   UNL     1      19.266  12.507  36.160  1.00  0.00    -0.000 C 
BRANCH  12  13
ATOM     13  C   UNL     1      20.163  13.629  35.597  1.00  0.00    -0.003 C 
ATOM     14  C   UNL     1      20.260  13.598  34.071  1.00  0.00     0.004 C 
ENDBRANCH  12  13
ENDBRANCH  11  12
ENDBRANCH  10  11
ENDBRANCH   9  10
ENDBRANCH   1   9
TORSDOF 9
ENDMDL
MODEL 8
REMARK VINA RESULT:    -4.914      3.574      6.929
REMARK INTER + INTRA:          -8.204
REMARK INTER:                  -7.497
REMARK INTRA:                  -0.707
REMARK UNBOUND:                -0.705
REMARK SMILES CCCCCCCCCC=CC(=O)[O-]
REMARK SMILES IDX 7 1 8 2 9 3 10 4 11 5 12 6 13 7 14 8 6 9 5 10 4 11 3 12 2 13
REMARK SMILES IDX 1 14
REMARK H PARENT
REMARK Flexibility Score: inf
ROOT
ATOM      1  C   UNL     1      22.607  11.132  34.922  1.00  0.00     0.000 C 
ENDROOT
BRANCH   1   2
ATOM      2  C   UNL     1      21.530  10.457  35.785  1.00  0.00     0.004 C 
BRANCH   2   3
ATOM      3  C   UNL     1      20.104  10.829  35.345  1.00  0.00     0.027 C 
BRANCH   3   4
ATOM      4  C   UNL     1      19.561  11.964  36.168  1.00  0.00    -0.025 C 
ATOM      5  C   UNL     1      19.445  13.241  35.772  1.00  0.00     0.020 C 
BRANCH   5   6
ATOM      6  C   UNL     1      19.787  13.784  34.440  1.00  0.00     0.064 C 
ATOM      7  O   UNL     1      20.920  14.306  34.269  1.00  0.00    -0.545 OA
ATOM      8  O   UNL     1      18.892  13.766  33.379  1.00  0.00    -0.545 OA
ENDBRANCH   5   6
ENDBRANCH   3   4
ENDBRANCH   2   3
ENDBRANCH   1   2
BRANCH   1   9
ATOM      9  C   UNL     1      23.444  12.149  35.717  1.00  0.00     0.000 C 
BRANCH   9  10
ATOM     10  C   UNL     1      24.898  11.691  35.929  1.00  0.00     0.000 C 
BRANCH  10  11
ATOM     11  C   UNL     1      25.686  11.416  34.634  1.00  0.00    -0.000 C 
BRANCH  11  12
ATOM     12  C   UNL     1      27.207  11.242  34.817  1.00  0.00    -0.000 C 
BRANCH  12  13
ATOM     13  C   UNL     1      28.039  12.413  34.252  1.00  0.00    -0.003 C 
ATOM     14  C   UNL     1      27.643  13.763  34.852  1.00  0.00     0.004 C 
ENDBRANCH  12  13
ENDBRANCH  11  12
ENDBRANCH  10  11
ENDBRANCH   9  10
ENDBRANCH   1   9
TORSDOF 9
ENDMDL
MODEL 9
REMARK VINA RESULT:    -4.837      3.472      6.699
REMARK INTER + INTRA:          -8.086
REMARK INTER:                  -7.348
REMARK INTRA:                  -0.738
REMARK UNBOUND:                -0.705
REMARK SMILES CCCCCCCCCC=CC(=O)[O-]
REMARK SMILES IDX 7 1 8 2 9 3 10 4 11 5 12 6 13 7 14 8 6 9 5 10 4 11 3 12 2 13
REMARK SMILES IDX 1 14
REMARK H PARENT
REMARK Flexibility Score: inf
ROOT
ATOM      1  C   UNL     1      25.162  11.079  35.346  1.00  0.00     0.000 C 
ENDROOT
BRANCH   1   2
ATOM      2  C   UNL     1      24.266  11.940  34.441  1.00  0.00     0.004 C 
BRANCH   2   3
ATOM      3  C   UNL     1      22.803  11.966  34.916  1.00  0.00     0.027 C 
BRANCH   3   4
ATOM      4  C   UNL     1      22.523  10.839  35.871  1.00  0.00    -0.025 C 
ATOM      5  C   UNL     1      21.475  10.002  35.818  1.00  0.00     0.020 C 
BRANCH   5   6
ATOM      6  C   UNL     1      20.410   9.988  34.793  1.00  0.00     0.064 C 
ATOM      7  O   UNL     1      20.600   9.347  33.726  1.00  0.00    -0.545 OA
ATOM      8  O   UNL     1      19.217  10.681  34.952  1.00  0.00    -0.545 OA
ENDBRANCH   5   6
ENDBRANCH   3   4
ENDBRANCH   2   3
ENDBRANCH   1   2
BRANCH   1   9
ATOM      9  C   UNL     1      26.659  11.351  35.117  1.00  0.00     0.000 C 
BRANCH   9  10
ATOM     10  C   UNL     1      26.996  12.854  35.093  1.00  0.00     0.000 C 
BRANCH  10  11
ATOM     11  C   UNL     1      27.624  13.356  33.779  1.00  0.00    -0.000 C 
BRANCH  11  12
ATOM     12  C   UNL     1      28.367  12.284  32.957  1.00  0.00    -0.000 C 
BRANCH  12  13
ATOM     13  C   UNL     1      27.990  12.275  31.460  1.00  0.00    -0.003 C 
ATOM     14  C   UNL     1      27.624  10.881  30.951  1.00  0.00     0.004 C 
ENDBRANCH  12  13
ENDBRANCH  11  12
ENDBRANCH  10  11
ENDBRANCH   9  10
ENDBRANCH   1   9
TORSDOF 9
ENDMDL
