MODEL 1
REMARK VINA RESULT:    -4.528      0.000      0.000
REMARK INTER + INTRA:          -7.763
REMARK INTER:                  -6.910
REMARK INTRA:                  -0.853
REMARK UNBOUND:                -0.853
REMARK SMILES CCCCCCCCCCC(=O)[O-]
REMARK SMILES IDX 7 1 8 2 9 3 10 4 11 5 12 6 13 7 6 8 5 9 4 10 3 11 2 12 1 13
REMARK H PARENT
REMARK Flexibility Score: inf
ROOT
ATOM      1  C   UNL     1     250.885 259.500 246.933  1.00  0.00     0.000 C 
ENDROOT
BRANCH   1   2
ATOM      2  C   UNL     1     249.540 260.120 247.343  1.00  0.00     0.000 C 
BRANCH   2   3
ATOM      3  C   UNL     1     249.170 261.347 246.495  1.00  0.00     0.006 C 
BRANCH   3   4
ATOM      4  C   UNL     1     250.218 262.464 246.584  1.00  0.00     0.053 C 
BRANCH   4   5
ATOM      5  C   UNL     1     249.808 263.632 245.744  1.00  0.00     0.041 C 
ATOM      6  O   UNL     1     250.564 264.051 244.828  1.00  0.00    -0.550 OA
ATOM      7  O   UNL     1     248.613 264.290 246.005  1.00  0.00    -0.550 OA
ENDBRANCH   4   5
ENDBRANCH   3   4
ENDBRANCH   2   3
ENDBRANCH   1   2
BRANCH   1   8
ATOM      8  C   UNL     1     250.816 257.969 246.961  1.00  0.00     0.000 C 
BRANCH   8   9
ATOM      9  C   UNL     1     249.490 257.488 247.562  1.00  0.00    -0.000 C 
BRANCH   9  10
ATOM     10  C   UNL     1     248.806 256.468 246.639  1.00  0.00    -0.000 C 
BRANCH  10  11
ATOM     11  C   UNL     1     247.400 256.914 246.203  1.00  0.00    -0.000 C 
BRANCH  11  12
ATOM     12  C   UNL     1     247.378 257.488 244.778  1.00  0.00    -0.003 C 
ATOM     13  C   UNL     1     247.092 258.988 244.795  1.00  0.00     0.004 C 
ENDBRANCH  11  12
ENDBRANCH  10  11
ENDBRANCH   9  10
ENDBRANCH   8   9
ENDBRANCH   1   8
TORSDOF 9
ENDMDL
MODEL 2
REMARK VINA RESULT:    -4.352      4.028      6.066
REMARK INTER + INTRA:          -7.495
REMARK INTER:                  -6.241
REMARK INTRA:                  -1.254
REMARK UNBOUND:                -0.853
REMARK SMILES CCCCCCCCCCC(=O)[O-]
REMARK SMILES IDX 7 1 8 2 9 3 10 4 11 5 12 6 13 7 6 8 5 9 4 10 3 11 2 12 1 13
REMARK H PARENT
REMARK Flexibility Score: inf
ROOT
ATOM      1  C   UNL     1     254.327 257.372 247.848  1.00  0.00     0.000 C 
ENDROOT
BRANCH   1   2
ATOM      2  C   UNL     1     252.913 257.876 248.172  1.00  0.00     0.000 C 
BRANCH   2   3
ATOM      3  C   UNL     1     252.087 258.178 246.912  1.00  0.00     0.006 C 
BRANCH   3   4
ATOM      4  C   UNL     1     251.250 259.456 247.046  1.00  0.00     0.053 C 
BRANCH   4   5
ATOM      5  C   UNL     1     249.790 259.132 246.998  1.00  0.00     0.041 C 
ATOM      6  O   UNL     1     249.003 259.853 246.330  1.00  0.00    -0.550 OA
ATOM      7  O   UNL     1     249.291 258.064 247.731  1.00  0.00    -0.550 OA
ENDBRANCH   4   5
ENDBRANCH   3   4
ENDBRANCH   2   3
ENDBRANCH   1   2
BRANCH   1   8
ATOM      8  C   UNL     1     255.389 258.219 248.558  1.00  0.00     0.000 C 
BRANCH   8   9
ATOM      9  C   UNL     1     254.755 259.430 249.252  1.00  0.00    -0.000 C 
BRANCH   9  10
ATOM     10  C   UNL     1     255.258 260.743 248.634  1.00  0.00    -0.000 C 
BRANCH  10  11
ATOM     11  C   UNL     1     255.690 260.580 247.167  1.00  0.00    -0.000 C 
BRANCH  11  12
ATOM     12  C   UNL     1     254.557 260.896 246.180  1.00  0.00    -0.003 C 
ATOM     13  C   UNL     1     254.677 260.046 244.917  1.00  0.00     0.004 C 
ENDBRANCH  11  12
ENDBRANCH  10  11
ENDBRANCH   9  10
ENDBRANCH   8   9
ENDBRANCH   1   8
TORSDOF 9
ENDMDL
MODEL 3
REMARK VINA RESULT:    -4.332      7.481      9.526
REMARK INTER + INTRA:          -7.464
REMARK INTER:                  -6.667
REMARK INTRA:                  -0.797
REMARK UNBOUND:                -0.853
REMARK SMILES CCCCCCCCCCC(=O)[O-]
REMARK SMILES IDX 7 1 8 2 9 3 10 4 11 5 12 6 13 7 6 8 5 9 4 10 3 11 2 12 1 13
REMARK H PARENT
REMARK Flexibility Score: inf
ROOT
ATOM      1  C   UNL     1     255.379 260.665 245.782  1.00  0.00     0.000 C 
ENDROOT
BRANCH   1   2
ATOM      2  C   UNL     1     254.829 260.590 247.215  1.00  0.00     0.000 C 
BRANCH   2   3
ATOM      3  C   UNL     1     255.935 260.670 248.279  1.00  0.00     0.006 C 
BRANCH   3   4
ATOM      4  C   UNL     1     255.383 260.932 249.686  1.00  0.00     0.053 C 
BRANCH   4   5
ATOM      5  C   UNL     1     256.453 261.484 250.573  1.00  0.00     0.041 C 
ATOM      6  O   UNL     1     256.187 261.813 251.759  1.00  0.00    -0.550 OA
ATOM      7  O   UNL     1     257.734 261.683 250.074  1.00  0.00    -0.550 OA
ENDBRANCH   4   5
ENDBRANCH   3   4
ENDBRANCH   2   3
ENDBRANCH   1   2
BRANCH   1   8
ATOM      8  C   UNL     1     256.603 261.585 245.710  1.00  0.00     0.000 C 
BRANCH   8   9
ATOM      9  C   UNL     1     257.535 261.174 244.564  1.00  0.00    -0.000 C 
BRANCH   9  10
ATOM     10  C   UNL     1     258.973 260.982 245.067  1.00  0.00    -0.000 C 
BRANCH  10  11
ATOM     11  C   UNL     1     259.128 261.318 246.560  1.00  0.00    -0.000 C 
BRANCH  11  12
ATOM     12  C   UNL     1     259.837 260.204 247.345  1.00  0.00    -0.003 C 
ATOM     13  C   UNL     1     260.751 259.388 246.435  1.00  0.00     0.004 C 
ENDBRANCH  11  12
ENDBRANCH  10  11
ENDBRANCH   9  10
ENDBRANCH   8   9
ENDBRANCH   1   8
TORSDOF 9
ENDMDL
MODEL 4
REMARK VINA RESULT:    -4.249      6.857      8.627
REMARK INTER + INTRA:          -7.337
REMARK INTER:                  -6.359
REMARK INTRA:                  -0.978
REMARK UNBOUND:                -0.853
REMARK SMILES CCCCCCCCCCC(=O)[O-]
REMARK SMILES IDX 7 1 8 2 9 3 10 4 11 5 12 6 13 7 6 8 5 9 4 10 3 11 2 12 1 13
REMARK H PARENT
REMARK Flexibility Score: inf
ROOT
ATOM      1  C   UNL     1     255.358 260.255 244.640  1.00  0.00     0.000 C 
ENDROOT
BRANCH   1   2
ATOM      2  C   UNL     1     256.281 261.274 245.326  1.00  0.00     0.000 C 
BRANCH   2   3
ATOM      3  C   UNL     1     257.670 261.348 244.674  1.00  0.00     0.006 C 
BRANCH   3   4
ATOM      4  C   UNL     1     258.572 262.406 245.325  1.00  0.00     0.053 C 
BRANCH   4   5
ATOM      5  C   UNL     1     259.704 261.751 246.051  1.00  0.00     0.041 C 
ATOM      6  O   UNL     1     260.581 262.452 246.621  1.00  0.00    -0.550 OA
ATOM      7  O   UNL     1     259.819 260.366 246.055  1.00  0.00    -0.550 OA
ENDBRANCH   4   5
ENDBRANCH   3   4
ENDBRANCH   2   3
ENDBRANCH   1   2
BRANCH   1   8
ATOM      8  C   UNL     1     254.182 259.880 245.549  1.00  0.00     0.000 C 
BRANCH   8   9
ATOM      9  C   UNL     1     253.908 260.982 246.579  1.00  0.00    -0.000 C 
BRANCH   9  10
ATOM     10  C   UNL     1     253.744 260.389 247.987  1.00  0.00    -0.000 C 
BRANCH  10  11
ATOM     11  C   UNL     1     254.839 260.860 248.959  1.00  0.00    -0.000 C 
BRANCH  11  12
ATOM     12  C   UNL     1     256.147 260.072 248.802  1.00  0.00    -0.003 C 
ATOM     13  C   UNL     1     257.357 261.002 248.846  1.00  0.00     0.004 C 
ENDBRANCH  11  12
ENDBRANCH  10  11
ENDBRANCH   9  10
ENDBRANCH   8   9
ENDBRANCH   1   8
TORSDOF 9
ENDMDL
MODEL 5
REMARK VINA RESULT:    -4.249      6.883      8.134
REMARK INTER + INTRA:          -7.337
REMARK INTER:                  -6.861
REMARK INTRA:                  -0.475
REMARK UNBOUND:                -0.853
REMARK SMILES CCCCCCCCCCC(=O)[O-]
REMARK SMILES IDX 7 1 8 2 9 3 10 4 11 5 12 6 13 7 6 8 5 9 4 10 3 11 2 12 1 13
REMARK H PARENT
REMARK Flexibility Score: inf
ROOT
ATOM      1  C   UNL     1     256.429 261.302 250.457  1.00  0.00     0.000 C 
ENDROOT
BRANCH   1   2
ATOM      2  C   UNL     1     256.150 262.282 251.607  1.00  0.00     0.000 C 
BRANCH   2   3
ATOM      3  C   UNL     1     254.721 262.158 252.158  1.00  0.00     0.006 C 
BRANCH   3   4
ATOM      4  C   UNL     1     254.687 262.018 253.686  1.00  0.00     0.053 C 
BRANCH   4   5
ATOM      5  C   UNL     1     254.211 260.654 254.074  1.00  0.00     0.041 C 
ATOM      6  O   UNL     1     253.013 260.321 253.874  1.00  0.00    -0.550 OA
ATOM      7  O   UNL     1     255.077 259.769 254.703  1.00  0.00    -0.550 OA
ENDBRANCH   4   5
ENDBRANCH   3   4
ENDBRANCH   2   3
ENDBRANCH   1   2
BRANCH   1   8
ATOM      8  C   UNL     1     255.186 260.466 250.133  1.00  0.00     0.000 C 
BRANCH   8   9
ATOM      9  C   UNL     1     255.196 260.006 248.671  1.00  0.00    -0.000 C 
BRANCH   9  10
ATOM     10  C   UNL     1     254.221 260.839 247.825  1.00  0.00    -0.000 C 
BRANCH  10  11
ATOM     11  C   UNL     1     253.232 259.969 247.032  1.00  0.00    -0.000 C 
BRANCH  11  12
ATOM     12  C   UNL     1     253.920 259.148 245.931  1.00  0.00    -0.003 C 
ATOM     13  C   UNL     1     254.720 260.049 244.993  1.00  0.00     0.004 C 
ENDBRANCH  11  12
ENDBRANCH  10  11
ENDBRANCH   9  10
ENDBRANCH   8   9
ENDBRANCH   1   8
TORSDOF 9
ENDMDL
MODEL 6
REMARK VINA RESULT:    -4.233      6.496      8.541
REMARK INTER + INTRA:          -7.313
REMARK INTER:                  -6.306
REMARK INTRA:                  -1.007
REMARK UNBOUND:                -0.853
REMARK SMILES CCCCCCCCCCC(=O)[O-]
REMARK SMILES IDX 7 1 8 2 9 3 10 4 11 5 12 6 13 7 6 8 5 9 4 10 3 11 2 12 1 13
REMARK H PARENT
REMARK Flexibility Score: inf
ROOT
ATOM      1  C   UNL     1     256.408 260.268 248.109  1.00  0.00     0.000 C 
ENDROOT
BRANCH   1   2
ATOM      2  C   UNL     1     254.907 260.595 248.069  1.00  0.00     0.000 C 
BRANCH   2   3
ATOM      3  C   UNL     1     254.406 260.907 246.650  1.00  0.00     0.006 C 
BRANCH   3   4
ATOM      4  C   UNL     1     254.301 259.653 245.772  1.00  0.00     0.053 C 
BRANCH   4   5
ATOM      5  C   UNL     1     253.347 258.672 246.374  1.00  0.00     0.041 C 
ATOM      6  O   UNL     1     253.692 257.472 246.539  1.00  0.00    -0.550 OA
ATOM      7  O   UNL     1     252.058 259.070 246.708  1.00  0.00    -0.550 OA
ENDBRANCH   4   5
ENDBRANCH   3   4
ENDBRANCH   2   3
ENDBRANCH   1   2
BRANCH   1   8
ATOM      8  C   UNL     1     257.172 261.297 248.951  1.00  0.00     0.000 C 
BRANCH   8   9
ATOM      9  C   UNL     1     258.340 261.899 248.161  1.00  0.00    -0.000 C 
BRANCH   9  10
ATOM     10  C   UNL     1     259.279 260.799 247.644  1.00  0.00    -0.000 C 
BRANCH  10  11
ATOM     11  C   UNL     1     259.444 260.830 246.116  1.00  0.00    -0.000 C 
BRANCH  11  12
ATOM     12  C   UNL     1     258.520 261.855 245.443  1.00  0.00    -0.003 C 
ATOM     13  C   UNL     1     257.503 261.165 244.537  1.00  0.00     0.004 C 
ENDBRANCH  11  12
ENDBRANCH  10  11
ENDBRANCH   9  10
ENDBRANCH   8   9
ENDBRANCH   1   8
TORSDOF 9
ENDMDL
MODEL 7
REMARK VINA RESULT:    -4.212      5.791      7.164
REMARK INTER + INTRA:          -7.280
REMARK INTER:                  -6.523
REMARK INTRA:                  -0.757
REMARK UNBOUND:                -0.853
REMARK SMILES CCCCCCCCCCC(=O)[O-]
REMARK SMILES IDX 7 1 8 2 9 3 10 4 11 5 12 6 13 7 6 8 5 9 4 10 3 11 2 12 1 13
REMARK H PARENT
REMARK Flexibility Score: inf
ROOT
ATOM      1  C   UNL     1     254.907 260.994 249.298  1.00  0.00     0.000 C 
ENDROOT
BRANCH   1   2
ATOM      2  C   UNL     1     255.198 259.744 250.143  1.00  0.00     0.000 C 
BRANCH   2   3
ATOM      3  C   UNL     1     255.282 260.050 251.646  1.00  0.00     0.006 C 
BRANCH   3   4
ATOM      4  C   UNL     1     255.727 261.490 251.932  1.00  0.00     0.053 C 
BRANCH   4   5
ATOM      5  C   UNL     1     254.662 262.226 252.682  1.00  0.00     0.041 C 
ATOM      6  O   UNL     1     253.721 262.786 252.059  1.00  0.00    -0.550 OA
ATOM      7  O   UNL     1     254.735 262.337 254.064  1.00  0.00    -0.550 OA
ENDBRANCH   4   5
ENDBRANCH   3   4
ENDBRANCH   2   3
ENDBRANCH   1   2
BRANCH   1   8
ATOM      8  C   UNL     1     254.842 260.647 247.807  1.00  0.00     0.000 C 
BRANCH   8   9
ATOM      9  C   UNL     1     253.440 260.906 247.241  1.00  0.00    -0.000 C 
BRANCH   9  10
ATOM     10  C   UNL     1     252.771 259.593 246.807  1.00  0.00    -0.000 C 
BRANCH  10  11
ATOM     11  C   UNL     1     253.778 258.569 246.256  1.00  0.00    -0.000 C 
BRANCH  11  12
ATOM     12  C   UNL     1     253.561 257.161 246.828  1.00  0.00    -0.003 C 
ATOM     13  C   UNL     1     254.642 256.808 247.846  1.00  0.00     0.004 C 
ENDBRANCH  11  12
ENDBRANCH  10  11
ENDBRANCH   9  10
ENDBRANCH   8   9
ENDBRANCH   1   8
TORSDOF 9
ENDMDL
MODEL 8
REMARK VINA RESULT:    -4.201      6.284      8.520
REMARK INTER + INTRA:          -7.263
REMARK INTER:                  -6.755
REMARK INTRA:                  -0.508
REMARK UNBOUND:                -0.853
REMARK SMILES CCCCCCCCCCC(=O)[O-]
REMARK SMILES IDX 7 1 8 2 9 3 10 4 11 5 12 6 13 7 6 8 5 9 4 10 3 11 2 12 1 13
REMARK H PARENT
REMARK Flexibility Score: inf
ROOT
ATOM      1  C   UNL     1     254.917 260.925 246.325  1.00  0.00     0.000 C 
ENDROOT
BRANCH   1   2
ATOM      2  C   UNL     1     254.526 259.794 245.362  1.00  0.00     0.000 C 
BRANCH   2   3
ATOM      3  C   UNL     1     253.654 258.720 246.031  1.00  0.00     0.006 C 
BRANCH   3   4
ATOM      4  C   UNL     1     252.566 259.320 246.932  1.00  0.00     0.053 C 
BRANCH   4   5
ATOM      5  C   UNL     1     251.343 258.458 246.917  1.00  0.00     0.041 C 
ATOM      6  O   UNL     1     251.430 257.239 246.614  1.00  0.00    -0.550 OA
ATOM      7  O   UNL     1     250.099 259.013 247.190  1.00  0.00    -0.550 OA
ENDBRANCH   4   5
ENDBRANCH   3   4
ENDBRANCH   2   3
ENDBRANCH   1   2
BRANCH   1   8
ATOM      8  C   UNL     1     256.399 261.286 246.175  1.00  0.00     0.000 C 
BRANCH   8   9
ATOM      9  C   UNL     1     256.909 260.950 244.768  1.00  0.00    -0.000 C 
BRANCH   9  10
ATOM     10  C   UNL     1     258.370 261.391 244.593  1.00  0.00    -0.000 C 
BRANCH  10  11
ATOM     11  C   UNL     1     259.155 261.377 245.915  1.00  0.00    -0.000 C 
BRANCH  11  12
ATOM     12  C   UNL     1     259.999 260.106 246.088  1.00  0.00    -0.003 C 
ATOM     13  C   UNL     1     260.109 259.715 247.560  1.00  0.00     0.004 C 
ENDBRANCH  11  12
ENDBRANCH  10  11
ENDBRANCH   9  10
ENDBRANCH   8   9
ENDBRANCH   1   8
TORSDOF 9
ENDMDL
MODEL 9
REMARK VINA RESULT:    -4.184      5.315      6.982
REMARK INTER + INTRA:          -7.237
REMARK INTER:                  -6.190
REMARK INTRA:                  -1.047
REMARK UNBOUND:                -0.853
REMARK SMILES CCCCCCCCCCC(=O)[O-]
REMARK SMILES IDX 7 1 8 2 9 3 10 4 11 5 12 6 13 7 6 8 5 9 4 10 3 11 2 12 1 13
REMARK H PARENT
REMARK Flexibility Score: inf
ROOT
ATOM      1  C   UNL     1     253.787 260.946 248.031  1.00  0.00     0.000 C 
ENDROOT
BRANCH   1   2
ATOM      2  C   UNL     1     255.320 260.871 248.101  1.00  0.00     0.000 C 
BRANCH   2   3
ATOM      3  C   UNL     1     255.978 260.884 246.712  1.00  0.00     0.006 C 
BRANCH   3   4
ATOM      4  C   UNL     1     257.457 261.290 246.763  1.00  0.00     0.053 C 
BRANCH   4   5
ATOM      5  C   UNL     1     257.937 261.685 245.403  1.00  0.00     0.041 C 
ATOM      6  O   UNL     1     257.457 261.133 244.377  1.00  0.00    -0.550 OA
ATOM      7  O   UNL     1     258.950 262.626 245.269  1.00  0.00    -0.550 OA
ENDBRANCH   4   5
ENDBRANCH   3   4
ENDBRANCH   2   3
ENDBRANCH   1   2
BRANCH   1   8
ATOM      8  C   UNL     1     253.273 260.429 246.682  1.00  0.00     0.000 C 
BRANCH   8   9
ATOM      9  C   UNL     1     252.661 259.030 246.825  1.00  0.00    -0.000 C 
BRANCH   9  10
ATOM     10  C   UNL     1     253.664 257.946 246.402  1.00  0.00    -0.000 C 
BRANCH  10  11
ATOM     11  C   UNL     1     253.880 256.883 247.492  1.00  0.00    -0.000 C 
BRANCH  11  12
ATOM     12  C   UNL     1     255.078 257.202 248.398  1.00  0.00    -0.003 C 
ATOM     13  C   UNL     1     254.616 257.620 249.792  1.00  0.00     0.004 C 
ENDBRANCH  11  12
ENDBRANCH  10  11
ENDBRANCH   9  10
ENDBRANCH   8   9
ENDBRANCH   1   8
TORSDOF 9
ENDMDL
