MODEL 1
REMARK VINA RESULT:    11.004      0.000      0.000
REMARK INTER + INTRA:          14.516
REMARK INTER:                  14.863
REMARK INTRA:                  -0.347
REMARK UNBOUND:                -0.347
REMARK SMILES O=c1c(-c2ccc(O)cc2)coc2c([C@@H]3O[C@@H](CO)[C@@H](O)[C@H](O)[C@@H]3O)c(O)ccc12
REMARK SMILES IDX 3 1 11 2 12 3 13 4 30 5 2 6 1 7 29 8 28 9 26 10 14 11 4 12
REMARK SMILES IDX 5 13 6 14 7 15 10 16 9 17 8 18 15 20 24 21 16 22 22 23 17 24
REMARK SMILES IDX 20 25 25 26 23 28 18 30 19 31 21 33 27 35
REMARK H PARENT 8 19 25 27 23 29 19 32 21 34 27 36
REMARK Flexibility Score: inf
ROOT
ATOM      1  C   UNL     1      79.866  16.037   7.377  1.00  0.00     0.065 A 
ATOM      2  C   UNL     1      80.026  17.156   6.549  1.00  0.00     0.208 A 
ATOM      3  O   UNL     1      79.543  17.165   5.314  1.00  0.00    -0.463 OA
ATOM      4  C   UNL     1      78.888  16.138   4.777  1.00  0.00     0.147 A 
ATOM      5  C   UNL     1      78.692  14.964   5.540  1.00  0.00     0.066 A 
ATOM      6  C   UNL     1      79.192  14.918   6.853  1.00  0.00     0.200 A 
ATOM      7  O   UNL     1      79.058  13.875   7.551  1.00  0.00    -0.288 OA
ATOM      8  C   UNL     1      78.017  13.875   4.972  1.00  0.00     0.020 A 
ATOM      9  C   UNL     1      77.564  13.939   3.658  1.00  0.00     0.047 A 
ATOM     10  C   UNL     1      77.763  15.084   2.881  1.00  0.00     0.125 A 
ATOM     11  C   UNL     1      78.396  16.228   3.450  1.00  0.00     0.069 A 
ENDROOT
BRANCH   1  12
ATOM     12  C   UNL     1      80.407  16.053   8.759  1.00  0.00    -0.011 A 
ATOM     13  C   UNL     1      81.680  15.524   9.037  1.00  0.00     0.013 A 
ATOM     14  C   UNL     1      82.181  15.534  10.342  1.00  0.00     0.047 A 
ATOM     15  C   UNL     1      81.414  16.068  11.387  1.00  0.00     0.115 A 
ATOM     16  C   UNL     1      79.642  16.580   9.815  1.00  0.00     0.013 A 
ATOM     17  C   UNL     1      80.145  16.588  11.119  1.00  0.00     0.047 A 
BRANCH  15  18
ATOM     18  O   UNL     1      81.903  16.083  12.691  1.00  0.00    -0.508 OA
ATOM     19  H   UNL     1      81.559  15.438  13.394  1.00  0.00     0.293 HD
ENDBRANCH  15  18
ENDBRANCH   1  12
BRANCH  11  20
ATOM     20  C   UNL     1      78.595  17.533   2.680  1.00  0.00     0.188 C 
ATOM     21  C   UNL     1      80.086  17.945   2.664  1.00  0.00     0.179 C 
ATOM     22  O   UNL     1      78.045  17.431   1.374  1.00  0.00    -0.362 OA
ATOM     23  C   UNL     1      80.242  19.273   1.910  1.00  0.00     0.177 C 
ATOM     24  C   UNL     1      78.116  18.650   0.645  1.00  0.00     0.176 C 
ATOM     25  C   UNL     1      79.570  19.176   0.530  1.00  0.00     0.177 C 
BRANCH  21  26
ATOM     26  O   UNL     1      80.878  16.959   2.050  1.00  0.00    -0.387 OA
ATOM     27  H   UNL     1      80.278  16.421   1.471  1.00  0.00     0.211 HD
ENDBRANCH  21  26
BRANCH  23  28
ATOM     28  O   UNL     1      81.604  19.580   1.748  1.00  0.00    -0.387 OA
ATOM     29  H   UNL     1      82.052  19.354   2.605  1.00  0.00     0.211 HD
ENDBRANCH  23  28
BRANCH  24  30
ATOM     30  C   UNL     1      77.092  19.690   1.164  1.00  0.00     0.191 C 
BRANCH  30  31
ATOM     31  O   UNL     1      76.206  20.071   0.146  1.00  0.00    -0.394 OA
ATOM     32  H   UNL     1      76.601  20.870  -0.293  1.00  0.00     0.210 HD
ENDBRANCH  30  31
ENDBRANCH  24  30
BRANCH  25  33
ATOM     33  O   UNL     1      79.585  20.427  -0.109  1.00  0.00    -0.388 OA
ATOM     34  H   UNL     1      79.664  21.116   0.602  1.00  0.00     0.211 HD
ENDBRANCH  25  33
ENDBRANCH  11  20
BRANCH  10  35
ATOM     35  O   UNL     1      77.329  15.023   1.554  1.00  0.00    -0.507 OA
ATOM     36  H   UNL     1      77.746  15.530   0.787  1.00  0.00     0.293 HD
ENDBRANCH  10  35
TORSDOF 9
ENDMDL
MODEL 2
REMARK VINA RESULT:    11.366      0.863      2.092
REMARK INTER + INTRA:          15.005
REMARK INTER:                  14.767
REMARK INTRA:                   0.238
REMARK UNBOUND:                -0.347
REMARK SMILES O=c1c(-c2ccc(O)cc2)coc2c([C@@H]3O[C@@H](CO)[C@@H](O)[C@H](O)[C@@H]3O)c(O)ccc12
REMARK SMILES IDX 3 1 11 2 12 3 13 4 30 5 2 6 1 7 29 8 28 9 26 10 14 11 4 12
REMARK SMILES IDX 5 13 6 14 7 15 10 16 9 17 8 18 15 20 24 21 16 22 22 23 17 24
REMARK SMILES IDX 20 25 25 26 23 28 18 30 19 31 21 33 27 35
REMARK H PARENT 8 19 25 27 23 29 19 32 21 34 27 36
REMARK Flexibility Score: inf
ROOT
ATOM      1  C   UNL     1      79.952  15.934   7.031  1.00  0.00     0.065 A 
ATOM      2  C   UNL     1      80.306  16.995   6.187  1.00  0.00     0.208 A 
ATOM      3  O   UNL     1      79.941  17.003   4.912  1.00  0.00    -0.463 OA
ATOM      4  C   UNL     1      79.232  16.027   4.348  1.00  0.00     0.147 A 
ATOM      5  C   UNL     1      78.844  14.911   5.125  1.00  0.00     0.066 A 
ATOM      6  C   UNL     1      79.215  14.869   6.481  1.00  0.00     0.200 A 
ATOM      7  O   UNL     1      78.907  13.875   7.195  1.00  0.00    -0.288 OA
ATOM      8  C   UNL     1      78.113  13.875   4.530  1.00  0.00     0.020 A 
ATOM      9  C   UNL     1      77.791  13.931   3.178  1.00  0.00     0.047 A 
ATOM     10  C   UNL     1      78.181  15.016   2.388  1.00  0.00     0.125 A 
ATOM     11  C   UNL     1      78.876  16.112   2.977  1.00  0.00     0.069 A 
ENDROOT
BRANCH   1  12
ATOM     12  C   UNL     1      80.363  15.952   8.457  1.00  0.00    -0.011 A 
ATOM     13  C   UNL     1      81.554  15.325   8.869  1.00  0.00     0.013 A 
ATOM     14  C   UNL     1      81.931  15.337  10.214  1.00  0.00     0.047 A 
ATOM     15  C   UNL     1      81.122  15.971  11.167  1.00  0.00     0.115 A 
ATOM     16  C   UNL     1      79.554  16.579   9.421  1.00  0.00     0.013 A 
ATOM     17  C   UNL     1      79.935  16.590  10.767  1.00  0.00     0.047 A 
BRANCH  15  18
ATOM     18  O   UNL     1      81.489  15.990  12.511  1.00  0.00    -0.508 OA
ATOM     19  H   UNL     1      81.093  15.337  13.177  1.00  0.00     0.293 HD
ENDBRANCH  15  18
ENDBRANCH   1  12
BRANCH  11  20
ATOM     20  C   UNL     1      79.282  17.356   2.189  1.00  0.00     0.188 C 
ATOM     21  C   UNL     1      78.051  18.023   1.532  1.00  0.00     0.179 C 
ATOM     22  O   UNL     1      80.010  18.254   3.015  1.00  0.00    -0.362 OA
ATOM     23  C   UNL     1      78.501  19.249   0.725  1.00  0.00     0.177 C 
ATOM     24  C   UNL     1      80.498  19.388   2.307  1.00  0.00     0.176 C 
ATOM     25  C   UNL     1      79.358  20.172   1.608  1.00  0.00     0.177 C 
BRANCH  21  26
ATOM     26  O   UNL     1      77.110  18.416   2.499  1.00  0.00    -0.387 OA
ATOM     27  H   UNL     1      76.882  19.365   2.317  1.00  0.00     0.211 HD
ENDBRANCH  21  26
BRANCH  23  28
ATOM     28  O   UNL     1      77.382  19.956   0.254  1.00  0.00    -0.387 OA
ATOM     29  H   UNL     1      76.768  20.069   1.027  1.00  0.00     0.211 HD
ENDBRANCH  23  28
BRANCH  24  30
ATOM     30  C   UNL     1      81.689  19.022   1.388  1.00  0.00     0.191 C 
BRANCH  30  31
ATOM     31  O   UNL     1      82.314  20.177   0.894  1.00  0.00    -0.394 OA
ATOM     32  H   UNL     1      83.274  19.953   0.776  1.00  0.00     0.210 HD
ENDBRANCH  30  31
ENDBRANCH  24  30
BRANCH  25  33
ATOM     33  O   UNL     1      79.891  21.223   0.842  1.00  0.00    -0.388 OA
ATOM     34  H   UNL     1      79.303  22.011   0.982  1.00  0.00     0.211 HD
ENDBRANCH  25  33
ENDBRANCH  11  20
BRANCH  10  35
ATOM     35  O   UNL     1      77.866  14.945   1.027  1.00  0.00    -0.507 OA
ATOM     36  H   UNL     1      76.952  15.125   0.637  1.00  0.00     0.293 HD
ENDBRANCH  10  35
TORSDOF 9
ENDMDL
MODEL 3
REMARK VINA RESULT:    13.287      2.609      4.251
REMARK INTER + INTRA:          17.601
REMARK INTER:                  15.448
REMARK INTRA:                   2.153
REMARK UNBOUND:                -0.347
REMARK SMILES O=c1c(-c2ccc(O)cc2)coc2c([C@@H]3O[C@@H](CO)[C@@H](O)[C@H](O)[C@@H]3O)c(O)ccc12
REMARK SMILES IDX 3 1 11 2 12 3 13 4 30 5 2 6 1 7 29 8 28 9 26 10 14 11 4 12
REMARK SMILES IDX 5 13 6 14 7 15 10 16 9 17 8 18 15 20 24 21 16 22 22 23 17 24
REMARK SMILES IDX 20 25 25 26 23 28 18 30 19 31 21 33 27 35
REMARK H PARENT 8 19 25 27 23 29 19 32 21 34 27 36
REMARK Flexibility Score: inf
ROOT
ATOM      1  C   UNL     1      80.805  15.407   8.905  1.00  0.00     0.065 A 
ATOM      2  C   UNL     1      80.947  14.628   7.749  1.00  0.00     0.208 A 
ATOM      3  O   UNL     1      80.350  14.973   6.617  1.00  0.00    -0.463 OA
ATOM      4  C   UNL     1      79.587  16.058   6.493  1.00  0.00     0.147 A 
ATOM      5  C   UNL     1      79.381  16.894   7.614  1.00  0.00     0.066 A 
ATOM      6  C   UNL     1      79.998  16.557   8.832  1.00  0.00     0.200 A 
ATOM      7  O   UNL     1      79.812  17.267   9.859  1.00  0.00    -0.288 OA
ATOM      8  C   UNL     1      78.566  18.027   7.492  1.00  0.00     0.020 A 
ATOM      9  C   UNL     1      77.942  18.314   6.282  1.00  0.00     0.047 A 
ATOM     10  C   UNL     1      78.118  17.491   5.166  1.00  0.00     0.125 A 
ATOM     11  C   UNL     1      78.987  16.363   5.244  1.00  0.00     0.069 A 
ENDROOT
BRANCH   1  12
ATOM     12  C   UNL     1      81.491  15.005  10.159  1.00  0.00    -0.011 A 
ATOM     13  C   UNL     1      80.870  15.192  11.408  1.00  0.00     0.013 A 
ATOM     14  C   UNL     1      81.524  14.820  12.586  1.00  0.00     0.047 A 
ATOM     15  C   UNL     1      82.808  14.262  12.532  1.00  0.00     0.115 A 
ATOM     16  C   UNL     1      82.782  14.451  10.116  1.00  0.00     0.013 A 
ATOM     17  C   UNL     1      83.434  14.081  11.296  1.00  0.00     0.047 A 
BRANCH  15  18
ATOM     18  O   UNL     1      83.469  13.888  13.700  1.00  0.00    -0.508 OA
ATOM     19  H   UNL     1      84.481  13.869  13.753  1.00  0.00     0.293 HD
ENDBRANCH  15  18
ENDBRANCH   1  12
BRANCH  11  20
ATOM     20  C   UNL     1      79.273  15.453   4.051  1.00  0.00     0.188 C 
ATOM     21  C   UNL     1      77.990  15.206   3.222  1.00  0.00     0.179 C 
ATOM     22  O   UNL     1      80.334  15.977   3.266  1.00  0.00    -0.362 OA
ATOM     23  C   UNL     1      78.309  14.264   2.052  1.00  0.00     0.177 C 
ATOM     24  C   UNL     1      80.708  15.120   2.194  1.00  0.00     0.176 C 
ATOM     25  C   UNL     1      79.513  14.801   1.259  1.00  0.00     0.177 C 
BRANCH  21  26
ATOM     26  O   UNL     1      77.467  16.412   2.726  1.00  0.00    -0.387 OA
ATOM     27  H   UNL     1      77.534  16.375   1.736  1.00  0.00     0.211 HD
ENDBRANCH  21  26
BRANCH  23  28
ATOM     28  O   UNL     1      77.197  14.156   1.201  1.00  0.00    -0.387 OA
ATOM     29  H   UNL     1      77.542  13.870   0.314  1.00  0.00     0.211 HD
ENDBRANCH  23  28
BRANCH  24  30
ATOM     30  C   UNL     1      81.486  13.879   2.696  1.00  0.00     0.191 C 
BRANCH  30  31
ATOM     31  O   UNL     1      82.097  14.137   3.932  1.00  0.00    -0.394 OA
ATOM     32  H   UNL     1      81.536  13.699   4.625  1.00  0.00     0.210 HD
ENDBRANCH  30  31
ENDBRANCH  24  30
BRANCH  25  33
ATOM     33  O   UNL     1      79.900  13.876   0.275  1.00  0.00    -0.388 OA
ATOM     34  H   UNL     1      79.973  12.992   0.720  1.00  0.00     0.211 HD
ENDBRANCH  25  33
ENDBRANCH  11  20
BRANCH  10  35
ATOM     35  O   UNL     1      77.396  17.830   4.017  1.00  0.00    -0.507 OA
ATOM     36  H   UNL     1      76.395  17.744   3.920  1.00  0.00     0.293 HD
ENDBRANCH  10  35
TORSDOF 9
ENDMDL
