MODEL 1
REMARK VINA RESULT:    -4.280      0.000      0.000
REMARK INTER + INTRA:          -6.217
REMARK INTER:                  -5.781
REMARK INTRA:                  -0.437
REMARK UNBOUND:                -0.437
REMARK SMILES [NH3+]CCCC[C@@H]([NH3+])C(=O)[O-]
REMARK SMILES IDX 4 1 3 2 2 3 1 4 5 8 6 9 7 10 8 14 9 15 10 16
REMARK H PARENT 1 5 1 6 1 7 7 11 7 12 7 13
REMARK Flexibility Score: inf
ROOT
ATOM      1  C   UNL     1     -25.667  85.097 -23.333  1.00  0.00     0.012 C 
ENDROOT
BRANCH   1   2
ATOM      2  C   UNL     1     -24.325  85.838 -23.373  1.00  0.00     0.061 C 
BRANCH   2   3
ATOM      3  C   UNL     1     -23.949  86.377 -21.987  1.00  0.00     0.258 C 
BRANCH   3   4
ATOM      4  N   UNL     1     -22.688  85.799 -21.526  1.00  0.00    -0.358 N 
ATOM      5  H   UNL     1     -22.457  86.190 -20.584  1.00  0.00     0.344 HD
ATOM      6  H   UNL     1     -21.917  86.042 -22.190  1.00  0.00     0.344 HD
ATOM      7  H   UNL     1     -22.776  84.760 -21.449  1.00  0.00     0.344 HD
ENDBRANCH   3   4
ENDBRANCH   2   3
ENDBRANCH   1   2
BRANCH   1   8
ATOM      8  C   UNL     1     -26.054  84.734 -21.890  1.00  0.00     0.072 C 
BRANCH   8   9
ATOM      9  C   UNL     1     -26.091  83.209 -21.661  1.00  0.00     0.227 C 
BRANCH   9  10
ATOM     10  N   UNL     1     -25.585  82.500 -22.843  1.00  0.00    -0.350 N 
ATOM     11  H   UNL     1     -24.556  82.661 -22.940  1.00  0.00     0.345 HD
ATOM     12  H   UNL     1     -25.746  81.473 -22.736  1.00  0.00     0.345 HD
ATOM     13  H   UNL     1     -26.070  82.834 -23.709  1.00  0.00     0.345 HD
ENDBRANCH   9  10
BRANCH   9  14
ATOM     14  C   UNL     1     -25.286  82.824 -20.447  1.00  0.00     0.099 C 
ATOM     15  O   UNL     1     -24.412  83.607 -19.993  1.00  0.00    -0.544 OA
ATOM     16  O   UNL     1     -25.501  81.601 -19.822  1.00  0.00    -0.544 OA
ENDBRANCH   9  14
ENDBRANCH   8   9
ENDBRANCH   1   8
TORSDOF 7
ENDMDL
MODEL 2
REMARK VINA RESULT:    -4.233     11.455     12.208
REMARK INTER + INTRA:          -6.154
REMARK INTER:                  -5.735
REMARK INTRA:                  -0.420
REMARK UNBOUND:                -0.437
REMARK SMILES [NH3+]CCCC[C@@H]([NH3+])C(=O)[O-]
REMARK SMILES IDX 4 1 3 2 2 3 1 4 5 8 6 9 7 10 8 14 9 15 10 16
REMARK H PARENT 1 5 1 6 1 7 7 11 7 12 7 13
REMARK Flexibility Score: inf
ROOT
ATOM      1  C   UNL     1     -25.571  85.901 -11.380  1.00  0.00     0.012 C 
ENDROOT
BRANCH   1   2
ATOM      2  C   UNL     1     -27.072  86.139 -11.583  1.00  0.00     0.061 C 
BRANCH   2   3
ATOM      3  C   UNL     1     -27.409  87.634 -11.512  1.00  0.00     0.258 C 
BRANCH   3   4
ATOM      4  N   UNL     1     -28.046  87.967 -10.238  1.00  0.00    -0.358 N 
ATOM      5  H   UNL     1     -28.434  87.094  -9.811  1.00  0.00     0.344 HD
ATOM      6  H   UNL     1     -28.829  88.643 -10.393  1.00  0.00     0.344 HD
ATOM      7  H   UNL     1     -27.344  88.381  -9.583  1.00  0.00     0.344 HD
ENDBRANCH   3   4
ENDBRANCH   2   3
ENDBRANCH   1   2
BRANCH   1   8
ATOM      8  C   UNL     1     -24.778  87.209 -11.540  1.00  0.00     0.072 C 
BRANCH   8   9
ATOM      9  C   UNL     1     -23.693  87.370 -10.455  1.00  0.00     0.227 C 
BRANCH   9  10
ATOM     10  N   UNL     1     -22.501  88.017 -11.016  1.00  0.00    -0.350 N 
ATOM     11  H   UNL     1     -22.473  87.875 -12.052  1.00  0.00     0.345 HD
ATOM     12  H   UNL     1     -22.534  89.045 -10.828  1.00  0.00     0.345 HD
ATOM     13  H   UNL     1     -21.630  87.620 -10.590  1.00  0.00     0.345 HD
ENDBRANCH   9  10
BRANCH   9  14
ATOM     14  C   UNL     1     -24.209  88.167  -9.286  1.00  0.00     0.099 C 
ATOM     15  O   UNL     1     -23.594  89.195  -8.900  1.00  0.00    -0.544 OA
ATOM     16  O   UNL     1     -25.366  87.772  -8.624  1.00  0.00    -0.544 OA
ENDBRANCH   9  14
ENDBRANCH   8   9
ENDBRANCH   1   8
TORSDOF 7
ENDMDL
MODEL 3
REMARK VINA RESULT:    -4.215      2.402      4.134
REMARK INTER + INTRA:          -6.130
REMARK INTER:                  -5.705
REMARK INTRA:                  -0.425
REMARK UNBOUND:                -0.437
REMARK SMILES [NH3+]CCCC[C@@H]([NH3+])C(=O)[O-]
REMARK SMILES IDX 4 1 3 2 2 3 1 4 5 8 6 9 7 10 8 14 9 15 10 16
REMARK H PARENT 1 5 1 6 1 7 7 11 7 12 7 13
REMARK Flexibility Score: inf
ROOT
ATOM      1  C   UNL     1     -24.917  84.040 -20.535  1.00  0.00     0.012 C 
ENDROOT
BRANCH   1   2
ATOM      2  C   UNL     1     -26.295  83.382 -20.672  1.00  0.00     0.061 C 
BRANCH   2   3
ATOM      3  C   UNL     1     -26.282  82.292 -21.751  1.00  0.00     0.258 C 
BRANCH   3   4
ATOM      4  N   UNL     1     -25.535  82.730 -22.929  1.00  0.00    -0.358 N 
ATOM      5  H   UNL     1     -25.500  83.775 -22.943  1.00  0.00     0.344 HD
ATOM      6  H   UNL     1     -26.010  82.398 -23.800  1.00  0.00     0.344 HD
ATOM      7  H   UNL     1     -24.559  82.359 -22.894  1.00  0.00     0.344 HD
ENDBRANCH   3   4
ENDBRANCH   2   3
ENDBRANCH   1   2
BRANCH   1   8
ATOM      8  C   UNL     1     -25.036  85.573 -20.524  1.00  0.00     0.072 C 
BRANCH   8   9
ATOM      9  C   UNL     1     -24.255  86.228 -21.683  1.00  0.00     0.227 C 
BRANCH   9  10
ATOM     10  N   UNL     1     -22.850  85.806 -21.656  1.00  0.00    -0.350 N 
ATOM     11  H   UNL     1     -22.232  86.638 -21.507  1.00  0.00     0.345 HD
ATOM     12  H   UNL     1     -22.694  85.139 -20.867  1.00  0.00     0.345 HD
ATOM     13  H   UNL     1     -22.587  85.339 -22.556  1.00  0.00     0.345 HD
ENDBRANCH   9  10
BRANCH   9  14
ATOM     14  C   UNL     1     -24.871  85.883 -23.014  1.00  0.00     0.099 C 
ATOM     15  O   UNL     1     -24.139  85.531 -23.977  1.00  0.00    -0.544 OA
ATOM     16  O   UNL     1     -26.247  85.954 -23.190  1.00  0.00    -0.544 OA
ENDBRANCH   9  14
ENDBRANCH   8   9
ENDBRANCH   1   8
TORSDOF 7
ENDMDL
MODEL 4
REMARK VINA RESULT:    -4.180     11.800     12.576
REMARK INTER + INTRA:          -6.083
REMARK INTER:                  -5.600
REMARK INTRA:                  -0.483
REMARK UNBOUND:                -0.437
REMARK SMILES [NH3+]CCCC[C@@H]([NH3+])C(=O)[O-]
REMARK SMILES IDX 4 1 3 2 2 3 1 4 5 8 6 9 7 10 8 14 9 15 10 16
REMARK H PARENT 1 5 1 6 1 7 7 11 7 12 7 13
REMARK Flexibility Score: inf
ROOT
ATOM      1  C   UNL     1     -24.648  87.119 -11.034  1.00  0.00     0.012 C 
ENDROOT
BRANCH   1   2
ATOM      2  C   UNL     1     -23.436  87.732 -10.322  1.00  0.00     0.061 C 
BRANCH   2   3
ATOM      3  C   UNL     1     -23.803  88.193  -8.906  1.00  0.00     0.258 C 
BRANCH   3   4
ATOM      4  N   UNL     1     -23.419  89.588  -8.694  1.00  0.00    -0.358 N 
ATOM      5  H   UNL     1     -24.275  90.151  -8.483  1.00  0.00     0.344 HD
ATOM      6  H   UNL     1     -22.967  89.971  -9.555  1.00  0.00     0.344 HD
ATOM      7  H   UNL     1     -22.760  89.660  -7.886  1.00  0.00     0.344 HD
ENDBRANCH   3   4
ENDBRANCH   2   3
ENDBRANCH   1   2
BRANCH   1   8
ATOM      8  C   UNL     1     -25.929  87.308 -10.206  1.00  0.00     0.072 C 
BRANCH   8   9
ATOM      9  C   UNL     1     -26.997  88.126 -10.961  1.00  0.00     0.227 C 
BRANCH   9  10
ATOM     10  N   UNL     1     -28.301  88.001 -10.299  1.00  0.00    -0.350 N 
ATOM     11  H   UNL     1     -28.784  88.929 -10.286  1.00  0.00     0.345 HD
ATOM     12  H   UNL     1     -28.903  87.328 -10.825  1.00  0.00     0.345 HD
ATOM     13  H   UNL     1     -28.185  87.660  -9.315  1.00  0.00     0.345 HD
ENDBRANCH   9  10
BRANCH   9  14
ATOM     14  C   UNL     1     -26.603  89.578 -11.051  1.00  0.00     0.099 C 
ATOM     15  O   UNL     1     -26.485  90.133 -12.175  1.00  0.00    -0.544 OA
ATOM     16  O   UNL     1     -26.365  90.313  -9.896  1.00  0.00    -0.544 OA
ENDBRANCH   9  14
ENDBRANCH   8   9
ENDBRANCH   1   8
TORSDOF 7
ENDMDL
MODEL 5
REMARK VINA RESULT:    -4.091     11.720     12.506
REMARK INTER + INTRA:          -5.962
REMARK INTER:                  -5.497
REMARK INTRA:                  -0.465
REMARK UNBOUND:                -0.437
REMARK SMILES [NH3+]CCCC[C@@H]([NH3+])C(=O)[O-]
REMARK SMILES IDX 4 1 3 2 2 3 1 4 5 8 6 9 7 10 8 14 9 15 10 16
REMARK H PARENT 1 5 1 6 1 7 7 11 7 12 7 13
REMARK Flexibility Score: inf
ROOT
ATOM      1  C   UNL     1     -24.570  89.051 -12.308  1.00  0.00     0.012 C 
ENDROOT
BRANCH   1   2
ATOM      2  C   UNL     1     -25.257  90.379 -11.968  1.00  0.00     0.061 C 
BRANCH   2   3
ATOM      3  C   UNL     1     -26.417  90.165 -10.987  1.00  0.00     0.258 C 
BRANCH   3   4
ATOM      4  N   UNL     1     -26.187  90.890  -9.738  1.00  0.00    -0.358 N 
ATOM      5  H   UNL     1     -26.586  91.854  -9.823  1.00  0.00     0.344 HD
ATOM      6  H   UNL     1     -25.162  90.964  -9.549  1.00  0.00     0.344 HD
ATOM      7  H   UNL     1     -26.660  90.398  -8.946  1.00  0.00     0.344 HD
ENDBRANCH   3   4
ENDBRANCH   2   3
ENDBRANCH   1   2
BRANCH   1   8
ATOM      8  C   UNL     1     -24.975  87.950 -11.315  1.00  0.00     0.072 C 
BRANCH   8   9
ATOM      9  C   UNL     1     -23.831  87.590 -10.344  1.00  0.00     0.227 C 
BRANCH   9  10
ATOM     10  N   UNL     1     -22.534  87.968 -10.916  1.00  0.00    -0.350 N 
ATOM     11  H   UNL     1     -21.953  88.451 -10.192  1.00  0.00     0.345 HD
ATOM     12  H   UNL     1     -22.021  87.112 -11.228  1.00  0.00     0.345 HD
ATOM     13  H   UNL     1     -22.664  88.607 -11.736  1.00  0.00     0.345 HD
ENDBRANCH   9  10
BRANCH   9  14
ATOM     14  C   UNL     1     -24.021  88.264  -9.010  1.00  0.00     0.099 C 
ATOM     15  O   UNL     1     -23.490  89.383  -8.785  1.00  0.00    -0.544 OA
ATOM     16  O   UNL     1     -24.780  87.655  -8.018  1.00  0.00    -0.544 OA
ENDBRANCH   9  14
ENDBRANCH   8   9
ENDBRANCH   1   8
TORSDOF 7
ENDMDL
MODEL 6
REMARK VINA RESULT:    -4.078     11.986     12.741
REMARK INTER + INTRA:          -5.945
REMARK INTER:                  -5.784
REMARK INTRA:                  -0.161
REMARK UNBOUND:                -0.437
REMARK SMILES [NH3+]CCCC[C@@H]([NH3+])C(=O)[O-]
REMARK SMILES IDX 4 1 3 2 2 3 1 4 5 8 6 9 7 10 8 14 9 15 10 16
REMARK H PARENT 1 5 1 6 1 7 7 11 7 12 7 13
REMARK Flexibility Score: inf
ROOT
ATOM      1  C   UNL     1     -26.424  87.681 -10.309  1.00  0.00     0.012 C 
ENDROOT
BRANCH   1   2
ATOM      2  C   UNL     1     -27.456  88.758 -10.664  1.00  0.00     0.061 C 
BRANCH   2   3
ATOM      3  C   UNL     1     -28.709  88.137 -11.295  1.00  0.00     0.258 C 
BRANCH   3   4
ATOM      4  N   UNL     1     -29.728  87.871 -10.281  1.00  0.00    -0.358 N 
ATOM      5  H   UNL     1     -29.510  86.965  -9.806  1.00  0.00     0.344 HD
ATOM      6  H   UNL     1     -30.670  87.800 -10.728  1.00  0.00     0.344 HD
ATOM      7  H   UNL     1     -29.731  88.635  -9.566  1.00  0.00     0.344 HD
ENDBRANCH   3   4
ENDBRANCH   2   3
ENDBRANCH   1   2
BRANCH   1   8
ATOM      8  C   UNL     1     -25.467  88.174  -9.213  1.00  0.00     0.072 C 
BRANCH   8   9
ATOM      9  C   UNL     1     -24.344  89.070  -9.777  1.00  0.00     0.227 C 
BRANCH   9  10
ATOM     10  N   UNL     1     -23.438  89.494  -8.703  1.00  0.00    -0.350 N 
ATOM     11  H   UNL     1     -23.069  88.655  -8.197  1.00  0.00     0.345 HD
ATOM     12  H   UNL     1     -22.627  90.013  -9.108  1.00  0.00     0.345 HD
ATOM     13  H   UNL     1     -23.937  90.115  -8.022  1.00  0.00     0.345 HD
ENDBRANCH   9  10
BRANCH   9  14
ATOM     14  C   UNL     1     -23.568  88.353 -10.851  1.00  0.00     0.099 C 
ATOM     15  O   UNL     1     -23.612  88.761 -12.042  1.00  0.00    -0.544 OA
ATOM     16  O   UNL     1     -22.802  87.237 -10.537  1.00  0.00    -0.544 OA
ENDBRANCH   9  14
ENDBRANCH   8   9
ENDBRANCH   1   8
TORSDOF 7
ENDMDL
MODEL 7
REMARK VINA RESULT:    -4.077      1.940      2.334
REMARK INTER + INTRA:          -5.943
REMARK INTER:                  -5.758
REMARK INTRA:                  -0.185
REMARK UNBOUND:                -0.437
REMARK SMILES [NH3+]CCCC[C@@H]([NH3+])C(=O)[O-]
REMARK SMILES IDX 4 1 3 2 2 3 1 4 5 8 6 9 7 10 8 14 9 15 10 16
REMARK H PARENT 1 5 1 6 1 7 7 11 7 12 7 13
REMARK Flexibility Score: inf
ROOT
ATOM      1  C   UNL     1     -26.622  84.538 -22.534  1.00  0.00     0.012 C 
ENDROOT
BRANCH   1   2
ATOM      2  C   UNL     1     -26.022  85.881 -22.965  1.00  0.00     0.061 C 
BRANCH   2   3
ATOM      3  C   UNL     1     -25.067  85.703 -24.153  1.00  0.00     0.258 C 
BRANCH   3   4
ATOM      4  N   UNL     1     -25.636  86.276 -25.372  1.00  0.00    -0.358 N 
ATOM      5  H   UNL     1     -25.007  87.037 -25.718  1.00  0.00     0.344 HD
ATOM      6  H   UNL     1     -26.579  86.682 -25.172  1.00  0.00     0.344 HD
ATOM      7  H   UNL     1     -25.716  85.541 -26.111  1.00  0.00     0.344 HD
ENDBRANCH   3   4
ENDBRANCH   2   3
ENDBRANCH   1   2
BRANCH   1   8
ATOM      8  C   UNL     1     -26.586  84.383 -21.005  1.00  0.00     0.072 C 
BRANCH   8   9
ATOM      9  C   UNL     1     -25.806  83.127 -20.563  1.00  0.00     0.227 C 
BRANCH   9  10
ATOM     10  N   UNL     1     -25.534  82.260 -21.716  1.00  0.00    -0.350 N 
ATOM     11  H   UNL     1     -26.351  82.271 -22.369  1.00  0.00     0.345 HD
ATOM     12  H   UNL     1     -24.698  82.612 -22.235  1.00  0.00     0.345 HD
ATOM     13  H   UNL     1     -25.355  81.276 -21.405  1.00  0.00     0.345 HD
ENDBRANCH   9  10
BRANCH   9  14
ATOM     14  C   UNL     1     -24.513  83.503 -19.887  1.00  0.00     0.099 C 
ATOM     15  O   UNL     1     -23.908  82.665 -19.168  1.00  0.00    -0.544 OA
ATOM     16  O   UNL     1     -23.981  84.777 -20.048  1.00  0.00    -0.544 OA
ENDBRANCH   9  14
ENDBRANCH   8   9
ENDBRANCH   1   8
TORSDOF 7
ENDMDL
MODEL 8
REMARK VINA RESULT:    -4.032     11.631     12.716
REMARK INTER + INTRA:          -5.883
REMARK INTER:                  -5.568
REMARK INTRA:                  -0.315
REMARK UNBOUND:                -0.437
REMARK SMILES [NH3+]CCCC[C@@H]([NH3+])C(=O)[O-]
REMARK SMILES IDX 4 1 3 2 2 3 1 4 5 8 6 9 7 10 8 14 9 15 10 16
REMARK H PARENT 1 5 1 6 1 7 7 11 7 12 7 13
REMARK Flexibility Score: inf
ROOT
ATOM      1  C   UNL     1     -24.719  87.045 -11.427  1.00  0.00     0.012 C 
ENDROOT
BRANCH   1   2
ATOM      2  C   UNL     1     -25.913  86.728 -10.518  1.00  0.00     0.061 C 
BRANCH   2   3
ATOM      3  C   UNL     1     -27.236  87.131 -11.182  1.00  0.00     0.258 C 
BRANCH   3   4
ATOM      4  N   UNL     1     -28.032  87.974 -10.293  1.00  0.00    -0.358 N 
ATOM      5  H   UNL     1     -28.034  87.555  -9.334  1.00  0.00     0.344 HD
ATOM      6  H   UNL     1     -29.018  88.031 -10.638  1.00  0.00     0.344 HD
ATOM      7  H   UNL     1     -27.618  88.933 -10.242  1.00  0.00     0.344 HD
ENDBRANCH   3   4
ENDBRANCH   2   3
ENDBRANCH   1   2
BRANCH   1   8
ATOM      8  C   UNL     1     -23.710  87.958 -10.712  1.00  0.00     0.072 C 
BRANCH   8   9
ATOM      9  C   UNL     1     -24.397  88.951  -9.752  1.00  0.00     0.227 C 
BRANCH   9  10
ATOM     10  N   UNL     1     -23.414  89.544  -8.838  1.00  0.00    -0.350 N 
ATOM     11  H   UNL     1     -23.538  89.148  -7.878  1.00  0.00     0.345 HD
ATOM     12  H   UNL     1     -22.446  89.317  -9.161  1.00  0.00     0.345 HD
ATOM     13  H   UNL     1     -23.526  90.584  -8.799  1.00  0.00     0.345 HD
ENDBRANCH   9  10
BRANCH   9  14
ATOM     14  C   UNL     1     -25.109  90.037 -10.516  1.00  0.00     0.099 C 
ATOM     15  O   UNL     1     -26.143  90.573 -10.037  1.00  0.00    -0.544 OA
ATOM     16  O   UNL     1     -24.634  90.452 -11.754  1.00  0.00    -0.544 OA
ENDBRANCH   9  14
ENDBRANCH   8   9
ENDBRANCH   1   8
TORSDOF 7
ENDMDL
MODEL 9
REMARK VINA RESULT:    -4.008     10.856     11.997
REMARK INTER + INTRA:          -5.850
REMARK INTER:                  -5.358
REMARK INTRA:                  -0.492
REMARK UNBOUND:                -0.437
REMARK SMILES [NH3+]CCCC[C@@H]([NH3+])C(=O)[O-]
REMARK SMILES IDX 4 1 3 2 2 3 1 4 5 8 6 9 7 10 8 14 9 15 10 16
REMARK H PARENT 1 5 1 6 1 7 7 11 7 12 7 13
REMARK Flexibility Score: inf
ROOT
ATOM      1  C   UNL     1     -26.633  87.757 -10.511  1.00  0.00     0.012 C 
ENDROOT
BRANCH   1   2
ATOM      2  C   UNL     1     -26.513  86.351 -11.110  1.00  0.00     0.061 C 
BRANCH   2   3
ATOM      3  C   UNL     1     -26.206  86.414 -12.612  1.00  0.00     0.258 C 
BRANCH   3   4
ATOM      4  N   UNL     1     -24.817  86.047 -12.879  1.00  0.00    -0.358 N 
ATOM      5  H   UNL     1     -24.186  86.667 -12.322  1.00  0.00     0.344 HD
ATOM      6  H   UNL     1     -24.601  86.170 -13.895  1.00  0.00     0.344 HD
ATOM      7  H   UNL     1     -24.648  85.054 -12.599  1.00  0.00     0.344 HD
ENDBRANCH   3   4
ENDBRANCH   2   3
ENDBRANCH   1   2
BRANCH   1   8
ATOM      8  C   UNL     1     -25.572  87.986  -9.422  1.00  0.00     0.072 C 
BRANCH   8   9
ATOM      9  C   UNL     1     -24.482  88.982  -9.869  1.00  0.00     0.227 C 
BRANCH   9  10
ATOM     10  N   UNL     1     -23.715  89.456  -8.710  1.00  0.00    -0.350 N 
ATOM     11  H   UNL     1     -24.046  90.408  -8.430  1.00  0.00     0.345 HD
ATOM     12  H   UNL     1     -23.859  88.810  -7.901  1.00  0.00     0.345 HD
ATOM     13  H   UNL     1     -22.693  89.499  -8.937  1.00  0.00     0.345 HD
ENDBRANCH   9  10
BRANCH   9  14
ATOM     14  C   UNL     1     -23.555  88.355 -10.878  1.00  0.00     0.099 C 
ATOM     15  O   UNL     1     -22.838  87.373 -10.553  1.00  0.00    -0.544 OA
ATOM     16  O   UNL     1     -23.483  88.857 -12.171  1.00  0.00    -0.544 OA
ENDBRANCH   9  14
ENDBRANCH   8   9
ENDBRANCH   1   8
TORSDOF 7
ENDMDL
