MODEL 1
REMARK VINA RESULT:    -3.342      0.000      0.000
REMARK INTER + INTRA:          -4.874
REMARK INTER:                  -4.319
REMARK INTRA:                  -0.555
REMARK UNBOUND:                -0.555
REMARK SMILES C=CC(=O)CCCCC
REMARK SMILES IDX 6 1 7 2 8 3 9 4 5 5 3 6 4 7 2 8 1 9
REMARK H PARENT
REMARK Flexibility Score: inf
ROOT
ATOM      1  C   UNL     1      15.689  32.601  30.357  1.00  0.00     0.008 C 
ENDROOT
BRANCH   1   2
ATOM      2  C   UNL     1      14.963  31.277  30.638  1.00  0.00     0.000 C 
BRANCH   2   3
ATOM      3  C   UNL     1      14.951  30.340  29.421  1.00  0.00    -0.003 C 
ATOM      4  C   UNL     1      15.351  28.908  29.772  1.00  0.00     0.004 C 
ENDBRANCH   2   3
ENDBRANCH   1   2
BRANCH   1   5
ATOM      5  C   UNL     1      16.358  32.578  28.974  1.00  0.00     0.080 C 
BRANCH   5   6
ATOM      6  C   UNL     1      17.859  32.745  29.040  1.00  0.00     0.155 C 
ATOM      7  O   UNL     1      18.384  33.862  28.780  1.00  0.00    -0.295 OA
BRANCH   6   8
ATOM      8  C   UNL     1      18.752  31.627  29.409  1.00  0.00     0.039 C 
ATOM      9  C   UNL     1      18.673  30.412  28.868  1.00  0.00     0.012 C 
ENDBRANCH   6   8
ENDBRANCH   5   6
ENDBRANCH   1   5
TORSDOF 5
ENDMDL
MODEL 2
REMARK VINA RESULT:    -3.265      2.173      3.554
REMARK INTER + INTRA:          -4.775
REMARK INTER:                  -4.161
REMARK INTRA:                  -0.615
REMARK UNBOUND:                -0.555
REMARK SMILES C=CC(=O)CCCCC
REMARK SMILES IDX 6 1 7 2 8 3 9 4 5 5 3 6 4 7 2 8 1 9
REMARK H PARENT
REMARK Flexibility Score: inf
ROOT
ATOM      1  C   UNL     1      15.947  32.263  30.533  1.00  0.00     0.008 C 
ENDROOT
BRANCH   1   2
ATOM      2  C   UNL     1      16.143  33.028  29.216  1.00  0.00     0.000 C 
BRANCH   2   3
ATOM      3  C   UNL     1      17.574  32.907  28.671  1.00  0.00    -0.003 C 
ATOM      4  C   UNL     1      18.611  32.689  29.772  1.00  0.00     0.004 C 
ENDBRANCH   2   3
ENDBRANCH   1   2
BRANCH   1   5
ATOM      5  C   UNL     1      14.872  31.175  30.381  1.00  0.00     0.080 C 
BRANCH   5   6
ATOM      6  C   UNL     1      15.402  29.903  29.762  1.00  0.00     0.155 C 
ATOM      7  O   UNL     1      14.690  29.249  28.951  1.00  0.00    -0.295 OA
BRANCH   6   8
ATOM      8  C   UNL     1      16.751  29.388  30.074  1.00  0.00     0.039 C 
ATOM      9  C   UNL     1      17.665  29.103  29.146  1.00  0.00     0.012 C 
ENDBRANCH   6   8
ENDBRANCH   5   6
ENDBRANCH   1   5
TORSDOF 5
ENDMDL
MODEL 3
REMARK VINA RESULT:    -3.256      7.127      8.014
REMARK INTER + INTRA:          -4.763
REMARK INTER:                  -4.511
REMARK INTRA:                  -0.253
REMARK UNBOUND:                -0.555
REMARK SMILES C=CC(=O)CCCCC
REMARK SMILES IDX 6 1 7 2 8 3 9 4 5 5 3 6 4 7 2 8 1 9
REMARK H PARENT
REMARK Flexibility Score: inf
ROOT
ATOM      1  C   UNL     1      21.857  27.547  28.835  1.00  0.00     0.008 C 
ENDROOT
BRANCH   1   2
ATOM      2  C   UNL     1      20.834  26.411  28.686  1.00  0.00     0.000 C 
BRANCH   2   3
ATOM      3  C   UNL     1      21.463  25.115  28.154  1.00  0.00    -0.003 C 
ATOM      4  C   UNL     1      20.654  24.486  27.020  1.00  0.00     0.004 C 
ENDBRANCH   2   3
ENDBRANCH   1   2
BRANCH   1   5
ATOM      5  C   UNL     1      23.021  27.370  27.847  1.00  0.00     0.080 C 
BRANCH   5   6
ATOM      6  C   UNL     1      24.373  27.620  28.476  1.00  0.00     0.155 C 
ATOM      7  O   UNL     1      25.138  26.651  28.738  1.00  0.00    -0.295 OA
BRANCH   6   8
ATOM      8  C   UNL     1      24.842  28.983  28.799  1.00  0.00     0.039 C 
ATOM      9  C   UNL     1      24.804  29.505  30.024  1.00  0.00     0.012 C 
ENDBRANCH   6   8
ENDBRANCH   5   6
ENDBRANCH   1   5
TORSDOF 5
ENDMDL
MODEL 4
REMARK VINA RESULT:    -3.246      5.886      8.224
REMARK INTER + INTRA:          -4.750
REMARK INTER:                  -4.522
REMARK INTRA:                  -0.228
REMARK UNBOUND:                -0.555
REMARK SMILES C=CC(=O)CCCCC
REMARK SMILES IDX 6 1 7 2 8 3 9 4 5 5 3 6 4 7 2 8 1 9
REMARK H PARENT
REMARK Flexibility Score: inf
ROOT
ATOM      1  C   UNL     1      22.187  26.283  28.219  1.00  0.00     0.008 C 
ENDROOT
BRANCH   1   2
ATOM      2  C   UNL     1      22.573  27.770  28.259  1.00  0.00     0.000 C 
BRANCH   2   3
ATOM      3  C   UNL     1      23.994  28.025  27.735  1.00  0.00    -0.003 C 
ATOM      4  C   UNL     1      25.076  27.486  28.671  1.00  0.00     0.004 C 
ENDBRANCH   2   3
ENDBRANCH   1   2
BRANCH   1   5
ATOM      5  C   UNL     1      20.828  26.050  28.897  1.00  0.00     0.080 C 
BRANCH   5   6
ATOM      6  C   UNL     1      19.791  25.474  27.961  1.00  0.00     0.155 C 
ATOM      7  O   UNL     1      20.014  24.386  27.362  1.00  0.00    -0.295 OA
BRANCH   6   8
ATOM      8  C   UNL     1      18.499  26.148  27.719  1.00  0.00     0.039 C 
ATOM      9  C   UNL     1      18.373  27.466  27.566  1.00  0.00     0.012 C 
ENDBRANCH   6   8
ENDBRANCH   5   6
ENDBRANCH   1   5
TORSDOF 5
ENDMDL
MODEL 5
REMARK VINA RESULT:    -3.245      7.251      8.646
REMARK INTER + INTRA:          -4.749
REMARK INTER:                  -4.498
REMARK INTRA:                  -0.251
REMARK UNBOUND:                -0.555
REMARK SMILES C=CC(=O)CCCCC
REMARK SMILES IDX 6 1 7 2 8 3 9 4 5 5 3 6 4 7 2 8 1 9
REMARK H PARENT
REMARK Flexibility Score: inf
ROOT
ATOM      1  C   UNL     1      22.506  26.114  28.332  1.00  0.00     0.008 C 
ENDROOT
BRANCH   1   2
ATOM      2  C   UNL     1      22.394  27.645  28.288  1.00  0.00     0.000 C 
BRANCH   2   3
ATOM      3  C   UNL     1      23.764  28.338  28.302  1.00  0.00    -0.003 C 
ATOM      4  C   UNL     1      24.912  27.374  28.601  1.00  0.00     0.004 C 
ENDBRANCH   2   3
ENDBRANCH   1   2
BRANCH   1   5
ATOM      5  C   UNL     1      21.159  25.474  28.703  1.00  0.00     0.080 C 
BRANCH   5   6
ATOM      6  C   UNL     1      20.268  25.236  27.506  1.00  0.00     0.155 C 
ATOM      7  O   UNL     1      19.373  26.073  27.206  1.00  0.00    -0.295 OA
BRANCH   6   8
ATOM      8  C   UNL     1      20.411  24.037  26.655  1.00  0.00     0.039 C 
ATOM      9  C   UNL     1      21.064  24.030  25.493  1.00  0.00     0.012 C 
ENDBRANCH   6   8
ENDBRANCH   5   6
ENDBRANCH   1   5
TORSDOF 5
ENDMDL
MODEL 6
REMARK VINA RESULT:    -3.240      4.997      6.817
REMARK INTER + INTRA:          -4.742
REMARK INTER:                  -4.177
REMARK INTRA:                  -0.565
REMARK UNBOUND:                -0.555
REMARK SMILES C=CC(=O)CCCCC
REMARK SMILES IDX 6 1 7 2 8 3 9 4 5 5 3 6 4 7 2 8 1 9
REMARK H PARENT
REMARK Flexibility Score: inf
ROOT
ATOM      1  C   UNL     1      20.838  27.046  28.785  1.00  0.00     0.008 C 
ENDROOT
BRANCH   1   2
ATOM      2  C   UNL     1      20.759  25.523  28.960  1.00  0.00     0.000 C 
BRANCH   2   3
ATOM      3  C   UNL     1      21.363  24.759  27.772  1.00  0.00    -0.003 C 
ATOM      4  C   UNL     1      20.323  24.396  26.712  1.00  0.00     0.004 C 
ENDBRANCH   2   3
ENDBRANCH   1   2
BRANCH   1   5
ATOM      5  C   UNL     1      19.483  27.705  29.088  1.00  0.00     0.080 C 
BRANCH   5   6
ATOM      6  C   UNL     1      18.443  27.433  28.026  1.00  0.00     0.155 C 
ATOM      7  O   UNL     1      18.628  27.827  26.842  1.00  0.00    -0.295 OA
BRANCH   6   8
ATOM      8  C   UNL     1      17.194  26.704  28.328  1.00  0.00     0.039 C 
ATOM      9  C   UNL     1      16.913  25.492  27.851  1.00  0.00     0.012 C 
ENDBRANCH   6   8
ENDBRANCH   5   6
ENDBRANCH   1   5
TORSDOF 5
ENDMDL
MODEL 7
REMARK VINA RESULT:    -3.220      5.631      7.128
REMARK INTER + INTRA:          -4.717
REMARK INTER:                  -4.234
REMARK INTRA:                  -0.483
REMARK UNBOUND:                -0.555
REMARK SMILES C=CC(=O)CCCCC
REMARK SMILES IDX 6 1 7 2 8 3 9 4 5 5 3 6 4 7 2 8 1 9
REMARK H PARENT
REMARK Flexibility Score: inf
ROOT
ATOM      1  C   UNL     1      18.688  26.001  28.154  1.00  0.00     0.008 C 
ENDROOT
BRANCH   1   2
ATOM      2  C   UNL     1      18.364  27.363  27.522  1.00  0.00     0.000 C 
BRANCH   2   3
ATOM      3  C   UNL     1      18.266  28.488  28.562  1.00  0.00    -0.003 C 
ATOM      4  C   UNL     1      19.346  28.394  29.639  1.00  0.00     0.004 C 
ENDBRANCH   2   3
ENDBRANCH   1   2
BRANCH   1   5
ATOM      5  C   UNL     1      19.443  25.101  27.163  1.00  0.00     0.080 C 
BRANCH   5   6
ATOM      6  C   UNL     1      20.847  24.769  27.616  1.00  0.00     0.155 C 
ATOM      7  O   UNL     1      21.438  23.755  27.154  1.00  0.00    -0.295 OA
BRANCH   6   8
ATOM      8  C   UNL     1      21.568  25.608  28.595  1.00  0.00     0.039 C 
ATOM      9  C   UNL     1      22.452  26.545  28.254  1.00  0.00     0.012 C 
ENDBRANCH   6   8
ENDBRANCH   5   6
ENDBRANCH   1   5
TORSDOF 5
ENDMDL
MODEL 8
REMARK VINA RESULT:    -3.220      1.393      3.277
REMARK INTER + INTRA:          -4.717
REMARK INTER:                  -4.121
REMARK INTRA:                  -0.596
REMARK UNBOUND:                -0.555
REMARK SMILES C=CC(=O)CCCCC
REMARK SMILES IDX 6 1 7 2 8 3 9 4 5 5 3 6 4 7 2 8 1 9
REMARK H PARENT
REMARK Flexibility Score: inf
ROOT
ATOM      1  C   UNL     1      17.815  32.927  29.205  1.00  0.00     0.008 C 
ENDROOT
BRANCH   1   2
ATOM      2  C   UNL     1      18.565  31.729  29.806  1.00  0.00     0.000 C 
BRANCH   2   3
ATOM      3  C   UNL     1      18.675  30.550  28.827  1.00  0.00    -0.003 C 
ATOM      4  C   UNL     1      18.651  29.193  29.530  1.00  0.00     0.004 C 
ENDBRANCH   2   3
ENDBRANCH   1   2
BRANCH   1   5
ATOM      5  C   UNL     1      16.339  32.580  28.950  1.00  0.00     0.080 C 
BRANCH   5   6
ATOM      6  C   UNL     1      15.597  32.193  30.208  1.00  0.00     0.155 C 
ATOM      7  O   UNL     1      15.527  33.000  31.176  1.00  0.00    -0.295 OA
BRANCH   6   8
ATOM      8  C   UNL     1      14.933  30.881  30.349  1.00  0.00     0.039 C 
ATOM      9  C   UNL     1      14.999  29.919  29.429  1.00  0.00     0.012 C 
ENDBRANCH   6   8
ENDBRANCH   5   6
ENDBRANCH   1   5
TORSDOF 5
ENDMDL
MODEL 9
REMARK VINA RESULT:    -3.218      4.878      6.037
REMARK INTER + INTRA:          -4.714
REMARK INTER:                  -4.079
REMARK INTRA:                  -0.635
REMARK UNBOUND:                -0.555
REMARK SMILES C=CC(=O)CCCCC
REMARK SMILES IDX 6 1 7 2 8 3 9 4 5 5 3 6 4 7 2 8 1 9
REMARK H PARENT
REMARK Flexibility Score: inf
ROOT
ATOM      1  C   UNL     1      19.299  28.026  29.480  1.00  0.00     0.008 C 
ENDROOT
BRANCH   1   2
ATOM      2  C   UNL     1      18.869  28.482  28.078  1.00  0.00     0.000 C 
BRANCH   2   3
ATOM      3  C   UNL     1      18.059  27.411  27.331  1.00  0.00    -0.003 C 
ATOM      4  C   UNL     1      17.502  26.334  28.262  1.00  0.00     0.004 C 
ENDBRANCH   2   3
ENDBRANCH   1   2
BRANCH   1   5
ATOM      5  C   UNL     1      20.830  27.999  29.604  1.00  0.00     0.080 C 
BRANCH   5   6
ATOM      6  C   UNL     1      21.481  26.995  28.681  1.00  0.00     0.155 C 
ATOM      7  O   UNL     1      22.267  27.385  27.774  1.00  0.00    -0.295 OA
BRANCH   6   8
ATOM      8  C   UNL     1      21.229  25.545  28.806  1.00  0.00     0.039 C 
ATOM      9  C   UNL     1      20.927  24.757  27.774  1.00  0.00     0.012 C 
ENDBRANCH   6   8
ENDBRANCH   5   6
ENDBRANCH   1   5
TORSDOF 5
ENDMDL
