MODEL 1
REMARK VINA RESULT:    -6.725      0.000      0.000
REMARK INTER + INTRA:         -12.867
REMARK INTER:                 -12.229
REMARK INTRA:                  -0.638
REMARK UNBOUND:                -0.638
REMARK SMILES CCCCCCCCCCCCCCCC(=O)[O-]
REMARK SMILES IDX 9 1 10 2 11 3 12 4 13 5 14 6 15 7 16 8 17 9 18 10 8 11 7 12
REMARK SMILES IDX 6 13 5 14 4 15 3 16 2 17 1 18
REMARK H PARENT
REMARK Flexibility Score: inf
ROOT
ATOM      1  C   UNL     1      31.747  -9.012  21.683  1.00  0.00     0.000 C 
ENDROOT
BRANCH   1   2
ATOM      2  C   UNL     1      32.966  -8.470  20.913  1.00  0.00     0.000 C 
BRANCH   2   3
ATOM      3  C   UNL     1      33.430  -9.408  19.788  1.00  0.00     0.000 C 
BRANCH   3   4
ATOM      4  C   UNL     1      34.723 -10.138  20.182  1.00  0.00     0.000 C 
BRANCH   4   5
ATOM      5  C   UNL     1      35.566  -9.347  21.194  1.00  0.00     0.000 C 
BRANCH   5   6
ATOM      6  C   UNL     1      36.758 -10.152  21.731  1.00  0.00     0.006 C 
BRANCH   6   7
ATOM      7  C   UNL     1      37.232 -11.181  20.701  1.00  0.00     0.053 C 
BRANCH   7   8
ATOM      8  C   UNL     1      38.574 -11.723  21.080  1.00  0.00     0.041 C 
ATOM      9  O   UNL     1      38.661 -12.743  21.812  1.00  0.00    -0.550 OA
ATOM     10  O   UNL     1      39.728 -11.131  20.583  1.00  0.00    -0.550 OA
ENDBRANCH   7   8
ENDBRANCH   6   7
ENDBRANCH   5   6
ENDBRANCH   4   5
ENDBRANCH   3   4
ENDBRANCH   2   3
ENDBRANCH   1   2
BRANCH   1  11
ATOM     11  C   UNL     1      30.545  -8.053  21.755  1.00  0.00     0.000 C 
BRANCH  11  12
ATOM     12  C   UNL     1      29.263  -8.734  22.252  1.00  0.00    -0.000 C 
BRANCH  12  13
ATOM     13  C   UNL     1      28.500  -9.384  21.088  1.00  0.00    -0.000 C 
BRANCH  13  14
ATOM     14  C   UNL     1      27.996 -10.797  21.427  1.00  0.00    -0.000 C 
BRANCH  14  15
ATOM     15  C   UNL     1      27.341 -11.495  20.222  1.00  0.00    -0.000 C 
BRANCH  15  16
ATOM     16  C   UNL     1      27.901 -12.906  19.983  1.00  0.00    -0.000 C 
BRANCH  16  17
ATOM     17  C   UNL     1      27.312 -13.570  18.731  1.00  0.00    -0.003 C 
ATOM     18  C   UNL     1      26.284 -12.664  18.060  1.00  0.00     0.004 C 
ENDBRANCH  16  17
ENDBRANCH  15  16
ENDBRANCH  14  15
ENDBRANCH  13  14
ENDBRANCH  12  13
ENDBRANCH  11  12
ENDBRANCH   1  11
TORSDOF 14
ENDMDL
MODEL 2
REMARK VINA RESULT:    -6.646      0.932      1.233
REMARK INTER + INTRA:         -12.723
REMARK INTER:                 -11.931
REMARK INTRA:                  -0.792
REMARK UNBOUND:                -0.638
REMARK SMILES CCCCCCCCCCCCCCCC(=O)[O-]
REMARK SMILES IDX 9 1 10 2 11 3 12 4 13 5 14 6 15 7 16 8 17 9 18 10 8 11 7 12
REMARK SMILES IDX 6 13 5 14 4 15 3 16 2 17 1 18
REMARK H PARENT
REMARK Flexibility Score: inf
ROOT
ATOM      1  C   UNL     1      31.645  -9.265  20.681  1.00  0.00     0.000 C 
ENDROOT
BRANCH   1   2
ATOM      2  C   UNL     1      33.102  -8.824  20.447  1.00  0.00     0.000 C 
BRANCH   2   3
ATOM      3  C   UNL     1      33.759  -8.234  21.704  1.00  0.00     0.000 C 
BRANCH   3   4
ATOM      4  C   UNL     1      35.283  -8.426  21.667  1.00  0.00     0.000 C 
BRANCH   4   5
ATOM      5  C   UNL     1      35.698  -9.745  20.996  1.00  0.00     0.000 C 
BRANCH   5   6
ATOM      6  C   UNL     1      36.867 -10.433  21.714  1.00  0.00     0.006 C 
BRANCH   6   7
ATOM      7  C   UNL     1      37.669 -11.307  20.745  1.00  0.00     0.053 C 
BRANCH   7   8
ATOM      8  C   UNL     1      39.135 -11.069  20.914  1.00  0.00     0.041 C 
ATOM      9  O   UNL     1      39.545 -10.083  21.581  1.00  0.00    -0.550 OA
ATOM     10  O   UNL     1      40.051 -11.966  20.378  1.00  0.00    -0.550 OA
ENDBRANCH   7   8
ENDBRANCH   6   7
ENDBRANCH   5   6
ENDBRANCH   4   5
ENDBRANCH   3   4
ENDBRANCH   2   3
ENDBRANCH   1   2
BRANCH   1  11
ATOM     11  C   UNL     1      31.068  -8.895  22.060  1.00  0.00     0.000 C 
BRANCH  11  12
ATOM     12  C   UNL     1      29.569  -9.201  22.184  1.00  0.00    -0.000 C 
BRANCH  12  13
ATOM     13  C   UNL     1      29.044  -9.895  20.917  1.00  0.00    -0.000 C 
BRANCH  13  14
ATOM     14  C   UNL     1      27.518  -9.783  20.771  1.00  0.00    -0.000 C 
BRANCH  14  15
ATOM     15  C   UNL     1      26.849 -11.144  20.510  1.00  0.00    -0.000 C 
BRANCH  15  16
ATOM     16  C   UNL     1      27.867 -12.250  20.190  1.00  0.00    -0.000 C 
BRANCH  16  17
ATOM     17  C   UNL     1      27.242 -13.421  19.418  1.00  0.00    -0.003 C 
ATOM     18  C   UNL     1      26.609 -12.944  18.114  1.00  0.00     0.004 C 
ENDBRANCH  16  17
ENDBRANCH  15  16
ENDBRANCH  14  15
ENDBRANCH  13  14
ENDBRANCH  12  13
ENDBRANCH  11  12
ENDBRANCH   1  11
TORSDOF 14
ENDMDL
MODEL 3
REMARK VINA RESULT:    -6.515      1.280      1.527
REMARK INTER + INTRA:         -12.486
REMARK INTER:                 -11.819
REMARK INTRA:                  -0.667
REMARK UNBOUND:                -0.638
REMARK SMILES CCCCCCCCCCCCCCCC(=O)[O-]
REMARK SMILES IDX 9 1 10 2 11 3 12 4 13 5 14 6 15 7 16 8 17 9 18 10 8 11 7 12
REMARK SMILES IDX 6 13 5 14 4 15 3 16 2 17 1 18
REMARK H PARENT
REMARK Flexibility Score: inf
ROOT
ATOM      1  C   UNL     1      32.350  -9.248  20.427  1.00  0.00     0.000 C 
ENDROOT
BRANCH   1   2
ATOM      2  C   UNL     1      33.608  -8.403  20.702  1.00  0.00     0.000 C 
BRANCH   2   3
ATOM      3  C   UNL     1      34.246  -8.706  22.066  1.00  0.00     0.000 C 
BRANCH   3   4
ATOM      4  C   UNL     1      35.744  -9.011  21.915  1.00  0.00     0.000 C 
BRANCH   4   5
ATOM      5  C   UNL     1      36.021 -10.141  20.911  1.00  0.00     0.000 C 
BRANCH   5   6
ATOM      6  C   UNL     1      37.274 -10.955  21.264  1.00  0.00     0.006 C 
BRANCH   6   7
ATOM      7  C   UNL     1      38.420 -10.036  21.698  1.00  0.00     0.053 C 
BRANCH   7   8
ATOM      8  C   UNL     1      39.306 -10.731  22.682  1.00  0.00     0.041 C 
ATOM      9  O   UNL     1      39.039 -10.697  23.911  1.00  0.00    -0.550 OA
ATOM     10  O   UNL     1      40.402 -11.460  22.236  1.00  0.00    -0.550 OA
ENDBRANCH   7   8
ENDBRANCH   6   7
ENDBRANCH   5   6
ENDBRANCH   4   5
ENDBRANCH   3   4
ENDBRANCH   2   3
ENDBRANCH   1   2
BRANCH   1  11
ATOM     11  C   UNL     1      31.182  -9.012  21.402  1.00  0.00     0.000 C 
BRANCH  11  12
ATOM     12  C   UNL     1      29.809  -9.071  20.719  1.00  0.00    -0.000 C 
BRANCH  12  13
ATOM     13  C   UNL     1      28.690  -9.259  21.754  1.00  0.00    -0.000 C 
BRANCH  13  14
ATOM     14  C   UNL     1      28.251 -10.726  21.890  1.00  0.00    -0.000 C 
BRANCH  14  15
ATOM     15  C   UNL     1      27.597 -11.268  20.606  1.00  0.00    -0.000 C 
BRANCH  15  16
ATOM     16  C   UNL     1      28.154 -12.640  20.195  1.00  0.00    -0.000 C 
BRANCH  16  17
ATOM     17  C   UNL     1      27.204 -13.408  19.264  1.00  0.00    -0.003 C 
ATOM     18  C   UNL     1      26.390 -12.450  18.399  1.00  0.00     0.004 C 
ENDBRANCH  16  17
ENDBRANCH  15  16
ENDBRANCH  14  15
ENDBRANCH  13  14
ENDBRANCH  12  13
ENDBRANCH  11  12
ENDBRANCH   1  11
TORSDOF 14
ENDMDL
MODEL 4
REMARK VINA RESULT:    -6.382      2.588      3.005
REMARK INTER + INTRA:         -12.243
REMARK INTER:                 -11.619
REMARK INTRA:                  -0.624
REMARK UNBOUND:                -0.638
REMARK SMILES CCCCCCCCCCCCCCCC(=O)[O-]
REMARK SMILES IDX 9 1 10 2 11 3 12 4 13 5 14 6 15 7 16 8 17 9 18 10 8 11 7 12
REMARK SMILES IDX 6 13 5 14 4 15 3 16 2 17 1 18
REMARK H PARENT
REMARK Flexibility Score: inf
ROOT
ATOM      1  C   UNL     1      31.918  -9.246  20.583  1.00  0.00     0.000 C 
ENDROOT
BRANCH   1   2
ATOM      2  C   UNL     1      33.354  -8.781  20.279  1.00  0.00     0.000 C 
BRANCH   2   3
ATOM      3  C   UNL     1      34.349  -9.138  21.393  1.00  0.00     0.000 C 
BRANCH   3   4
ATOM      4  C   UNL     1      35.595  -9.827  20.815  1.00  0.00     0.000 C 
BRANCH   4   5
ATOM      5  C   UNL     1      36.764  -9.872  21.812  1.00  0.00     0.000 C 
BRANCH   5   6
ATOM      6  C   UNL     1      37.096  -8.493  22.398  1.00  0.00     0.006 C 
BRANCH   6   7
ATOM      7  C   UNL     1      37.117  -8.538  23.929  1.00  0.00     0.053 C 
BRANCH   7   8
ATOM      8  C   UNL     1      37.571  -7.227  24.487  1.00  0.00     0.041 C 
ATOM      9  O   UNL     1      38.621  -7.163  25.179  1.00  0.00    -0.550 OA
ATOM     10  O   UNL     1      36.863  -6.067  24.201  1.00  0.00    -0.550 OA
ENDBRANCH   7   8
ENDBRANCH   6   7
ENDBRANCH   5   6
ENDBRANCH   4   5
ENDBRANCH   3   4
ENDBRANCH   2   3
ENDBRANCH   1   2
BRANCH   1  11
ATOM     11  C   UNL     1      31.267  -8.584  21.813  1.00  0.00     0.000 C 
BRANCH  11  12
ATOM     12  C   UNL     1      29.766  -8.880  21.929  1.00  0.00    -0.000 C 
BRANCH  12  13
ATOM     13  C   UNL     1      29.350  -9.993  20.955  1.00  0.00    -0.000 C 
BRANCH  13  14
ATOM     14  C   UNL     1      28.183 -10.840  21.490  1.00  0.00    -0.000 C 
BRANCH  14  15
ATOM     15  C   UNL     1      27.785 -11.973  20.526  1.00  0.00    -0.000 C 
BRANCH  15  16
ATOM     16  C   UNL     1      26.482 -11.672  19.769  1.00  0.00    -0.000 C 
BRANCH  16  17
ATOM     17  C   UNL     1      26.428 -12.354  18.395  1.00  0.00    -0.003 C 
ATOM     18  C   UNL     1      27.093 -13.726  18.436  1.00  0.00     0.004 C 
ENDBRANCH  16  17
ENDBRANCH  15  16
ENDBRANCH  14  15
ENDBRANCH  13  14
ENDBRANCH  12  13
ENDBRANCH  11  12
ENDBRANCH   1  11
TORSDOF 14
ENDMDL
MODEL 5
REMARK VINA RESULT:    -6.321      6.063      7.785
REMARK INTER + INTRA:         -12.132
REMARK INTER:                 -10.472
REMARK INTRA:                  -1.660
REMARK UNBOUND:                -0.638
REMARK SMILES CCCCCCCCCCCCCCCC(=O)[O-]
REMARK SMILES IDX 9 1 10 2 11 3 12 4 13 5 14 6 15 7 16 8 17 9 18 10 8 11 7 12
REMARK SMILES IDX 6 13 5 14 4 15 3 16 2 17 1 18
REMARK H PARENT
REMARK Flexibility Score: inf
ROOT
ATOM      1  C   UNL     1      30.176  -7.054  22.253  1.00  0.00     0.000 C 
ENDROOT
BRANCH   1   2
ATOM      2  C   UNL     1      29.272  -6.095  23.050  1.00  0.00     0.000 C 
BRANCH   2   3
ATOM      3  C   UNL     1      27.877  -6.675  23.326  1.00  0.00     0.000 C 
BRANCH   3   4
ATOM      4  C   UNL     1      26.783  -5.791  22.707  1.00  0.00     0.000 C 
BRANCH   4   5
ATOM      5  C   UNL     1      25.946  -6.534  21.654  1.00  0.00     0.000 C 
BRANCH   5   6
ATOM      6  C   UNL     1      26.305  -6.128  20.217  1.00  0.00     0.006 C 
BRANCH   6   7
ATOM      7  C   UNL     1      26.791  -4.677  20.163  1.00  0.00     0.053 C 
BRANCH   7   8
ATOM      8  C   UNL     1      27.883  -4.527  19.152  1.00  0.00     0.041 C 
ATOM      9  O   UNL     1      28.862  -3.771  19.384  1.00  0.00    -0.550 OA
ATOM     10  O   UNL     1      27.844  -5.260  17.972  1.00  0.00    -0.550 OA
ENDBRANCH   7   8
ENDBRANCH   6   7
ENDBRANCH   5   6
ENDBRANCH   4   5
ENDBRANCH   3   4
ENDBRANCH   2   3
ENDBRANCH   1   2
BRANCH   1  11
ATOM     11  C   UNL     1      29.430  -8.154  21.477  1.00  0.00     0.000 C 
BRANCH  11  12
ATOM     12  C   UNL     1      29.638  -9.554  22.071  1.00  0.00    -0.000 C 
BRANCH  12  13
ATOM     13  C   UNL     1      28.339 -10.373  22.014  1.00  0.00    -0.000 C 
BRANCH  13  14
ATOM     14  C   UNL     1      27.408  -9.924  20.875  1.00  0.00    -0.000 C 
BRANCH  14  15
ATOM     15  C   UNL     1      26.786 -11.111  20.119  1.00  0.00    -0.000 C 
BRANCH  15  16
ATOM     16  C   UNL     1      27.711 -12.338  20.083  1.00  0.00    -0.000 C 
BRANCH  16  17
ATOM     17  C   UNL     1      27.403 -13.276  18.908  1.00  0.00    -0.003 C 
ATOM     18  C   UNL     1      26.189 -12.791  18.122  1.00  0.00     0.004 C 
ENDBRANCH  16  17
ENDBRANCH  15  16
ENDBRANCH  14  15
ENDBRANCH  13  14
ENDBRANCH  12  13
ENDBRANCH  11  12
ENDBRANCH   1  11
TORSDOF 14
ENDMDL
MODEL 6
REMARK VINA RESULT:    -6.297      3.531      4.324
REMARK INTER + INTRA:         -12.088
REMARK INTER:                 -11.031
REMARK INTRA:                  -1.057
REMARK UNBOUND:                -0.638
REMARK SMILES CCCCCCCCCCCCCCCC(=O)[O-]
REMARK SMILES IDX 9 1 10 2 11 3 12 4 13 5 14 6 15 7 16 8 17 9 18 10 8 11 7 12
REMARK SMILES IDX 6 13 5 14 4 15 3 16 2 17 1 18
REMARK H PARENT
REMARK Flexibility Score: inf
ROOT
ATOM      1  C   UNL     1      32.289  -8.335  21.378  1.00  0.00     0.000 C 
ENDROOT
BRANCH   1   2
ATOM      2  C   UNL     1      33.486  -9.128  21.937  1.00  0.00     0.000 C 
BRANCH   2   3
ATOM      3  C   UNL     1      34.748  -8.999  21.071  1.00  0.00     0.000 C 
BRANCH   3   4
ATOM      4  C   UNL     1      35.951  -8.556  21.917  1.00  0.00     0.000 C 
BRANCH   4   5
ATOM      5  C   UNL     1      35.534  -7.926  23.256  1.00  0.00     0.000 C 
BRANCH   5   6
ATOM      6  C   UNL     1      35.626  -6.394  23.244  1.00  0.00     0.006 C 
BRANCH   6   7
ATOM      7  C   UNL     1      34.246  -5.760  23.439  1.00  0.00     0.053 C 
BRANCH   7   8
ATOM      8  C   UNL     1      33.930  -4.831  22.310  1.00  0.00     0.041 C 
ATOM      9  O   UNL     1      33.709  -3.613  22.535  1.00  0.00    -0.550 OA
ATOM     10  O   UNL     1      33.930  -5.301  21.003  1.00  0.00    -0.550 OA
ENDBRANCH   7   8
ENDBRANCH   6   7
ENDBRANCH   5   6
ENDBRANCH   4   5
ENDBRANCH   3   4
ENDBRANCH   2   3
ENDBRANCH   1   2
BRANCH   1  11
ATOM     11  C   UNL     1      31.065  -9.189  20.999  1.00  0.00     0.000 C 
BRANCH  11  12
ATOM     12  C   UNL     1      29.925  -9.088  22.021  1.00  0.00    -0.000 C 
BRANCH  12  13
ATOM     13  C   UNL     1      28.880 -10.190  21.787  1.00  0.00    -0.000 C 
BRANCH  13  14
ATOM     14  C   UNL     1      27.851  -9.809  20.709  1.00  0.00    -0.000 C 
BRANCH  14  15
ATOM     15  C   UNL     1      27.004 -11.009  20.251  1.00  0.00    -0.000 C 
BRANCH  15  16
ATOM     16  C   UNL     1      27.800 -12.324  20.243  1.00  0.00    -0.000 C 
BRANCH  16  17
ATOM     17  C   UNL     1      27.542 -13.161  18.982  1.00  0.00    -0.003 C 
ATOM     18  C   UNL     1      26.149 -12.893  18.419  1.00  0.00     0.004 C 
ENDBRANCH  16  17
ENDBRANCH  15  16
ENDBRANCH  14  15
ENDBRANCH  13  14
ENDBRANCH  12  13
ENDBRANCH  11  12
ENDBRANCH   1  11
TORSDOF 14
ENDMDL
MODEL 7
REMARK VINA RESULT:    -6.202      2.652      4.697
REMARK INTER + INTRA:         -11.916
REMARK INTER:                 -10.112
REMARK INTRA:                  -1.804
REMARK UNBOUND:                -0.638
REMARK SMILES CCCCCCCCCCCCCCCC(=O)[O-]
REMARK SMILES IDX 9 1 10 2 11 3 12 4 13 5 14 6 15 7 16 8 17 9 18 10 8 11 7 12
REMARK SMILES IDX 6 13 5 14 4 15 3 16 2 17 1 18
REMARK H PARENT
REMARK Flexibility Score: inf
ROOT
ATOM      1  C   UNL     1      28.304 -10.084  21.954  1.00  0.00     0.000 C 
ENDROOT
BRANCH   1   2
ATOM      2  C   UNL     1      29.753  -9.605  22.164  1.00  0.00     0.000 C 
BRANCH   2   3
ATOM      3  C   UNL     1      30.462  -9.243  20.850  1.00  0.00     0.000 C 
BRANCH   3   4
ATOM      4  C   UNL     1      31.878  -8.713  21.120  1.00  0.00     0.000 C 
BRANCH   4   5
ATOM      5  C   UNL     1      32.882  -9.124  20.030  1.00  0.00     0.000 C 
BRANCH   5   6
ATOM      6  C   UNL     1      34.277  -9.430  20.595  1.00  0.00     0.006 C 
BRANCH   6   7
ATOM      7  C   UNL     1      34.405  -8.934  22.038  1.00  0.00     0.053 C 
BRANCH   7   8
ATOM      8  C   UNL     1      35.418  -7.837  22.128  1.00  0.00     0.041 C 
ATOM      9  O   UNL     1      35.049  -6.634  22.150  1.00  0.00    -0.550 OA
ATOM     10  O   UNL     1      36.768  -8.146  22.239  1.00  0.00    -0.550 OA
ENDBRANCH   7   8
ENDBRANCH   6   7
ENDBRANCH   5   6
ENDBRANCH   4   5
ENDBRANCH   3   4
ENDBRANCH   2   3
ENDBRANCH   1   2
BRANCH   1  11
ATOM     11  C   UNL     1      28.144 -11.255  20.967  1.00  0.00     0.000 C 
BRANCH  11  12
ATOM     12  C   UNL     1      26.969 -11.066  19.998  1.00  0.00    -0.000 C 
BRANCH  12  13
ATOM     13  C   UNL     1      26.270  -9.720  20.240  1.00  0.00    -0.000 C 
BRANCH  13  14
ATOM     14  C   UNL     1      26.311  -8.802  19.007  1.00  0.00    -0.000 C 
BRANCH  14  15
ATOM     15  C   UNL     1      27.448  -7.768  19.078  1.00  0.00    -0.000 C 
BRANCH  15  16
ATOM     16  C   UNL     1      27.093  -6.561  19.961  1.00  0.00    -0.000 C 
BRANCH  16  17
ATOM     17  C   UNL     1      28.003  -6.441  21.191  1.00  0.00    -0.003 C 
ATOM     18  C   UNL     1      27.208  -6.616  22.482  1.00  0.00     0.004 C 
ENDBRANCH  16  17
ENDBRANCH  15  16
ENDBRANCH  14  15
ENDBRANCH  13  14
ENDBRANCH  12  13
ENDBRANCH  11  12
ENDBRANCH   1  11
TORSDOF 14
ENDMDL
MODEL 8
REMARK VINA RESULT:    -6.193      6.222      7.722
REMARK INTER + INTRA:         -11.899
REMARK INTER:                  -9.959
REMARK INTRA:                  -1.940
REMARK UNBOUND:                -0.638
REMARK SMILES CCCCCCCCCCCCCCCC(=O)[O-]
REMARK SMILES IDX 9 1 10 2 11 3 12 4 13 5 14 6 15 7 16 8 17 9 18 10 8 11 7 12
REMARK SMILES IDX 6 13 5 14 4 15 3 16 2 17 1 18
REMARK H PARENT
REMARK Flexibility Score: inf
ROOT
ATOM      1  C   UNL     1      27.721  -7.379  18.907  1.00  0.00     0.000 C 
ENDROOT
BRANCH   1   2
ATOM      2  C   UNL     1      27.446  -5.913  18.526  1.00  0.00     0.000 C 
BRANCH   2   3
ATOM      3  C   UNL     1      26.252  -5.311  19.282  1.00  0.00     0.000 C 
BRANCH   3   4
ATOM      4  C   UNL     1      26.625  -5.003  20.740  1.00  0.00     0.000 C 
BRANCH   4   5
ATOM      5  C   UNL     1      25.866  -5.885  21.745  1.00  0.00     0.000 C 
BRANCH   5   6
ATOM      6  C   UNL     1      26.749  -6.349  22.912  1.00  0.00     0.006 C 
BRANCH   6   7
ATOM      7  C   UNL     1      28.224  -6.046  22.637  1.00  0.00     0.053 C 
BRANCH   7   8
ATOM      8  C   UNL     1      28.792  -5.180  23.716  1.00  0.00     0.041 C 
ATOM      9  O   UNL     1      28.046  -4.727  24.623  1.00  0.00    -0.550 OA
ATOM     10  O   UNL     1      30.155  -4.913  23.748  1.00  0.00    -0.550 OA
ENDBRANCH   7   8
ENDBRANCH   6   7
ENDBRANCH   5   6
ENDBRANCH   4   5
ENDBRANCH   3   4
ENDBRANCH   2   3
ENDBRANCH   1   2
BRANCH   1  11
ATOM     11  C   UNL     1      26.476  -8.284  18.950  1.00  0.00     0.000 C 
BRANCH  11  12
ATOM     12  C   UNL     1      26.520  -9.311  20.090  1.00  0.00    -0.000 C 
BRANCH  12  13
ATOM     13  C   UNL     1      27.838  -9.205  20.872  1.00  0.00    -0.000 C 
BRANCH  13  14
ATOM     14  C   UNL     1      28.511 -10.571  21.083  1.00  0.00    -0.000 C 
BRANCH  14  15
ATOM     15  C   UNL     1      27.536 -11.746  20.887  1.00  0.00    -0.000 C 
BRANCH  15  16
ATOM     16  C   UNL     1      27.999 -12.718  19.790  1.00  0.00    -0.000 C 
BRANCH  16  17
ATOM     17  C   UNL     1      26.826 -13.426  19.097  1.00  0.00    -0.003 C 
ATOM     18  C   UNL     1      26.269 -12.579  17.956  1.00  0.00     0.004 C 
ENDBRANCH  16  17
ENDBRANCH  15  16
ENDBRANCH  14  15
ENDBRANCH  13  14
ENDBRANCH  12  13
ENDBRANCH  11  12
ENDBRANCH   1  11
TORSDOF 14
ENDMDL
MODEL 9
REMARK VINA RESULT:    -6.156      5.293      9.047
REMARK INTER + INTRA:         -11.832
REMARK INTER:                 -10.428
REMARK INTRA:                  -1.405
REMARK UNBOUND:                -0.638
REMARK SMILES CCCCCCCCCCCCCCCC(=O)[O-]
REMARK SMILES IDX 9 1 10 2 11 3 12 4 13 5 14 6 15 7 16 8 17 9 18 10 8 11 7 12
REMARK SMILES IDX 6 13 5 14 4 15 3 16 2 17 1 18
REMARK H PARENT
REMARK Flexibility Score: inf
ROOT
ATOM      1  C   UNL     1      28.290 -10.290  22.000  1.00  0.00     0.000 C 
ENDROOT
BRANCH   1   2
ATOM      2  C   UNL     1      27.901 -10.849  20.619  1.00  0.00     0.000 C 
BRANCH   2   3
ATOM      3  C   UNL     1      26.430 -10.592  20.261  1.00  0.00     0.000 C 
BRANCH   3   4
ATOM      4  C   UNL     1      26.118  -9.088  20.266  1.00  0.00     0.000 C 
BRANCH   4   5
ATOM      5  C   UNL     1      26.330  -8.433  18.891  1.00  0.00     0.000 C 
BRANCH   5   6
ATOM      6  C   UNL     1      27.461  -7.395  18.897  1.00  0.00     0.006 C 
BRANCH   6   7
ATOM      7  C   UNL     1      27.529  -6.666  20.241  1.00  0.00     0.053 C 
BRANCH   7   8
ATOM      8  C   UNL     1      26.585  -5.506  20.257  1.00  0.00     0.041 C 
ATOM      9  O   UNL     1      25.786  -5.352  21.218  1.00  0.00    -0.550 OA
ATOM     10  O   UNL     1      26.622  -4.565  19.236  1.00  0.00    -0.550 OA
ENDBRANCH   7   8
ENDBRANCH   6   7
ENDBRANCH   5   6
ENDBRANCH   4   5
ENDBRANCH   3   4
ENDBRANCH   2   3
ENDBRANCH   1   2
BRANCH   1  11
ATOM     11  C   UNL     1      29.638  -9.547  22.045  1.00  0.00     0.000 C 
BRANCH  11  12
ATOM     12  C   UNL     1      30.172  -9.190  20.651  1.00  0.00    -0.000 C 
BRANCH  12  13
ATOM     13  C   UNL     1      31.708  -9.235  20.624  1.00  0.00    -0.000 C 
BRANCH  13  14
ATOM     14  C   UNL     1      32.344  -8.371  21.725  1.00  0.00    -0.000 C 
BRANCH  14  15
ATOM     15  C   UNL     1      33.678  -7.742  21.286  1.00  0.00    -0.000 C 
BRANCH  15  16
ATOM     16  C   UNL     1      34.896  -8.528  21.797  1.00  0.00    -0.000 C 
BRANCH  16  17
ATOM     17  C   UNL     1      35.324  -9.645  20.835  1.00  0.00    -0.003 C 
ATOM     18  C   UNL     1      36.520 -10.416  21.386  1.00  0.00     0.004 C 
ENDBRANCH  16  17
ENDBRANCH  15  16
ENDBRANCH  14  15
ENDBRANCH  13  14
ENDBRANCH  12  13
ENDBRANCH  11  12
ENDBRANCH   1  11
TORSDOF 14
ENDMDL
