MODEL 1
REMARK VINA RESULT:    -1.418      0.000      0.000
REMARK INTER + INTRA:          -4.553
REMARK INTER:                  -3.574
REMARK INTRA:                  -0.978
REMARK UNBOUND:                -0.978
REMARK SMILES CCCCCCCCCCCCCCCCCCCCCCCCCCCC(=O)[O-]
REMARK SMILES IDX 15 1 16 2 17 3 18 4 19 5 20 6 21 7 22 8 23 9 24 10 25 11
REMARK SMILES IDX 26 12 27 13 28 14 29 15 30 16 14 17 13 18 12 19 11 20 10 21
REMARK SMILES IDX 9 22 8 23 7 24 6 25 5 26 4 27 3 28 2 29 1 30
REMARK H PARENT
REMARK Flexibility Score: inf
ROOT
ATOM      1  C   UNL     1      -6.596 -11.338   5.660  1.00  0.00     0.000 C 
ENDROOT
BRANCH   1   2
ATOM      2  C   UNL     1      -5.405 -11.322   4.685  1.00  0.00     0.000 C 
BRANCH   2   3
ATOM      3  C   UNL     1      -5.779 -10.764   3.301  1.00  0.00     0.000 C 
BRANCH   3   4
ATOM      4  C   UNL     1      -6.396 -11.835   2.387  1.00  0.00     0.000 C 
BRANCH   4   5
ATOM      5  C   UNL     1      -7.766 -11.411   1.831  1.00  0.00     0.000 C 
BRANCH   5   6
ATOM      6  C   UNL     1      -8.105 -12.098   0.489  1.00  0.00     0.000 C 
BRANCH   6   7
ATOM      7  C   UNL     1      -9.583 -11.959   0.079  1.00  0.00     0.000 C 
BRANCH   7   8
ATOM      8  C   UNL     1      -9.824 -11.020  -1.114  1.00  0.00     0.000 C 
BRANCH   8   9
ATOM      9  C   UNL     1     -11.186 -11.247  -1.812  1.00  0.00     0.000 C 
BRANCH   9  10
ATOM     10  C   UNL     1     -11.522 -10.148  -2.836  1.00  0.00     0.000 C 
BRANCH  10  11
ATOM     11  C   UNL     1     -11.293 -10.596  -4.292  1.00  0.00     0.000 C 
BRANCH  11  12
ATOM     12  C   UNL     1      -9.907 -11.204  -4.577  1.00  0.00     0.006 C 
BRANCH  12  13
ATOM     13  C   UNL     1      -8.814 -10.139  -4.768  1.00  0.00     0.053 C 
BRANCH  13  14
ATOM     14  C   UNL     1      -7.488 -10.768  -5.068  1.00  0.00     0.041 C 
ATOM     15  O   UNL     1      -7.424 -11.885  -5.652  1.00  0.00    -0.550 OA
ATOM     16  O   UNL     1      -6.314 -10.097  -4.741  1.00  0.00    -0.550 OA
ENDBRANCH  13  14
ENDBRANCH  12  13
ENDBRANCH  11  12
ENDBRANCH  10  11
ENDBRANCH   9  10
ENDBRANCH   8   9
ENDBRANCH   7   8
ENDBRANCH   6   7
ENDBRANCH   5   6
ENDBRANCH   4   5
ENDBRANCH   3   4
ENDBRANCH   2   3
ENDBRANCH   1   2
BRANCH   1  17
ATOM     17  C   UNL     1      -7.841 -12.102   5.161  1.00  0.00     0.000 C 
BRANCH  17  18
ATOM     18  C   UNL     1      -9.085 -11.991   6.062  1.00  0.00     0.000 C 
BRANCH  18  19
ATOM     19  C   UNL     1      -8.739 -11.730   7.535  1.00  0.00     0.000 C 
BRANCH  19  20
ATOM     20  C   UNL     1      -9.909 -12.120   8.448  1.00  0.00     0.000 C 
BRANCH  20  21
ATOM     21  C   UNL     1      -9.665 -11.752   9.924  1.00  0.00     0.000 C 
BRANCH  21  22
ATOM     22  C   UNL     1     -10.851 -12.038  10.864  1.00  0.00    -0.000 C 
BRANCH  22  23
ATOM     23  C   UNL     1     -10.431 -12.115  12.343  1.00  0.00    -0.000 C 
BRANCH  23  24
ATOM     24  C   UNL     1     -11.607 -11.893  13.309  1.00  0.00    -0.000 C 
BRANCH  24  25
ATOM     25  C   UNL     1     -11.995 -10.410  13.433  1.00  0.00    -0.000 C 
BRANCH  25  26
ATOM     26  C   UNL     1     -10.785  -9.495  13.698  1.00  0.00    -0.000 C 
BRANCH  26  27
ATOM     27  C   UNL     1     -10.559  -8.389  12.650  1.00  0.00    -0.000 C 
BRANCH  27  28
ATOM     28  C   UNL     1     -11.564  -8.450  11.486  1.00  0.00    -0.000 C 
BRANCH  28  29
ATOM     29  C   UNL     1     -10.873  -8.532  10.116  1.00  0.00    -0.003 C 
ATOM     30  C   UNL     1     -11.677  -9.348   9.102  1.00  0.00     0.004 C 
ENDBRANCH  28  29
ENDBRANCH  27  28
ENDBRANCH  26  27
ENDBRANCH  25  26
ENDBRANCH  24  25
ENDBRANCH  23  24
ENDBRANCH  22  23
ENDBRANCH  21  22
ENDBRANCH  20  21
ENDBRANCH  19  20
ENDBRANCH  18  19
ENDBRANCH  17  18
ENDBRANCH   1  17
TORSDOF 26
ENDMDL
MODEL 2
REMARK VINA RESULT:    -0.661      5.753     14.310
REMARK INTER + INTRA:          -2.644
REMARK INTER:                  -2.290
REMARK INTRA:                  -0.354
REMARK UNBOUND:                -0.978
REMARK SMILES CCCCCCCCCCCCCCCCCCCCCCCCCCCC(=O)[O-]
REMARK SMILES IDX 15 1 16 2 17 3 18 4 19 5 20 6 21 7 22 8 23 9 24 10 25 11
REMARK SMILES IDX 26 12 27 13 28 14 29 15 30 16 14 17 13 18 12 19 11 20 10 21
REMARK SMILES IDX 9 22 8 23 7 24 6 25 5 26 4 27 3 28 2 29 1 30
REMARK H PARENT
REMARK Flexibility Score: inf
ROOT
ATOM      1  C   UNL     1     -10.348  -9.587  -0.539  1.00  0.00     0.000 C 
ENDROOT
BRANCH   1   2
ATOM      2  C   UNL     1     -10.431 -11.107  -0.314  1.00  0.00     0.000 C 
BRANCH   2   3
ATOM      3  C   UNL     1     -11.866 -11.588  -0.033  1.00  0.00     0.000 C 
BRANCH   3   4
ATOM      4  C   UNL     1     -12.031 -12.125   1.398  1.00  0.00     0.000 C 
BRANCH   4   5
ATOM      5  C   UNL     1     -10.988 -11.539   2.366  1.00  0.00     0.000 C 
BRANCH   5   6
ATOM      6  C   UNL     1     -11.568 -10.421   3.262  1.00  0.00     0.000 C 
BRANCH   6   7
ATOM      7  C   UNL     1     -12.117 -10.930   4.607  1.00  0.00     0.000 C 
BRANCH   7   8
ATOM      8  C   UNL     1     -11.206 -11.940   5.324  1.00  0.00     0.000 C 
BRANCH   8   9
ATOM      9  C   UNL     1     -11.531 -12.106   6.827  1.00  0.00     0.000 C 
BRANCH   9  10
ATOM     10  C   UNL     1     -10.777 -11.099   7.715  1.00  0.00     0.000 C 
BRANCH  10  11
ATOM     11  C   UNL     1     -11.139 -11.226   9.207  1.00  0.00     0.000 C 
BRANCH  11  12
ATOM     12  C   UNL     1     -10.878  -9.964  10.050  1.00  0.00     0.006 C 
BRANCH  12  13
ATOM     13  C   UNL     1     -11.995  -9.683  11.069  1.00  0.00     0.053 C 
BRANCH  13  14
ATOM     14  C   UNL     1     -11.437  -9.469  12.442  1.00  0.00     0.041 C 
ATOM     15  O   UNL     1     -11.722  -8.427  13.095  1.00  0.00    -0.550 OA
ATOM     16  O   UNL     1     -10.635 -10.445  13.024  1.00  0.00    -0.550 OA
ENDBRANCH  13  14
ENDBRANCH  12  13
ENDBRANCH  11  12
ENDBRANCH  10  11
ENDBRANCH   9  10
ENDBRANCH   8   9
ENDBRANCH   7   8
ENDBRANCH   6   7
ENDBRANCH   5   6
ENDBRANCH   4   5
ENDBRANCH   3   4
ENDBRANCH   2   3
ENDBRANCH   1   2
BRANCH   1  17
ATOM     17  C   UNL     1     -10.481  -9.134  -2.010  1.00  0.00     0.000 C 
BRANCH  17  18
ATOM     18  C   UNL     1      -9.888 -10.102  -3.051  1.00  0.00     0.000 C 
BRANCH  18  19
ATOM     19  C   UNL     1     -10.919 -11.099  -3.600  1.00  0.00     0.000 C 
BRANCH  19  20
ATOM     20  C   UNL     1     -10.790 -11.233  -5.123  1.00  0.00     0.000 C 
BRANCH  20  21
ATOM     21  C   UNL     1      -9.498 -11.951  -5.554  1.00  0.00     0.000 C 
BRANCH  21  22
ATOM     22  C   UNL     1      -8.213 -11.417  -4.893  1.00  0.00    -0.000 C 
BRANCH  22  23
ATOM     23  C   UNL     1      -7.211 -10.851  -5.915  1.00  0.00    -0.000 C 
BRANCH  23  24
ATOM     24  C   UNL     1      -6.352  -9.713  -5.340  1.00  0.00    -0.000 C 
BRANCH  24  25
ATOM     25  C   UNL     1      -5.045  -9.506  -6.125  1.00  0.00    -0.000 C 
BRANCH  25  26
ATOM     26  C   UNL     1      -3.981  -8.736  -5.321  1.00  0.00    -0.000 C 
BRANCH  26  27
ATOM     27  C   UNL     1      -3.287  -7.591  -6.083  1.00  0.00    -0.000 C 
BRANCH  27  28
ATOM     28  C   UNL     1      -2.692  -6.522  -5.150  1.00  0.00    -0.000 C 
BRANCH  28  29
ATOM     29  C   UNL     1      -2.089  -5.337  -5.920  1.00  0.00    -0.003 C 
ATOM     30  C   UNL     1      -2.784  -4.013  -5.598  1.00  0.00     0.004 C 
ENDBRANCH  28  29
ENDBRANCH  27  28
ENDBRANCH  26  27
ENDBRANCH  25  26
ENDBRANCH  24  25
ENDBRANCH  23  24
ENDBRANCH  22  23
ENDBRANCH  21  22
ENDBRANCH  20  21
ENDBRANCH  19  20
ENDBRANCH  18  19
ENDBRANCH  17  18
ENDBRANCH   1  17
TORSDOF 26
ENDMDL
MODEL 3
REMARK VINA RESULT:     0.134      2.536      4.389
REMARK INTER + INTRA:          -0.640
REMARK INTER:                  -0.276
REMARK INTRA:                  -0.364
REMARK UNBOUND:                -0.978
REMARK SMILES CCCCCCCCCCCCCCCCCCCCCCCCCCCC(=O)[O-]
REMARK SMILES IDX 15 1 16 2 17 3 18 4 19 5 20 6 21 7 22 8 23 9 24 10 25 11
REMARK SMILES IDX 26 12 27 13 28 14 29 15 30 16 14 17 13 18 12 19 11 20 10 21
REMARK SMILES IDX 9 22 8 23 7 24 6 25 5 26 4 27 3 28 2 29 1 30
REMARK H PARENT
REMARK Flexibility Score: inf
ROOT
ATOM      1  C   UNL     1     -11.288  -8.202   2.103  1.00  0.00     0.000 C 
ENDROOT
BRANCH   1   2
ATOM      2  C   UNL     1     -11.979  -7.436   0.960  1.00  0.00     0.000 C 
BRANCH   2   3
ATOM      3  C   UNL     1     -12.110  -8.276  -0.322  1.00  0.00     0.000 C 
BRANCH   3   4
ATOM      4  C   UNL     1     -11.352  -9.610  -0.226  1.00  0.00     0.000 C 
BRANCH   4   5
ATOM      5  C   UNL     1     -11.287 -10.344  -1.577  1.00  0.00     0.000 C 
BRANCH   5   6
ATOM      6  C   UNL     1     -12.124  -9.649  -2.675  1.00  0.00     0.000 C 
BRANCH   6   7
ATOM      7  C   UNL     1     -11.274  -8.935  -3.741  1.00  0.00     0.000 C 
BRANCH   7   8
ATOM      8  C   UNL     1     -11.956  -8.804  -5.113  1.00  0.00     0.000 C 
BRANCH   8   9
ATOM      9  C   UNL     1     -11.536  -9.902  -6.118  1.00  0.00     0.000 C 
BRANCH   9  10
ATOM     10  C   UNL     1     -10.018 -10.161  -6.119  1.00  0.00     0.000 C 
BRANCH  10  11
ATOM     11  C   UNL     1      -9.623 -11.417  -5.320  1.00  0.00     0.000 C 
BRANCH  11  12
ATOM     12  C   UNL     1      -8.299 -12.073  -5.751  1.00  0.00     0.006 C 
BRANCH  12  13
ATOM     13  C   UNL     1      -7.210 -11.047  -6.107  1.00  0.00     0.053 C 
BRANCH  13  14
ATOM     14  C   UNL     1      -7.020 -10.051  -5.005  1.00  0.00     0.041 C 
ATOM     15  O   UNL     1      -7.301 -10.352  -3.812  1.00  0.00    -0.550 OA
ATOM     16  O   UNL     1      -6.487  -8.799  -5.289  1.00  0.00    -0.550 OA
ENDBRANCH  13  14
ENDBRANCH  12  13
ENDBRANCH  11  12
ENDBRANCH  10  11
ENDBRANCH   9  10
ENDBRANCH   8   9
ENDBRANCH   7   8
ENDBRANCH   6   7
ENDBRANCH   5   6
ENDBRANCH   4   5
ENDBRANCH   3   4
ENDBRANCH   2   3
ENDBRANCH   1   2
BRANCH   1  17
ATOM     17  C   UNL     1     -12.116  -9.354   2.713  1.00  0.00     0.000 C 
BRANCH  17  18
ATOM     18  C   UNL     1     -11.847  -9.640   4.202  1.00  0.00     0.000 C 
BRANCH  18  19
ATOM     19  C   UNL     1     -11.941 -11.131   4.554  1.00  0.00     0.000 C 
BRANCH  19  20
ATOM     20  C   UNL     1     -10.572 -11.680   4.977  1.00  0.00     0.000 C 
BRANCH  20  21
ATOM     21  C   UNL     1     -10.503 -12.026   6.477  1.00  0.00     0.000 C 
BRANCH  21  22
ATOM     22  C   UNL     1     -11.870 -12.125   7.179  1.00  0.00    -0.000 C 
BRANCH  22  23
ATOM     23  C   UNL     1     -11.999 -11.155   8.367  1.00  0.00    -0.000 C 
BRANCH  23  24
ATOM     24  C   UNL     1     -12.120 -11.880   9.718  1.00  0.00    -0.000 C 
BRANCH  24  25
ATOM     25  C   UNL     1     -10.865 -11.715  10.591  1.00  0.00    -0.000 C 
BRANCH  25  26
ATOM     26  C   UNL     1     -11.154 -11.897  12.093  1.00  0.00    -0.000 C 
BRANCH  26  27
ATOM     27  C   UNL     1     -12.022 -10.795  12.731  1.00  0.00    -0.000 C 
BRANCH  27  28
ATOM     28  C   UNL     1     -11.886  -9.437  12.020  1.00  0.00    -0.000 C 
BRANCH  28  29
ATOM     29  C   UNL     1     -10.633  -8.665  12.461  1.00  0.00    -0.003 C 
ATOM     30  C   UNL     1     -10.799  -8.015  13.836  1.00  0.00     0.004 C 
ENDBRANCH  28  29
ENDBRANCH  27  28
ENDBRANCH  26  27
ENDBRANCH  25  26
ENDBRANCH  24  25
ENDBRANCH  23  24
ENDBRANCH  22  23
ENDBRANCH  21  22
ENDBRANCH  20  21
ENDBRANCH  19  20
ENDBRANCH  18  19
ENDBRANCH  17  18
ENDBRANCH   1  17
TORSDOF 26
ENDMDL
MODEL 4
REMARK VINA RESULT:     0.261      5.383     14.280
REMARK INTER + INTRA:          -0.322
REMARK INTER:                  -0.094
REMARK INTRA:                  -0.227
REMARK UNBOUND:                -0.978
REMARK SMILES CCCCCCCCCCCCCCCCCCCCCCCCCCCC(=O)[O-]
REMARK SMILES IDX 15 1 16 2 17 3 18 4 19 5 20 6 21 7 22 8 23 9 24 10 25 11
REMARK SMILES IDX 26 12 27 13 28 14 29 15 30 16 14 17 13 18 12 19 11 20 10 21
REMARK SMILES IDX 9 22 8 23 7 24 6 25 5 26 4 27 3 28 2 29 1 30
REMARK H PARENT
REMARK Flexibility Score: inf
ROOT
ATOM      1  C   UNL     1     -11.155  -9.912   2.159  1.00  0.00     0.000 C 
ENDROOT
BRANCH   1   2
ATOM      2  C   UNL     1     -11.977  -9.742   3.450  1.00  0.00     0.000 C 
BRANCH   2   3
ATOM      3  C   UNL     1     -12.047 -11.034   4.283  1.00  0.00     0.000 C 
BRANCH   3   4
ATOM      4  C   UNL     1     -10.771 -11.265   5.109  1.00  0.00     0.000 C 
BRANCH   4   5
ATOM      5  C   UNL     1     -11.031 -12.124   6.359  1.00  0.00     0.000 C 
BRANCH   5   6
ATOM      6  C   UNL     1     -11.942 -11.419   7.389  1.00  0.00     0.000 C 
BRANCH   6   7
ATOM      7  C   UNL     1     -11.211 -10.365   8.241  1.00  0.00     0.000 C 
BRANCH   7   8
ATOM      8  C   UNL     1     -12.071  -9.739   9.351  1.00  0.00     0.000 C 
BRANCH   8   9
ATOM      9  C   UNL     1     -12.117 -10.584  10.646  1.00  0.00     0.000 C 
BRANCH   9  10
ATOM     10  C   UNL     1     -11.225 -11.836  10.572  1.00  0.00     0.000 C 
BRANCH  10  11
ATOM     11  C   UNL     1     -10.398 -12.061  11.852  1.00  0.00     0.000 C 
BRANCH  11  12
ATOM     12  C   UNL     1     -11.177 -11.886  13.169  1.00  0.00     0.006 C 
BRANCH  12  13
ATOM     13  C   UNL     1     -10.621 -10.755  14.050  1.00  0.00     0.053 C 
BRANCH  13  14
ATOM     14  C   UNL     1     -11.107  -9.416  13.587  1.00  0.00     0.041 C 
ATOM     15  O   UNL     1     -12.124  -8.885  14.113  1.00  0.00    -0.550 OA
ATOM     16  O   UNL     1     -10.408  -8.729  12.601  1.00  0.00    -0.550 OA
ENDBRANCH  13  14
ENDBRANCH  12  13
ENDBRANCH  11  12
ENDBRANCH  10  11
ENDBRANCH   9  10
ENDBRANCH   8   9
ENDBRANCH   7   8
ENDBRANCH   6   7
ENDBRANCH   5   6
ENDBRANCH   4   5
ENDBRANCH   3   4
ENDBRANCH   2   3
ENDBRANCH   1   2
BRANCH   1  17
ATOM     17  C   UNL     1     -11.409  -8.840   1.076  1.00  0.00     0.000 C 
BRANCH  17  18
ATOM     18  C   UNL     1     -11.797  -9.387  -0.310  1.00  0.00     0.000 C 
BRANCH  18  19
ATOM     19  C   UNL     1     -12.111  -8.280  -1.326  1.00  0.00     0.000 C 
BRANCH  19  20
ATOM     20  C   UNL     1     -12.123  -8.839  -2.756  1.00  0.00     0.000 C 
BRANCH  20  21
ATOM     21  C   UNL     1     -11.187 -10.049  -2.933  1.00  0.00     0.000 C 
BRANCH  21  22
ATOM     22  C   UNL     1     -11.853 -11.295  -3.546  1.00  0.00    -0.000 C 
BRANCH  22  23
ATOM     23  C   UNL     1     -11.664 -11.379  -5.071  1.00  0.00    -0.000 C 
BRANCH  23  24
ATOM     24  C   UNL     1     -10.245 -10.992  -5.519  1.00  0.00    -0.000 C 
BRANCH  24  25
ATOM     25  C   UNL     1      -9.199 -11.203  -4.412  1.00  0.00    -0.000 C 
BRANCH  25  26
ATOM     26  C   UNL     1      -7.782 -11.441  -4.967  1.00  0.00    -0.000 C 
BRANCH  26  27
ATOM     27  C   UNL     1      -7.368 -10.513  -6.125  1.00  0.00    -0.000 C 
BRANCH  27  28
ATOM     28  C   UNL     1      -7.149  -9.057  -5.678  1.00  0.00    -0.000 C 
BRANCH  28  29
ATOM     29  C   UNL     1      -5.671  -8.642  -5.727  1.00  0.00    -0.003 C 
ATOM     30  C   UNL     1      -4.738  -9.826  -5.992  1.00  0.00     0.004 C 
ENDBRANCH  28  29
ENDBRANCH  27  28
ENDBRANCH  26  27
ENDBRANCH  25  26
ENDBRANCH  24  25
ENDBRANCH  23  24
ENDBRANCH  22  23
ENDBRANCH  21  22
ENDBRANCH  20  21
ENDBRANCH  19  20
ENDBRANCH  18  19
ENDBRANCH  17  18
ENDBRANCH   1  17
TORSDOF 26
ENDMDL
