MODEL 1
REMARK VINA RESULT:    -3.330      0.000      0.000
REMARK INTER + INTRA:          -3.746
REMARK INTER:                  -3.719
REMARK INTRA:                  -0.027
REMARK UNBOUND:                -0.027
REMARK SMILES CCCC(=O)[O-]
REMARK SMILES IDX 3 1 4 2 5 3 6 4 2 5 1 6
REMARK H PARENT
REMARK Flexibility Score: inf
ROOT
ATOM      1  C   UNL     1       1.214  11.506  10.044  1.00  0.00     0.052 C 
ENDROOT
BRANCH   1   2
ATOM      2  C   UNL     1       2.588  11.116   9.599  1.00  0.00     0.041 C 
ATOM      3  O   UNL     1       3.045   9.977   9.877  1.00  0.00    -0.550 OA
ATOM      4  O   UNL     1       3.384  12.029   8.916  1.00  0.00    -0.550 OA
ENDBRANCH   1   2
BRANCH   1   5
ATOM      5  C   UNL     1       0.937  12.973   9.703  1.00  0.00     0.003 C 
ATOM      6  C   UNL     1      -0.377  13.124   8.943  1.00  0.00     0.004 C 
ENDBRANCH   1   5
TORSDOF 2
ENDMDL
MODEL 2
REMARK VINA RESULT:    -3.319      0.190      1.331
REMARK INTER + INTRA:          -3.734
REMARK INTER:                  -3.706
REMARK INTRA:                  -0.029
REMARK UNBOUND:                -0.027
REMARK SMILES CCCC(=O)[O-]
REMARK SMILES IDX 3 1 4 2 5 3 6 4 2 5 1 6
REMARK H PARENT
REMARK Flexibility Score: inf
ROOT
ATOM      1  C   UNL     1       1.121  11.635  10.007  1.00  0.00     0.052 C 
ENDROOT
BRANCH   1   2
ATOM      2  C   UNL     1       2.521  11.293   9.609  1.00  0.00     0.041 C 
ATOM      3  O   UNL     1       3.187  12.082   8.889  1.00  0.00    -0.550 OA
ATOM      4  O   UNL     1       3.077  10.078   9.993  1.00  0.00    -0.550 OA
ENDBRANCH   1   2
BRANCH   1   5
ATOM      5  C   UNL     1       0.780  13.068   9.586  1.00  0.00     0.003 C 
ATOM      6  C   UNL     1      -0.562  13.125   8.862  1.00  0.00     0.004 C 
ENDBRANCH   1   5
TORSDOF 2
ENDMDL
MODEL 3
REMARK VINA RESULT:    -3.237      1.118      1.218
REMARK INTER + INTRA:          -3.642
REMARK INTER:                  -3.620
REMARK INTRA:                  -0.023
REMARK UNBOUND:                -0.027
REMARK SMILES CCCC(=O)[O-]
REMARK SMILES IDX 3 1 4 2 5 3 6 4 2 5 1 6
REMARK H PARENT
REMARK Flexibility Score: inf
ROOT
ATOM      1  C   UNL     1       2.398  12.355   9.436  1.00  0.00     0.052 C 
ENDROOT
BRANCH   1   2
ATOM      2  C   UNL     1       3.099  11.086   9.067  1.00  0.00     0.041 C 
ATOM      3  O   UNL     1       3.899  10.546   9.874  1.00  0.00    -0.550 OA
ATOM      4  O   UNL     1       2.906  10.524   7.810  1.00  0.00    -0.550 OA
ENDBRANCH   1   2
BRANCH   1   5
ATOM      5  C   UNL     1       0.977  12.059   9.923  1.00  0.00     0.003 C 
ATOM      6  C   UNL     1      -0.055  12.855   9.129  1.00  0.00     0.004 C 
ENDBRANCH   1   5
TORSDOF 2
ENDMDL
MODEL 4
REMARK VINA RESULT:    -3.183     18.194     18.947
REMARK INTER + INTRA:          -3.582
REMARK INTER:                  -3.555
REMARK INTRA:                  -0.027
REMARK UNBOUND:                -0.027
REMARK SMILES CCCC(=O)[O-]
REMARK SMILES IDX 3 1 4 2 5 3 6 4 2 5 1 6
REMARK H PARENT
REMARK Flexibility Score: inf
ROOT
ATOM      1  C   UNL     1      -5.614   9.246  -7.685  1.00  0.00     0.052 C 
ENDROOT
BRANCH   1   2
ATOM      2  C   UNL     1      -6.212  10.318  -6.831  1.00  0.00     0.041 C 
ATOM      3  O   UNL     1      -7.458  10.500  -6.821  1.00  0.00    -0.550 OA
ATOM      4  O   UNL     1      -5.390  11.149  -6.080  1.00  0.00    -0.550 OA
ENDBRANCH   1   2
BRANCH   1   5
ATOM      5  C   UNL     1      -5.293   9.789  -9.080  1.00  0.00     0.003 C 
ATOM      6  C   UNL     1      -3.900  10.412  -9.121  1.00  0.00     0.004 C 
ENDBRANCH   1   5
TORSDOF 2
ENDMDL
MODEL 5
REMARK VINA RESULT:    -3.129      4.225      5.178
REMARK INTER + INTRA:          -3.522
REMARK INTER:                  -3.516
REMARK INTRA:                  -0.006
REMARK UNBOUND:                -0.027
REMARK SMILES CCCC(=O)[O-]
REMARK SMILES IDX 3 1 4 2 5 3 6 4 2 5 1 6
REMARK H PARENT
REMARK Flexibility Score: inf
ROOT
ATOM      1  C   UNL     1       5.333  10.990   6.650  1.00  0.00     0.052 C 
ENDROOT
BRANCH   1   2
ATOM      2  C   UNL     1       4.344  10.055   7.268  1.00  0.00     0.041 C 
ATOM      3  O   UNL     1       4.733   8.988   7.812  1.00  0.00    -0.550 OA
ATOM      4  O   UNL     1       2.984  10.336   7.203  1.00  0.00    -0.550 OA
ENDBRANCH   1   2
BRANCH   1   5
ATOM      5  C   UNL     1       5.281  10.892   5.123  1.00  0.00     0.003 C 
ATOM      6  C   UNL     1       6.172  11.946   4.473  1.00  0.00     0.004 C 
ENDBRANCH   1   5
TORSDOF 2
ENDMDL
MODEL 6
REMARK VINA RESULT:    -2.957     17.226     18.024
REMARK INTER + INTRA:          -3.330
REMARK INTER:                  -3.302
REMARK INTRA:                  -0.027
REMARK UNBOUND:                -0.027
REMARK SMILES CCCC(=O)[O-]
REMARK SMILES IDX 3 1 4 2 5 3 6 4 2 5 1 6
REMARK H PARENT
REMARK Flexibility Score: inf
ROOT
ATOM      1  C   UNL     1      -5.748  10.390  -6.546  1.00  0.00     0.052 C 
ENDROOT
BRANCH   1   2
ATOM      2  C   UNL     1      -4.668  11.395  -6.296  1.00  0.00     0.041 C 
ATOM      3  O   UNL     1      -4.888  12.391  -5.558  1.00  0.00    -0.550 OA
ATOM      4  O   UNL     1      -3.432  11.258  -6.916  1.00  0.00    -0.550 OA
ENDBRANCH   1   2
BRANCH   1   5
ATOM      5  C   UNL     1      -5.307   9.386  -7.615  1.00  0.00     0.003 C 
ATOM      6  C   UNL     1      -5.814   9.793  -8.995  1.00  0.00     0.004 C 
ENDBRANCH   1   5
TORSDOF 2
ENDMDL
MODEL 7
REMARK VINA RESULT:    -2.927      5.449      6.396
REMARK INTER + INTRA:          -3.296
REMARK INTER:                  -3.259
REMARK INTRA:                  -0.037
REMARK UNBOUND:                -0.027
REMARK SMILES CCCC(=O)[O-]
REMARK SMILES IDX 3 1 4 2 5 3 6 4 2 5 1 6
REMARK H PARENT
REMARK Flexibility Score: inf
ROOT
ATOM      1  C   UNL     1       5.681  11.205   4.827  1.00  0.00     0.052 C 
ENDROOT
BRANCH   1   2
ATOM      2  C   UNL     1       5.607  10.721   6.240  1.00  0.00     0.041 C 
ATOM      3  O   UNL     1       6.654  10.380   6.849  1.00  0.00    -0.550 OA
ATOM      4  O   UNL     1       4.374  10.601   6.870  1.00  0.00    -0.550 OA
ENDBRANCH   1   2
BRANCH   1   5
ATOM      5  C   UNL     1       6.505  12.493   4.745  1.00  0.00     0.003 C 
ATOM      6  C   UNL     1       7.849  12.246   4.066  1.00  0.00     0.004 C 
ENDBRANCH   1   5
TORSDOF 2
ENDMDL
MODEL 8
REMARK VINA RESULT:    -2.897      2.160      3.459
REMARK INTER + INTRA:          -3.263
REMARK INTER:                  -3.244
REMARK INTRA:                  -0.019
REMARK UNBOUND:                -0.027
REMARK SMILES CCCC(=O)[O-]
REMARK SMILES IDX 3 1 4 2 5 3 6 4 2 5 1 6
REMARK H PARENT
REMARK Flexibility Score: inf
ROOT
ATOM      1  C   UNL     1       2.876  10.729   9.526  1.00  0.00     0.052 C 
ENDROOT
BRANCH   1   2
ATOM      2  C   UNL     1       1.470  11.235   9.562  1.00  0.00     0.041 C 
ATOM      3  O   UNL     1       0.939  11.556  10.658  1.00  0.00    -0.550 OA
ATOM      4  O   UNL     1       0.725  11.307   8.391  1.00  0.00    -0.550 OA
ENDBRANCH   1   2
BRANCH   1   5
ATOM      5  C   UNL     1       3.318  10.477   8.082  1.00  0.00     0.003 C 
ATOM      6  C   UNL     1       4.187   9.226   7.982  1.00  0.00     0.004 C 
ENDBRANCH   1   5
TORSDOF 2
ENDMDL
MODEL 9
REMARK VINA RESULT:    -2.883      6.484      7.442
REMARK INTER + INTRA:          -3.247
REMARK INTER:                  -3.214
REMARK INTRA:                  -0.033
REMARK UNBOUND:                -0.027
REMARK SMILES CCCC(=O)[O-]
REMARK SMILES IDX 3 1 4 2 5 3 6 4 2 5 1 6
REMARK H PARENT
REMARK Flexibility Score: inf
ROOT
ATOM      1  C   UNL     1       6.643  12.419   4.733  1.00  0.00     0.052 C 
ENDROOT
BRANCH   1   2
ATOM      2  C   UNL     1       8.011  11.935   4.371  1.00  0.00     0.041 C 
ATOM      3  O   UNL     1       8.593  12.383   3.349  1.00  0.00    -0.550 OA
ATOM      4  O   UNL     1       8.627  10.953   5.138  1.00  0.00    -0.550 OA
ENDBRANCH   1   2
BRANCH   1   5
ATOM      5  C   UNL     1       5.650  11.254   4.747  1.00  0.00     0.003 C 
ATOM      6  C   UNL     1       5.260  10.879   6.174  1.00  0.00     0.004 C 
ENDBRANCH   1   5
TORSDOF 2
ENDMDL
