MODEL 1
REMARK VINA RESULT:    -1.127      0.000      0.000
REMARK INTER + INTRA:          -1.977
REMARK INTER:                  -1.720
REMARK INTRA:                  -0.256
REMARK UNBOUND:                -0.256
REMARK SMILES CC1=CCC[C@H](C)C(=O)C[C@@H](C(C)C)C(=O)C1
REMARK SMILES IDX 8 1 9 2 6 3 7 4 5 5 4 6 3 7 2 8 1 9 10 11 11 12 15 13 16 14
REMARK SMILES IDX 17 15 12 17 13 18 14 19
REMARK H PARENT
REMARK Flexibility Score: 70.00
ROOT
ATOM      1  C   UNL     1      30.420  58.354  14.020  1.00  0.00     0.136 C 
ATOM      2  O   UNL     1      29.802  58.571  15.052  1.00  0.00    -0.299 OA
ENDROOT
BRANCH   1   3
ATOM      3  C   UNL     1      30.494  56.946  13.472  1.00  0.00     0.053 C 
ATOM      4  C   UNL     1      31.167  55.996  14.470  1.00  0.00     0.016 C 
BRANCH   3   5
ATOM      5  C   UNL     1      29.066  56.470  13.110  1.00  0.00     0.015 C 
BRANCH   5   6
ATOM      6  C   UNL     1      28.593  56.787  11.677  1.00  0.00     0.028 C 
BRANCH   6   7
ATOM      7  C   UNL     1      29.608  56.626  10.564  1.00  0.00    -0.028 C 
ATOM      8  C   UNL     1      30.020  57.579   9.693  1.00  0.00    -0.070 CG0
ATOM      9  C   UNL     1      30.958  57.157   8.589  1.00  0.00     0.039 C 
ATOM     10  G   UNL     1      29.668  59.051   9.809  1.00  0.00     0.000 G0
ENDBRANCH   6   7
ENDBRANCH   5   6
ENDBRANCH   3   5
ENDBRANCH   1   3
BRANCH   1  11
ATOM     11  C   UNL     1      31.037  59.513  13.271  1.00  0.00     0.087 C 
BRANCH  11  12
ATOM     12  C   UNL     1      30.078  60.105  12.197  1.00  0.00     0.066 C 
BRANCH  12  13
ATOM     13  C   UNL     1      30.555  59.774  10.789  1.00  0.00     0.140 C 
ATOM     14  O   UNL     1      31.681  60.106  10.446  1.00  0.00    -0.299 OA
BRANCH  13  15
ATOM     15  C   UNL     1      29.668  59.063   9.786  1.00  0.00     0.106 CG0
ATOM     16  G   UNL     1      30.031  57.592   9.691  1.00  0.00     0.000 G0
ENDBRANCH  13  15
ENDBRANCH  12  13
BRANCH  12  17
ATOM     17  C   UNL     1      29.854  61.637  12.398  1.00  0.00    -0.006 C 
ATOM     18  C   UNL     1      28.957  61.920  13.613  1.00  0.00     0.008 C 
ATOM     19  C   UNL     1      29.308  62.362  11.155  1.00  0.00     0.008 C 
ENDBRANCH  12  17
ENDBRANCH  11  12
ENDBRANCH   1  11
TORSDOF 1
ENDMDL
MODEL 2
REMARK VINA RESULT:    -0.880      2.357      3.632
REMARK INTER + INTRA:          -1.600
REMARK INTER:                  -1.237
REMARK INTRA:                  -0.362
REMARK UNBOUND:                -0.256
REMARK SMILES CC1=CCC[C@H](C)C(=O)C[C@@H](C(C)C)C(=O)C1
REMARK SMILES IDX 8 1 9 2 6 3 7 4 5 5 4 6 3 7 2 8 1 9 10 11 11 12 15 13 16 14
REMARK SMILES IDX 17 15 12 17 13 18 14 19
REMARK H PARENT
REMARK Flexibility Score: 70.00
ROOT
ATOM      1  C   UNL     1      30.615  57.788  14.638  1.00  0.00     0.136 C 
ATOM      2  O   UNL     1      30.113  56.970  15.395  1.00  0.00    -0.299 OA
ENDROOT
BRANCH   1   3
ATOM      3  C   UNL     1      31.030  57.366  13.247  1.00  0.00     0.053 C 
ATOM      4  C   UNL     1      32.074  56.245  13.293  1.00  0.00     0.016 C 
BRANCH   3   5
ATOM      5  C   UNL     1      29.771  56.938  12.453  1.00  0.00     0.015 C 
BRANCH   5   6
ATOM      6  C   UNL     1      28.877  58.082  11.938  1.00  0.00     0.028 C 
BRANCH   6   7
ATOM      7  C   UNL     1      29.572  59.340  11.460  1.00  0.00    -0.028 C 
ATOM      8  C   UNL     1      29.315  60.612  11.850  1.00  0.00    -0.070 CG0
ATOM      9  C   UNL     1      30.060  61.722  11.149  1.00  0.00     0.039 C 
ATOM     10  G   UNL     1      28.394  60.983  12.998  1.00  0.00     0.000 G0
ENDBRANCH   6   7
ENDBRANCH   5   6
ENDBRANCH   3   5
ENDBRANCH   1   3
BRANCH   1  11
ATOM     11  C   UNL     1      30.742  59.227  15.086  1.00  0.00     0.087 C 
BRANCH  11  12
ATOM     12  C   UNL     1      29.360  59.920  15.260  1.00  0.00     0.066 C 
BRANCH  12  13
ATOM     13  C   UNL     1      29.209  61.096  14.303  1.00  0.00     0.140 C 
ATOM     14  O   UNL     1      29.725  62.168  14.587  1.00  0.00    -0.299 OA
BRANCH  13  15
ATOM     15  C   UNL     1      28.417  60.988  13.015  1.00  0.00     0.106 CG0
ATOM     16  G   UNL     1      29.317  60.589  11.859  1.00  0.00     0.000 G0
ENDBRANCH  13  15
ENDBRANCH  12  13
BRANCH  12  17
ATOM     17  C   UNL     1      29.096  60.330  16.742  1.00  0.00    -0.006 C 
ATOM     18  C   UNL     1      30.366  60.195  17.597  1.00  0.00     0.008 C 
ATOM     19  C   UNL     1      27.928  59.579  17.405  1.00  0.00     0.008 C 
ENDBRANCH  12  17
ENDBRANCH  11  12
ENDBRANCH   1  11
TORSDOF 1
ENDMDL
MODEL 3
REMARK VINA RESULT:    -0.833      2.348      4.831
REMARK INTER + INTRA:          -1.528
REMARK INTER:                  -1.873
REMARK INTRA:                   0.346
REMARK UNBOUND:                -0.256
REMARK SMILES CC1=CCC[C@H](C)C(=O)C[C@@H](C(C)C)C(=O)C1
REMARK SMILES IDX 8 1 9 2 6 3 7 4 5 5 4 6 3 7 2 8 1 9 10 11 11 12 15 13 16 14
REMARK SMILES IDX 17 15 12 17 13 18 14 19
REMARK H PARENT
REMARK Flexibility Score: 70.00
ROOT
ATOM      1  C   UNL     1      31.240  60.324  10.897  1.00  0.00     0.136 C 
ATOM      2  O   UNL     1      31.951  60.627   9.950  1.00  0.00    -0.299 OA
ENDROOT
BRANCH   1   3
ATOM      3  C   UNL     1      30.703  61.407  11.807  1.00  0.00     0.053 C 
ATOM      4  C   UNL     1      31.520  62.698  11.678  1.00  0.00     0.016 C 
BRANCH   3   5
ATOM      5  C   UNL     1      29.208  61.646  11.479  1.00  0.00     0.015 C 
BRANCH   5   6
ATOM      6  C   UNL     1      28.196  60.851  12.326  1.00  0.00     0.028 C 
BRANCH   6   7
ATOM      7  C   UNL     1      26.963  60.329  11.619  1.00  0.00    -0.028 C 
ATOM      8  C   UNL     1      26.857  59.183  10.903  1.00  0.00    -0.070 CG0
ATOM      9  C   UNL     1      25.554  58.925  10.186  1.00  0.00     0.039 C 
ATOM     10  G   UNL     1      27.929  58.110  10.846  1.00  0.00     0.000 G0
ENDBRANCH   6   7
ENDBRANCH   5   6
ENDBRANCH   3   5
ENDBRANCH   1   3
BRANCH   1  11
ATOM     11  C   UNL     1      30.850  58.877  11.096  1.00  0.00     0.087 C 
BRANCH  11  12
ATOM     12  C   UNL     1      30.357  58.208   9.781  1.00  0.00     0.066 C 
BRANCH  12  13
ATOM     13  C   UNL     1      28.842  58.300   9.649  1.00  0.00     0.140 C 
ATOM     14  O   UNL     1      28.352  58.565   8.560  1.00  0.00    -0.299 OA
BRANCH  13  15
ATOM     15  C   UNL     1      27.918  58.097  10.833  1.00  0.00     0.106 CG0
ATOM     16  G   UNL     1      26.861  59.185  10.887  1.00  0.00     0.000 G0
ENDBRANCH  13  15
ENDBRANCH  12  13
BRANCH  12  17
ATOM     17  C   UNL     1      30.871  56.740   9.646  1.00  0.00    -0.006 C 
ATOM     18  C   UNL     1      30.198  56.014   8.471  1.00  0.00     0.008 C 
ATOM     19  C   UNL     1      30.736  55.905  10.932  1.00  0.00     0.008 C 
ENDBRANCH  12  17
ENDBRANCH  11  12
ENDBRANCH   1  11
TORSDOF 1
ENDMDL
MODEL 4
REMARK VINA RESULT:    -0.816      2.659      4.419
REMARK INTER + INTRA:          -1.502
REMARK INTER:                  -1.618
REMARK INTRA:                   0.116
REMARK UNBOUND:                -0.256
REMARK SMILES CC1=CCC[C@H](C)C(=O)C[C@@H](C(C)C)C(=O)C1
REMARK SMILES IDX 8 1 9 2 6 3 7 4 5 5 4 6 3 7 2 8 1 9 10 11 11 12 15 13 16 14
REMARK SMILES IDX 17 15 12 17 13 18 14 19
REMARK H PARENT
REMARK Flexibility Score: 70.00
ROOT
ATOM      1  C   UNL     1      29.610  57.633  11.618  1.00  0.00     0.136 C 
ATOM      2  O   UNL     1      29.924  57.297  10.485  1.00  0.00    -0.299 OA
ENDROOT
BRANCH   1   3
ATOM      3  C   UNL     1      29.623  56.611  12.733  1.00  0.00     0.053 C 
ATOM      4  C   UNL     1      31.017  56.000  12.911  1.00  0.00     0.016 C 
BRANCH   3   5
ATOM      5  C   UNL     1      29.126  57.282  14.037  1.00  0.00     0.015 C 
BRANCH   5   6
ATOM      6  C   UNL     1      30.084  57.206  15.242  1.00  0.00     0.028 C 
BRANCH   6   7
ATOM      7  C   UNL     1      30.151  58.418  16.148  1.00  0.00    -0.028 C 
ATOM      8  C   UNL     1      30.864  59.552  15.941  1.00  0.00    -0.070 CG0
ATOM      9  C   UNL     1      30.869  60.585  17.042  1.00  0.00     0.039 C 
ATOM     10  G   UNL     1      31.583  59.885  14.646  1.00  0.00     0.000 G0
ENDBRANCH   6   7
ENDBRANCH   5   6
ENDBRANCH   3   5
ENDBRANCH   1   3
BRANCH   1  11
ATOM     11  C   UNL     1      29.286  59.083  11.895  1.00  0.00     0.087 C 
BRANCH  11  12
ATOM     12  C   UNL     1      30.560  59.936  12.164  1.00  0.00     0.066 C 
BRANCH  12  13
ATOM     13  C   UNL     1      30.595  60.436  13.602  1.00  0.00     0.140 C 
ATOM     14  O   UNL     1      29.825  61.322  13.946  1.00  0.00    -0.299 OA
BRANCH  13  15
ATOM     15  C   UNL     1      31.574  59.886  14.621  1.00  0.00     0.106 CG0
ATOM     16  G   UNL     1      30.868  59.554  15.923  1.00  0.00     0.000 G0
ENDBRANCH  13  15
ENDBRANCH  12  13
BRANCH  12  17
ATOM     17  C   UNL     1      30.710  61.098  11.133  1.00  0.00    -0.006 C 
ATOM     18  C   UNL     1      30.527  60.598   9.691  1.00  0.00     0.008 C 
ATOM     19  C   UNL     1      32.027  61.885  11.258  1.00  0.00     0.008 C 
ENDBRANCH  12  17
ENDBRANCH  11  12
ENDBRANCH   1  11
TORSDOF 1
ENDMDL
MODEL 5
REMARK VINA RESULT:    -0.795      2.396      5.062
REMARK INTER + INTRA:          -1.469
REMARK INTER:                  -1.413
REMARK INTRA:                  -0.056
REMARK UNBOUND:                -0.256
REMARK SMILES CC1=CCC[C@H](C)C(=O)C[C@@H](C(C)C)C(=O)C1
REMARK SMILES IDX 8 1 9 2 6 3 7 4 5 5 4 6 3 7 2 8 1 9 10 11 11 12 15 13 16 14
REMARK SMILES IDX 17 15 12 17 13 18 14 19
REMARK H PARENT
REMARK Flexibility Score: 70.00
ROOT
ATOM      1  C   UNL     1      29.622  61.191  11.130  1.00  0.00     0.136 C 
ATOM      2  O   UNL     1      29.868  61.978  12.032  1.00  0.00    -0.299 OA
ENDROOT
BRANCH   1   3
ATOM      3  C   UNL     1      28.430  61.432  10.230  1.00  0.00     0.053 C 
ATOM      4  C   UNL     1      28.240  60.278   9.238  1.00  0.00     0.016 C 
BRANCH   3   5
ATOM      5  C   UNL     1      27.171  61.641  11.106  1.00  0.00     0.015 C 
BRANCH   5   6
ATOM      6  C   UNL     1      26.681  60.406  11.889  1.00  0.00     0.028 C 
BRANCH   6   7
ATOM      7  C   UNL     1      26.995  60.359  13.369  1.00  0.00    -0.028 C 
ATOM      8  C   UNL     1      27.643  59.371  14.034  1.00  0.00    -0.070 CG0
ATOM      9  C   UNL     1      27.741  59.486  15.535  1.00  0.00     0.039 C 
ATOM     10  G   UNL     1      28.348  58.208  13.359  1.00  0.00     0.000 G0
ENDBRANCH   6   7
ENDBRANCH   5   6
ENDBRANCH   3   5
ENDBRANCH   1   3
BRANCH   1  11
ATOM     11  C   UNL     1      30.560  60.031  10.884  1.00  0.00     0.087 C 
BRANCH  11  12
ATOM     12  C   UNL     1      29.937  58.665  11.291  1.00  0.00     0.066 C 
BRANCH  12  13
ATOM     13  C   UNL     1      29.686  58.598  12.792  1.00  0.00     0.140 C 
ATOM     14  O   UNL     1      30.598  58.864  13.563  1.00  0.00    -0.299 OA
BRANCH  13  15
ATOM     15  C   UNL     1      28.344  58.188  13.365  1.00  0.00     0.106 CG0
ATOM     16  G   UNL     1      27.662  59.366  14.038  1.00  0.00     0.000 G0
ENDBRANCH  13  15
ENDBRANCH  12  13
BRANCH  12  17
ATOM     17  C   UNL     1      30.791  57.461  10.782  1.00  0.00    -0.006 C 
ATOM     18  C   UNL     1      31.222  57.655   9.320  1.00  0.00     0.008 C 
ATOM     19  C   UNL     1      30.114  56.090  10.958  1.00  0.00     0.008 C 
ENDBRANCH  12  17
ENDBRANCH  11  12
ENDBRANCH   1  11
TORSDOF 1
ENDMDL
MODEL 6
REMARK VINA RESULT:    -0.794      3.093      4.389
REMARK INTER + INTRA:          -1.469
REMARK INTER:                  -1.178
REMARK INTRA:                  -0.291
REMARK UNBOUND:                -0.256
REMARK SMILES CC1=CCC[C@H](C)C(=O)C[C@@H](C(C)C)C(=O)C1
REMARK SMILES IDX 8 1 9 2 6 3 7 4 5 5 4 6 3 7 2 8 1 9 10 11 11 12 15 13 16 14
REMARK SMILES IDX 17 15 12 17 13 18 14 19
REMARK H PARENT
REMARK Flexibility Score: 70.00
ROOT
ATOM      1  C   UNL     1      28.123  60.620  13.995  1.00  0.00     0.136 C 
ATOM      2  O   UNL     1      27.512  61.377  13.253  1.00  0.00    -0.299 OA
ENDROOT
BRANCH   1   3
ATOM      3  C   UNL     1      27.714  59.167  14.084  1.00  0.00     0.053 C 
ATOM      4  C   UNL     1      26.196  59.024  14.249  1.00  0.00     0.016 C 
BRANCH   3   5
ATOM      5  C   UNL     1      28.220  58.423  12.823  1.00  0.00     0.015 C 
BRANCH   5   6
ATOM      6  C   UNL     1      29.348  57.397  13.052  1.00  0.00     0.028 C 
BRANCH   6   7
ATOM      7  C   UNL     1      29.636  56.997  14.484  1.00  0.00    -0.028 C 
ATOM      8  C   UNL     1      30.727  57.325  15.218  1.00  0.00    -0.070 CG0
ATOM      9  C   UNL     1      30.855  56.713  16.592  1.00  0.00     0.039 C 
ATOM     10  G   UNL     1      31.779  58.329  14.782  1.00  0.00     0.000 G0
ENDBRANCH   6   7
ENDBRANCH   5   6
ENDBRANCH   3   5
ENDBRANCH   1   3
BRANCH   1  11
ATOM     11  C   UNL     1      29.324  61.139  14.752  1.00  0.00     0.087 C 
BRANCH  11  12
ATOM     12  C   UNL     1      30.669  60.637  14.151  1.00  0.00     0.066 C 
BRANCH  12  13
ATOM     13  C   UNL     1      31.412  59.741  15.135  1.00  0.00     0.140 C 
ATOM     14  O   UNL     1      31.720  60.185  16.232  1.00  0.00    -0.299 OA
BRANCH  13  15
ATOM     15  C   UNL     1      31.802  58.318  14.788  1.00  0.00     0.106 CG0
ATOM     16  G   UNL     1      30.723  57.341  15.219  1.00  0.00     0.000 G0
ENDBRANCH  13  15
ENDBRANCH  12  13
BRANCH  12  17
ATOM     17  C   UNL     1      31.556  61.816  13.644  1.00  0.00    -0.006 C 
ATOM     18  C   UNL     1      31.414  63.054  14.543  1.00  0.00     0.008 C 
ATOM     19  C   UNL     1      31.313  62.199  12.173  1.00  0.00     0.008 C 
ENDBRANCH  12  17
ENDBRANCH  11  12
ENDBRANCH   1  11
TORSDOF 1
ENDMDL
MODEL 7
REMARK VINA RESULT:    -0.743      2.897      4.761
REMARK INTER + INTRA:          -1.390
REMARK INTER:                  -1.163
REMARK INTRA:                  -0.227
REMARK UNBOUND:                -0.256
REMARK SMILES CC1=CCC[C@H](C)C(=O)C[C@@H](C(C)C)C(=O)C1
REMARK SMILES IDX 8 1 9 2 6 3 7 4 5 5 4 6 3 7 2 8 1 9 10 11 11 12 15 13 16 14
REMARK SMILES IDX 17 15 12 17 13 18 14 19
REMARK H PARENT
REMARK Flexibility Score: 70.00
ROOT
ATOM      1  C   UNL     1      28.702  60.725  12.444  1.00  0.00     0.136 C 
ATOM      2  O   UNL     1      28.156  61.807  12.282  1.00  0.00    -0.299 OA
ENDROOT
BRANCH   1   3
ATOM      3  C   UNL     1      30.185  60.671  12.737  1.00  0.00     0.053 C 
ATOM      4  C   UNL     1      30.952  61.717  11.918  1.00  0.00     0.016 C 
BRANCH   3   5
ATOM      5  C   UNL     1      30.406  60.867  14.257  1.00  0.00     0.015 C 
BRANCH   5   6
ATOM      6  C   UNL     1      31.195  59.752  14.973  1.00  0.00     0.028 C 
BRANCH   6   7
ATOM      7  C   UNL     1      31.608  58.557  14.140  1.00  0.00    -0.028 C 
ATOM      8  C   UNL     1      30.997  57.348  14.089  1.00  0.00    -0.070 CG0
ATOM      9  C   UNL     1      31.658  56.265  13.273  1.00  0.00     0.039 C 
ATOM     10  G   UNL     1      29.652  57.044  14.726  1.00  0.00     0.000 G0
ENDBRANCH   6   7
ENDBRANCH   5   6
ENDBRANCH   3   5
ENDBRANCH   1   3
BRANCH   1  11
ATOM     11  C   UNL     1      27.867  59.465  12.422  1.00  0.00     0.087 C 
BRANCH  11  12
ATOM     12  C   UNL     1      27.821  58.758  13.807  1.00  0.00     0.066 C 
BRANCH  12  13
ATOM     13  C   UNL     1      28.518  57.404  13.759  1.00  0.00     0.140 C 
ATOM     14  O   UNL     1      28.153  56.573  12.938  1.00  0.00    -0.299 OA
BRANCH  13  15
ATOM     15  C   UNL     1      29.639  57.042  14.713  1.00  0.00     0.106 CG0
ATOM     16  G   UNL     1      30.993  57.330  14.090  1.00  0.00     0.000 G0
ENDBRANCH  13  15
ENDBRANCH  12  13
BRANCH  12  17
ATOM     17  C   UNL     1      26.364  58.651  14.358  1.00  0.00    -0.006 C 
ATOM     18  C   UNL     1      25.326  58.865  13.245  1.00  0.00     0.008 C 
ATOM     19  C   UNL     1      26.070  59.584  15.545  1.00  0.00     0.008 C 
ENDBRANCH  12  17
ENDBRANCH  11  12
ENDBRANCH   1  11
TORSDOF 1
ENDMDL
MODEL 8
REMARK VINA RESULT:    -0.729      2.438      5.055
REMARK INTER + INTRA:          -1.369
REMARK INTER:                  -1.533
REMARK INTRA:                   0.165
REMARK UNBOUND:                -0.256
REMARK SMILES CC1=CCC[C@H](C)C(=O)C[C@@H](C(C)C)C(=O)C1
REMARK SMILES IDX 8 1 9 2 6 3 7 4 5 5 4 6 3 7 2 8 1 9 10 11 11 12 15 13 16 14
REMARK SMILES IDX 17 15 12 17 13 18 14 19
REMARK H PARENT
REMARK Flexibility Score: 70.00
ROOT
ATOM      1  C   UNL     1      28.920  60.331  12.398  1.00  0.00     0.136 C 
ATOM      2  O   UNL     1      27.908  60.363  11.713  1.00  0.00    -0.299 OA
ENDROOT
BRANCH   1   3
ATOM      3  C   UNL     1      29.000  61.166  13.656  1.00  0.00     0.053 C 
ATOM      4  C   UNL     1      27.944  62.278  13.654  1.00  0.00     0.016 C 
BRANCH   3   5
ATOM      5  C   UNL     1      28.847  60.240  14.888  1.00  0.00     0.015 C 
BRANCH   5   6
ATOM      6  C   UNL     1      30.112  60.045  15.747  1.00  0.00     0.028 C 
BRANCH   6   7
ATOM      7  C   UNL     1      30.409  58.640  16.229  1.00  0.00    -0.028 C 
ATOM      8  C   UNL     1      30.845  57.597  15.481  1.00  0.00    -0.070 CG0
ATOM      9  C   UNL     1      30.962  56.253  16.158  1.00  0.00     0.039 C 
ATOM     10  G   UNL     1      31.303  57.713  14.038  1.00  0.00     0.000 G0
ENDBRANCH   6   7
ENDBRANCH   5   6
ENDBRANCH   3   5
ENDBRANCH   1   3
BRANCH   1  11
ATOM     11  C   UNL     1      30.043  59.396  12.012  1.00  0.00     0.087 C 
BRANCH  11  12
ATOM     12  C   UNL     1      29.594  57.906  11.982  1.00  0.00     0.066 C 
BRANCH  12  13
ATOM     13  C   UNL     1      30.253  57.108  13.101  1.00  0.00     0.140 C 
ATOM     14  O   UNL     1      29.930  55.941  13.271  1.00  0.00    -0.299 OA
BRANCH  13  15
ATOM     15  C   UNL     1      31.282  57.723  14.027  1.00  0.00     0.106 CG0
ATOM     16  G   UNL     1      30.857  57.580  15.478  1.00  0.00     0.000 G0
ENDBRANCH  13  15
ENDBRANCH  12  13
BRANCH  12  17
ATOM     17  C   UNL     1      29.825  57.257  10.581  1.00  0.00    -0.006 C 
ATOM     18  C   UNL     1      31.250  57.517  10.068  1.00  0.00     0.008 C 
ATOM     19  C   UNL     1      28.794  57.673   9.517  1.00  0.00     0.008 C 
ENDBRANCH  12  17
ENDBRANCH  11  12
ENDBRANCH   1  11
TORSDOF 1
ENDMDL
MODEL 9
REMARK VINA RESULT:    -0.616      1.981      4.437
REMARK INTER + INTRA:          -1.197
REMARK INTER:                  -1.548
REMARK INTRA:                   0.351
REMARK UNBOUND:                -0.256
REMARK SMILES CC1=CCC[C@H](C)C(=O)C[C@@H](C(C)C)C(=O)C1
REMARK SMILES IDX 8 1 9 2 6 3 7 4 5 5 4 6 3 7 2 8 1 9 10 11 11 12 15 13 16 14
REMARK SMILES IDX 17 15 12 17 13 18 14 19
REMARK H PARENT
REMARK Flexibility Score: 70.00
ROOT
ATOM      1  C   UNL     1      30.875  59.635  11.282  1.00  0.00     0.136 C 
ATOM      2  O   UNL     1      31.184  60.813  11.174  1.00  0.00    -0.299 OA
ENDROOT
BRANCH   1   3
ATOM      3  C   UNL     1      30.451  58.856  10.057  1.00  0.00     0.053 C 
ATOM      4  C   UNL     1      31.473  57.768   9.708  1.00  0.00     0.016 C 
BRANCH   3   5
ATOM      5  C   UNL     1      29.045  58.256  10.304  1.00  0.00     0.015 C 
BRANCH   5   6
ATOM      6  C   UNL     1      27.853  59.128   9.862  1.00  0.00     0.028 C 
BRANCH   6   7
ATOM      7  C   UNL     1      27.767  60.524  10.442  1.00  0.00    -0.028 C 
ATOM      8  C   UNL     1      27.471  60.858  11.722  1.00  0.00    -0.070 CG0
ATOM      9  C   UNL     1      27.328  62.325  12.046  1.00  0.00     0.039 C 
ATOM     10  G   UNL     1      27.362  59.860  12.861  1.00  0.00     0.000 G0
ENDBRANCH   6   7
ENDBRANCH   5   6
ENDBRANCH   3   5
ENDBRANCH   1   3
BRANCH   1  11
ATOM     11  C   UNL     1      30.997  58.961  12.630  1.00  0.00     0.087 C 
BRANCH  11  12
ATOM     12  C   UNL     1      29.623  58.480  13.181  1.00  0.00     0.066 C 
BRANCH  12  13
ATOM     13  C   UNL     1      28.725  59.659  13.531  1.00  0.00     0.140 C 
ATOM     14  O   UNL     1      29.093  60.458  14.381  1.00  0.00    -0.299 OA
BRANCH  13  15
ATOM     15  C   UNL     1      27.375  59.865  12.875  1.00  0.00     0.106 CG0
ATOM     16  G   UNL     1      27.478  60.846  11.721  1.00  0.00     0.000 G0
ENDBRANCH  13  15
ENDBRANCH  12  13
BRANCH  12  17
ATOM     17  C   UNL     1      29.790  57.491  14.377  1.00  0.00    -0.006 C 
ATOM     18  C   UNL     1      31.100  56.694  14.269  1.00  0.00     0.008 C 
ATOM     19  C   UNL     1      28.601  56.533  14.572  1.00  0.00     0.008 C 
ENDBRANCH  12  17
ENDBRANCH  11  12
ENDBRANCH   1  11
TORSDOF 1
ENDMDL
