MODEL 1
REMARK VINA RESULT:    -2.983      0.000      0.000
REMARK INTER + INTRA:          -2.983
REMARK INTER:                  -2.983
REMARK INTRA:                   0.000
REMARK UNBOUND:                 0.000
REMARK SMILES CC(=O)[O-]
REMARK SMILES IDX 1 1 2 2 3 3 4 4
REMARK H PARENT
REMARK Flexibility Score: inf
ROOT
ATOM      1  C   UNL     1      11.414  34.223  23.754  1.00  0.00     0.063 C 
ATOM      2  C   UNL     1      10.863  33.065  24.514  1.00  0.00     0.038 C 
ATOM      3  O   UNL     1      10.254  32.143  23.908  1.00  0.00    -0.550 OA
ATOM      4  O   UNL     1      10.970  33.025  25.898  1.00  0.00    -0.550 OA
ENDROOT
TORSDOF 0
ENDMDL
MODEL 2
REMARK VINA RESULT:    -2.918      0.877      1.739
REMARK INTER + INTRA:          -2.918
REMARK INTER:                  -2.918
REMARK INTRA:                   0.000
REMARK UNBOUND:                 0.000
REMARK SMILES CC(=O)[O-]
REMARK SMILES IDX 1 1 2 2 3 3 4 4
REMARK H PARENT
REMARK Flexibility Score: inf
ROOT
ATOM      1  C   UNL     1      11.319  34.310  23.360  1.00  0.00     0.063 C 
ATOM      2  C   UNL     1      10.488  33.221  23.949  1.00  0.00     0.038 C 
ATOM      3  O   UNL     1      10.825  32.690  25.041  1.00  0.00    -0.550 OA
ATOM      4  O   UNL     1       9.372  32.750  23.270  1.00  0.00    -0.550 OA
ENDROOT
TORSDOF 0
ENDMDL
MODEL 3
REMARK VINA RESULT:    -2.889      1.476      1.944
REMARK INTER + INTRA:          -2.889
REMARK INTER:                  -2.889
REMARK INTRA:                   0.000
REMARK UNBOUND:                 0.000
REMARK SMILES CC(=O)[O-]
REMARK SMILES IDX 1 1 2 2 3 3 4 4
REMARK H PARENT
REMARK Flexibility Score: inf
ROOT
ATOM      1  C   UNL     1      10.482  32.808  23.740  1.00  0.00     0.063 C 
ATOM      2  C   UNL     1      11.258  33.483  24.820  1.00  0.00     0.038 C 
ATOM      3  O   UNL     1      10.878  33.398  26.018  1.00  0.00    -0.550 OA
ATOM      4  O   UNL     1      12.369  34.253  24.504  1.00  0.00    -0.550 OA
ENDROOT
TORSDOF 0
ENDMDL
MODEL 4
REMARK VINA RESULT:    -2.885      4.729      5.066
REMARK INTER + INTRA:          -2.885
REMARK INTER:                  -2.885
REMARK INTRA:                   0.000
REMARK UNBOUND:                 0.000
REMARK SMILES CC(=O)[O-]
REMARK SMILES IDX 1 1 2 2 3 3 4 4
REMARK H PARENT
REMARK Flexibility Score: inf
ROOT
ATOM      1  C   UNL     1      12.977  35.166  21.514  1.00  0.00     0.063 C 
ATOM      2  C   UNL     1      12.493  36.553  21.771  1.00  0.00     0.038 C 
ATOM      3  O   UNL     1      11.369  36.739  22.310  1.00  0.00    -0.550 OA
ATOM      4  O   UNL     1      13.253  37.643  21.369  1.00  0.00    -0.550 OA
ENDROOT
TORSDOF 0
ENDMDL
MODEL 5
REMARK VINA RESULT:    -2.879      5.153      5.503
REMARK INTER + INTRA:          -2.879
REMARK INTER:                  -2.879
REMARK INTRA:                   0.000
REMARK UNBOUND:                 0.000
REMARK SMILES CC(=O)[O-]
REMARK SMILES IDX 1 1 2 2 3 3 4 4
REMARK H PARENT
REMARK Flexibility Score: inf
ROOT
ATOM      1  C   UNL     1      13.201  38.459  22.971  1.00  0.00     0.063 C 
ATOM      2  C   UNL     1      12.888  37.359  22.015  1.00  0.00     0.038 C 
ATOM      3  O   UNL     1      13.272  37.435  20.817  1.00  0.00    -0.550 OA
ATOM      4  O   UNL     1      12.126  36.273  22.425  1.00  0.00    -0.550 OA
ENDROOT
TORSDOF 0
ENDMDL
MODEL 6
REMARK VINA RESULT:    -2.862      4.897      5.208
REMARK INTER + INTRA:          -2.862
REMARK INTER:                  -2.862
REMARK INTRA:                   0.000
REMARK UNBOUND:                 0.000
REMARK SMILES CC(=O)[O-]
REMARK SMILES IDX 1 1 2 2 3 3 4 4
REMARK H PARENT
REMARK Flexibility Score: inf
ROOT
ATOM      1  C   UNL     1      12.864  35.226  21.420  1.00  0.00     0.063 C 
ATOM      2  C   UNL     1      12.704  36.690  21.649  1.00  0.00     0.038 C 
ATOM      3  O   UNL     1      13.288  37.515  20.897  1.00  0.00    -0.550 OA
ATOM      4  O   UNL     1      11.956  37.150  22.725  1.00  0.00    -0.550 OA
ENDROOT
TORSDOF 0
ENDMDL
MODEL 7
REMARK VINA RESULT:    -2.793      4.319      4.592
REMARK INTER + INTRA:          -2.793
REMARK INTER:                  -2.793
REMARK INTRA:                   0.000
REMARK UNBOUND:                 0.000
REMARK SMILES CC(=O)[O-]
REMARK SMILES IDX 1 1 2 2 3 3 4 4
REMARK H PARENT
REMARK Flexibility Score: inf
ROOT
ATOM      1  C   UNL     1      13.141  37.240  21.584  1.00  0.00     0.063 C 
ATOM      2  C   UNL     1      12.304  36.008  21.513  1.00  0.00     0.038 C 
ATOM      3  O   UNL     1      12.808  34.925  21.113  1.00  0.00    -0.550 OA
ATOM      4  O   UNL     1      10.955  36.063  21.836  1.00  0.00    -0.550 OA
ENDROOT
TORSDOF 0
ENDMDL
MODEL 8
REMARK VINA RESULT:    -2.785      3.266      3.542
REMARK INTER + INTRA:          -2.785
REMARK INTER:                  -2.785
REMARK INTRA:                   0.000
REMARK UNBOUND:                 0.000
REMARK SMILES CC(=O)[O-]
REMARK SMILES IDX 1 1 2 2 3 3 4 4
REMARK H PARENT
REMARK Flexibility Score: inf
ROOT
ATOM      1  C   UNL     1      12.240  36.945  22.638  1.00  0.00     0.063 C 
ATOM      2  C   UNL     1      10.992  36.243  23.055  1.00  0.00     0.038 C 
ATOM      3  O   UNL     1      10.030  36.133  22.249  1.00  0.00    -0.550 OA
ATOM      4  O   UNL     1      10.866  35.757  24.349  1.00  0.00    -0.550 OA
ENDROOT
TORSDOF 0
ENDMDL
MODEL 9
REMARK VINA RESULT:    -2.779      3.392      3.613
REMARK INTER + INTRA:          -2.779
REMARK INTER:                  -2.779
REMARK INTRA:                   0.000
REMARK UNBOUND:                 0.000
REMARK SMILES CC(=O)[O-]
REMARK SMILES IDX 1 1 2 2 3 3 4 4
REMARK H PARENT
REMARK Flexibility Score: inf
ROOT
ATOM      1  C   UNL     1      10.729  34.469  23.524  1.00  0.00     0.063 C 
ATOM      2  C   UNL     1      10.514  35.811  22.911  1.00  0.00     0.038 C 
ATOM      3  O   UNL     1      11.026  36.083  21.793  1.00  0.00    -0.550 OA
ATOM      4  O   UNL     1       9.794  36.782  23.594  1.00  0.00    -0.550 OA
ENDROOT
TORSDOF 0
ENDMDL
