MODEL 1
REMARK VINA RESULT:    -4.885      0.000      0.000
REMARK INTER + INTRA:          -5.693
REMARK INTER:                  -5.599
REMARK INTRA:                  -0.095
REMARK UNBOUND:                -0.095
REMARK SMILES COc1cc(C(=O)[O-])ccc1O
REMARK SMILES IDX 5 1 9 2 4 3 10 4 3 5 11 6 6 7 7 8 8 9 2 10 1 11 12 12
REMARK H PARENT 12 13
REMARK Flexibility Score: inf
ROOT
ATOM      1  C   UNL     1      36.264   1.325 -25.713  1.00  0.00     0.001 A 
ATOM      2  C   UNL     1      35.464   2.466 -25.531  1.00  0.00     0.014 A 
ATOM      3  C   UNL     1      36.373   0.766 -27.000  1.00  0.00     0.060 A 
ATOM      4  C   UNL     1      34.787   3.034 -26.611  1.00  0.00     0.051 A 
ATOM      5  C   UNL     1      35.691   1.338 -28.092  1.00  0.00     0.161 A 
ATOM      6  C   UNL     1      34.898   2.475 -27.889  1.00  0.00     0.157 A 
ENDROOT
BRANCH   1   7
ATOM      7  C   UNL     1      36.984   0.719 -24.571  1.00  0.00     0.072 C 
ATOM      8  O   UNL     1      37.971  -0.040 -24.766  1.00  0.00    -0.545 OA
ATOM      9  O   UNL     1      36.581   0.978 -23.266  1.00  0.00    -0.545 OA
ENDBRANCH   1   7
BRANCH   5  10
ATOM     10  O   UNL     1      35.776   0.806 -29.389  1.00  0.00    -0.493 OA
ATOM     11  C   UNL     1      36.993   0.605 -30.101  1.00  0.00     0.278 C 
ENDBRANCH   5  10
BRANCH   6  12
ATOM     12  O   UNL     1      34.220   3.044 -28.966  1.00  0.00    -0.504 OA
ATOM     13  H   UNL     1      33.294   2.735 -29.233  1.00  0.00     0.293 HD
ENDBRANCH   6  12
TORSDOF 3
ENDMDL
MODEL 2
REMARK VINA RESULT:    -4.881      1.848      3.787
REMARK INTER + INTRA:          -5.689
REMARK INTER:                  -5.594
REMARK INTRA:                  -0.094
REMARK UNBOUND:                -0.095
REMARK SMILES COc1cc(C(=O)[O-])ccc1O
REMARK SMILES IDX 5 1 9 2 4 3 10 4 3 5 11 6 6 7 7 8 8 9 2 10 1 11 12 12
REMARK H PARENT 12 13
REMARK Flexibility Score: inf
ROOT
ATOM      1  C   UNL     1      36.582   0.462 -28.103  1.00  0.00     0.001 A 
ATOM      2  C   UNL     1      35.728   1.142 -28.986  1.00  0.00     0.014 A 
ATOM      3  C   UNL     1      36.512   0.749 -26.727  1.00  0.00     0.060 A 
ATOM      4  C   UNL     1      34.824   2.091 -28.506  1.00  0.00     0.051 A 
ATOM      5  C   UNL     1      35.600   1.706 -26.239  1.00  0.00     0.161 A 
ATOM      6  C   UNL     1      34.756   2.374 -27.137  1.00  0.00     0.157 A 
ENDROOT
BRANCH   1   7
ATOM      7  C   UNL     1      37.543  -0.544 -28.609  1.00  0.00     0.072 C 
ATOM      8  O   UNL     1      37.135  -1.565 -29.224  1.00  0.00    -0.545 OA
ATOM      9  O   UNL     1      38.908  -0.377 -28.412  1.00  0.00    -0.545 OA
ENDBRANCH   1   7
BRANCH   5  10
ATOM     10  O   UNL     1      35.503   2.019 -24.873  1.00  0.00    -0.493 OA
ATOM     11  C   UNL     1      36.364   2.925 -24.189  1.00  0.00     0.278 C 
ENDBRANCH   5  10
BRANCH   6  12
ATOM     12  O   UNL     1      33.853   3.321 -26.659  1.00  0.00    -0.504 OA
ATOM     13  H   UNL     1      32.917   3.063 -26.369  1.00  0.00     0.293 HD
ENDBRANCH   6  12
TORSDOF 3
ENDMDL
MODEL 3
REMARK VINA RESULT:    -4.705      1.778      2.456
REMARK INTER + INTRA:          -5.488
REMARK INTER:                  -5.395
REMARK INTRA:                  -0.093
REMARK UNBOUND:                -0.095
REMARK SMILES COc1cc(C(=O)[O-])ccc1O
REMARK SMILES IDX 5 1 9 2 4 3 10 4 3 5 11 6 6 7 7 8 8 9 2 10 1 11 12 12
REMARK H PARENT 12 13
REMARK Flexibility Score: inf
ROOT
ATOM      1  C   UNL     1      34.979   1.910 -26.205  1.00  0.00     0.001 A 
ATOM      2  C   UNL     1      34.277   2.499 -27.270  1.00  0.00     0.014 A 
ATOM      3  C   UNL     1      36.042   1.034 -26.491  1.00  0.00     0.060 A 
ATOM      4  C   UNL     1      34.629   2.218 -28.591  1.00  0.00     0.051 A 
ATOM      5  C   UNL     1      36.401   0.749 -27.823  1.00  0.00     0.161 A 
ATOM      6  C   UNL     1      35.688   1.347 -28.871  1.00  0.00     0.157 A 
ENDROOT
BRANCH   1   7
ATOM      7  C   UNL     1      34.608   2.205 -24.803  1.00  0.00     0.072 C 
ATOM      8  O   UNL     1      35.495   2.482 -23.952  1.00  0.00    -0.545 OA
ATOM      9  O   UNL     1      33.277   2.180 -24.405  1.00  0.00    -0.545 OA
ENDBRANCH   1   7
BRANCH   5  10
ATOM     10  O   UNL     1      37.455  -0.121 -28.145  1.00  0.00    -0.493 OA
ATOM     11  C   UNL     1      37.339  -1.539 -28.221  1.00  0.00     0.278 C 
ENDBRANCH   5  10
BRANCH   6  12
ATOM     12  O   UNL     1      36.037   1.068 -30.191  1.00  0.00    -0.504 OA
ATOM     13  H   UNL     1      35.701   0.238 -30.664  1.00  0.00     0.293 HD
ENDBRANCH   6  12
TORSDOF 3
ENDMDL
MODEL 4
REMARK VINA RESULT:    -4.522      1.635      4.441
REMARK INTER + INTRA:          -5.278
REMARK INTER:                  -5.212
REMARK INTRA:                  -0.066
REMARK UNBOUND:                -0.095
REMARK SMILES COc1cc(C(=O)[O-])ccc1O
REMARK SMILES IDX 5 1 9 2 4 3 10 4 3 5 11 6 6 7 7 8 8 9 2 10 1 11 12 12
REMARK H PARENT 12 13
REMARK Flexibility Score: inf
ROOT
ATOM      1  C   UNL     1      36.490   0.519 -28.704  1.00  0.00     0.001 A 
ATOM      2  C   UNL     1      37.224   0.060 -27.597  1.00  0.00     0.014 A 
ATOM      3  C   UNL     1      35.444   1.437 -28.497  1.00  0.00     0.060 A 
ATOM      4  C   UNL     1      36.917   0.507 -26.311  1.00  0.00     0.051 A 
ATOM      5  C   UNL     1      35.133   1.890 -27.200  1.00  0.00     0.161 A 
ATOM      6  C   UNL     1      35.876   1.420 -26.109  1.00  0.00     0.157 A 
ENDROOT
BRANCH   1   7
ATOM      7  C   UNL     1      36.811   0.047 -30.069  1.00  0.00     0.072 C 
ATOM      8  O   UNL     1      36.482  -1.112 -30.440  1.00  0.00    -0.545 OA
ATOM      9  O   UNL     1      37.482   0.874 -30.963  1.00  0.00    -0.545 OA
ENDBRANCH   1   7
BRANCH   5  10
ATOM     10  O   UNL     1      34.095   2.805 -26.956  1.00  0.00    -0.493 OA
ATOM     11  C   UNL     1      32.748   2.441 -26.671  1.00  0.00     0.278 C 
ENDBRANCH   5  10
BRANCH   6  12
ATOM     12  O   UNL     1      35.572   1.865 -24.824  1.00  0.00    -0.504 OA
ATOM     13  H   UNL     1      36.268   2.310 -24.238  1.00  0.00     0.293 HD
ENDBRANCH   6  12
TORSDOF 3
ENDMDL
MODEL 5
REMARK VINA RESULT:    -4.490      2.031      3.407
REMARK INTER + INTRA:          -5.241
REMARK INTER:                  -5.146
REMARK INTRA:                  -0.095
REMARK UNBOUND:                -0.095
REMARK SMILES COc1cc(C(=O)[O-])ccc1O
REMARK SMILES IDX 5 1 9 2 4 3 10 4 3 5 11 6 6 7 7 8 8 9 2 10 1 11 12 12
REMARK H PARENT 12 13
REMARK Flexibility Score: inf
ROOT
ATOM      1  C   UNL     1      35.510   1.560 -27.004  1.00  0.00     0.001 A 
ATOM      2  C   UNL     1      36.084   0.614 -26.138  1.00  0.00     0.014 A 
ATOM      3  C   UNL     1      35.710   1.427 -28.390  1.00  0.00     0.060 A 
ATOM      4  C   UNL     1      36.843  -0.441 -26.646  1.00  0.00     0.051 A 
ATOM      5  C   UNL     1      36.476   0.362 -28.907  1.00  0.00     0.161 A 
ATOM      6  C   UNL     1      37.040  -0.570 -28.026  1.00  0.00     0.157 A 
ENDROOT
BRANCH   1   7
ATOM      7  C   UNL     1      34.704   2.680 -26.469  1.00  0.00     0.072 C 
ATOM      8  O   UNL     1      33.465   2.742 -26.694  1.00  0.00    -0.545 OA
ATOM      9  O   UNL     1      35.301   3.680 -25.712  1.00  0.00    -0.545 OA
ENDBRANCH   1   7
BRANCH   5  10
ATOM     10  O   UNL     1      36.698   0.199 -30.284  1.00  0.00    -0.493 OA
ATOM     11  C   UNL     1      37.690   0.897 -31.031  1.00  0.00     0.278 C 
ENDBRANCH   5  10
BRANCH   6  12
ATOM     12  O   UNL     1      37.799  -1.624 -28.531  1.00  0.00    -0.504 OA
ATOM     13  H   UNL     1      37.795  -1.855 -29.517  1.00  0.00     0.293 HD
ENDBRANCH   6  12
TORSDOF 3
ENDMDL
MODEL 6
REMARK VINA RESULT:    -4.448      1.713      3.101
REMARK INTER + INTRA:          -5.193
REMARK INTER:                  -5.095
REMARK INTRA:                  -0.098
REMARK UNBOUND:                -0.095
REMARK SMILES COc1cc(C(=O)[O-])ccc1O
REMARK SMILES IDX 5 1 9 2 4 3 10 4 3 5 11 6 6 7 7 8 8 9 2 10 1 11 12 12
REMARK H PARENT 12 13
REMARK Flexibility Score: inf
ROOT
ATOM      1  C   UNL     1      37.002   0.184 -27.323  1.00  0.00     0.001 A 
ATOM      2  C   UNL     1      36.928   0.256 -28.724  1.00  0.00     0.014 A 
ATOM      3  C   UNL     1      36.122   0.964 -26.551  1.00  0.00     0.060 A 
ATOM      4  C   UNL     1      35.995   1.092 -29.341  1.00  0.00     0.051 A 
ATOM      5  C   UNL     1      35.179   1.808 -27.171  1.00  0.00     0.161 A 
ATOM      6  C   UNL     1      35.121   1.866 -28.569  1.00  0.00     0.157 A 
ENDROOT
BRANCH   1   7
ATOM      7  C   UNL     1      37.990  -0.700 -26.666  1.00  0.00     0.072 C 
ATOM      8  O   UNL     1      38.049  -1.924 -26.960  1.00  0.00    -0.545 OA
ATOM      9  O   UNL     1      38.867  -0.194 -25.714  1.00  0.00    -0.545 OA
ENDBRANCH   1   7
BRANCH   5  10
ATOM     10  O   UNL     1      34.286   2.601 -26.432  1.00  0.00    -0.493 OA
ATOM     11  C   UNL     1      33.078   2.125 -25.845  1.00  0.00     0.278 C 
ENDBRANCH   5  10
BRANCH   6  12
ATOM     12  O   UNL     1      34.190   2.700 -29.187  1.00  0.00    -0.504 OA
ATOM     13  H   UNL     1      33.899   2.552 -30.146  1.00  0.00     0.293 HD
ENDBRANCH   6  12
TORSDOF 3
ENDMDL
MODEL 7
REMARK VINA RESULT:    -4.423     14.857     15.744
REMARK INTER + INTRA:          -5.164
REMARK INTER:                  -5.072
REMARK INTRA:                  -0.092
REMARK UNBOUND:                -0.095
REMARK SMILES COc1cc(C(=O)[O-])ccc1O
REMARK SMILES IDX 5 1 9 2 4 3 10 4 3 5 11 6 6 7 7 8 8 9 2 10 1 11 12 12
REMARK H PARENT 12 13
REMARK Flexibility Score: inf
ROOT
ATOM      1  C   UNL     1      20.638   0.215 -29.074  1.00  0.00     0.001 A 
ATOM      2  C   UNL     1      19.777   0.643 -30.099  1.00  0.00     0.014 A 
ATOM      3  C   UNL     1      21.500  -0.870 -29.316  1.00  0.00     0.060 A 
ATOM      4  C   UNL     1      19.776  -0.000 -31.337  1.00  0.00     0.051 A 
ATOM      5  C   UNL     1      21.502  -1.522 -30.565  1.00  0.00     0.161 A 
ATOM      6  C   UNL     1      20.636  -1.080 -31.573  1.00  0.00     0.157 A 
ENDROOT
BRANCH   1   7
ATOM      7  C   UNL     1      20.641   0.895 -27.760  1.00  0.00     0.072 C 
ATOM      8  O   UNL     1      19.574   1.021 -27.101  1.00  0.00    -0.545 OA
ATOM      9  O   UNL     1      21.821   1.406 -27.232  1.00  0.00    -0.545 OA
ENDBRANCH   1   7
BRANCH   5  10
ATOM     10  O   UNL     1      22.348  -2.608 -30.840  1.00  0.00    -0.493 OA
ATOM     11  C   UNL     1      22.061  -3.962 -30.500  1.00  0.00     0.278 C 
ENDBRANCH   5  10
BRANCH   6  12
ATOM     12  O   UNL     1      20.633  -1.721 -32.811  1.00  0.00    -0.504 OA
ATOM     13  H   UNL     1      20.614  -1.200 -33.678  1.00  0.00     0.293 HD
ENDBRANCH   6  12
TORSDOF 3
ENDMDL
MODEL 8
REMARK VINA RESULT:    -4.385      4.253      6.696
REMARK INTER + INTRA:          -5.120
REMARK INTER:                  -5.023
REMARK INTRA:                  -0.097
REMARK UNBOUND:                -0.095
REMARK SMILES COc1cc(C(=O)[O-])ccc1O
REMARK SMILES IDX 5 1 9 2 4 3 10 4 3 5 11 6 6 7 7 8 8 9 2 10 1 11 12 12
REMARK H PARENT 12 13
REMARK Flexibility Score: inf
ROOT
ATOM      1  C   UNL     1      37.410  -1.412 -30.132  1.00  0.00     0.001 A 
ATOM      2  C   UNL     1      38.730  -1.790 -29.834  1.00  0.00     0.014 A 
ATOM      3  C   UNL     1      36.463  -2.410 -30.423  1.00  0.00     0.060 A 
ATOM      4  C   UNL     1      39.095  -3.137 -29.830  1.00  0.00     0.051 A 
ATOM      5  C   UNL     1      36.828  -3.771 -30.420  1.00  0.00     0.161 A 
ATOM      6  C   UNL     1      38.150  -4.128 -30.121  1.00  0.00     0.157 A 
ENDROOT
BRANCH   1   7
ATOM      7  C   UNL     1      37.019   0.016 -30.137  1.00  0.00     0.072 C 
ATOM      8  O   UNL     1      36.130   0.439 -29.351  1.00  0.00    -0.545 OA
ATOM      9  O   UNL     1      37.627   0.910 -31.011  1.00  0.00    -0.545 OA
ENDBRANCH   1   7
BRANCH   5  10
ATOM     10  O   UNL     1      35.909  -4.793 -30.707  1.00  0.00    -0.493 OA
ATOM     11  C   UNL     1      34.941  -5.291 -29.787  1.00  0.00     0.278 C 
ENDBRANCH   5  10
BRANCH   6  12
ATOM     12  O   UNL     1      38.516  -5.472 -30.116  1.00  0.00    -0.504 OA
ATOM     13  H   UNL     1      37.831  -6.209 -30.233  1.00  0.00     0.293 HD
ENDBRANCH   6  12
TORSDOF 3
ENDMDL
MODEL 9
REMARK VINA RESULT:    -4.369      1.352      4.989
REMARK INTER + INTRA:          -5.102
REMARK INTER:                  -5.002
REMARK INTRA:                  -0.100
REMARK UNBOUND:                -0.095
REMARK SMILES COc1cc(C(=O)[O-])ccc1O
REMARK SMILES IDX 5 1 9 2 4 3 10 4 3 5 11 6 6 7 7 8 8 9 2 10 1 11 12 12
REMARK H PARENT 12 13
REMARK Flexibility Score: inf
ROOT
ATOM      1  C   UNL     1      35.579   1.631 -26.945  1.00  0.00     0.001 A 
ATOM      2  C   UNL     1      36.546   0.680 -26.578  1.00  0.00     0.014 A 
ATOM      3  C   UNL     1      35.006   2.442 -25.949  1.00  0.00     0.060 A 
ATOM      4  C   UNL     1      36.932   0.543 -25.243  1.00  0.00     0.051 A 
ATOM      5  C   UNL     1      35.393   2.306 -24.601  1.00  0.00     0.161 A 
ATOM      6  C   UNL     1      36.359   1.352 -24.255  1.00  0.00     0.157 A 
ENDROOT
BRANCH   1   7
ATOM      7  C   UNL     1      35.167   1.779 -28.359  1.00  0.00     0.072 C 
ATOM      8  O   UNL     1      34.289   2.622 -28.685  1.00  0.00    -0.545 OA
ATOM      9  O   UNL     1      35.743   0.990 -29.348  1.00  0.00    -0.545 OA
ENDBRANCH   1   7
BRANCH   5  10
ATOM     10  O   UNL     1      34.842   3.098 -23.581  1.00  0.00    -0.493 OA
ATOM     11  C   UNL     1      35.279   4.414 -23.253  1.00  0.00     0.278 C 
ENDBRANCH   5  10
BRANCH   6  12
ATOM     12  O   UNL     1      36.745   1.214 -22.923  1.00  0.00    -0.504 OA
ATOM     13  H   UNL     1      37.608   1.615 -22.576  1.00  0.00     0.293 HD
ENDBRANCH   6  12
TORSDOF 3
ENDMDL
