MODEL 1
REMARK VINA RESULT:    -5.761      0.000      0.000
REMARK INTER + INTRA:          -7.480
REMARK INTER:                  -7.109
REMARK INTRA:                  -0.372
REMARK UNBOUND:                -0.372
REMARK SMILES Oc1cc(O)c2cc(O)c(-c3cc(O)c(O)c(O)c3)[o+]c2c1
REMARK SMILES IDX 10 1 20 2 21 3 22 4 2 5 3 6 4 7 6 8 7 9 8 10 11 11 12 12
REMARK SMILES IDX 13 13 19 14 15 15 17 16 14 17 16 19 18 21 9 23 1 25 5 27
REMARK H PARENT 14 18 16 20 18 22 9 24 1 26 5 28
REMARK Flexibility Score: inf
ROOT
ATOM      1  C   UNL     1       6.740  -1.314  -8.135  1.00  0.00     0.402 A 
ATOM      2  O   UNL     1       6.032  -2.421  -8.349  1.00  0.00    -0.202 OA
ATOM      3  C   UNL     1       6.526  -3.644  -8.192  1.00  0.00     0.368 A 
ATOM      4  C   UNL     1       5.705  -4.746  -8.444  1.00  0.00     0.162 A 
ATOM      5  C   UNL     1       6.201  -6.045  -8.291  1.00  0.00     0.128 A 
ATOM      6  C   UNL     1       7.522  -6.241  -7.884  1.00  0.00     0.093 A 
ATOM      7  C   UNL     1       8.365  -5.153  -7.625  1.00  0.00     0.136 A 
ATOM      8  C   UNL     1       7.866  -3.833  -7.777  1.00  0.00     0.125 A 
ATOM      9  C   UNL     1       8.635  -2.684  -7.527  1.00  0.00     0.078 A 
ATOM     10  C   UNL     1       8.072  -1.415  -7.696  1.00  0.00     0.223 A 
ENDROOT
BRANCH   1  11
ATOM     11  C   UNL     1       6.079  -0.007  -8.355  1.00  0.00     0.091 A 
ATOM     12  C   UNL     1       5.193   0.489  -7.386  1.00  0.00     0.068 A 
ATOM     13  C   UNL     1       4.540   1.711  -7.575  1.00  0.00     0.162 A 
ATOM     14  C   UNL     1       6.277   0.723  -9.539  1.00  0.00     0.068 A 
ATOM     15  C   UNL     1       4.756   2.448  -8.752  1.00  0.00     0.200 A 
ATOM     16  C   UNL     1       5.624   1.948  -9.738  1.00  0.00     0.162 A 
BRANCH  13  17
ATOM     17  O   UNL     1       3.679   2.177  -6.583  1.00  0.00    -0.504 OA
ATOM     18  H   UNL     1       3.601   3.161  -6.353  1.00  0.00     0.293 HD
ENDBRANCH  13  17
BRANCH  15  19
ATOM     19  O   UNL     1       4.103   3.668  -8.932  1.00  0.00    -0.502 OA
ATOM     20  H   UNL     1       3.532   4.089  -8.209  1.00  0.00     0.293 HD
ENDBRANCH  15  19
BRANCH  16  21
ATOM     21  O   UNL     1       5.832   2.667 -10.913  1.00  0.00    -0.504 OA
ATOM     22  H   UNL     1       5.726   2.237 -11.825  1.00  0.00     0.293 HD
ENDBRANCH  16  21
ENDBRANCH   1  11
BRANCH  10  23
ATOM     23  O   UNL     1       8.819  -0.274  -7.400  1.00  0.00    -0.500 OA
ATOM     24  H   UNL     1       9.780  -0.173  -7.705  1.00  0.00     0.294 HD
ENDBRANCH  10  23
BRANCH   5  25
ATOM     25  O   UNL     1       5.387  -7.148  -8.540  1.00  0.00    -0.507 OA
ATOM     26  H   UNL     1       5.550  -7.759  -9.332  1.00  0.00     0.293 HD
ENDBRANCH   5  25
BRANCH   7  27
ATOM     27  O   UNL     1       9.674  -5.435  -7.225  1.00  0.00    -0.507 OA
ATOM     28  H   UNL     1      10.222  -4.849  -6.611  1.00  0.00     0.293 HD
ENDBRANCH   7  27
TORSDOF 7
ENDMDL
MODEL 2
REMARK VINA RESULT:    -5.702      0.147      1.799
REMARK INTER + INTRA:          -7.408
REMARK INTER:                  -7.042
REMARK INTRA:                  -0.366
REMARK UNBOUND:                -0.372
REMARK SMILES Oc1cc(O)c2cc(O)c(-c3cc(O)c(O)c(O)c3)[o+]c2c1
REMARK SMILES IDX 10 1 20 2 21 3 22 4 2 5 3 6 4 7 6 8 7 9 8 10 11 11 12 12
REMARK SMILES IDX 13 13 19 14 15 15 17 16 14 17 16 19 18 21 9 23 1 25 5 27
REMARK H PARENT 14 18 16 20 18 22 9 24 1 26 5 28
REMARK Flexibility Score: inf
ROOT
ATOM      1  C   UNL     1       6.659  -1.404  -8.176  1.00  0.00     0.402 A 
ATOM      2  O   UNL     1       5.993  -2.535  -8.396  1.00  0.00    -0.202 OA
ATOM      3  C   UNL     1       6.534  -3.740  -8.253  1.00  0.00     0.368 A 
ATOM      4  C   UNL     1       5.755  -4.871  -8.511  1.00  0.00     0.162 A 
ATOM      5  C   UNL     1       6.300  -6.150  -8.372  1.00  0.00     0.128 A 
ATOM      6  C   UNL     1       7.630  -6.299  -7.974  1.00  0.00     0.093 A 
ATOM      7  C   UNL     1       8.432  -5.183  -7.709  1.00  0.00     0.136 A 
ATOM      8  C   UNL     1       7.883  -3.881  -7.846  1.00  0.00     0.125 A 
ATOM      9  C   UNL     1       8.608  -2.706  -7.590  1.00  0.00     0.078 A 
ATOM     10  C   UNL     1       7.997  -1.457  -7.744  1.00  0.00     0.223 A 
ENDROOT
BRANCH   1  11
ATOM     11  C   UNL     1       5.947  -0.121  -8.380  1.00  0.00     0.091 A 
ATOM     12  C   UNL     1       6.127   0.584  -9.580  1.00  0.00     0.068 A 
ATOM     13  C   UNL     1       5.483   1.807  -9.793  1.00  0.00     0.162 A 
ATOM     14  C   UNL     1       5.137   0.435  -7.375  1.00  0.00     0.068 A 
ATOM     15  C   UNL     1       4.658   2.349  -8.793  1.00  0.00     0.200 A 
ATOM     16  C   UNL     1       4.490   1.661  -7.579  1.00  0.00     0.162 A 
BRANCH  13  17
ATOM     17  O   UNL     1       5.676   2.469 -11.004  1.00  0.00    -0.504 OA
ATOM     18  H   UNL     1       6.588   2.540 -11.441  1.00  0.00     0.293 HD
ENDBRANCH  13  17
BRANCH  15  19
ATOM     19  O   UNL     1       4.016   3.569  -9.014  1.00  0.00    -0.502 OA
ATOM     20  H   UNL     1       3.921   3.970  -9.938  1.00  0.00     0.293 HD
ENDBRANCH  15  19
BRANCH  16  21
ATOM     21  O   UNL     1       3.685   2.200  -6.577  1.00  0.00    -0.504 OA
ATOM     22  H   UNL     1       2.713   1.930  -6.474  1.00  0.00     0.293 HD
ENDBRANCH  16  21
ENDBRANCH   1  11
BRANCH  10  23
ATOM     23  O   UNL     1       8.701  -0.292  -7.442  1.00  0.00    -0.500 OA
ATOM     24  H   UNL     1       9.102  -0.134  -6.525  1.00  0.00     0.294 HD
ENDBRANCH  10  23
BRANCH   5  25
ATOM     25  O   UNL     1       5.528  -7.281  -8.627  1.00  0.00    -0.507 OA
ATOM     26  H   UNL     1       5.023  -7.756  -7.888  1.00  0.00     0.293 HD
ENDBRANCH   5  25
BRANCH   7  27
ATOM     27  O   UNL     1       9.754  -5.417  -7.318  1.00  0.00    -0.507 OA
ATOM     28  H   UNL     1      10.342  -6.144  -7.700  1.00  0.00     0.293 HD
ENDBRANCH   7  27
TORSDOF 7
ENDMDL
MODEL 3
REMARK VINA RESULT:    -5.162      1.082      2.524
REMARK INTER + INTRA:          -6.741
REMARK INTER:                  -6.460
REMARK INTRA:                  -0.282
REMARK UNBOUND:                -0.372
REMARK SMILES Oc1cc(O)c2cc(O)c(-c3cc(O)c(O)c(O)c3)[o+]c2c1
REMARK SMILES IDX 10 1 20 2 21 3 22 4 2 5 3 6 4 7 6 8 7 9 8 10 11 11 12 12
REMARK SMILES IDX 13 13 19 14 15 15 17 16 14 17 16 19 18 21 9 23 1 25 5 27
REMARK H PARENT 14 18 16 20 18 22 9 24 1 26 5 28
REMARK Flexibility Score: inf
ROOT
ATOM      1  C   UNL     1       5.924  -1.601  -8.699  1.00  0.00     0.402 A 
ATOM      2  O   UNL     1       6.964  -1.908  -7.926  1.00  0.00    -0.202 OA
ATOM      3  C   UNL     1       7.429  -3.145  -7.787  1.00  0.00     0.368 A 
ATOM      4  C   UNL     1       8.525  -3.370  -6.950  1.00  0.00     0.162 A 
ATOM      5  C   UNL     1       9.032  -4.661  -6.783  1.00  0.00     0.128 A 
ATOM      6  C   UNL     1       8.442  -5.733  -7.457  1.00  0.00     0.093 A 
ATOM      7  C   UNL     1       7.343  -5.534  -8.301  1.00  0.00     0.136 A 
ATOM      8  C   UNL     1       6.825  -4.224  -8.476  1.00  0.00     0.125 A 
ATOM      9  C   UNL     1       5.735  -3.930  -9.312  1.00  0.00     0.078 A 
ATOM     10  C   UNL     1       5.284  -2.612  -9.437  1.00  0.00     0.223 A 
ENDROOT
BRANCH   1  11
ATOM     11  C   UNL     1       5.494  -0.185  -8.762  1.00  0.00     0.091 A 
ATOM     12  C   UNL     1       4.819   0.380  -7.670  1.00  0.00     0.068 A 
ATOM     13  C   UNL     1       4.384   1.708  -7.708  1.00  0.00     0.162 A 
ATOM     14  C   UNL     1       5.697   0.590  -9.917  1.00  0.00     0.068 A 
ATOM     15  C   UNL     1       4.607   2.487  -8.857  1.00  0.00     0.200 A 
ATOM     16  C   UNL     1       5.261   1.922  -9.966  1.00  0.00     0.162 A 
BRANCH  13  17
ATOM     17  O   UNL     1       3.730   2.237  -6.596  1.00  0.00    -0.504 OA
ATOM     18  H   UNL     1       3.826   3.209  -6.326  1.00  0.00     0.293 HD
ENDBRANCH  13  17
BRANCH  15  19
ATOM     19  O   UNL     1       4.172   3.813  -8.888  1.00  0.00    -0.502 OA
ATOM     20  H   UNL     1       4.762   4.568  -9.214  1.00  0.00     0.293 HD
ENDBRANCH  15  19
BRANCH  16  21
ATOM     21  O   UNL     1       5.473   2.683 -11.113  1.00  0.00    -0.504 OA
ATOM     22  H   UNL     1       6.332   2.613 -11.647  1.00  0.00     0.293 HD
ENDBRANCH  16  21
ENDBRANCH   1  11
BRANCH  10  23
ATOM     23  O   UNL     1       4.234  -2.312 -10.305  1.00  0.00    -0.500 OA
ATOM     24  H   UNL     1       3.472  -1.703 -10.030  1.00  0.00     0.294 HD
ENDBRANCH  10  23
BRANCH   5  25
ATOM     25  O   UNL     1      10.125  -4.892  -5.951  1.00  0.00    -0.507 OA
ATOM     26  H   UNL     1      10.503  -5.822  -5.818  1.00  0.00     0.293 HD
ENDBRANCH   5  25
BRANCH   7  27
ATOM     27  O   UNL     1       6.807  -6.659  -8.936  1.00  0.00    -0.507 OA
ATOM     28  H   UNL     1       7.350  -7.453  -9.243  1.00  0.00     0.293 HD
ENDBRANCH   7  27
TORSDOF 7
ENDMDL
MODEL 4
REMARK VINA RESULT:    -4.865     12.142     13.721
REMARK INTER + INTRA:          -6.375
REMARK INTER:                  -6.017
REMARK INTRA:                  -0.358
REMARK UNBOUND:                -0.372
REMARK SMILES Oc1cc(O)c2cc(O)c(-c3cc(O)c(O)c(O)c3)[o+]c2c1
REMARK SMILES IDX 10 1 20 2 21 3 22 4 2 5 3 6 4 7 6 8 7 9 8 10 11 11 12 12
REMARK SMILES IDX 13 13 19 14 15 15 17 16 14 17 16 19 18 21 9 23 1 25 5 27
REMARK H PARENT 14 18 16 20 18 22 9 24 1 26 5 28
REMARK Flexibility Score: inf
ROOT
ATOM      1  C   UNL     1      -6.017  -5.225  -7.757  1.00  0.00     0.402 A 
ATOM      2  O   UNL     1      -6.870  -5.477  -6.768  1.00  0.00    -0.202 OA
ATOM      3  C   UNL     1      -7.599  -6.586  -6.697  1.00  0.00     0.368 A 
ATOM      4  C   UNL     1      -8.471  -6.760  -5.620  1.00  0.00     0.162 A 
ATOM      5  C   UNL     1      -9.251  -7.916  -5.523  1.00  0.00     0.128 A 
ATOM      6  C   UNL     1      -9.159  -8.902  -6.507  1.00  0.00     0.093 A 
ATOM      7  C   UNL     1      -8.292  -8.752  -7.597  1.00  0.00     0.136 A 
ATOM      8  C   UNL     1      -7.496  -7.581  -7.699  1.00  0.00     0.125 A 
ATOM      9  C   UNL     1      -6.591  -7.352  -8.749  1.00  0.00     0.078 A 
ATOM     10  C   UNL     1      -5.837  -6.174  -8.779  1.00  0.00     0.223 A 
ENDROOT
BRANCH   1  11
ATOM     11  C   UNL     1      -5.270  -3.946  -7.729  1.00  0.00     0.091 A 
ATOM     12  C   UNL     1      -3.972  -3.918  -7.197  1.00  0.00     0.068 A 
ATOM     13  C   UNL     1      -3.250  -2.721  -7.139  1.00  0.00     0.162 A 
ATOM     14  C   UNL     1      -5.854  -2.748  -8.173  1.00  0.00     0.068 A 
ATOM     15  C   UNL     1      -3.830  -1.529  -7.603  1.00  0.00     0.200 A 
ATOM     16  C   UNL     1      -5.138  -1.543  -8.117  1.00  0.00     0.162 A 
BRANCH  13  17
ATOM     17  O   UNL     1      -1.957  -2.738  -6.617  1.00  0.00    -0.504 OA
ATOM     18  H   UNL     1      -1.439  -3.599  -6.487  1.00  0.00     0.293 HD
ENDBRANCH  13  17
BRANCH  15  19
ATOM     19  O   UNL     1      -3.102  -0.339  -7.545  1.00  0.00    -0.502 OA
ATOM     20  H   UNL     1      -3.144   0.357  -8.279  1.00  0.00     0.293 HD
ENDBRANCH  15  19
BRANCH  16  21
ATOM     21  O   UNL     1      -5.725  -0.362  -8.565  1.00  0.00    -0.504 OA
ATOM     22  H   UNL     1      -6.286   0.219  -7.953  1.00  0.00     0.293 HD
ENDBRANCH  16  21
ENDBRANCH   1  11
BRANCH  10  23
ATOM     23  O   UNL     1      -4.903  -5.968  -9.794  1.00  0.00    -0.500 OA
ATOM     24  H   UNL     1      -4.401  -5.093  -9.887  1.00  0.00     0.294 HD
ENDBRANCH  10  23
BRANCH   5  25
ATOM     25  O   UNL     1     -10.122  -8.095  -4.450  1.00  0.00    -0.507 OA
ATOM     26  H   UNL     1     -10.988  -7.574  -4.378  1.00  0.00     0.293 HD
ENDBRANCH   5  25
BRANCH   7  27
ATOM     27  O   UNL     1      -8.261  -9.782  -8.541  1.00  0.00    -0.507 OA
ATOM     28  H   UNL     1      -8.367  -9.648  -9.536  1.00  0.00     0.293 HD
ENDBRANCH   7  27
TORSDOF 7
ENDMDL
MODEL 5
REMARK VINA RESULT:    -4.837     12.509     15.055
REMARK INTER + INTRA:          -6.340
REMARK INTER:                  -6.164
REMARK INTRA:                  -0.176
REMARK UNBOUND:                -0.372
REMARK SMILES Oc1cc(O)c2cc(O)c(-c3cc(O)c(O)c(O)c3)[o+]c2c1
REMARK SMILES IDX 10 1 20 2 21 3 22 4 2 5 3 6 4 7 6 8 7 9 8 10 11 11 12 12
REMARK SMILES IDX 13 13 19 14 15 15 17 16 14 17 16 19 18 21 9 23 1 25 5 27
REMARK H PARENT 14 18 16 20 18 22 9 24 1 26 5 28
REMARK Flexibility Score: inf
ROOT
ATOM      1  C   UNL     1      -6.413  -5.463  -7.521  1.00  0.00     0.402 A 
ATOM      2  O   UNL     1      -6.845  -4.216  -7.699  1.00  0.00    -0.202 OA
ATOM      3  C   UNL     1      -6.075  -3.236  -8.158  1.00  0.00     0.368 A 
ATOM      4  C   UNL     1      -6.618  -1.958  -8.307  1.00  0.00     0.162 A 
ATOM      5  C   UNL     1      -5.829  -0.907  -8.785  1.00  0.00     0.128 A 
ATOM      6  C   UNL     1      -4.491  -1.136  -9.114  1.00  0.00     0.093 A 
ATOM      7  C   UNL     1      -3.923  -2.408  -8.973  1.00  0.00     0.136 A 
ATOM      8  C   UNL     1      -4.721  -3.479  -8.491  1.00  0.00     0.125 A 
ATOM      9  C   UNL     1      -4.239  -4.788  -8.330  1.00  0.00     0.078 A 
ATOM     10  C   UNL     1      -5.087  -5.793  -7.853  1.00  0.00     0.223 A 
ENDROOT
BRANCH   1  11
ATOM     11  C   UNL     1      -7.367  -6.465  -6.993  1.00  0.00     0.091 A 
ATOM     12  C   UNL     1      -7.718  -7.569  -7.786  1.00  0.00     0.068 A 
ATOM     13  C   UNL     1      -8.630  -8.521  -7.321  1.00  0.00     0.162 A 
ATOM     14  C   UNL     1      -7.971  -6.308  -5.734  1.00  0.00     0.068 A 
ATOM     15  C   UNL     1      -9.217  -8.370  -6.053  1.00  0.00     0.200 A 
ATOM     16  C   UNL     1      -8.889  -7.256  -5.261  1.00  0.00     0.162 A 
BRANCH  13  17
ATOM     17  O   UNL     1      -8.942  -9.610  -8.133  1.00  0.00    -0.504 OA
ATOM     18  H   UNL     1      -8.667  -9.652  -9.107  1.00  0.00     0.293 HD
ENDBRANCH  13  17
BRANCH  15  19
ATOM     19  O   UNL     1     -10.125  -9.326  -5.594  1.00  0.00    -0.502 OA
ATOM     20  H   UNL     1      -9.913 -10.316  -5.593  1.00  0.00     0.293 HD
ENDBRANCH  15  19
BRANCH  16  21
ATOM     21  O   UNL     1      -9.478  -7.093  -4.008  1.00  0.00    -0.504 OA
ATOM     22  H   UNL     1      -9.675  -7.884  -3.406  1.00  0.00     0.293 HD
ENDBRANCH  16  21
ENDBRANCH   1  11
BRANCH  10  23
ATOM     23  O   UNL     1      -4.624  -7.104  -7.740  1.00  0.00    -0.500 OA
ATOM     24  H   UNL     1      -4.699  -7.764  -8.506  1.00  0.00     0.294 HD
ENDBRANCH  10  23
BRANCH   5  25
ATOM     25  O   UNL     1      -6.365   0.370  -8.937  1.00  0.00    -0.507 OA
ATOM     26  H   UNL     1      -6.056   1.146  -8.364  1.00  0.00     0.293 HD
ENDBRANCH   5  25
BRANCH   7  27
ATOM     27  O   UNL     1      -2.577  -2.554  -9.321  1.00  0.00    -0.507 OA
ATOM     28  H   UNL     1      -1.825  -1.999  -8.939  1.00  0.00     0.293 HD
ENDBRANCH   7  27
TORSDOF 7
ENDMDL
MODEL 6
REMARK VINA RESULT:    -4.763     10.635     11.991
REMARK INTER + INTRA:          -6.249
REMARK INTER:                  -5.885
REMARK INTRA:                  -0.364
REMARK UNBOUND:                -0.372
REMARK SMILES Oc1cc(O)c2cc(O)c(-c3cc(O)c(O)c(O)c3)[o+]c2c1
REMARK SMILES IDX 10 1 20 2 21 3 22 4 2 5 3 6 4 7 6 8 7 9 8 10 11 11 12 12
REMARK SMILES IDX 13 13 19 14 15 15 17 16 14 17 16 19 18 21 9 23 1 25 5 27
REMARK H PARENT 14 18 16 20 18 22 9 24 1 26 5 28
REMARK Flexibility Score: inf
ROOT
ATOM      1  C   UNL     1      -5.180  -2.183  -8.006  1.00  0.00     0.402 A 
ATOM      2  O   UNL     1      -5.611  -3.442  -8.012  1.00  0.00    -0.202 OA
ATOM      3  C   UNL     1      -4.824  -4.482  -8.268  1.00  0.00     0.368 A 
ATOM      4  C   UNL     1      -5.370  -5.768  -8.255  1.00  0.00     0.162 A 
ATOM      5  C   UNL     1      -4.565  -6.879  -8.524  1.00  0.00     0.128 A 
ATOM      6  C   UNL     1      -3.209  -6.703  -8.808  1.00  0.00     0.093 A 
ATOM      7  C   UNL     1      -2.638  -5.424  -8.828  1.00  0.00     0.136 A 
ATOM      8  C   UNL     1      -3.450  -4.293  -8.553  1.00  0.00     0.125 A 
ATOM      9  C   UNL     1      -2.960  -2.977  -8.538  1.00  0.00     0.078 A 
ATOM     10  C   UNL     1      -3.822  -1.912  -8.254  1.00  0.00     0.223 A 
ENDROOT
BRANCH   1  11
ATOM     11  C   UNL     1      -6.158  -1.110  -7.716  1.00  0.00     0.091 A 
ATOM     12  C   UNL     1      -6.286  -0.629  -6.404  1.00  0.00     0.068 A 
ATOM     13  C   UNL     1      -7.214   0.371  -6.097  1.00  0.00     0.162 A 
ATOM     14  C   UNL     1      -7.001  -0.598  -8.717  1.00  0.00     0.068 A 
ATOM     15  C   UNL     1      -8.042   0.894  -7.105  1.00  0.00     0.200 A 
ATOM     16  C   UNL     1      -7.937   0.402  -8.418  1.00  0.00     0.162 A 
BRANCH  13  17
ATOM     17  O   UNL     1      -7.300   0.831  -4.784  1.00  0.00    -0.504 OA
ATOM     18  H   UNL     1      -7.150   0.223  -3.988  1.00  0.00     0.293 HD
ENDBRANCH  13  17
BRANCH  15  19
ATOM     19  O   UNL     1      -8.964   1.893  -6.792  1.00  0.00    -0.502 OA
ATOM     20  H   UNL     1      -8.932   2.404  -5.918  1.00  0.00     0.293 HD
ENDBRANCH  15  19
BRANCH  16  21
ATOM     21  O   UNL     1      -8.764   0.906  -9.420  1.00  0.00    -0.504 OA
ATOM     22  H   UNL     1      -8.637   0.651 -10.392  1.00  0.00     0.293 HD
ENDBRANCH  16  21
ENDBRANCH   1  11
BRANCH  10  23
ATOM     23  O   UNL     1      -3.326  -0.610  -8.190  1.00  0.00    -0.500 OA
ATOM     24  H   UNL     1      -2.373  -0.416  -7.906  1.00  0.00     0.294 HD
ENDBRANCH  10  23
BRANCH   5  25
ATOM     25  O   UNL     1      -5.103  -8.164  -8.512  1.00  0.00    -0.507 OA
ATOM     26  H   UNL     1      -5.029  -8.777  -9.315  1.00  0.00     0.293 HD
ENDBRANCH   5  25
BRANCH   7  27
ATOM     27  O   UNL     1      -1.275  -5.333  -9.124  1.00  0.00    -0.507 OA
ATOM     28  H   UNL     1      -0.681  -6.124  -9.331  1.00  0.00     0.293 HD
ENDBRANCH   7  27
TORSDOF 7
ENDMDL
MODEL 7
REMARK VINA RESULT:    -4.726     10.637     12.079
REMARK INTER + INTRA:          -6.203
REMARK INTER:                  -5.839
REMARK INTRA:                  -0.364
REMARK UNBOUND:                -0.372
REMARK SMILES Oc1cc(O)c2cc(O)c(-c3cc(O)c(O)c(O)c3)[o+]c2c1
REMARK SMILES IDX 10 1 20 2 21 3 22 4 2 5 3 6 4 7 6 8 7 9 8 10 11 11 12 12
REMARK SMILES IDX 13 13 19 14 15 15 17 16 14 17 16 19 18 21 9 23 1 25 5 27
REMARK H PARENT 14 18 16 20 18 22 9 24 1 26 5 28
REMARK Flexibility Score: inf
ROOT
ATOM      1  C   UNL     1      -5.196  -2.233  -8.068  1.00  0.00     0.402 A 
ATOM      2  O   UNL     1      -5.600  -3.501  -8.051  1.00  0.00    -0.202 OA
ATOM      3  C   UNL     1      -4.795  -4.528  -8.302  1.00  0.00     0.368 A 
ATOM      4  C   UNL     1      -5.314  -5.824  -8.264  1.00  0.00     0.162 A 
ATOM      5  C   UNL     1      -4.489  -6.922  -8.528  1.00  0.00     0.128 A 
ATOM      6  C   UNL     1      -3.141  -6.722  -8.831  1.00  0.00     0.093 A 
ATOM      7  C   UNL     1      -2.597  -5.432  -8.876  1.00  0.00     0.136 A 
ATOM      8  C   UNL     1      -3.429  -4.314  -8.607  1.00  0.00     0.125 A 
ATOM      9  C   UNL     1      -2.967  -2.988  -8.616  1.00  0.00     0.078 A 
ATOM     10  C   UNL     1      -3.847  -1.938  -8.337  1.00  0.00     0.223 A 
ENDROOT
BRANCH   1  11
ATOM     11  C   UNL     1      -6.193  -1.176  -7.782  1.00  0.00     0.091 A 
ATOM     12  C   UNL     1      -6.987  -0.676  -8.825  1.00  0.00     0.068 A 
ATOM     13  C   UNL     1      -7.923   0.336  -8.588  1.00  0.00     0.162 A 
ATOM     14  C   UNL     1      -6.323  -0.622  -6.497  1.00  0.00     0.068 A 
ATOM     15  C   UNL     1      -8.065   0.872  -7.297  1.00  0.00     0.200 A 
ATOM     16  C   UNL     1      -7.257   0.394  -6.250  1.00  0.00     0.162 A 
BRANCH  13  17
ATOM     17  O   UNL     1      -8.703   0.795  -9.648  1.00  0.00    -0.504 OA
ATOM     18  H   UNL     1      -8.673   0.366 -10.565  1.00  0.00     0.293 HD
ENDBRANCH  13  17
BRANCH  15  19
ATOM     19  O   UNL     1      -9.003   1.880  -7.067  1.00  0.00    -0.502 OA
ATOM     20  H   UNL     1      -9.904   1.895  -7.529  1.00  0.00     0.293 HD
ENDBRANCH  15  19
BRANCH  16  21
ATOM     21  O   UNL     1      -7.382   0.931  -4.971  1.00  0.00    -0.504 OA
ATOM     22  H   UNL     1      -8.100   0.615  -4.329  1.00  0.00     0.293 HD
ENDBRANCH  16  21
ENDBRANCH   1  11
BRANCH  10  23
ATOM     23  O   UNL     1      -3.378  -0.624  -8.297  1.00  0.00    -0.500 OA
ATOM     24  H   UNL     1      -3.384  -0.032  -9.119  1.00  0.00     0.294 HD
ENDBRANCH  10  23
BRANCH   5  25
ATOM     25  O   UNL     1      -5.000  -8.217  -8.490  1.00  0.00    -0.507 OA
ATOM     26  H   UNL     1      -5.490  -8.617  -9.282  1.00  0.00     0.293 HD
ENDBRANCH   5  25
BRANCH   7  27
ATOM     27  O   UNL     1      -1.239  -5.317  -9.190  1.00  0.00    -0.507 OA
ATOM     28  H   UNL     1      -0.549  -6.032  -9.010  1.00  0.00     0.293 HD
ENDBRANCH   7  27
TORSDOF 7
ENDMDL
MODEL 8
REMARK VINA RESULT:    -4.680      1.578      7.102
REMARK INTER + INTRA:          -6.147
REMARK INTER:                  -5.762
REMARK INTRA:                  -0.385
REMARK UNBOUND:                -0.372
REMARK SMILES Oc1cc(O)c2cc(O)c(-c3cc(O)c(O)c(O)c3)[o+]c2c1
REMARK SMILES IDX 10 1 20 2 21 3 22 4 2 5 3 6 4 7 6 8 7 9 8 10 11 11 12 12
REMARK SMILES IDX 13 13 19 14 15 15 17 16 14 17 16 19 18 21 9 23 1 25 5 27
REMARK H PARENT 14 18 16 20 18 22 9 24 1 26 5 28
REMARK Flexibility Score: inf
ROOT
ATOM      1  C   UNL     1       7.972  -1.600  -8.050  1.00  0.00     0.402 A 
ATOM      2  O   UNL     1       6.777  -1.091  -7.760  1.00  0.00    -0.202 OA
ATOM      3  C   UNL     1       6.320   0.043  -8.280  1.00  0.00     0.368 A 
ATOM      4  C   UNL     1       5.053   0.499  -7.910  1.00  0.00     0.162 A 
ATOM      5  C   UNL     1       4.550   1.691  -8.440  1.00  0.00     0.128 A 
ATOM      6  C   UNL     1       5.318   2.430  -9.342  1.00  0.00     0.093 A 
ATOM      7  C   UNL     1       6.591   1.994  -9.729  1.00  0.00     0.136 A 
ATOM      8  C   UNL     1       7.106   0.783  -9.196  1.00  0.00     0.125 A 
ATOM      9  C   UNL     1       8.366   0.264  -9.536  1.00  0.00     0.078 A 
ATOM     10  C   UNL     1       8.804  -0.939  -8.972  1.00  0.00     0.223 A 
ENDROOT
BRANCH   1  11
ATOM     11  C   UNL     1       8.371  -2.868  -7.397  1.00  0.00     0.091 A 
ATOM     12  C   UNL     1       7.995  -4.090  -7.974  1.00  0.00     0.068 A 
ATOM     13  C   UNL     1       8.342  -5.302  -7.369  1.00  0.00     0.162 A 
ATOM     14  C   UNL     1       9.073  -2.873  -6.179  1.00  0.00     0.068 A 
ATOM     15  C   UNL     1       9.061  -5.304  -6.162  1.00  0.00     0.200 A 
ATOM     16  C   UNL     1       9.422  -4.084  -5.564  1.00  0.00     0.162 A 
BRANCH  13  17
ATOM     17  O   UNL     1       7.962  -6.495  -7.982  1.00  0.00    -0.504 OA
ATOM     18  H   UNL     1       6.994  -6.707  -8.195  1.00  0.00     0.293 HD
ENDBRANCH  13  17
BRANCH  15  19
ATOM     19  O   UNL     1       9.405  -6.517  -5.564  1.00  0.00    -0.502 OA
ATOM     20  H   UNL     1       8.709  -7.178  -5.241  1.00  0.00     0.293 HD
ENDBRANCH  15  19
BRANCH  16  21
ATOM     21  O   UNL     1      10.122  -4.078  -4.359  1.00  0.00    -0.504 OA
ATOM     22  H   UNL     1      11.136  -4.067  -4.333  1.00  0.00     0.293 HD
ENDBRANCH  16  21
ENDBRANCH   1  11
BRANCH  10  23
ATOM     23  O   UNL     1      10.033  -1.480  -9.347  1.00  0.00    -0.500 OA
ATOM     24  H   UNL     1      10.145  -2.003 -10.208  1.00  0.00     0.294 HD
ENDBRANCH  10  23
BRANCH   5  25
ATOM     25  O   UNL     1       3.286   2.151  -8.076  1.00  0.00    -0.507 OA
ATOM     26  H   UNL     1       2.828   2.899  -8.583  1.00  0.00     0.293 HD
ENDBRANCH   5  25
BRANCH   7  27
ATOM     27  O   UNL     1       7.297   2.792 -10.634  1.00  0.00    -0.507 OA
ATOM     28  H   UNL     1       6.937   3.638 -11.050  1.00  0.00     0.293 HD
ENDBRANCH   7  27
TORSDOF 7
ENDMDL
MODEL 9
REMARK VINA RESULT:    -4.529      1.132      7.165
REMARK INTER + INTRA:          -5.960
REMARK INTER:                  -5.581
REMARK INTRA:                  -0.379
REMARK UNBOUND:                -0.372
REMARK SMILES Oc1cc(O)c2cc(O)c(-c3cc(O)c(O)c(O)c3)[o+]c2c1
REMARK SMILES IDX 10 1 20 2 21 3 22 4 2 5 3 6 4 7 6 8 7 9 8 10 11 11 12 12
REMARK SMILES IDX 13 13 19 14 15 15 17 16 14 17 16 19 18 21 9 23 1 25 5 27
REMARK H PARENT 14 18 16 20 18 22 9 24 1 26 5 28
REMARK Flexibility Score: inf
ROOT
ATOM      1  C   UNL     1       6.797  -2.125  -8.679  1.00  0.00     0.402 A 
ATOM      2  O   UNL     1       6.065  -1.366  -7.866  1.00  0.00    -0.202 OA
ATOM      3  C   UNL     1       5.643  -0.148  -8.188  1.00  0.00     0.368 A 
ATOM      4  C   UNL     1       4.882   0.574  -7.265  1.00  0.00     0.162 A 
ATOM      5  C   UNL     1       4.428   1.859  -7.577  1.00  0.00     0.128 A 
ATOM      6  C   UNL     1       4.736   2.423  -8.816  1.00  0.00     0.093 A 
ATOM      7  C   UNL     1       5.496   1.720  -9.759  1.00  0.00     0.136 A 
ATOM      8  C   UNL     1       5.958   0.414  -9.448  1.00  0.00     0.125 A 
ATOM      9  C   UNL     1       6.715  -0.368 -10.336  1.00  0.00     0.078 A 
ATOM     10  C   UNL     1       7.132  -1.649  -9.960  1.00  0.00     0.223 A 
ENDROOT
BRANCH   1  11
ATOM     11  C   UNL     1       7.216  -3.462  -8.200  1.00  0.00     0.091 A 
ATOM     12  C   UNL     1       8.444  -3.603  -7.536  1.00  0.00     0.068 A 
ATOM     13  C   UNL     1       8.875  -4.857  -7.090  1.00  0.00     0.162 A 
ATOM     14  C   UNL     1       6.436  -4.605  -8.445  1.00  0.00     0.068 A 
ATOM     15  C   UNL     1       8.082  -5.994  -7.319  1.00  0.00     0.200 A 
ATOM     16  C   UNL     1       6.861  -5.866  -8.004  1.00  0.00     0.162 A 
BRANCH  13  17
ATOM     17  O   UNL     1      10.094  -4.952  -6.422  1.00  0.00    -0.504 OA
ATOM     18  H   UNL     1      10.169  -4.844  -5.417  1.00  0.00     0.293 HD
ENDBRANCH  13  17
BRANCH  15  19
ATOM     19  O   UNL     1       8.517  -7.241  -6.869  1.00  0.00    -0.502 OA
ATOM     20  H   UNL     1       8.948  -7.918  -7.485  1.00  0.00     0.293 HD
ENDBRANCH  15  19
BRANCH  16  21
ATOM     21  O   UNL     1       6.076  -6.991  -8.247  1.00  0.00    -0.504 OA
ATOM     22  H   UNL     1       6.431  -7.929  -8.101  1.00  0.00     0.293 HD
ENDBRANCH  16  21
ENDBRANCH   1  11
BRANCH  10  23
ATOM     23  O   UNL     1       7.840  -2.446 -10.859  1.00  0.00    -0.500 OA
ATOM     24  H   UNL     1       8.778  -2.773 -10.656  1.00  0.00     0.294 HD
ENDBRANCH  10  23
BRANCH   5  25
ATOM     25  O   UNL     1       3.668   2.584  -6.661  1.00  0.00    -0.507 OA
ATOM     26  H   UNL     1       2.706   2.837  -6.854  1.00  0.00     0.293 HD
ENDBRANCH   5  25
BRANCH   7  27
ATOM     27  O   UNL     1       5.763   2.357 -10.974  1.00  0.00    -0.507 OA
ATOM     28  H   UNL     1       5.984   3.337 -11.069  1.00  0.00     0.293 HD
ENDBRANCH   7  27
TORSDOF 7
ENDMDL
