MODEL 1
REMARK VINA RESULT:    -4.800      0.000      0.000
REMARK INTER + INTRA:          -6.772
REMARK INTER:                  -6.484
REMARK INTRA:                  -0.288
REMARK UNBOUND:                -0.288
REMARK SMILES CCCCCCC=CC(=O)[O-]
REMARK SMILES IDX 5 1 6 2 7 3 8 4 9 5 10 6 11 7 4 8 3 9 2 10 1 11
REMARK H PARENT
REMARK Flexibility Score: inf
ROOT
ATOM      1  C   UNL     1       7.543 -13.707  -3.083  1.00  0.00     0.004 C 
ENDROOT
BRANCH   1   2
ATOM      2  C   UNL     1       6.925 -12.726  -4.088  1.00  0.00     0.027 C 
BRANCH   2   3
ATOM      3  C   UNL     1       5.626 -13.253  -4.637  1.00  0.00    -0.025 C 
ATOM      4  C   UNL     1       4.710 -12.540  -5.313  1.00  0.00     0.020 C 
BRANCH   4   5
ATOM      5  C   UNL     1       4.800 -11.113  -5.687  1.00  0.00     0.064 C 
ATOM      6  O   UNL     1       5.007 -10.743  -6.871  1.00  0.00    -0.545 OA
ATOM      7  O   UNL     1       4.628 -10.150  -4.700  1.00  0.00    -0.545 OA
ENDBRANCH   4   5
ENDBRANCH   2   3
ENDBRANCH   1   2
BRANCH   1   8
ATOM      8  C   UNL     1       7.143 -13.348  -1.647  1.00  0.00     0.000 C 
BRANCH   8   9
ATOM      9  C   UNL     1       7.721 -11.984  -1.241  1.00  0.00    -0.000 C 
BRANCH   9  10
ATOM     10  C   UNL     1       8.783 -12.099  -0.137  1.00  0.00    -0.003 C 
ATOM     11  C   UNL     1       9.189 -10.742   0.436  1.00  0.00     0.004 C 
ENDBRANCH   9  10
ENDBRANCH   8   9
ENDBRANCH   1   8
TORSDOF 6
ENDMDL
MODEL 2
REMARK VINA RESULT:    -4.723      2.391      5.169
REMARK INTER + INTRA:          -6.668
REMARK INTER:                  -6.223
REMARK INTRA:                  -0.444
REMARK UNBOUND:                -0.288
REMARK SMILES CCCCCCC=CC(=O)[O-]
REMARK SMILES IDX 5 1 6 2 7 3 8 4 9 5 10 6 11 7 4 8 3 9 2 10 1 11
REMARK H PARENT
REMARK Flexibility Score: inf
ROOT
ATOM      1  C   UNL     1       7.738 -13.807  -2.562  1.00  0.00     0.004 C 
ENDROOT
BRANCH   1   2
ATOM      2  C   UNL     1       7.268 -13.071  -1.300  1.00  0.00     0.027 C 
BRANCH   2   3
ATOM      3  C   UNL     1       8.434 -12.517  -0.526  1.00  0.00    -0.025 C 
ATOM      4  C   UNL     1       8.604 -11.233  -0.169  1.00  0.00     0.020 C 
BRANCH   4   5
ATOM      5  C   UNL     1       7.674 -10.114  -0.426  1.00  0.00     0.064 C 
ATOM      6  O   UNL     1       7.471  -9.664  -1.583  1.00  0.00    -0.545 OA
ATOM      7  O   UNL     1       6.985  -9.556   0.644  1.00  0.00    -0.545 OA
ENDBRANCH   4   5
ENDBRANCH   2   3
ENDBRANCH   1   2
BRANCH   1   8
ATOM      8  C   UNL     1       7.205 -13.125  -3.827  1.00  0.00     0.000 C 
BRANCH   8   9
ATOM      9  C   UNL     1       5.892 -12.382  -3.540  1.00  0.00    -0.000 C 
BRANCH   9  10
ATOM     10  C   UNL     1       4.658 -13.154  -4.030  1.00  0.00    -0.003 C 
ATOM     11  C   UNL     1       4.531 -13.162  -5.553  1.00  0.00     0.004 C 
ENDBRANCH   9  10
ENDBRANCH   8   9
ENDBRANCH   1   8
TORSDOF 6
ENDMDL
MODEL 3
REMARK VINA RESULT:    -4.690      1.191      1.662
REMARK INTER + INTRA:          -6.624
REMARK INTER:                  -5.985
REMARK INTRA:                  -0.639
REMARK UNBOUND:                -0.288
REMARK SMILES CCCCCCC=CC(=O)[O-]
REMARK SMILES IDX 5 1 6 2 7 3 8 4 9 5 10 6 11 7 4 8 3 9 2 10 1 11
REMARK H PARENT
REMARK Flexibility Score: inf
ROOT
ATOM      1  C   UNL     1       7.437 -13.540  -2.479  1.00  0.00     0.004 C 
ENDROOT
BRANCH   1   2
ATOM      2  C   UNL     1       7.273 -12.826  -3.828  1.00  0.00     0.027 C 
BRANCH   2   3
ATOM      3  C   UNL     1       6.031 -13.290  -4.542  1.00  0.00    -0.025 C 
ATOM      4  C   UNL     1       4.829 -12.693  -4.501  1.00  0.00     0.020 C 
BRANCH   4   5
ATOM      5  C   UNL     1       4.485 -11.448  -3.783  1.00  0.00     0.064 C 
ATOM      6  O   UNL     1       3.933 -11.457  -2.652  1.00  0.00    -0.545 OA
ATOM      7  O   UNL     1       4.803 -10.228  -4.367  1.00  0.00    -0.545 OA
ENDBRANCH   4   5
ENDBRANCH   2   3
ENDBRANCH   1   2
BRANCH   1   8
ATOM      8  C   UNL     1       7.155 -12.585  -1.314  1.00  0.00     0.000 C 
BRANCH   8   9
ATOM      9  C   UNL     1       7.555 -11.147  -1.672  1.00  0.00    -0.000 C 
BRANCH   9  10
ATOM     10  C   UNL     1       8.014 -10.339  -0.448  1.00  0.00    -0.003 C 
ATOM     11  C   UNL     1       9.226 -10.958   0.247  1.00  0.00     0.004 C 
ENDBRANCH   9  10
ENDBRANCH   8   9
ENDBRANCH   1   8
TORSDOF 6
ENDMDL
MODEL 4
REMARK VINA RESULT:    -4.606      2.795      4.809
REMARK INTER + INTRA:          -6.509
REMARK INTER:                  -5.813
REMARK INTRA:                  -0.696
REMARK UNBOUND:                -0.288
REMARK SMILES CCCCCCC=CC(=O)[O-]
REMARK SMILES IDX 5 1 6 2 7 3 8 4 9 5 10 6 11 7 4 8 3 9 2 10 1 11
REMARK H PARENT
REMARK Flexibility Score: inf
ROOT
ATOM      1  C   UNL     1       5.919 -13.346  -4.554  1.00  0.00     0.004 C 
ENDROOT
BRANCH   1   2
ATOM      2  C   UNL     1       7.245 -12.920  -3.909  1.00  0.00     0.027 C 
BRANCH   2   3
ATOM      3  C   UNL     1       7.517 -13.705  -2.652  1.00  0.00    -0.025 C 
ATOM      4  C   UNL     1       7.596 -13.200  -1.410  1.00  0.00     0.020 C 
BRANCH   4   5
ATOM      5  C   UNL     1       7.399 -11.789  -1.016  1.00  0.00     0.064 C 
ATOM      6  O   UNL     1       8.364 -11.004  -0.833  1.00  0.00    -0.545 OA
ATOM      7  O   UNL     1       6.103 -11.310  -0.864  1.00  0.00    -0.545 OA
ENDBRANCH   4   5
ENDBRANCH   2   3
ENDBRANCH   1   2
BRANCH   1   8
ATOM      8  C   UNL     1       4.729 -12.687  -3.848  1.00  0.00     0.000 C 
BRANCH   8   9
ATOM      9  C   UNL     1       3.766 -13.745  -3.290  1.00  0.00    -0.000 C 
BRANCH   9  10
ATOM     10  C   UNL     1       3.988 -14.013  -1.793  1.00  0.00    -0.003 C 
ATOM     11  C   UNL     1       3.151 -15.180  -1.270  1.00  0.00     0.004 C 
ENDBRANCH   9  10
ENDBRANCH   8   9
ENDBRANCH   1   8
TORSDOF 6
ENDMDL
MODEL 5
REMARK VINA RESULT:    -4.605      3.272      5.309
REMARK INTER + INTRA:          -6.509
REMARK INTER:                  -5.700
REMARK INTRA:                  -0.809
REMARK UNBOUND:                -0.288
REMARK SMILES CCCCCCC=CC(=O)[O-]
REMARK SMILES IDX 5 1 6 2 7 3 8 4 9 5 10 6 11 7 4 8 3 9 2 10 1 11
REMARK H PARENT
REMARK Flexibility Score: inf
ROOT
ATOM      1  C   UNL     1       4.534 -11.657  -1.635  1.00  0.00     0.004 C 
ENDROOT
BRANCH   1   2
ATOM      2  C   UNL     1       5.530 -10.797  -0.846  1.00  0.00     0.027 C 
BRANCH   2   3
ATOM      3  C   UNL     1       6.681 -10.361  -1.713  1.00  0.00    -0.025 C 
ATOM      4  C   UNL     1       7.978 -10.635  -1.497  1.00  0.00     0.020 C 
BRANCH   4   5
ATOM      5  C   UNL     1       8.538 -11.445  -0.394  1.00  0.00     0.064 C 
ATOM      6  O   UNL     1       9.108 -10.923   0.598  1.00  0.00    -0.545 OA
ATOM      7  O   UNL     1       8.409 -12.827  -0.446  1.00  0.00    -0.545 OA
ENDBRANCH   4   5
ENDBRANCH   2   3
ENDBRANCH   1   2
BRANCH   1   8
ATOM      8  C   UNL     1       5.148 -13.013  -1.999  1.00  0.00     0.000 C 
BRANCH   8   9
ATOM      9  C   UNL     1       4.789 -13.411  -3.438  1.00  0.00    -0.000 C 
BRANCH   9  10
ATOM     10  C   UNL     1       5.862 -12.987  -4.453  1.00  0.00    -0.003 C 
ATOM     11  C   UNL     1       7.281 -13.296  -3.977  1.00  0.00     0.004 C 
ENDBRANCH   9  10
ENDBRANCH   8   9
ENDBRANCH   1   8
TORSDOF 6
ENDMDL
MODEL 6
REMARK VINA RESULT:    -4.584      1.470      2.194
REMARK INTER + INTRA:          -6.480
REMARK INTER:                  -5.948
REMARK INTRA:                  -0.531
REMARK UNBOUND:                -0.288
REMARK SMILES CCCCCCC=CC(=O)[O-]
REMARK SMILES IDX 5 1 6 2 7 3 8 4 9 5 10 6 11 7 4 8 3 9 2 10 1 11
REMARK H PARENT
REMARK Flexibility Score: inf
ROOT
ATOM      1  C   UNL     1       6.141 -11.302  -1.878  1.00  0.00     0.004 C 
ENDROOT
BRANCH   1   2
ATOM      2  C   UNL     1       6.048 -12.823  -2.055  1.00  0.00     0.027 C 
BRANCH   2   3
ATOM      3  C   UNL     1       6.890 -13.290  -3.213  1.00  0.00    -0.025 C 
ATOM      4  C   UNL     1       6.535 -13.261  -4.508  1.00  0.00     0.020 C 
BRANCH   4   5
ATOM      5  C   UNL     1       5.271 -12.736  -5.066  1.00  0.00     0.064 C 
ATOM      6  O   UNL     1       4.304 -13.487  -5.354  1.00  0.00    -0.545 OA
ATOM      7  O   UNL     1       5.140 -11.367  -5.256  1.00  0.00    -0.545 OA
ENDBRANCH   4   5
ENDBRANCH   2   3
ENDBRANCH   1   2
BRANCH   1   8
ATOM      8  C   UNL     1       7.602 -10.842  -1.833  1.00  0.00     0.000 C 
BRANCH   8   9
ATOM      9  C   UNL     1       7.923 -10.159  -0.496  1.00  0.00    -0.000 C 
BRANCH   9  10
ATOM     10  C   UNL     1       8.995 -10.910   0.308  1.00  0.00    -0.003 C 
ATOM     11  C   UNL     1       9.071 -12.394  -0.050  1.00  0.00     0.004 C 
ENDBRANCH   9  10
ENDBRANCH   8   9
ENDBRANCH   1   8
TORSDOF 6
ENDMDL
MODEL 7
REMARK VINA RESULT:    -4.512      1.916      2.088
REMARK INTER + INTRA:          -6.383
REMARK INTER:                  -6.001
REMARK INTRA:                  -0.382
REMARK UNBOUND:                -0.288
REMARK SMILES CCCCCCC=CC(=O)[O-]
REMARK SMILES IDX 5 1 6 2 7 3 8 4 9 5 10 6 11 7 4 8 3 9 2 10 1 11
REMARK H PARENT
REMARK Flexibility Score: inf
ROOT
ATOM      1  C   UNL     1       7.373 -12.937  -3.332  1.00  0.00     0.004 C 
ENDROOT
BRANCH   1   2
ATOM      2  C   UNL     1       6.116 -13.129  -4.191  1.00  0.00     0.027 C 
BRANCH   2   3
ATOM      3  C   UNL     1       4.911 -13.424  -3.337  1.00  0.00    -0.025 C 
ATOM      4  C   UNL     1       3.650 -13.567  -3.776  1.00  0.00     0.020 C 
BRANCH   4   5
ATOM      5  C   UNL     1       3.190 -13.503  -5.179  1.00  0.00     0.064 C 
ATOM      6  O   UNL     1       2.840 -14.529  -5.817  1.00  0.00    -0.545 OA
ATOM      7  O   UNL     1       3.122 -12.265  -5.806  1.00  0.00    -0.545 OA
ENDBRANCH   4   5
ENDBRANCH   2   3
ENDBRANCH   1   2
BRANCH   1   8
ATOM      8  C   UNL     1       7.195 -13.571  -1.948  1.00  0.00     0.000 C 
BRANCH   8   9
ATOM      9  C   UNL     1       8.169 -12.957  -0.933  1.00  0.00    -0.000 C 
BRANCH   9  10
ATOM     10  C   UNL     1       8.080 -11.424  -0.882  1.00  0.00    -0.003 C 
ATOM     11  C   UNL     1       8.980 -10.814   0.192  1.00  0.00     0.004 C 
ENDBRANCH   9  10
ENDBRANCH   8   9
ENDBRANCH   1   8
TORSDOF 6
ENDMDL
MODEL 8
REMARK VINA RESULT:    -4.494      2.566      2.898
REMARK INTER + INTRA:          -6.358
REMARK INTER:                  -5.806
REMARK INTRA:                  -0.552
REMARK UNBOUND:                -0.288
REMARK SMILES CCCCCCC=CC(=O)[O-]
REMARK SMILES IDX 5 1 6 2 7 3 8 4 9 5 10 6 11 7 4 8 3 9 2 10 1 11
REMARK H PARENT
REMARK Flexibility Score: inf
ROOT
ATOM      1  C   UNL     1       7.241 -12.672  -3.340  1.00  0.00     0.004 C 
ENDROOT
BRANCH   1   2
ATOM      2  C   UNL     1       6.269 -13.321  -4.335  1.00  0.00     0.027 C 
BRANCH   2   3
ATOM      3  C   UNL     1       4.945 -12.603  -4.350  1.00  0.00    -0.025 C 
ATOM      4  C   UNL     1       3.892 -12.876  -3.562  1.00  0.00     0.020 C 
BRANCH   4   5
ATOM      5  C   UNL     1       3.825 -13.903  -2.501  1.00  0.00     0.064 C 
ATOM      6  O   UNL     1       3.321 -15.039  -2.699  1.00  0.00    -0.545 OA
ATOM      7  O   UNL     1       4.358 -13.611  -1.251  1.00  0.00    -0.545 OA
ENDBRANCH   4   5
ENDBRANCH   2   3
ENDBRANCH   1   2
BRANCH   1   8
ATOM      8  C   UNL     1       7.689 -13.677  -2.274  1.00  0.00     0.000 C 
BRANCH   8   9
ATOM      9  C   UNL     1       7.840 -12.997  -0.906  1.00  0.00    -0.000 C 
BRANCH   9  10
ATOM     10  C   UNL     1       8.004 -11.474  -1.019  1.00  0.00    -0.003 C 
ATOM     11  C   UNL     1       8.937 -10.898   0.046  1.00  0.00     0.004 C 
ENDBRANCH   9  10
ENDBRANCH   8   9
ENDBRANCH   1   8
TORSDOF 6
ENDMDL
MODEL 9
REMARK VINA RESULT:    -4.422      2.683      5.480
REMARK INTER + INTRA:          -6.261
REMARK INTER:                  -5.821
REMARK INTRA:                  -0.440
REMARK UNBOUND:                -0.288
REMARK SMILES CCCCCCC=CC(=O)[O-]
REMARK SMILES IDX 5 1 6 2 7 3 8 4 9 5 10 6 11 7 4 8 3 9 2 10 1 11
REMARK H PARENT
REMARK Flexibility Score: inf
ROOT
ATOM      1  C   UNL     1       6.410 -13.268  -4.791  1.00  0.00     0.004 C 
ENDROOT
BRANCH   1   2
ATOM      2  C   UNL     1       7.251 -13.303  -3.508  1.00  0.00     0.027 C 
BRANCH   2   3
ATOM      3  C   UNL     1       6.378 -13.277  -2.282  1.00  0.00    -0.025 C 
ATOM      4  C   UNL     1       6.697 -12.727  -1.099  1.00  0.00     0.020 C 
BRANCH   4   5
ATOM      5  C   UNL     1       7.945 -12.008  -0.767  1.00  0.00     0.064 C 
ATOM      6  O   UNL     1       8.110 -10.791  -1.040  1.00  0.00    -0.545 OA
ATOM      7  O   UNL     1       8.959 -12.694  -0.110  1.00  0.00    -0.545 OA
ENDBRANCH   4   5
ENDBRANCH   2   3
ENDBRANCH   1   2
BRANCH   1   8
ATOM      8  C   UNL     1       4.913 -13.215  -4.465  1.00  0.00     0.000 C 
BRANCH   8   9
ATOM      9  C   UNL     1       4.160 -12.343  -5.479  1.00  0.00    -0.000 C 
BRANCH   9  10
ATOM     10  C   UNL     1       5.032 -11.212  -6.047  1.00  0.00    -0.003 C 
ATOM     11  C   UNL     1       4.246 -10.247  -6.934  1.00  0.00     0.004 C 
ENDBRANCH   9  10
ENDBRANCH   8   9
ENDBRANCH   1   8
TORSDOF 6
ENDMDL
