MODEL 1
REMARK VINA RESULT:    -4.538      0.000      0.000
REMARK INTER + INTRA:         -10.476
REMARK INTER:                  -8.253
REMARK INTRA:                  -2.223
REMARK UNBOUND:                -2.223
REMARK SMILES CCCCCCCCCCCCCC[C@@H](C)C(=O)[O-]
REMARK SMILES IDX 9 1 10 2 11 3 12 4 13 5 14 6 15 7 16 8 17 9 18 10 19 11 8 12
REMARK SMILES IDX 7 13 6 14 5 15 4 16 3 17 2 18 1 19
REMARK H PARENT
REMARK Flexibility Score: inf
ROOT
ATOM      1  C   UNL     1       8.300  -7.852  27.294  1.00  0.00     0.000 C 
ENDROOT
BRANCH   1   2
ATOM      2  C   UNL     1       8.665  -6.861  28.414  1.00  0.00     0.000 C 
BRANCH   2   3
ATOM      3  C   UNL     1       8.481  -5.379  28.013  1.00  0.00     0.000 C 
BRANCH   3   4
ATOM      4  C   UNL     1       7.006  -4.945  27.895  1.00  0.00     0.000 C 
BRANCH   4   5
ATOM      5  C   UNL     1       6.547  -4.605  26.463  1.00  0.00     0.001 C 
BRANCH   5   6
ATOM      6  C   UNL     1       5.623  -5.642  25.794  1.00  0.00     0.009 C 
BRANCH   6   7
ATOM      7  C   UNL     1       6.060  -6.047  24.359  1.00  0.00     0.032 C 
ATOM      8  C   UNL     1       6.374  -7.547  24.257  1.00  0.00     0.014 C 
BRANCH   7   9
ATOM      9  C   UNL     1       4.990  -5.699  23.358  1.00  0.00     0.044 C 
ATOM     10  O   UNL     1       5.106  -6.048  22.152  1.00  0.00    -0.550 OA
ATOM     11  O   UNL     1       3.868  -4.984  23.759  1.00  0.00    -0.550 OA
ENDBRANCH   7   9
ENDBRANCH   6   7
ENDBRANCH   5   6
ENDBRANCH   4   5
ENDBRANCH   3   4
ENDBRANCH   2   3
ENDBRANCH   1   2
BRANCH   1  12
ATOM     12  C   UNL     1       7.349  -8.987  27.724  1.00  0.00     0.000 C 
BRANCH  12  13
ATOM     13  C   UNL     1       5.936  -8.530  28.134  1.00  0.00    -0.000 C 
BRANCH  13  14
ATOM     14  C   UNL     1       5.412  -9.130  29.454  1.00  0.00    -0.000 C 
BRANCH  14  15
ATOM     15  C   UNL     1       6.000  -8.463  30.717  1.00  0.00    -0.000 C 
BRANCH  15  16
ATOM     16  C   UNL     1       5.763  -6.944  30.742  1.00  0.00    -0.000 C 
BRANCH  16  17
ATOM     17  C   UNL     1       6.883  -6.182  31.469  1.00  0.00    -0.000 C 
BRANCH  17  18
ATOM     18  C   UNL     1       6.428  -5.613  32.821  1.00  0.00    -0.003 C 
ATOM     19  C   UNL     1       4.985  -6.009  33.125  1.00  0.00     0.004 C 
ENDBRANCH  17  18
ENDBRANCH  16  17
ENDBRANCH  15  16
ENDBRANCH  14  15
ENDBRANCH  13  14
ENDBRANCH  12  13
ENDBRANCH   1  12
TORSDOF 14
ENDMDL
MODEL 2
REMARK VINA RESULT:    -4.425      1.825      4.718
REMARK INTER + INTRA:         -10.270
REMARK INTER:                  -8.239
REMARK INTRA:                  -2.032
REMARK UNBOUND:                -2.223
REMARK SMILES CCCCCCCCCCCCCC[C@@H](C)C(=O)[O-]
REMARK SMILES IDX 9 1 10 2 11 3 12 4 13 5 14 6 15 7 16 8 17 9 18 10 19 11 8 12
REMARK SMILES IDX 7 13 6 14 5 15 4 16 3 17 2 18 1 19
REMARK H PARENT
REMARK Flexibility Score: inf
ROOT
ATOM      1  C   UNL     1       5.169  -6.404  32.139  1.00  0.00     0.000 C 
ENDROOT
BRANCH   1   2
ATOM      2  C   UNL     1       5.413  -7.879  31.769  1.00  0.00     0.000 C 
BRANCH   2   3
ATOM      3  C   UNL     1       4.992  -8.232  30.324  1.00  0.00     0.000 C 
BRANCH   3   4
ATOM      4  C   UNL     1       6.022  -9.094  29.568  1.00  0.00     0.000 C 
BRANCH   4   5
ATOM      5  C   UNL     1       5.449  -9.884  28.375  1.00  0.00     0.001 C 
BRANCH   5   6
ATOM      6  C   UNL     1       6.365  -9.981  27.137  1.00  0.00     0.009 C 
BRANCH   6   7
ATOM      7  C   UNL     1       7.054  -8.644  26.753  1.00  0.00     0.032 C 
ATOM      8  C   UNL     1       8.569  -8.685  26.999  1.00  0.00     0.014 C 
BRANCH   7   9
ATOM      9  C   UNL     1       6.799  -8.310  25.306  1.00  0.00     0.044 C 
ATOM     10  O   UNL     1       7.439  -8.898  24.393  1.00  0.00    -0.550 OA
ATOM     11  O   UNL     1       5.857  -7.346  24.970  1.00  0.00    -0.550 OA
ENDBRANCH   7   9
ENDBRANCH   6   7
ENDBRANCH   5   6
ENDBRANCH   4   5
ENDBRANCH   3   4
ENDBRANCH   2   3
ENDBRANCH   1   2
BRANCH   1  12
ATOM     12  C   UNL     1       6.347  -5.718  32.859  1.00  0.00     0.000 C 
BRANCH  12  13
ATOM     13  C   UNL     1       7.495  -5.262  31.938  1.00  0.00    -0.000 C 
BRANCH  13  14
ATOM     14  C   UNL     1       8.353  -6.399  31.351  1.00  0.00    -0.000 C 
BRANCH  14  15
ATOM     15  C   UNL     1       8.442  -6.381  29.810  1.00  0.00    -0.000 C 
BRANCH  15  16
ATOM     16  C   UNL     1       7.739  -5.157  29.197  1.00  0.00    -0.000 C 
BRANCH  16  17
ATOM     17  C   UNL     1       6.411  -5.518  28.512  1.00  0.00    -0.000 C 
BRANCH  17  18
ATOM     18  C   UNL     1       6.151  -4.681  27.250  1.00  0.00    -0.003 C 
ATOM     19  C   UNL     1       7.102  -3.489  27.178  1.00  0.00     0.004 C 
ENDBRANCH  17  18
ENDBRANCH  16  17
ENDBRANCH  15  16
ENDBRANCH  14  15
ENDBRANCH  13  14
ENDBRANCH  12  13
ENDBRANCH   1  12
TORSDOF 14
ENDMDL
MODEL 3
REMARK VINA RESULT:    -4.385      3.347      7.255
REMARK INTER + INTRA:         -10.198
REMARK INTER:                  -8.458
REMARK INTRA:                  -1.739
REMARK UNBOUND:                -2.223
REMARK SMILES CCCCCCCCCCCCCC[C@@H](C)C(=O)[O-]
REMARK SMILES IDX 9 1 10 2 11 3 12 4 13 5 14 6 15 7 16 8 17 9 18 10 19 11 8 12
REMARK SMILES IDX 7 13 6 14 5 15 4 16 3 17 2 18 1 19
REMARK H PARENT
REMARK Flexibility Score: inf
ROOT
ATOM      1  C   UNL     1       7.872  -5.134  28.575  1.00  0.00     0.000 C 
ENDROOT
BRANCH   1   2
ATOM      2  C   UNL     1       8.491  -6.494  28.203  1.00  0.00     0.000 C 
BRANCH   2   3
ATOM      3  C   UNL     1       7.539  -7.691  28.429  1.00  0.00     0.000 C 
BRANCH   3   4
ATOM      4  C   UNL     1       6.155  -7.290  28.976  1.00  0.00     0.000 C 
BRANCH   4   5
ATOM      5  C   UNL     1       5.611  -8.208  30.089  1.00  0.00     0.001 C 
BRANCH   5   6
ATOM      6  C   UNL     1       6.066  -7.862  31.522  1.00  0.00     0.009 C 
BRANCH   6   7
ATOM      7  C   UNL     1       5.955  -6.353  31.874  1.00  0.00     0.032 C 
ATOM      8  C   UNL     1       4.989  -6.104  33.042  1.00  0.00     0.014 C 
BRANCH   7   9
ATOM      9  C   UNL     1       7.307  -5.787  32.224  1.00  0.00     0.044 C 
ATOM     10  O   UNL     1       7.399  -4.717  32.884  1.00  0.00    -0.550 OA
ATOM     11  O   UNL     1       8.461  -6.442  31.814  1.00  0.00    -0.550 OA
ENDBRANCH   7   9
ENDBRANCH   6   7
ENDBRANCH   5   6
ENDBRANCH   4   5
ENDBRANCH   3   4
ENDBRANCH   2   3
ENDBRANCH   1   2
BRANCH   1  12
ATOM     12  C   UNL     1       7.508  -4.242  27.372  1.00  0.00     0.000 C 
BRANCH  12  13
ATOM     13  C   UNL     1       6.112  -4.497  26.772  1.00  0.00    -0.000 C 
BRANCH  13  14
ATOM     14  C   UNL     1       6.104  -5.276  25.442  1.00  0.00    -0.000 C 
BRANCH  14  15
ATOM     15  C   UNL     1       5.383  -6.639  25.522  1.00  0.00    -0.000 C 
BRANCH  15  16
ATOM     16  C   UNL     1       4.770  -7.057  24.175  1.00  0.00    -0.000 C 
BRANCH  16  17
ATOM     17  C   UNL     1       4.150  -5.874  23.413  1.00  0.00    -0.000 C 
BRANCH  17  18
ATOM     18  C   UNL     1       4.274  -6.023  21.890  1.00  0.00    -0.003 C 
ATOM     19  C   UNL     1       5.673  -6.492  21.497  1.00  0.00     0.004 C 
ENDBRANCH  17  18
ENDBRANCH  16  17
ENDBRANCH  15  16
ENDBRANCH  14  15
ENDBRANCH  13  14
ENDBRANCH  12  13
ENDBRANCH   1  12
TORSDOF 14
ENDMDL
MODEL 4
REMARK VINA RESULT:    -4.329      1.245      3.738
REMARK INTER + INTRA:         -10.095
REMARK INTER:                  -8.140
REMARK INTRA:                  -1.956
REMARK UNBOUND:                -2.223
REMARK SMILES CCCCCCCCCCCCCC[C@@H](C)C(=O)[O-]
REMARK SMILES IDX 9 1 10 2 11 3 12 4 13 5 14 6 15 7 16 8 17 9 18 10 19 11 8 12
REMARK SMILES IDX 7 13 6 14 5 15 4 16 3 17 2 18 1 19
REMARK H PARENT
REMARK Flexibility Score: inf
ROOT
ATOM      1  C   UNL     1       4.826  -7.820  30.894  1.00  0.00     0.000 C 
ENDROOT
BRANCH   1   2
ATOM      2  C   UNL     1       5.788  -8.767  30.153  1.00  0.00     0.000 C 
BRANCH   2   3
ATOM      3  C   UNL     1       5.591  -8.774  28.620  1.00  0.00     0.000 C 
BRANCH   3   4
ATOM      4  C   UNL     1       5.109  -7.426  28.048  1.00  0.00     0.000 C 
BRANCH   4   5
ATOM      5  C   UNL     1       4.962  -7.393  26.514  1.00  0.00     0.001 C 
BRANCH   5   6
ATOM      6  C   UNL     1       6.280  -7.451  25.715  1.00  0.00     0.009 C 
BRANCH   6   7
ATOM      7  C   UNL     1       6.100  -7.276  24.182  1.00  0.00     0.032 C 
ATOM      8  C   UNL     1       5.063  -8.253  23.609  1.00  0.00     0.014 C 
BRANCH   7   9
ATOM      9  C   UNL     1       5.682  -5.866  23.853  1.00  0.00     0.044 C 
ATOM     10  O   UNL     1       4.812  -5.649  22.967  1.00  0.00    -0.550 OA
ATOM     11  O   UNL     1       6.260  -4.796  24.524  1.00  0.00    -0.550 OA
ENDBRANCH   7   9
ENDBRANCH   6   7
ENDBRANCH   5   6
ENDBRANCH   4   5
ENDBRANCH   3   4
ENDBRANCH   2   3
ENDBRANCH   1   2
BRANCH   1  12
ATOM     12  C   UNL     1       5.250  -7.468  32.333  1.00  0.00     0.000 C 
BRANCH  12  13
ATOM     13  C   UNL     1       5.236  -5.963  32.666  1.00  0.00    -0.000 C 
BRANCH  13  14
ATOM     14  C   UNL     1       6.624  -5.298  32.741  1.00  0.00    -0.000 C 
BRANCH  14  15
ATOM     15  C   UNL     1       7.691  -5.979  31.857  1.00  0.00    -0.000 C 
BRANCH  15  16
ATOM     16  C   UNL     1       7.610  -5.527  30.389  1.00  0.00    -0.000 C 
BRANCH  16  17
ATOM     17  C   UNL     1       8.564  -6.313  29.474  1.00  0.00    -0.000 C 
BRANCH  17  18
ATOM     18  C   UNL     1       8.576  -5.777  28.035  1.00  0.00    -0.003 C 
ATOM     19  C   UNL     1       7.656  -4.567  27.893  1.00  0.00     0.004 C 
ENDBRANCH  17  18
ENDBRANCH  16  17
ENDBRANCH  15  16
ENDBRANCH  14  15
ENDBRANCH  13  14
ENDBRANCH  12  13
ENDBRANCH   1  12
TORSDOF 14
ENDMDL
MODEL 5
REMARK VINA RESULT:    -4.312      2.611      5.582
REMARK INTER + INTRA:         -10.065
REMARK INTER:                  -7.916
REMARK INTRA:                  -2.148
REMARK UNBOUND:                -2.223
REMARK SMILES CCCCCCCCCCCCCC[C@@H](C)C(=O)[O-]
REMARK SMILES IDX 9 1 10 2 11 3 12 4 13 5 14 6 15 7 16 8 17 9 18 10 19 11 8 12
REMARK SMILES IDX 7 13 6 14 5 15 4 16 3 17 2 18 1 19
REMARK H PARENT
REMARK Flexibility Score: inf
ROOT
ATOM      1  C   UNL     1       5.200  -8.063  31.500  1.00  0.00     0.000 C 
ENDROOT
BRANCH   1   2
ATOM      2  C   UNL     1       4.753  -7.047  32.567  1.00  0.00     0.000 C 
BRANCH   2   3
ATOM      3  C   UNL     1       5.411  -5.657  32.411  1.00  0.00     0.000 C 
BRANCH   3   4
ATOM      4  C   UNL     1       6.918  -5.642  32.737  1.00  0.00     0.000 C 
BRANCH   4   5
ATOM      5  C   UNL     1       7.841  -5.888  31.527  1.00  0.00     0.001 C 
BRANCH   5   6
ATOM      6  C   UNL     1       7.367  -5.284  30.190  1.00  0.00     0.009 C 
BRANCH   6   7
ATOM      7  C   UNL     1       7.228  -6.320  29.041  1.00  0.00     0.032 C 
ATOM      8  C   UNL     1       6.142  -5.917  28.032  1.00  0.00     0.014 C 
BRANCH   7   9
ATOM      9  C   UNL     1       8.537  -6.488  28.315  1.00  0.00     0.044 C 
ATOM     10  O   UNL     1       8.842  -7.597  27.799  1.00  0.00    -0.550 OA
ATOM     11  O   UNL     1       9.418  -5.418  28.213  1.00  0.00    -0.550 OA
ENDBRANCH   7   9
ENDBRANCH   6   7
ENDBRANCH   5   6
ENDBRANCH   4   5
ENDBRANCH   3   4
ENDBRANCH   2   3
ENDBRANCH   1   2
BRANCH   1  12
ATOM     12  C   UNL     1       4.282  -8.146  30.265  1.00  0.00     0.000 C 
BRANCH  12  13
ATOM     13  C   UNL     1       4.403  -9.449  29.451  1.00  0.00    -0.000 C 
BRANCH  13  14
ATOM     14  C   UNL     1       5.840  -9.840  29.054  1.00  0.00    -0.000 C 
BRANCH  14  15
ATOM     15  C   UNL     1       6.136  -9.681  27.546  1.00  0.00    -0.000 C 
BRANCH  15  16
ATOM     16  C   UNL     1       4.867  -9.800  26.685  1.00  0.00    -0.000 C 
BRANCH  16  17
ATOM     17  C   UNL     1       4.898  -8.879  25.454  1.00  0.00    -0.000 C 
BRANCH  17  18
ATOM     18  C   UNL     1       6.302  -8.325  25.168  1.00  0.00    -0.003 C 
ATOM     19  C   UNL     1       6.224  -6.987  24.435  1.00  0.00     0.004 C 
ENDBRANCH  17  18
ENDBRANCH  16  17
ENDBRANCH  15  16
ENDBRANCH  14  15
ENDBRANCH  13  14
ENDBRANCH  12  13
ENDBRANCH   1  12
TORSDOF 14
ENDMDL
MODEL 6
REMARK VINA RESULT:    -4.310      3.272      6.315
REMARK INTER + INTRA:         -10.060
REMARK INTER:                  -7.835
REMARK INTRA:                  -2.225
REMARK UNBOUND:                -2.223
REMARK SMILES CCCCCCCCCCCCCC[C@@H](C)C(=O)[O-]
REMARK SMILES IDX 9 1 10 2 11 3 12 4 13 5 14 6 15 7 16 8 17 9 18 10 19 11 8 12
REMARK SMILES IDX 7 13 6 14 5 15 4 16 3 17 2 18 1 19
REMARK H PARENT
REMARK Flexibility Score: inf
ROOT
ATOM      1  C   UNL     1       5.417  -9.133  26.623  1.00  0.00     0.000 C 
ENDROOT
BRANCH   1   2
ATOM      2  C   UNL     1       6.630  -9.397  27.535  1.00  0.00     0.000 C 
BRANCH   2   3
ATOM      3  C   UNL     1       6.251  -9.635  29.015  1.00  0.00     0.000 C 
BRANCH   3   4
ATOM      4  C   UNL     1       4.782  -9.302  29.343  1.00  0.00     0.000 C 
BRANCH   4   5
ATOM      5  C   UNL     1       4.592  -8.191  30.395  1.00  0.00     0.001 C 
BRANCH   5   6
ATOM      6  C   UNL     1       5.864  -7.773  31.161  1.00  0.00     0.009 C 
BRANCH   6   7
ATOM      7  C   UNL     1       5.767  -6.376  31.834  1.00  0.00     0.032 C 
ATOM      8  C   UNL     1       4.918  -6.412  33.114  1.00  0.00     0.014 C 
BRANCH   7   9
ATOM      9  C   UNL     1       7.138  -5.850  32.168  1.00  0.00     0.044 C 
ATOM     10  O   UNL     1       7.271  -4.830  32.897  1.00  0.00    -0.550 OA
ATOM     11  O   UNL     1       8.268  -6.485  31.666  1.00  0.00    -0.550 OA
ENDBRANCH   7   9
ENDBRANCH   6   7
ENDBRANCH   5   6
ENDBRANCH   4   5
ENDBRANCH   3   4
ENDBRANCH   2   3
ENDBRANCH   1   2
BRANCH   1  12
ATOM     12  C   UNL     1       5.689  -9.327  25.119  1.00  0.00     0.000 C 
BRANCH  12  13
ATOM     13  C   UNL     1       5.331  -8.118  24.232  1.00  0.00    -0.000 C 
BRANCH  13  14
ATOM     14  C   UNL     1       4.666  -6.940  24.971  1.00  0.00    -0.000 C 
BRANCH  14  15
ATOM     15  C   UNL     1       5.380  -5.587  24.756  1.00  0.00    -0.000 C 
BRANCH  15  16
ATOM     16  C   UNL     1       6.320  -5.229  25.920  1.00  0.00    -0.000 C 
BRANCH  16  17
ATOM     17  C   UNL     1       5.722  -5.578  27.293  1.00  0.00    -0.000 C 
BRANCH  17  18
ATOM     18  C   UNL     1       6.720  -5.369  28.441  1.00  0.00    -0.003 C 
ATOM     19  C   UNL     1       8.052  -6.054  28.141  1.00  0.00     0.004 C 
ENDBRANCH  17  18
ENDBRANCH  16  17
ENDBRANCH  15  16
ENDBRANCH  14  15
ENDBRANCH  13  14
ENDBRANCH  12  13
ENDBRANCH   1  12
TORSDOF 14
ENDMDL
MODEL 7
REMARK VINA RESULT:    -4.293     10.721     14.037
REMARK INTER + INTRA:         -10.029
REMARK INTER:                  -7.971
REMARK INTRA:                  -2.058
REMARK UNBOUND:                -2.223
REMARK SMILES CCCCCCCCCCCCCC[C@@H](C)C(=O)[O-]
REMARK SMILES IDX 9 1 10 2 11 3 12 4 13 5 14 6 15 7 16 8 17 9 18 10 19 11 8 12
REMARK SMILES IDX 7 13 6 14 5 15 4 16 3 17 2 18 1 19
REMARK H PARENT
REMARK Flexibility Score: inf
ROOT
ATOM      1  C   UNL     1      12.667  -6.349  17.487  1.00  0.00     0.000 C 
ENDROOT
BRANCH   1   2
ATOM      2  C   UNL     1      14.108  -5.840  17.294  1.00  0.00     0.000 C 
BRANCH   2   3
ATOM      3  C   UNL     1      14.630  -4.996  18.480  1.00  0.00     0.000 C 
BRANCH   3   4
ATOM      4  C   UNL     1      13.840  -5.204  19.787  1.00  0.00     0.000 C 
BRANCH   4   5
ATOM      5  C   UNL     1      14.634  -5.884  20.919  1.00  0.00     0.001 C 
BRANCH   5   6
ATOM      6  C   UNL     1      14.557  -7.423  20.959  1.00  0.00     0.009 C 
BRANCH   6   7
ATOM      7  C   UNL     1      15.710  -8.095  21.754  1.00  0.00     0.032 C 
ATOM      8  C   UNL     1      16.933  -7.175  21.882  1.00  0.00     0.014 C 
BRANCH   7   9
ATOM      9  C   UNL     1      15.246  -8.493  23.131  1.00  0.00     0.044 C 
ATOM     10  O   UNL     1      15.339  -7.684  24.094  1.00  0.00    -0.550 OA
ATOM     11  O   UNL     1      14.717  -9.759  23.347  1.00  0.00    -0.550 OA
ENDBRANCH   7   9
ENDBRANCH   6   7
ENDBRANCH   5   6
ENDBRANCH   4   5
ENDBRANCH   3   4
ENDBRANCH   2   3
ENDBRANCH   1   2
BRANCH   1  12
ATOM     12  C   UNL     1      12.503  -7.876  17.363  1.00  0.00     0.000 C 
BRANCH  12  13
ATOM     13  C   UNL     1      13.803  -8.686  17.529  1.00  0.00    -0.000 C 
BRANCH  13  14
ATOM     14  C   UNL     1      13.832 -10.036  16.785  1.00  0.00    -0.000 C 
BRANCH  14  15
ATOM     15  C   UNL     1      14.217  -9.917  15.294  1.00  0.00    -0.000 C 
BRANCH  15  16
ATOM     16  C   UNL     1      15.192  -8.757  15.031  1.00  0.00    -0.000 C 
BRANCH  16  17
ATOM     17  C   UNL     1      14.997  -8.121  13.645  1.00  0.00    -0.000 C 
BRANCH  17  18
ATOM     18  C   UNL     1      14.171  -6.828  13.700  1.00  0.00    -0.003 C 
ATOM     19  C   UNL     1      12.674  -7.133  13.702  1.00  0.00     0.004 C 
ENDBRANCH  17  18
ENDBRANCH  16  17
ENDBRANCH  15  16
ENDBRANCH  14  15
ENDBRANCH  13  14
ENDBRANCH  12  13
ENDBRANCH   1  12
TORSDOF 14
ENDMDL
MODEL 8
REMARK VINA RESULT:    -4.292      1.473      2.609
REMARK INTER + INTRA:         -10.028
REMARK INTER:                  -7.442
REMARK INTRA:                  -2.586
REMARK UNBOUND:                -2.223
REMARK SMILES CCCCCCCCCCCCCC[C@@H](C)C(=O)[O-]
REMARK SMILES IDX 9 1 10 2 11 3 12 4 13 5 14 6 15 7 16 8 17 9 18 10 19 11 8 12
REMARK SMILES IDX 7 13 6 14 5 15 4 16 3 17 2 18 1 19
REMARK H PARENT
REMARK Flexibility Score: inf
ROOT
ATOM      1  C   UNL     1       6.864  -5.442  28.553  1.00  0.00     0.000 C 
ENDROOT
BRANCH   1   2
ATOM      2  C   UNL     1       7.726  -6.200  27.526  1.00  0.00     0.000 C 
BRANCH   2   3
ATOM      3  C   UNL     1       8.656  -7.259  28.161  1.00  0.00     0.000 C 
BRANCH   3   4
ATOM      4  C   UNL     1       8.802  -8.543  27.321  1.00  0.00     0.000 C 
BRANCH   4   5
ATOM      5  C   UNL     1       7.518  -8.987  26.593  1.00  0.00     0.001 C 
BRANCH   5   6
ATOM      6  C   UNL     1       7.618  -9.078  25.057  1.00  0.00     0.009 C 
BRANCH   6   7
ATOM      7  C   UNL     1       6.283  -8.792  24.317  1.00  0.00     0.032 C 
ATOM      8  C   UNL     1       5.062  -9.189  25.160  1.00  0.00     0.014 C 
BRANCH   7   9
ATOM      9  C   UNL     1       6.178  -7.334  23.953  1.00  0.00     0.044 C 
ATOM     10  O   UNL     1       6.754  -6.890  22.923  1.00  0.00    -0.550 OA
ATOM     11  O   UNL     1       5.445  -6.469  24.756  1.00  0.00    -0.550 OA
ENDBRANCH   7   9
ENDBRANCH   6   7
ENDBRANCH   5   6
ENDBRANCH   4   5
ENDBRANCH   3   4
ENDBRANCH   2   3
ENDBRANCH   1   2
BRANCH   1  12
ATOM     12  C   UNL     1       5.344  -5.628  28.379  1.00  0.00     0.000 C 
BRANCH  12  13
ATOM     13  C   UNL     1       4.892  -7.077  28.115  1.00  0.00    -0.000 C 
BRANCH  13  14
ATOM     14  C   UNL     1       4.513  -7.882  29.373  1.00  0.00    -0.000 C 
BRANCH  14  15
ATOM     15  C   UNL     1       5.694  -8.658  29.996  1.00  0.00    -0.000 C 
BRANCH  15  16
ATOM     16  C   UNL     1       6.290  -7.937  31.217  1.00  0.00    -0.000 C 
BRANCH  16  17
ATOM     17  C   UNL     1       5.263  -7.053  31.943  1.00  0.00    -0.000 C 
BRANCH  17  18
ATOM     18  C   UNL     1       5.831  -5.677  32.321  1.00  0.00    -0.003 C 
ATOM     19  C   UNL     1       7.354  -5.662  32.204  1.00  0.00     0.004 C 
ENDBRANCH  17  18
ENDBRANCH  16  17
ENDBRANCH  15  16
ENDBRANCH  14  15
ENDBRANCH  13  14
ENDBRANCH  12  13
ENDBRANCH   1  12
TORSDOF 14
ENDMDL
MODEL 9
REMARK VINA RESULT:    -4.274      1.303      3.140
REMARK INTER + INTRA:          -9.996
REMARK INTER:                  -7.585
REMARK INTRA:                  -2.410
REMARK UNBOUND:                -2.223
REMARK SMILES CCCCCCCCCCCCCC[C@@H](C)C(=O)[O-]
REMARK SMILES IDX 9 1 10 2 11 3 12 4 13 5 14 6 15 7 16 8 17 9 18 10 19 11 8 12
REMARK SMILES IDX 7 13 6 14 5 15 4 16 3 17 2 18 1 19
REMARK H PARENT
REMARK Flexibility Score: inf
ROOT
ATOM      1  C   UNL     1       5.746  -9.670  29.341  1.00  0.00     0.000 C 
ENDROOT
BRANCH   1   2
ATOM      2  C   UNL     1       6.123  -9.556  27.853  1.00  0.00     0.000 C 
BRANCH   2   3
ATOM      3  C   UNL     1       7.544  -8.994  27.616  1.00  0.00     0.000 C 
BRANCH   3   4
ATOM      4  C   UNL     1       7.734  -8.346  26.230  1.00  0.00     0.000 C 
BRANCH   4   5
ATOM      5  C   UNL     1       6.662  -8.725  25.189  1.00  0.00     0.001 C 
BRANCH   5   6
ATOM      6  C   UNL     1       6.337  -7.641  24.141  1.00  0.00     0.009 C 
BRANCH   6   7
ATOM      7  C   UNL     1       4.879  -7.112  24.209  1.00  0.00     0.032 C 
ATOM      8  C   UNL     1       4.148  -7.601  25.468  1.00  0.00     0.014 C 
BRANCH   7   9
ATOM      9  C   UNL     1       4.856  -5.606  24.179  1.00  0.00     0.044 C 
ATOM     10  O   UNL     1       3.859  -4.992  23.713  1.00  0.00    -0.550 OA
ATOM     11  O   UNL     1       5.941  -4.885  24.662  1.00  0.00    -0.550 OA
ENDBRANCH   7   9
ENDBRANCH   6   7
ENDBRANCH   5   6
ENDBRANCH   4   5
ENDBRANCH   3   4
ENDBRANCH   2   3
ENDBRANCH   1   2
BRANCH   1  12
ATOM     12  C   UNL     1       4.428  -8.970  29.727  1.00  0.00     0.000 C 
BRANCH  12  13
ATOM     13  C   UNL     1       4.557  -7.898  30.825  1.00  0.00    -0.000 C 
BRANCH  13  14
ATOM     14  C   UNL     1       5.975  -7.723  31.404  1.00  0.00    -0.000 C 
BRANCH  14  15
ATOM     15  C   UNL     1       6.244  -6.316  31.980  1.00  0.00    -0.000 C 
BRANCH  15  16
ATOM     16  C   UNL     1       7.442  -5.626  31.306  1.00  0.00    -0.000 C 
BRANCH  16  17
ATOM     17  C   UNL     1       7.716  -6.163  29.891  1.00  0.00    -0.000 C 
BRANCH  17  18
ATOM     18  C   UNL     1       7.253  -5.194  28.793  1.00  0.00    -0.003 C 
ATOM     19  C   UNL     1       5.893  -5.608  28.234  1.00  0.00     0.004 C 
ENDBRANCH  17  18
ENDBRANCH  16  17
ENDBRANCH  15  16
ENDBRANCH  14  15
ENDBRANCH  13  14
ENDBRANCH  12  13
ENDBRANCH   1  12
TORSDOF 14
ENDMDL
