MODEL 1
REMARK VINA RESULT:    -4.112      0.000      0.000
REMARK INTER + INTRA:          -4.669
REMARK INTER:                  -4.472
REMARK INTRA:                  -0.197
REMARK UNBOUND:                -0.197
REMARK SMILES C=C(C)[C@@H]1CC[C@@H](C)C[C@H]1O
REMARK SMILES IDX 8 1 7 2 6 3 5 4 4 5 10 6 9 7 11 8 2 10 1 11 3 12
REMARK H PARENT 11 9
REMARK Flexibility Score: inf
ROOT
ATOM      1  C   UNL     1     135.003 136.062 142.463  1.00  0.00     0.008 C 
ATOM      2  C   UNL     1     136.410 136.660 142.365  1.00  0.00    -0.012 C 
ATOM      3  C   UNL     1     137.329 135.749 141.531  1.00  0.00     0.004 C 
ATOM      4  C   UNL     1     138.743 136.331 141.439  1.00  0.00     0.011 C 
ATOM      5  C   UNL     1     139.339 136.562 142.842  1.00  0.00     0.043 C 
ATOM      6  C   UNL     1     138.419 137.474 143.692  1.00  0.00     0.121 C 
ATOM      7  C   UNL     1     137.003 136.883 143.770  1.00  0.00     0.035 C 
ENDROOT
BRANCH   6   8
ATOM      8  O   UNL     1     138.927 137.591 144.996  1.00  0.00    -0.392 OA
ATOM      9  H   UNL     1     138.157 137.784 145.592  1.00  0.00     0.210 HD
ENDBRANCH   6   8
BRANCH   5  10
ATOM     10  C   UNL     1     140.752 137.125 142.739  1.00  0.00    -0.075 C 
ATOM     11  C   UNL     1     140.959 138.326 142.176  1.00  0.00     0.008 C 
ATOM     12  C   UNL     1     141.942 136.359 143.262  1.00  0.00     0.039 C 
ENDBRANCH   5  10
TORSDOF 2
ENDMDL
MODEL 2
REMARK VINA RESULT:    -4.042      1.644      2.237
REMARK INTER + INTRA:          -4.593
REMARK INTER:                  -4.400
REMARK INTRA:                  -0.193
REMARK UNBOUND:                -0.197
REMARK SMILES C=C(C)[C@@H]1CC[C@@H](C)C[C@H]1O
REMARK SMILES IDX 8 1 7 2 6 3 5 4 4 5 10 6 9 7 11 8 2 10 1 11 3 12
REMARK H PARENT 11 9
REMARK Flexibility Score: inf
ROOT
ATOM      1  C   UNL     1     134.885 136.356 141.795  1.00  0.00     0.008 C 
ATOM      2  C   UNL     1     136.351 136.299 142.237  1.00  0.00    -0.012 C 
ATOM      3  C   UNL     1     136.733 137.576 143.007  1.00  0.00     0.004 C 
ATOM      4  C   UNL     1     138.203 137.536 143.441  1.00  0.00     0.011 C 
ATOM      5  C   UNL     1     139.133 137.336 142.229  1.00  0.00     0.043 C 
ATOM      6  C   UNL     1     138.753 136.055 141.444  1.00  0.00     0.121 C 
ATOM      7  C   UNL     1     137.276 136.105 141.021  1.00  0.00     0.035 C 
ENDROOT
BRANCH   6   8
ATOM      8  O   UNL     1     139.545 135.944 140.289  1.00  0.00    -0.392 OA
ATOM      9  H   UNL     1     139.130 136.520 139.596  1.00  0.00     0.210 HD
ENDBRANCH   6   8
BRANCH   5  10
ATOM     10  C   UNL     1     140.592 137.315 142.670  1.00  0.00    -0.075 C 
ATOM     11  C   UNL     1     141.421 138.305 142.304  1.00  0.00     0.008 C 
ATOM     12  C   UNL     1     141.138 136.197 143.524  1.00  0.00     0.039 C 
ENDBRANCH   5  10
TORSDOF 2
ENDMDL
MODEL 3
REMARK VINA RESULT:    -3.831     10.131     11.280
REMARK INTER + INTRA:          -4.364
REMARK INTER:                  -4.176
REMARK INTRA:                  -0.188
REMARK UNBOUND:                -0.197
REMARK SMILES C=C(C)[C@@H]1CC[C@@H](C)C[C@H]1O
REMARK SMILES IDX 8 1 7 2 6 3 5 4 4 5 10 6 9 7 11 8 2 10 1 11 3 12
REMARK H PARENT 11 9
REMARK Flexibility Score: inf
ROOT
ATOM      1  C   UNL     1     132.703 127.756 139.630  1.00  0.00     0.008 C 
ATOM      2  C   UNL     1     133.708 128.083 138.521  1.00  0.00    -0.012 C 
ATOM      3  C   UNL     1     134.131 129.562 138.593  1.00  0.00     0.004 C 
ATOM      4  C   UNL     1     135.125 129.904 137.478  1.00  0.00     0.011 C 
ATOM      5  C   UNL     1     134.536 129.576 136.091  1.00  0.00     0.043 C 
ATOM      6  C   UNL     1     134.103 128.091 136.010  1.00  0.00     0.121 C 
ATOM      7  C   UNL     1     133.112 127.760 137.137  1.00  0.00     0.035 C 
ENDROOT
BRANCH   6   8
ATOM      8  O   UNL     1     133.478 127.838 134.777  1.00  0.00    -0.392 OA
ATOM      9  H   UNL     1     133.967 128.362 134.091  1.00  0.00     0.210 HD
ENDBRANCH   6   8
BRANCH   5  10
ATOM     10  C   UNL     1     135.526 129.937 134.990  1.00  0.00    -0.075 C 
ATOM     11  C   UNL     1     135.301 131.001 134.203  1.00  0.00     0.008 C 
ATOM     12  C   UNL     1     136.774 129.121 134.758  1.00  0.00     0.039 C 
ENDBRANCH   5  10
TORSDOF 2
ENDMDL
MODEL 4
REMARK VINA RESULT:    -3.820      1.865      4.811
REMARK INTER + INTRA:          -4.352
REMARK INTER:                  -4.159
REMARK INTRA:                  -0.193
REMARK UNBOUND:                -0.197
REMARK SMILES C=C(C)[C@@H]1CC[C@@H](C)C[C@H]1O
REMARK SMILES IDX 8 1 7 2 6 3 5 4 4 5 10 6 9 7 11 8 2 10 1 11 3 12
REMARK H PARENT 11 9
REMARK Flexibility Score: inf
ROOT
ATOM      1  C   UNL     1     141.039 137.879 142.624  1.00  0.00     0.008 C 
ATOM      2  C   UNL     1     139.576 137.658 142.227  1.00  0.00    -0.012 C 
ATOM      3  C   UNL     1     138.659 137.759 143.460  1.00  0.00     0.004 C 
ATOM      4  C   UNL     1     137.194 137.525 143.077  1.00  0.00     0.011 C 
ATOM      5  C   UNL     1     137.015 136.162 142.379  1.00  0.00     0.043 C 
ATOM      6  C   UNL     1     137.937 136.049 141.139  1.00  0.00     0.121 C 
ATOM      7  C   UNL     1     139.401 136.292 141.536  1.00  0.00     0.035 C 
ENDROOT
BRANCH   6   8
ATOM      8  O   UNL     1     137.834 134.765 140.577  1.00  0.00    -0.392 OA
ATOM      9  H   UNL     1     138.259 134.805 139.682  1.00  0.00     0.210 HD
ENDBRANCH   6   8
BRANCH   5  10
ATOM     10  C   UNL     1     135.552 135.932 142.018  1.00  0.00    -0.075 C 
ATOM     11  C   UNL     1     134.858 134.947 142.610  1.00  0.00     0.008 C 
ATOM     12  C   UNL     1     134.850 136.798 141.001  1.00  0.00     0.039 C 
ENDBRANCH   5  10
TORSDOF 2
ENDMDL
MODEL 5
REMARK VINA RESULT:    -3.702      2.643      4.505
REMARK INTER + INTRA:          -4.223
REMARK INTER:                  -4.025
REMARK INTRA:                  -0.198
REMARK UNBOUND:                -0.197
REMARK SMILES C=C(C)[C@@H]1CC[C@@H](C)C[C@H]1O
REMARK SMILES IDX 8 1 7 2 6 3 5 4 4 5 10 6 9 7 11 8 2 10 1 11 3 12
REMARK H PARENT 11 9
REMARK Flexibility Score: inf
ROOT
ATOM      1  C   UNL     1     138.374 136.671 146.570  1.00  0.00     0.008 C 
ATOM      2  C   UNL     1     137.909 136.327 145.151  1.00  0.00    -0.012 C 
ATOM      3  C   UNL     1     138.138 137.518 144.203  1.00  0.00     0.004 C 
ATOM      4  C   UNL     1     137.662 137.190 142.784  1.00  0.00     0.011 C 
ATOM      5  C   UNL     1     136.177 136.774 142.780  1.00  0.00     0.043 C 
ATOM      6  C   UNL     1     135.934 135.579 143.736  1.00  0.00     0.121 C 
ATOM      7  C   UNL     1     136.423 135.918 145.153  1.00  0.00     0.035 C 
ENDROOT
BRANCH   6   8
ATOM      8  O   UNL     1     134.563 135.280 143.796  1.00  0.00    -0.392 OA
ATOM      9  H   UNL     1     134.444 134.601 144.510  1.00  0.00     0.210 HD
ENDBRANCH   6   8
BRANCH   5  10
ATOM     10  C   UNL     1     135.710 136.467 141.363  1.00  0.00    -0.075 C 
ATOM     11  C   UNL     1     136.371 135.569 140.614  1.00  0.00     0.008 C 
ATOM     12  C   UNL     1     134.504 137.152 140.768  1.00  0.00     0.039 C 
ENDBRANCH   5  10
TORSDOF 2
ENDMDL
MODEL 6
REMARK VINA RESULT:    -3.578      1.710      3.750
REMARK INTER + INTRA:          -4.089
REMARK INTER:                  -3.980
REMARK INTRA:                  -0.109
REMARK UNBOUND:                -0.197
REMARK SMILES C=C(C)[C@@H]1CC[C@@H](C)C[C@H]1O
REMARK SMILES IDX 8 1 7 2 6 3 5 4 4 5 10 6 9 7 11 8 2 10 1 11 3 12
REMARK H PARENT 11 9
REMARK Flexibility Score: inf
ROOT
ATOM      1  C   UNL     1     141.483 135.262 139.643  1.00  0.00     0.008 C 
ATOM      2  C   UNL     1     140.685 135.534 140.923  1.00  0.00    -0.012 C 
ATOM      3  C   UNL     1     139.179 135.609 140.616  1.00  0.00     0.004 C 
ATOM      4  C   UNL     1     138.372 135.896 141.888  1.00  0.00     0.011 C 
ATOM      5  C   UNL     1     138.852 137.195 142.566  1.00  0.00     0.043 C 
ATOM      6  C   UNL     1     140.369 137.131 142.875  1.00  0.00     0.121 C 
ATOM      7  C   UNL     1     141.165 136.837 141.593  1.00  0.00     0.035 C 
ENDROOT
BRANCH   6   8
ATOM      8  O   UNL     1     140.806 138.359 143.399  1.00  0.00    -0.392 OA
ATOM      9  H   UNL     1     140.528 139.064 142.759  1.00  0.00     0.210 HD
ENDBRANCH   6   8
BRANCH   5  10
ATOM     10  C   UNL     1     138.032 137.479 143.819  1.00  0.00    -0.075 C 
ATOM     11  C   UNL     1     136.949 138.269 143.752  1.00  0.00     0.008 C 
ATOM     12  C   UNL     1     138.408 136.885 145.154  1.00  0.00     0.039 C 
ENDBRANCH   5  10
TORSDOF 2
ENDMDL
MODEL 7
REMARK VINA RESULT:    -3.566      2.226      3.385
REMARK INTER + INTRA:          -4.075
REMARK INTER:                  -3.911
REMARK INTRA:                  -0.164
REMARK UNBOUND:                -0.197
REMARK SMILES C=C(C)[C@@H]1CC[C@@H](C)C[C@H]1O
REMARK SMILES IDX 8 1 7 2 6 3 5 4 4 5 10 6 9 7 11 8 2 10 1 11 3 12
REMARK H PARENT 11 9
REMARK Flexibility Score: inf
ROOT
ATOM      1  C   UNL     1     135.424 136.768 141.561  1.00  0.00     0.008 C 
ATOM      2  C   UNL     1     136.346 136.284 142.685  1.00  0.00    -0.012 C 
ATOM      3  C   UNL     1     135.545 136.044 143.977  1.00  0.00     0.004 C 
ATOM      4  C   UNL     1     136.461 135.573 145.113  1.00  0.00     0.011 C 
ATOM      5  C   UNL     1     137.598 136.584 145.361  1.00  0.00     0.043 C 
ATOM      6  C   UNL     1     138.408 136.836 144.065  1.00  0.00     0.121 C 
ATOM      7  C   UNL     1     137.477 137.300 142.933  1.00  0.00     0.035 C 
ENDROOT
BRANCH   6   8
ATOM      8  O   UNL     1     139.373 137.832 144.286  1.00  0.00    -0.392 OA
ATOM      9  H   UNL     1     138.901 138.705 144.266  1.00  0.00     0.210 HD
ENDBRANCH   6   8
BRANCH   5  10
ATOM     10  C   UNL     1     138.492 136.114 146.503  1.00  0.00    -0.075 C 
ATOM     11  C   UNL     1     139.325 135.077 146.324  1.00  0.00     0.008 C 
ATOM     12  C   UNL     1     138.469 136.796 147.849  1.00  0.00     0.039 C 
ENDBRANCH   5  10
TORSDOF 2
ENDMDL
MODEL 8
REMARK VINA RESULT:    -3.486     10.535     12.642
REMARK INTER + INTRA:          -3.988
REMARK INTER:                  -3.795
REMARK INTRA:                  -0.193
REMARK UNBOUND:                -0.197
REMARK SMILES C=C(C)[C@@H]1CC[C@@H](C)C[C@H]1O
REMARK SMILES IDX 8 1 7 2 6 3 5 4 4 5 10 6 9 7 11 8 2 10 1 11 3 12
REMARK H PARENT 11 9
REMARK Flexibility Score: inf
ROOT
ATOM      1  C   UNL     1     135.304 130.435 138.917  1.00  0.00     0.008 C 
ATOM      2  C   UNL     1     134.185 129.622 138.257  1.00  0.00    -0.012 C 
ATOM      3  C   UNL     1     133.931 128.318 139.036  1.00  0.00     0.004 C 
ATOM      4  C   UNL     1     132.823 127.490 138.375  1.00  0.00     0.011 C 
ATOM      5  C   UNL     1     133.165 127.184 136.903  1.00  0.00     0.043 C 
ATOM      6  C   UNL     1     133.427 128.489 136.112  1.00  0.00     0.121 C 
ATOM      7  C   UNL     1     134.534 129.313 136.788  1.00  0.00     0.035 C 
ENDROOT
BRANCH   6   8
ATOM      8  O   UNL     1     133.834 128.185 134.802  1.00  0.00    -0.392 OA
ATOM      9  H   UNL     1     134.427 128.923 134.503  1.00  0.00     0.210 HD
ENDBRANCH   6   8
BRANCH   5  10
ATOM     10  C   UNL     1     132.065 126.345 136.262  1.00  0.00    -0.075 C 
ATOM     11  C   UNL     1     132.306 125.072 135.912  1.00  0.00     0.008 C 
ATOM     12  C   UNL     1     130.691 126.915 136.008  1.00  0.00     0.039 C 
ENDBRANCH   5  10
TORSDOF 2
ENDMDL
MODEL 9
REMARK VINA RESULT:    -3.483      1.255      4.208
REMARK INTER + INTRA:          -3.985
REMARK INTER:                  -3.801
REMARK INTRA:                  -0.184
REMARK UNBOUND:                -0.197
REMARK SMILES C=C(C)[C@@H]1CC[C@@H](C)C[C@H]1O
REMARK SMILES IDX 8 1 7 2 6 3 5 4 4 5 10 6 9 7 11 8 2 10 1 11 3 12
REMARK H PARENT 11 9
REMARK Flexibility Score: inf
ROOT
ATOM      1  C   UNL     1     141.326 136.426 143.354  1.00  0.00     0.008 C 
ATOM      2  C   UNL     1     139.813 136.186 143.321  1.00  0.00    -0.012 C 
ATOM      3  C   UNL     1     139.384 135.628 141.952  1.00  0.00     0.004 C 
ATOM      4  C   UNL     1     137.869 135.398 141.903  1.00  0.00     0.011 C 
ATOM      5  C   UNL     1     137.101 136.697 142.223  1.00  0.00     0.043 C 
ATOM      6  C   UNL     1     137.530 137.269 143.597  1.00  0.00     0.121 C 
ATOM      7  C   UNL     1     139.051 137.488 143.636  1.00  0.00     0.035 C 
ENDROOT
BRANCH   6   8
ATOM      8  O   UNL     1     136.895 138.502 143.825  1.00  0.00    -0.392 OA
ATOM      9  H   UNL     1     137.539 139.212 143.567  1.00  0.00     0.210 HD
ENDBRANCH   6   8
BRANCH   5  10
ATOM     10  C   UNL     1     135.597 136.460 142.154  1.00  0.00    -0.075 C 
ATOM     11  C   UNL     1     134.887 136.936 141.119  1.00  0.00     0.008 C 
ATOM     12  C   UNL     1     134.874 135.691 143.232  1.00  0.00     0.039 C 
ENDBRANCH   5  10
TORSDOF 2
ENDMDL
