MODEL 1
REMARK VINA RESULT:    -4.707      0.000      0.000
REMARK INTER + INTRA:          -5.137
REMARK INTER:                  -4.982
REMARK INTRA:                  -0.155
REMARK UNBOUND:                -0.155
REMARK SMILES CC1=CCC(C(C)C)=CC1
REMARK SMILES IDX 1 1 2 2 3 3 4 4 5 5 9 6 10 7 6 8 7 9 8 10
REMARK H PARENT
REMARK Flexibility Score: inf
ROOT
ATOM      1  C   UNL     1      17.652  14.373  36.747  1.00  0.00     0.039 C 
ATOM      2  C   UNL     1      16.155  14.425  36.630  1.00  0.00    -0.073 C 
ATOM      3  C   UNL     1      15.510  15.598  36.782  1.00  0.00    -0.023 C 
ATOM      4  C   UNL     1      14.014  15.686  36.620  1.00  0.00     0.058 C 
ATOM      5  C   UNL     1      13.331  14.397  37.037  1.00  0.00    -0.068 C 
ATOM      6  C   UNL     1      13.982  13.223  36.880  1.00  0.00    -0.023 C 
ATOM      7  C   UNL     1      15.371  13.175  36.294  1.00  0.00     0.057 C 
ENDROOT
BRANCH   5   8
ATOM      8  C   UNL     1      11.912  14.448  37.582  1.00  0.00     0.009 C 
ATOM      9  C   UNL     1      11.911  14.627  39.106  1.00  0.00     0.012 C 
ATOM     10  C   UNL     1      11.108  13.209  37.171  1.00  0.00     0.012 C 
ENDBRANCH   5   8
TORSDOF 1
ENDMDL
MODEL 2
REMARK VINA RESULT:    -4.306     14.576     15.814
REMARK INTER + INTRA:          -4.713
REMARK INTER:                  -4.544
REMARK INTRA:                  -0.169
REMARK UNBOUND:                -0.155
REMARK SMILES CC1=CCC(C(C)C)=CC1
REMARK SMILES IDX 1 1 2 2 3 3 4 4 5 5 9 6 10 7 6 8 7 9 8 10
REMARK H PARENT
REMARK Flexibility Score: inf
ROOT
ATOM      1  C   UNL     1       5.635  18.147  22.446  1.00  0.00     0.039 C 
ATOM      2  C   UNL     1       6.907  18.832  22.857  1.00  0.00    -0.073 C 
ATOM      3  C   UNL     1       7.962  18.847  22.020  1.00  0.00    -0.023 C 
ATOM      4  C   UNL     1       9.233  19.570  22.388  1.00  0.00     0.058 C 
ATOM      5  C   UNL     1       9.467  19.558  23.887  1.00  0.00    -0.068 C 
ATOM      6  C   UNL     1       8.405  19.545  24.723  1.00  0.00    -0.023 C 
ATOM      7  C   UNL     1       6.995  19.546  24.189  1.00  0.00     0.057 C 
ENDROOT
BRANCH   5   8
ATOM      8  C   UNL     1      10.891  19.604  24.419  1.00  0.00     0.009 C 
ATOM      9  C   UNL     1      11.864  18.909  23.458  1.00  0.00     0.012 C 
ATOM     10  C   UNL     1      10.984  19.005  25.827  1.00  0.00     0.012 C 
ENDBRANCH   5   8
TORSDOF 1
ENDMDL
MODEL 3
REMARK VINA RESULT:    -4.284     13.361     14.282
REMARK INTER + INTRA:          -4.689
REMARK INTER:                  -4.553
REMARK INTRA:                  -0.136
REMARK UNBOUND:                -0.155
REMARK SMILES CC1=CCC(C(C)C)=CC1
REMARK SMILES IDX 1 1 2 2 3 3 4 4 5 5 9 6 10 7 6 8 7 9 8 10
REMARK H PARENT
REMARK Flexibility Score: inf
ROOT
ATOM      1  C   UNL     1      11.308  18.889  27.579  1.00  0.00     0.039 C 
ATOM      2  C   UNL     1      10.154  19.243  26.684  1.00  0.00    -0.073 C 
ATOM      3  C   UNL     1       8.896  18.945  27.061  1.00  0.00    -0.023 C 
ATOM      4  C   UNL     1       7.719  19.333  26.204  1.00  0.00     0.058 C 
ATOM      5  C   UNL     1       8.077  19.334  24.730  1.00  0.00    -0.068 C 
ATOM      6  C   UNL     1       9.341  19.636  24.357  1.00  0.00    -0.023 C 
ATOM      7  C   UNL     1      10.394  19.975  25.381  1.00  0.00     0.057 C 
ENDROOT
BRANCH   5   8
ATOM      8  C   UNL     1       6.998  19.038  23.700  1.00  0.00     0.009 C 
ATOM      9  C   UNL     1       7.549  18.187  22.550  1.00  0.00     0.012 C 
ATOM     10  C   UNL     1       6.356  20.327  23.174  1.00  0.00     0.012 C 
ENDBRANCH   5   8
TORSDOF 1
ENDMDL
MODEL 4
REMARK VINA RESULT:    -4.183     14.811     16.024
REMARK INTER + INTRA:          -4.582
REMARK INTER:                  -4.443
REMARK INTRA:                  -0.139
REMARK UNBOUND:                -0.155
REMARK SMILES CC1=CCC(C(C)C)=CC1
REMARK SMILES IDX 1 1 2 2 3 3 4 4 5 5 9 6 10 7 6 8 7 9 8 10
REMARK H PARENT
REMARK Flexibility Score: inf
ROOT
ATOM      1  C   UNL     1       5.103  19.204  22.211  1.00  0.00     0.039 C 
ATOM      2  C   UNL     1       6.453  19.043  22.851  1.00  0.00    -0.073 C 
ATOM      3  C   UNL     1       6.718  19.655  24.022  1.00  0.00    -0.023 C 
ATOM      4  C   UNL     1       8.047  19.469  24.709  1.00  0.00     0.058 C 
ATOM      5  C   UNL     1       9.167  19.250  23.709  1.00  0.00    -0.068 C 
ATOM      6  C   UNL     1       8.895  18.634  22.537  1.00  0.00    -0.023 C 
ATOM      7  C   UNL     1       7.501  18.159  22.212  1.00  0.00     0.057 C 
ENDROOT
BRANCH   5   8
ATOM      8  C   UNL     1      10.579  19.689  24.063  1.00  0.00     0.009 C 
ATOM      9  C   UNL     1      11.620  18.930  23.231  1.00  0.00     0.012 C 
ATOM     10  C   UNL     1      10.854  19.536  25.564  1.00  0.00     0.012 C 
ENDBRANCH   5   8
TORSDOF 1
ENDMDL
MODEL 5
REMARK VINA RESULT:    -4.082     15.833     16.647
REMARK INTER + INTRA:          -4.475
REMARK INTER:                  -4.307
REMARK INTRA:                  -0.169
REMARK UNBOUND:                -0.155
REMARK SMILES CC1=CCC(C(C)C)=CC1
REMARK SMILES IDX 1 1 2 2 3 3 4 4 5 5 9 6 10 7 6 8 7 9 8 10
REMARK H PARENT
REMARK Flexibility Score: inf
ROOT
ATOM      1  C   UNL     1      10.541  19.392  23.293  1.00  0.00     0.039 C 
ATOM      2  C   UNL     1       9.061  19.134  23.352  1.00  0.00    -0.073 C 
ATOM      3  C   UNL     1       8.461  18.445  22.363  1.00  0.00    -0.023 C 
ATOM      4  C   UNL     1       6.987  18.131  22.423  1.00  0.00     0.058 C 
ATOM      5  C   UNL     1       6.216  19.211  23.158  1.00  0.00    -0.068 C 
ATOM      6  C   UNL     1       6.823  19.899  24.150  1.00  0.00    -0.023 C 
ATOM      7  C   UNL     1       8.250  19.606  24.539  1.00  0.00     0.057 C 
ENDROOT
BRANCH   5   8
ATOM      8  C   UNL     1       4.762  19.468  22.792  1.00  0.00     0.009 C 
ATOM      9  C   UNL     1       4.508  19.191  21.305  1.00  0.00     0.012 C 
ATOM     10  C   UNL     1       4.332  20.890  23.171  1.00  0.00     0.012 C 
ENDBRANCH   5   8
TORSDOF 1
ENDMDL
MODEL 6
REMARK VINA RESULT:    -4.067      1.308      4.599
REMARK INTER + INTRA:          -4.459
REMARK INTER:                  -4.317
REMARK INTRA:                  -0.143
REMARK UNBOUND:                -0.155
REMARK SMILES CC1=CCC(C(C)C)=CC1
REMARK SMILES IDX 1 1 2 2 3 3 4 4 5 5 9 6 10 7 6 8 7 9 8 10
REMARK H PARENT
REMARK Flexibility Score: inf
ROOT
ATOM      1  C   UNL     1       9.952  15.577  39.290  1.00  0.00     0.039 C 
ATOM      2  C   UNL     1      11.076  15.278  38.338  1.00  0.00    -0.073 C 
ATOM      3  C   UNL     1      11.421  14.000  38.087  1.00  0.00    -0.023 C 
ATOM      4  C   UNL     1      12.511  13.673  37.099  1.00  0.00     0.058 C 
ATOM      5  C   UNL     1      13.573  14.756  37.061  1.00  0.00    -0.068 C 
ATOM      6  C   UNL     1      13.222  16.036  37.312  1.00  0.00    -0.023 C 
ATOM      7  C   UNL     1      11.793  16.403  37.625  1.00  0.00     0.057 C 
ENDROOT
BRANCH   5   8
ATOM      8  C   UNL     1      15.003  14.385  36.699  1.00  0.00     0.009 C 
ATOM      9  C   UNL     1      15.502  15.205  35.503  1.00  0.00     0.012 C 
ATOM     10  C   UNL     1      15.143  12.881  36.435  1.00  0.00     0.012 C 
ENDBRANCH   5   8
TORSDOF 1
ENDMDL
MODEL 7
REMARK VINA RESULT:    -4.043      1.555      4.598
REMARK INTER + INTRA:          -4.434
REMARK INTER:                  -4.293
REMARK INTRA:                  -0.141
REMARK UNBOUND:                -0.155
REMARK SMILES CC1=CCC(C(C)C)=CC1
REMARK SMILES IDX 1 1 2 2 3 3 4 4 5 5 9 6 10 7 6 8 7 9 8 10
REMARK H PARENT
REMARK Flexibility Score: inf
ROOT
ATOM      1  C   UNL     1       9.275  16.095  38.620  1.00  0.00     0.039 C 
ATOM      2  C   UNL     1      10.704  15.694  38.385  1.00  0.00    -0.073 C 
ATOM      3  C   UNL     1      11.641  16.640  38.179  1.00  0.00    -0.023 C 
ATOM      4  C   UNL     1      13.089  16.266  37.991  1.00  0.00     0.058 C 
ATOM      5  C   UNL     1      13.234  14.911  37.324  1.00  0.00    -0.068 C 
ATOM      6  C   UNL     1      12.292  13.966  37.535  1.00  0.00    -0.023 C 
ATOM      7  C   UNL     1      11.105  14.235  38.426  1.00  0.00     0.057 C 
ENDROOT
BRANCH   5   8
ATOM      8  C   UNL     1      14.457  14.630  36.465  1.00  0.00     0.009 C 
ATOM      9  C   UNL     1      14.889  13.163  36.580  1.00  0.00     0.012 C 
ATOM     10  C   UNL     1      15.614  15.575  36.811  1.00  0.00     0.012 C 
ENDBRANCH   5   8
TORSDOF 1
ENDMDL
MODEL 8
REMARK VINA RESULT:    -4.038     13.149     14.277
REMARK INTER + INTRA:          -4.429
REMARK INTER:                  -4.283
REMARK INTRA:                  -0.146
REMARK UNBOUND:                -0.155
REMARK SMILES CC1=CCC(C(C)C)=CC1
REMARK SMILES IDX 1 1 2 2 3 3 4 4 5 5 9 6 10 7 6 8 7 9 8 10
REMARK H PARENT
REMARK Flexibility Score: inf
ROOT
ATOM      1  C   UNL     1       7.437  18.598  22.146  1.00  0.00     0.039 C 
ATOM      2  C   UNL     1       8.062  19.141  23.400  1.00  0.00    -0.073 C 
ATOM      3  C   UNL     1       9.402  19.250  23.490  1.00  0.00    -0.023 C 
ATOM      4  C   UNL     1      10.051  19.837  24.717  1.00  0.00     0.058 C 
ATOM      5  C   UNL     1       9.238  19.555  25.967  1.00  0.00    -0.068 C 
ATOM      6  C   UNL     1       7.894  19.448  25.872  1.00  0.00    -0.023 C 
ATOM      7  C   UNL     1       7.193  19.610  24.547  1.00  0.00     0.057 C 
ENDROOT
BRANCH   5   8
ATOM      8  C   UNL     1       9.948  19.441  27.307  1.00  0.00     0.009 C 
ATOM      9  C   UNL     1      10.371  20.819  27.829  1.00  0.00     0.012 C 
ATOM     10  C   UNL     1      11.146  18.488  27.228  1.00  0.00     0.012 C 
ENDBRANCH   5   8
TORSDOF 1
ENDMDL
MODEL 9
REMARK VINA RESULT:    -4.006     15.664     16.821
REMARK INTER + INTRA:          -4.395
REMARK INTER:                  -4.260
REMARK INTRA:                  -0.135
REMARK UNBOUND:                -0.155
REMARK SMILES CC1=CCC(C(C)C)=CC1
REMARK SMILES IDX 1 1 2 2 3 3 4 4 5 5 9 6 10 7 6 8 7 9 8 10
REMARK H PARENT
REMARK Flexibility Score: inf
ROOT
ATOM      1  C   UNL     1       3.735  19.556  21.231  1.00  0.00     0.039 C 
ATOM      2  C   UNL     1       4.989  19.596  22.058  1.00  0.00    -0.073 C 
ATOM      3  C   UNL     1       5.748  18.490  22.180  1.00  0.00    -0.023 C 
ATOM      4  C   UNL     1       7.036  18.518  22.963  1.00  0.00     0.058 C 
ATOM      5  C   UNL     1       6.971  19.510  24.109  1.00  0.00    -0.068 C 
ATOM      6  C   UNL     1       6.209  20.619  23.981  1.00  0.00    -0.023 C 
ATOM      7  C   UNL     1       5.428  20.885  22.719  1.00  0.00     0.057 C 
ENDROOT
BRANCH   5   8
ATOM      8  C   UNL     1       7.798  19.259  25.360  1.00  0.00     0.009 C 
ATOM      9  C   UNL     1       7.180  19.952  26.581  1.00  0.00     0.012 C 
ATOM     10  C   UNL     1       9.258  19.686  25.163  1.00  0.00     0.012 C 
ENDBRANCH   5   8
TORSDOF 1
ENDMDL
