MODEL 1
REMARK VINA RESULT:    -4.661      0.000      0.000
REMARK INTER + INTRA:          -5.373
REMARK INTER:                  -5.070
REMARK INTRA:                  -0.303
REMARK UNBOUND:                -0.303
REMARK SMILES CC(=O)c1cc(C)ccc1O
REMARK SMILES IDX 7 1 6 2 5 3 4 4 10 5 9 6 8 7 2 8 3 9 1 10 11 11
REMARK H PARENT 11 12
REMARK Flexibility Score: inf
ROOT
ATOM      1  C   UNL     1     -16.635  16.932  40.871  1.00  0.00     0.044 C 
ATOM      2  C   UNL     1     -17.078  17.877  41.949  1.00  0.00    -0.050 A 
ATOM      3  C   UNL     1     -17.869  18.991  41.631  1.00  0.00     0.019 A 
ATOM      4  C   UNL     1     -18.271  19.903  42.625  1.00  0.00     0.059 A 
ATOM      5  C   UNL     1     -17.833  19.700  43.955  1.00  0.00     0.126 A 
ATOM      6  C   UNL     1     -17.032  18.590  44.264  1.00  0.00     0.047 A 
ATOM      7  C   UNL     1     -16.652  17.689  43.269  1.00  0.00     0.007 A 
ENDROOT
BRANCH   4   8
ATOM      8  C   UNL     1     -19.128  21.054  42.236  1.00  0.00     0.163 C 
ATOM      9  O   UNL     1     -18.854  22.205  42.673  1.00  0.00    -0.294 OA
ATOM     10  C   UNL     1     -20.317  20.904  41.335  1.00  0.00     0.093 C 
ENDBRANCH   4   8
BRANCH   5  11
ATOM     11  O   UNL     1     -18.163  20.603  44.964  1.00  0.00    -0.507 OA
ATOM     12  H   UNL     1     -18.693  21.445  44.774  1.00  0.00     0.293 HD
ENDBRANCH   5  11
TORSDOF 2
ENDMDL
MODEL 2
REMARK VINA RESULT:    -4.620      1.936      3.759
REMARK INTER + INTRA:          -5.328
REMARK INTER:                  -5.091
REMARK INTRA:                  -0.237
REMARK UNBOUND:                -0.303
REMARK SMILES CC(=O)c1cc(C)ccc1O
REMARK SMILES IDX 7 1 6 2 5 3 4 4 10 5 9 6 8 7 2 8 3 9 1 10 11 11
REMARK H PARENT 11 12
REMARK Flexibility Score: inf
ROOT
ATOM      1  C   UNL     1     -19.069  21.888  41.037  1.00  0.00     0.044 C 
ATOM      2  C   UNL     1     -18.427  20.923  41.990  1.00  0.00    -0.050 A 
ATOM      3  C   UNL     1     -17.968  19.679  41.533  1.00  0.00     0.019 A 
ATOM      4  C   UNL     1     -17.388  18.750  42.417  1.00  0.00     0.059 A 
ATOM      5  C   UNL     1     -17.308  19.075  43.792  1.00  0.00     0.126 A 
ATOM      6  C   UNL     1     -17.781  20.316  44.245  1.00  0.00     0.047 A 
ATOM      7  C   UNL     1     -18.341  21.230  43.353  1.00  0.00     0.007 A 
ENDROOT
BRANCH   4   8
ATOM      8  C   UNL     1     -16.896  17.455  41.875  1.00  0.00     0.163 C 
ATOM      9  O   UNL     1     -16.785  16.464  42.646  1.00  0.00    -0.294 OA
ATOM     10  C   UNL     1     -16.525  17.276  40.434  1.00  0.00     0.093 C 
ENDBRANCH   4   8
BRANCH   5  11
ATOM     11  O   UNL     1     -16.788  18.167  44.714  1.00  0.00    -0.507 OA
ATOM     12  H   UNL     1     -17.279  17.316  44.959  1.00  0.00     0.293 HD
ENDBRANCH   5  11
TORSDOF 2
ENDMDL
MODEL 3
REMARK VINA RESULT:    -4.196     14.716     15.336
REMARK INTER + INTRA:          -4.867
REMARK INTER:                  -4.604
REMARK INTRA:                  -0.263
REMARK UNBOUND:                -0.303
REMARK SMILES CC(=O)c1cc(C)ccc1O
REMARK SMILES IDX 7 1 6 2 5 3 4 4 10 5 9 6 8 7 2 8 3 9 1 10 11 11
REMARK H PARENT 11 12
REMARK Flexibility Score: inf
ROOT
ATOM      1  C   UNL     1      -9.413  28.001  44.251  1.00  0.00     0.044 C 
ATOM      2  C   UNL     1      -8.163  28.077  45.079  1.00  0.00    -0.050 A 
ATOM      3  C   UNL     1      -7.737  29.306  45.603  1.00  0.00     0.019 A 
ATOM      4  C   UNL     1      -6.553  29.402  46.358  1.00  0.00     0.059 A 
ATOM      5  C   UNL     1      -5.772  28.238  46.551  1.00  0.00     0.126 A 
ATOM      6  C   UNL     1      -6.197  27.014  46.013  1.00  0.00     0.047 A 
ATOM      7  C   UNL     1      -7.380  26.934  45.278  1.00  0.00     0.007 A 
ENDROOT
BRANCH   4   8
ATOM      8  C   UNL     1      -6.161  30.725  46.911  1.00  0.00     0.163 C 
ATOM      9  O   UNL     1      -4.944  30.964  47.138  1.00  0.00    -0.294 OA
ATOM     10  C   UNL     1      -7.161  31.801  47.211  1.00  0.00     0.093 C 
ENDBRANCH   4   8
BRANCH   5  11
ATOM     11  O   UNL     1      -4.566  28.292  47.249  1.00  0.00    -0.507 OA
ATOM     12  H   UNL     1      -4.516  28.634  48.201  1.00  0.00     0.293 HD
ENDBRANCH   5  11
TORSDOF 2
ENDMDL
MODEL 4
REMARK VINA RESULT:    -4.078     14.282     15.097
REMARK INTER + INTRA:          -4.738
REMARK INTER:                  -4.438
REMARK INTRA:                  -0.300
REMARK UNBOUND:                -0.303
REMARK SMILES CC(=O)c1cc(C)ccc1O
REMARK SMILES IDX 7 1 6 2 5 3 4 4 10 5 9 6 8 7 2 8 3 9 1 10 11 11
REMARK H PARENT 11 12
REMARK Flexibility Score: inf
ROOT
ATOM      1  C   UNL     1      -9.504  28.774  43.351  1.00  0.00     0.044 C 
ATOM      2  C   UNL     1      -8.652  29.158  44.525  1.00  0.00    -0.050 A 
ATOM      3  C   UNL     1      -7.591  28.333  44.928  1.00  0.00     0.019 A 
ATOM      4  C   UNL     1      -6.798  28.663  46.044  1.00  0.00     0.059 A 
ATOM      5  C   UNL     1      -7.112  29.828  46.782  1.00  0.00     0.126 A 
ATOM      6  C   UNL     1      -8.182  30.642  46.381  1.00  0.00     0.047 A 
ATOM      7  C   UNL     1      -8.950  30.307  45.266  1.00  0.00     0.007 A 
ENDROOT
BRANCH   4   8
ATOM      8  C   UNL     1      -5.672  27.765  46.412  1.00  0.00     0.163 C 
ATOM      9  O   UNL     1      -4.581  28.267  46.797  1.00  0.00    -0.294 OA
ATOM     10  C   UNL     1      -5.779  26.271  46.347  1.00  0.00     0.093 C 
ENDBRANCH   4   8
BRANCH   5  11
ATOM     11  O   UNL     1      -6.388  30.170  47.924  1.00  0.00    -0.507 OA
ATOM     12  H   UNL     1      -5.385  30.312  47.896  1.00  0.00     0.293 HD
ENDBRANCH   5  11
TORSDOF 2
ENDMDL
MODEL 5
REMARK VINA RESULT:    -3.989     14.546     15.242
REMARK INTER + INTRA:          -4.642
REMARK INTER:                  -4.376
REMARK INTRA:                  -0.266
REMARK UNBOUND:                -0.303
REMARK SMILES CC(=O)c1cc(C)ccc1O
REMARK SMILES IDX 7 1 6 2 5 3 4 4 10 5 9 6 8 7 2 8 3 9 1 10 11 11
REMARK H PARENT 11 12
REMARK Flexibility Score: inf
ROOT
ATOM      1  C   UNL     1      -6.099  26.341  45.930  1.00  0.00     0.044 C 
ATOM      2  C   UNL     1      -6.888  27.606  45.755  1.00  0.00    -0.050 A 
ATOM      3  C   UNL     1      -6.463  28.794  46.369  1.00  0.00     0.019 A 
ATOM      4  C   UNL     1      -7.205  29.983  46.239  1.00  0.00     0.059 A 
ATOM      5  C   UNL     1      -8.415  29.955  45.506  1.00  0.00     0.126 A 
ATOM      6  C   UNL     1      -8.841  28.760  44.906  1.00  0.00     0.047 A 
ATOM      7  C   UNL     1      -8.087  27.594  45.034  1.00  0.00     0.007 A 
ENDROOT
BRANCH   4   8
ATOM      8  C   UNL     1      -6.697  31.219  46.890  1.00  0.00     0.163 C 
ATOM      9  O   UNL     1      -7.513  32.118  47.233  1.00  0.00    -0.294 OA
ATOM     10  C   UNL     1      -5.240  31.445  47.162  1.00  0.00     0.093 C 
ENDBRANCH   4   8
BRANCH   5  11
ATOM     11  O   UNL     1      -9.210  31.095  45.392  1.00  0.00    -0.507 OA
ATOM     12  H   UNL     1      -9.418  31.512  44.492  1.00  0.00     0.293 HD
ENDBRANCH   5  11
TORSDOF 2
ENDMDL
MODEL 6
REMARK VINA RESULT:    -3.946     13.841     14.477
REMARK INTER + INTRA:          -4.595
REMARK INTER:                  -4.306
REMARK INTRA:                  -0.288
REMARK UNBOUND:                -0.303
REMARK SMILES CC(=O)c1cc(C)ccc1O
REMARK SMILES IDX 7 1 6 2 5 3 4 4 10 5 9 6 8 7 2 8 3 9 1 10 11 11
REMARK H PARENT 11 12
REMARK Flexibility Score: inf
ROOT
ATOM      1  C   UNL     1      -5.181  27.610  46.545  1.00  0.00     0.044 C 
ATOM      2  C   UNL     1      -6.301  28.575  46.283  1.00  0.00    -0.050 A 
ATOM      3  C   UNL     1      -7.254  28.298  45.292  1.00  0.00     0.019 A 
ATOM      4  C   UNL     1      -8.295  29.204  45.014  1.00  0.00     0.059 A 
ATOM      5  C   UNL     1      -8.347  30.424  45.728  1.00  0.00     0.126 A 
ATOM      6  C   UNL     1      -7.383  30.700  46.709  1.00  0.00     0.047 A 
ATOM      7  C   UNL     1      -6.365  29.786  46.982  1.00  0.00     0.007 A 
ENDROOT
BRANCH   4   8
ATOM      8  C   UNL     1      -9.292  28.850  43.969  1.00  0.00     0.163 C 
ATOM      9  O   UNL     1      -9.390  29.570  42.938  1.00  0.00    -0.294 OA
ATOM     10  C   UNL     1     -10.194  27.659  44.087  1.00  0.00     0.093 C 
ENDBRANCH   4   8
BRANCH   5  11
ATOM     11  O   UNL     1      -9.329  31.374  45.453  1.00  0.00    -0.507 OA
ATOM     12  H   UNL     1      -9.279  32.316  45.825  1.00  0.00     0.293 HD
ENDBRANCH   5  11
TORSDOF 2
ENDMDL
MODEL 7
REMARK VINA RESULT:    -3.918     13.683     14.392
REMARK INTER + INTRA:          -4.565
REMARK INTER:                  -4.259
REMARK INTRA:                  -0.306
REMARK UNBOUND:                -0.303
REMARK SMILES CC(=O)c1cc(C)ccc1O
REMARK SMILES IDX 7 1 6 2 5 3 4 4 10 5 9 6 8 7 2 8 3 9 1 10 11 11
REMARK H PARENT 11 12
REMARK Flexibility Score: inf
ROOT
ATOM      1  C   UNL     1      -7.468  31.460  46.963  1.00  0.00     0.044 C 
ATOM      2  C   UNL     1      -7.193  30.079  46.444  1.00  0.00    -0.050 A 
ATOM      3  C   UNL     1      -8.066  29.485  45.520  1.00  0.00     0.019 A 
ATOM      4  C   UNL     1      -7.840  28.180  45.044  1.00  0.00     0.059 A 
ATOM      5  C   UNL     1      -6.731  27.455  45.541  1.00  0.00     0.126 A 
ATOM      6  C   UNL     1      -5.870  28.050  46.474  1.00  0.00     0.047 A 
ATOM      7  C   UNL     1      -6.101  29.349  46.927  1.00  0.00     0.007 A 
ENDROOT
BRANCH   4   8
ATOM      8  C   UNL     1      -8.784  27.607  44.047  1.00  0.00     0.163 C 
ATOM      9  O   UNL     1      -8.327  27.045  43.015  1.00  0.00    -0.294 OA
ATOM     10  C   UNL     1     -10.272  27.670  44.220  1.00  0.00     0.093 C 
ENDBRANCH   4   8
BRANCH   5  11
ATOM     11  O   UNL     1      -6.494  26.142  45.137  1.00  0.00    -0.507 OA
ATOM     12  H   UNL     1      -5.594  25.697  45.272  1.00  0.00     0.293 HD
ENDBRANCH   5  11
TORSDOF 2
ENDMDL
MODEL 8
REMARK VINA RESULT:    -3.907     16.873     17.708
REMARK INTER + INTRA:          -4.552
REMARK INTER:                  -4.273
REMARK INTRA:                  -0.279
REMARK UNBOUND:                -0.303
REMARK SMILES CC(=O)c1cc(C)ccc1O
REMARK SMILES IDX 7 1 6 2 5 3 4 4 10 5 9 6 8 7 2 8 3 9 1 10 11 11
REMARK H PARENT 11 12
REMARK Flexibility Score: inf
ROOT
ATOM      1  C   UNL     1      -9.128  33.973  44.574  1.00  0.00     0.044 C 
ATOM      2  C   UNL     1      -8.452  33.004  45.500  1.00  0.00    -0.050 A 
ATOM      3  C   UNL     1      -7.563  33.468  46.481  1.00  0.00     0.019 A 
ATOM      4  C   UNL     1      -6.898  32.572  47.340  1.00  0.00     0.059 A 
ATOM      5  C   UNL     1      -7.112  31.184  47.174  1.00  0.00     0.126 A 
ATOM      6  C   UNL     1      -7.992  30.726  46.182  1.00  0.00     0.047 A 
ATOM      7  C   UNL     1      -8.652  31.627  45.347  1.00  0.00     0.007 A 
ENDROOT
BRANCH   4   8
ATOM      8  C   UNL     1      -5.986  33.120  48.378  1.00  0.00     0.163 C 
ATOM      9  O   UNL     1      -4.751  32.872  48.310  1.00  0.00    -0.294 OA
ATOM     10  C   UNL     1      -6.475  33.966  49.515  1.00  0.00     0.093 C 
ENDBRANCH   4   8
BRANCH   5  11
ATOM     11  O   UNL     1      -6.438  30.255  47.967  1.00  0.00    -0.507 OA
ATOM     12  H   UNL     1      -6.207  29.331  47.625  1.00  0.00     0.293 HD
ENDBRANCH   5  11
TORSDOF 2
ENDMDL
MODEL 9
REMARK VINA RESULT:    -3.826     14.518     15.506
REMARK INTER + INTRA:          -4.465
REMARK INTER:                  -4.199
REMARK INTRA:                  -0.267
REMARK UNBOUND:                -0.303
REMARK SMILES CC(=O)c1cc(C)ccc1O
REMARK SMILES IDX 7 1 6 2 5 3 4 4 10 5 9 6 8 7 2 8 3 9 1 10 11 11
REMARK H PARENT 11 12
REMARK Flexibility Score: inf
ROOT
ATOM      1  C   UNL     1      -6.066  31.748  47.710  1.00  0.00     0.044 C 
ATOM      2  C   UNL     1      -6.730  30.639  46.947  1.00  0.00    -0.050 A 
ATOM      3  C   UNL     1      -6.094  29.396  46.812  1.00  0.00     0.019 A 
ATOM      4  C   UNL     1      -6.689  28.353  46.077  1.00  0.00     0.059 A 
ATOM      5  C   UNL     1      -7.930  28.589  45.440  1.00  0.00     0.126 A 
ATOM      6  C   UNL     1      -8.554  29.839  45.568  1.00  0.00     0.047 A 
ATOM      7  C   UNL     1      -7.957  30.858  46.311  1.00  0.00     0.007 A 
ENDROOT
BRANCH   4   8
ATOM      8  C   UNL     1      -5.982  27.048  45.986  1.00  0.00     0.163 C 
ATOM      9  O   UNL     1      -6.502  26.025  46.510  1.00  0.00    -0.294 OA
ATOM     10  C   UNL     1      -4.665  26.893  45.287  1.00  0.00     0.093 C 
ENDBRANCH   4   8
BRANCH   5  11
ATOM     11  O   UNL     1      -8.534  27.604  44.659  1.00  0.00    -0.507 OA
ATOM     12  H   UNL     1      -8.165  26.662  44.611  1.00  0.00     0.293 HD
ENDBRANCH   5  11
TORSDOF 2
ENDMDL
