MODEL 1
REMARK VINA RESULT:    -1.048      0.000      0.000
REMARK INTER + INTRA:          -2.186
REMARK INTER:                  -1.416
REMARK INTRA:                  -0.770
REMARK UNBOUND:                -0.770
REMARK SMILES CC[C@H](CC[C@@H](C)[C@@H]1CC[C@@H]2[C@H]3CC(=O)C4=CC(=O)CC[C@]4(C)[C@H]3CC[C@]21C)C(C)C
REMARK SMILES IDX 4 1 3 2 2 3 1 4 29 5 30 6 31 7 5 8 6 9 7 10 8 11 9 12 27 13
REMARK SMILES IDX 10 14 11 15 26 16 28 17 12 18 25 19 24 20 13 21 22 22 14 23
REMARK SMILES IDX 16 24 21 25 23 26 15 27 17 28 20 29 18 30 19 31
REMARK H PARENT
REMARK Flexibility Score: inf
ROOT
ATOM      1  C   UNL     1     -23.284  12.192 -29.757  1.00  0.00     0.004 C 
ENDROOT
BRANCH   1   2
ATOM      2  C   UNL     1     -24.542  12.858 -29.129  1.00  0.00    -0.009 C 
BRANCH   2   3
ATOM      3  C   UNL     1     -25.238  13.773 -30.180  1.00  0.00     0.000 C 
ATOM      4  C   UNL     1     -26.441  14.535 -29.620  1.00  0.00     0.004 C 
ENDBRANCH   2   3
BRANCH   2   5
ATOM      5  C   UNL     1     -25.534  11.819 -28.494  1.00  0.00    -0.014 C 
ATOM      6  C   UNL     1     -24.892  10.947 -27.401  1.00  0.00     0.007 C 
ATOM      7  C   UNL     1     -26.217  10.929 -29.546  1.00  0.00     0.007 C 
ENDBRANCH   2   5
ENDBRANCH   1   2
BRANCH   1   8
ATOM      8  C   UNL     1     -21.950  12.648 -29.135  1.00  0.00     0.004 C 
BRANCH   8   9
ATOM      9  C   UNL     1     -21.144  13.565 -30.104  1.00  0.00    -0.011 C 
ATOM     10  C   UNL     1     -21.748  14.977 -30.141  1.00  0.00     0.008 C 
BRANCH   9  11
ATOM     11  C   UNL     1     -19.586  13.591 -29.923  1.00  0.00    -0.002 C 
ATOM     12  C   UNL     1     -18.828  14.195 -31.138  1.00  0.00     0.005 C 
ATOM     13  C   UNL     1     -18.780  12.312 -29.532  1.00  0.00    -0.026 C 
ATOM     14  C   UNL     1     -17.471  13.482 -31.214  1.00  0.00     0.005 C 
ATOM     15  C   UNL     1     -17.349  12.789 -29.862  1.00  0.00    -0.001 C 
ATOM     16  C   UNL     1     -18.800  11.946 -28.027  1.00  0.00     0.007 C 
ATOM     17  C   UNL     1     -19.232  11.082 -30.376  1.00  0.00     0.012 C 
ATOM     18  C   UNL     1     -16.285  11.688 -29.672  1.00  0.00     0.004 C 
ATOM     19  C   UNL     1     -17.732  10.875 -27.669  1.00  0.00     0.005 C 
ATOM     20  C   UNL     1     -16.281  11.165 -28.186  1.00  0.00     0.003 C 
ATOM     21  C   UNL     1     -14.887  12.099 -30.163  1.00  0.00     0.085 C 
ATOM     22  C   UNL     1     -15.366  11.938 -27.126  1.00  0.00    -0.000 C 
ATOM     23  C   UNL     1     -14.198  12.974 -29.180  1.00  0.00     0.159 C 
ATOM     24  C   UNL     1     -14.119  12.526 -27.786  1.00  0.00     0.005 C 
ATOM     25  C   UNL     1     -14.916  10.917 -26.026  1.00  0.00     0.020 C 
ATOM     26  C   UNL     1     -16.098  13.118 -26.436  1.00  0.00     0.017 C 
ATOM     27  O   UNL     1     -13.626  14.035 -29.557  1.00  0.00    -0.295 OA
ATOM     28  C   UNL     1     -12.972  12.710 -27.104  1.00  0.00     0.055 C 
ATOM     29  C   UNL     1     -13.909  11.501 -25.024  1.00  0.00     0.081 C 
ATOM     30  C   UNL     1     -12.795  12.208 -25.732  1.00  0.00     0.156 C 
ATOM     31  O   UNL     1     -11.693  12.382 -25.148  1.00  0.00    -0.295 OA
ENDBRANCH   9  11
ENDBRANCH   8   9
ENDBRANCH   1   8
TORSDOF 6
ENDMDL
MODEL 2
REMARK VINA RESULT:    -1.038      2.132      4.228
REMARK INTER + INTRA:          -2.172
REMARK INTER:                  -1.646
REMARK INTRA:                  -0.526
REMARK UNBOUND:                -0.770
REMARK SMILES CC[C@H](CC[C@@H](C)[C@@H]1CC[C@@H]2[C@H]3CC(=O)C4=CC(=O)CC[C@]4(C)[C@H]3CC[C@]21C)C(C)C
REMARK SMILES IDX 4 1 3 2 2 3 1 4 29 5 30 6 31 7 5 8 6 9 7 10 8 11 9 12 27 13
REMARK SMILES IDX 10 14 11 15 26 16 28 17 12 18 25 19 24 20 13 21 22 22 14 23
REMARK SMILES IDX 16 24 21 25 23 26 15 27 17 28 20 29 18 30 19 31
REMARK H PARENT
REMARK Flexibility Score: inf
ROOT
ATOM      1  C   UNL     1     -22.616  13.018 -29.445  1.00  0.00     0.004 C 
ENDROOT
BRANCH   1   2
ATOM      2  C   UNL     1     -23.877  12.125 -29.627  1.00  0.00    -0.009 C 
BRANCH   2   3
ATOM      3  C   UNL     1     -23.871  10.978 -28.574  1.00  0.00     0.000 C 
ATOM      4  C   UNL     1     -25.112  10.969 -27.678  1.00  0.00     0.004 C 
ENDBRANCH   2   3
BRANCH   2   5
ATOM      5  C   UNL     1     -25.217  12.946 -29.607  1.00  0.00    -0.014 C 
ATOM      6  C   UNL     1     -26.215  12.518 -30.695  1.00  0.00     0.007 C 
ATOM      7  C   UNL     1     -24.985  14.464 -29.669  1.00  0.00     0.007 C 
ENDBRANCH   2   5
ENDBRANCH   1   2
BRANCH   1   8
ATOM      8  C   UNL     1     -21.291  12.325 -29.818  1.00  0.00     0.004 C 
BRANCH   8   9
ATOM      9  C   UNL     1     -20.404  12.061 -28.563  1.00  0.00    -0.011 C 
ATOM     10  C   UNL     1     -20.961  10.888 -27.742  1.00  0.00     0.008 C 
BRANCH   9  11
ATOM     11  C   UNL     1     -18.859  11.937 -28.801  1.00  0.00    -0.002 C 
ATOM     12  C   UNL     1     -18.172  10.875 -27.898  1.00  0.00     0.005 C 
ATOM     13  C   UNL     1     -17.916  13.182 -28.758  1.00  0.00    -0.026 C 
ATOM     14  C   UNL     1     -16.745  11.372 -27.633  1.00  0.00     0.005 C 
ATOM     15  C   UNL     1     -16.547  12.474 -28.667  1.00  0.00    -0.001 C 
ATOM     16  C   UNL     1     -17.895  14.046 -30.043  1.00  0.00     0.007 C 
ATOM     17  C   UNL     1     -18.229  14.083 -27.526  1.00  0.00     0.012 C 
ATOM     18  C   UNL     1     -15.367  13.455 -28.507  1.00  0.00     0.004 C 
ATOM     19  C   UNL     1     -16.715  15.058 -30.051  1.00  0.00     0.005 C 
ATOM     20  C   UNL     1     -15.305  14.457 -29.721  1.00  0.00     0.003 C 
ATOM     21  C   UNL     1     -14.023  12.756 -28.241  1.00  0.00     0.085 C 
ATOM     22  C   UNL     1     -14.481  14.009 -31.016  1.00  0.00    -0.000 C 
ATOM     23  C   UNL     1     -13.435  12.209 -29.490  1.00  0.00     0.159 C 
ATOM     24  C   UNL     1     -13.307  13.102 -30.647  1.00  0.00     0.005 C 
ATOM     25  C   UNL     1     -13.920  15.294 -31.714  1.00  0.00     0.020 C 
ATOM     26  C   UNL     1     -15.339  13.224 -32.042  1.00  0.00     0.017 C 
ATOM     27  O   UNL     1     -12.985  11.030 -29.524  1.00  0.00    -0.295 OA
ATOM     28  C   UNL     1     -12.187  13.048 -31.393  1.00  0.00     0.055 C 
ATOM     29  C   UNL     1     -12.984  14.993 -32.893  1.00  0.00     0.081 C 
ATOM     30  C   UNL     1     -11.955  13.972 -32.515  1.00  0.00     0.156 C 
ATOM     31  O   UNL     1     -10.879  13.898 -33.165  1.00  0.00    -0.295 OA
ENDBRANCH   9  11
ENDBRANCH   8   9
ENDBRANCH   1   8
TORSDOF 6
ENDMDL
MODEL 3
REMARK VINA RESULT:    -0.975      3.133      9.060
REMARK INTER + INTRA:          -2.086
REMARK INTER:                  -0.886
REMARK INTRA:                  -1.200
REMARK UNBOUND:                -0.770
REMARK SMILES CC[C@H](CC[C@@H](C)[C@@H]1CC[C@@H]2[C@H]3CC(=O)C4=CC(=O)CC[C@]4(C)[C@H]3CC[C@]21C)C(C)C
REMARK SMILES IDX 4 1 3 2 2 3 1 4 29 5 30 6 31 7 5 8 6 9 7 10 8 11 9 12 27 13
REMARK SMILES IDX 10 14 11 15 26 16 28 17 12 18 25 19 24 20 13 21 22 22 14 23
REMARK SMILES IDX 16 24 21 25 23 26 15 27 17 28 20 29 18 30 19 31
REMARK H PARENT
REMARK Flexibility Score: inf
ROOT
ATOM      1  C   UNL     1     -13.282  15.398 -29.561  1.00  0.00     0.004 C 
ENDROOT
BRANCH   1   2
ATOM      2  C   UNL     1     -11.939  15.133 -30.303  1.00  0.00    -0.009 C 
BRANCH   2   3
ATOM      3  C   UNL     1     -11.208  13.919 -29.660  1.00  0.00     0.000 C 
ATOM      4  C   UNL     1     -11.164  12.686 -30.567  1.00  0.00     0.004 C 
ENDBRANCH   2   3
BRANCH   2   5
ATOM      5  C   UNL     1     -12.120  14.968 -31.855  1.00  0.00    -0.014 C 
ATOM      6  C   UNL     1     -11.106  15.777 -32.681  1.00  0.00     0.007 C 
ATOM      7  C   UNL     1     -13.551  15.278 -32.324  1.00  0.00     0.007 C 
ENDBRANCH   2   5
ENDBRANCH   1   2
BRANCH   1   8
ATOM      8  C   UNL     1     -13.305  14.903 -28.102  1.00  0.00     0.004 C 
BRANCH   8   9
ATOM      9  C   UNL     1     -13.610  13.377 -28.014  1.00  0.00    -0.011 C 
ATOM     10  C   UNL     1     -12.858  12.740 -26.836  1.00  0.00     0.008 C 
BRANCH   9  11
ATOM     11  C   UNL     1     -15.120  12.952 -28.053  1.00  0.00    -0.002 C 
ATOM     12  C   UNL     1     -15.394  11.566 -27.405  1.00  0.00     0.005 C 
ATOM     13  C   UNL     1     -15.943  12.953 -29.380  1.00  0.00    -0.026 C 
ATOM     14  C   UNL     1     -16.581  10.951 -28.158  1.00  0.00     0.005 C 
ATOM     15  C   UNL     1     -17.166  12.124 -28.934  1.00  0.00    -0.001 C 
ATOM     16  C   UNL     1     -16.473  14.336 -29.834  1.00  0.00     0.007 C 
ATOM     17  C   UNL     1     -15.139  12.293 -30.541  1.00  0.00     0.012 C 
ATOM     18  C   UNL     1     -18.162  11.849 -30.080  1.00  0.00     0.004 C 
ATOM     19  C   UNL     1     -17.536  14.215 -30.961  1.00  0.00     0.005 C 
ATOM     20  C   UNL     1     -18.698  13.198 -30.691  1.00  0.00     0.003 C 
ATOM     21  C   UNL     1     -19.291  10.880 -29.689  1.00  0.00     0.085 C 
ATOM     22  C   UNL     1     -19.987  13.862 -30.015  1.00  0.00    -0.000 C 
ATOM     23  C   UNL     1     -20.346  11.563 -28.898  1.00  0.00     0.159 C 
ATOM     24  C   UNL     1     -20.922  12.803 -29.432  1.00  0.00     0.005 C 
ATOM     25  C   UNL     1     -20.763  14.664 -31.114  1.00  0.00     0.020 C 
ATOM     26  C   UNL     1     -19.635  14.828 -28.853  1.00  0.00     0.017 C 
ATOM     27  O   UNL     1     -20.790  11.042 -27.838  1.00  0.00    -0.295 OA
ATOM     28  C   UNL     1     -22.249  13.004 -29.329  1.00  0.00     0.055 C 
ATOM     29  C   UNL     1     -22.104  15.231 -30.626  1.00  0.00     0.081 C 
ATOM     30  C   UNL     1     -22.904  14.183 -29.917  1.00  0.00     0.156 C 
ATOM     31  O   UNL     1     -24.154  14.312 -29.816  1.00  0.00    -0.295 OA
ENDBRANCH   9  11
ENDBRANCH   8   9
ENDBRANCH   1   8
TORSDOF 6
ENDMDL
MODEL 4
REMARK VINA RESULT:    -0.148      2.322      3.382
REMARK INTER + INTRA:          -0.970
REMARK INTER:                  -0.298
REMARK INTRA:                  -0.672
REMARK UNBOUND:                -0.770
REMARK SMILES CC[C@H](CC[C@@H](C)[C@@H]1CC[C@@H]2[C@H]3CC(=O)C4=CC(=O)CC[C@]4(C)[C@H]3CC[C@]21C)C(C)C
REMARK SMILES IDX 4 1 3 2 2 3 1 4 29 5 30 6 31 7 5 8 6 9 7 10 8 11 9 12 27 13
REMARK SMILES IDX 10 14 11 15 26 16 28 17 12 18 25 19 24 20 13 21 22 22 14 23
REMARK SMILES IDX 16 24 21 25 23 26 15 27 17 28 20 29 18 30 19 31
REMARK H PARENT
REMARK Flexibility Score: inf
ROOT
ATOM      1  C   UNL     1     -23.268  14.991 -30.528  1.00  0.00     0.004 C 
ENDROOT
BRANCH   1   2
ATOM      2  C   UNL     1     -24.710  15.424 -30.134  1.00  0.00    -0.009 C 
BRANCH   2   3
ATOM      3  C   UNL     1     -25.093  16.736 -30.879  1.00  0.00     0.000 C 
ATOM      4  C   UNL     1     -23.881  17.529 -31.374  1.00  0.00     0.004 C 
ENDBRANCH   2   3
BRANCH   2   5
ATOM      5  C   UNL     1     -25.771  14.285 -30.347  1.00  0.00    -0.014 C 
ATOM      6  C   UNL     1     -27.225  14.768 -30.212  1.00  0.00     0.007 C 
ATOM      7  C   UNL     1     -25.531  13.070 -29.437  1.00  0.00     0.007 C 
ENDBRANCH   2   5
ENDBRANCH   1   2
BRANCH   1   8
ATOM      8  C   UNL     1     -22.220  15.198 -29.418  1.00  0.00     0.004 C 
BRANCH   8   9
ATOM      9  C   UNL     1     -21.334  13.931 -29.218  1.00  0.00    -0.011 C 
ATOM     10  C   UNL     1     -22.147  12.654 -29.477  1.00  0.00     0.008 C 
BRANCH   9  11
ATOM     11  C   UNL     1     -19.949  13.911 -29.953  1.00  0.00    -0.002 C 
ATOM     12  C   UNL     1     -20.013  13.318 -31.388  1.00  0.00     0.005 C 
ATOM     13  C   UNL     1     -18.679  13.273 -29.303  1.00  0.00    -0.026 C 
ATOM     14  C   UNL     1     -18.660  12.644 -31.651  1.00  0.00     0.005 C 
ATOM     15  C   UNL     1     -17.764  13.183 -30.543  1.00  0.00    -0.001 C 
ATOM     16  C   UNL     1     -17.948  14.157 -28.263  1.00  0.00     0.007 C 
ATOM     17  C   UNL     1     -19.006  11.885 -28.674  1.00  0.00     0.012 C 
ATOM     18  C   UNL     1     -16.419  12.484 -30.254  1.00  0.00     0.004 C 
ATOM     19  C   UNL     1     -16.540  13.602 -27.907  1.00  0.00     0.005 C 
ATOM     20  C   UNL     1     -15.624  13.248 -29.129  1.00  0.00     0.003 C 
ATOM     21  C   UNL     1     -15.577  12.234 -31.516  1.00  0.00     0.085 C 
ATOM     22  C   UNL     1     -14.663  14.445 -29.577  1.00  0.00    -0.000 C 
ATOM     23  C   UNL     1     -14.874  13.466 -31.956  1.00  0.00     0.159 C 
ATOM     24  C   UNL     1     -14.077  14.202 -30.968  1.00  0.00     0.005 C 
ATOM     25  C   UNL     1     -13.485  14.545 -28.549  1.00  0.00     0.020 C 
ATOM     26  C   UNL     1     -15.386  15.816 -29.636  1.00  0.00     0.017 C 
ATOM     27  O   UNL     1     -14.898  13.819 -33.167  1.00  0.00    -0.295 OA
ATOM     28  C   UNL     1     -12.883  14.705 -31.336  1.00  0.00     0.055 C 
ATOM     29  C   UNL     1     -12.409  15.564 -28.948  1.00  0.00     0.081 C 
ATOM     30  C   UNL     1     -11.995  15.379 -30.375  1.00  0.00     0.156 C 
ATOM     31  O   UNL     1     -10.876  15.808 -30.763  1.00  0.00    -0.295 OA
ENDBRANCH   9  11
ENDBRANCH   8   9
ENDBRANCH   1   8
TORSDOF 6
ENDMDL
MODEL 5
REMARK VINA RESULT:     0.328      1.596      2.593
REMARK INTER + INTRA:          -0.327
REMARK INTER:                  -0.031
REMARK INTRA:                  -0.295
REMARK UNBOUND:                -0.770
REMARK SMILES CC[C@H](CC[C@@H](C)[C@@H]1CC[C@@H]2[C@H]3CC(=O)C4=CC(=O)CC[C@]4(C)[C@H]3CC[C@]21C)C(C)C
REMARK SMILES IDX 4 1 3 2 2 3 1 4 29 5 30 6 31 7 5 8 6 9 7 10 8 11 9 12 27 13
REMARK SMILES IDX 10 14 11 15 26 16 28 17 12 18 25 19 24 20 13 21 22 22 14 23
REMARK SMILES IDX 16 24 21 25 23 26 15 27 17 28 20 29 18 30 19 31
REMARK H PARENT
REMARK Flexibility Score: inf
ROOT
ATOM      1  C   UNL     1     -22.880  15.656 -30.971  1.00  0.00     0.004 C 
ENDROOT
BRANCH   1   2
ATOM      2  C   UNL     1     -23.927  16.800 -30.841  1.00  0.00    -0.009 C 
BRANCH   2   3
ATOM      3  C   UNL     1     -23.671  17.880 -31.932  1.00  0.00     0.000 C 
ATOM      4  C   UNL     1     -23.749  19.313 -31.399  1.00  0.00     0.004 C 
ENDBRANCH   2   3
BRANCH   2   5
ATOM      5  C   UNL     1     -25.409  16.278 -30.854  1.00  0.00    -0.014 C 
ATOM      6  C   UNL     1     -26.446  17.369 -30.539  1.00  0.00     0.007 C 
ATOM      7  C   UNL     1     -25.621  15.066 -29.933  1.00  0.00     0.007 C 
ENDBRANCH   2   5
ENDBRANCH   1   2
BRANCH   1   8
ATOM      8  C   UNL     1     -21.919  15.540 -29.772  1.00  0.00     0.004 C 
BRANCH   8   9
ATOM      9  C   UNL     1     -21.423  14.076 -29.569  1.00  0.00    -0.011 C 
ATOM     10  C   UNL     1     -22.203  13.109 -30.473  1.00  0.00     0.008 C 
BRANCH   9  11
ATOM     11  C   UNL     1     -19.874  13.835 -29.641  1.00  0.00    -0.002 C 
ATOM     12  C   UNL     1     -19.264  14.122 -31.041  1.00  0.00     0.005 C 
ATOM     13  C   UNL     1     -19.227  12.491 -29.180  1.00  0.00    -0.026 C 
ATOM     14  C   UNL     1     -18.076  13.166 -31.212  1.00  0.00     0.005 C 
ATOM     15  C   UNL     1     -17.823  12.646 -29.803  1.00  0.00    -0.001 C 
ATOM     16  C   UNL     1     -19.031  12.336 -27.651  1.00  0.00     0.007 C 
ATOM     17  C   UNL     1     -20.016  11.266 -29.733  1.00  0.00     0.012 C 
ATOM     18  C   UNL     1     -16.932  11.402 -29.606  1.00  0.00     0.004 C 
ATOM     19  C   UNL     1     -18.102  11.142 -27.297  1.00  0.00     0.005 C 
ATOM     20  C   UNL     1     -16.742  11.086 -28.074  1.00  0.00     0.003 C 
ATOM     21  C   UNL     1     -15.599  11.477 -30.370  1.00  0.00     0.085 C 
ATOM     22  C   UNL     1     -15.537  11.808 -27.309  1.00  0.00    -0.000 C 
ATOM     23  C   UNL     1     -14.612  12.330 -29.661  1.00  0.00     0.159 C 
ATOM     24  C   UNL     1     -14.353  12.062 -28.242  1.00  0.00     0.005 C 
ATOM     25  C   UNL     1     -15.064  10.875 -26.143  1.00  0.00     0.020 C 
ATOM     26  C   UNL     1     -15.932  13.184 -26.712  1.00  0.00     0.017 C 
ATOM     27  O   UNL     1     -13.956  13.207 -30.289  1.00  0.00    -0.295 OA
ATOM     28  C   UNL     1     -13.087  12.117 -27.787  1.00  0.00     0.055 C 
ATOM     29  C   UNL     1     -13.811  11.387 -25.418  1.00  0.00     0.081 C 
ATOM     30  C   UNL     1     -12.746  11.776 -26.396  1.00  0.00     0.156 C 
ATOM     31  O   UNL     1     -11.542  11.817 -26.027  1.00  0.00    -0.295 OA
ENDBRANCH   9  11
ENDBRANCH   8   9
ENDBRANCH   1   8
TORSDOF 6
ENDMDL
MODEL 6
REMARK VINA RESULT:     1.196      1.767      3.501
REMARK INTER + INTRA:           0.846
REMARK INTER:                   0.808
REMARK INTRA:                   0.038
REMARK UNBOUND:                -0.770
REMARK SMILES CC[C@H](CC[C@@H](C)[C@@H]1CC[C@@H]2[C@H]3CC(=O)C4=CC(=O)CC[C@]4(C)[C@H]3CC[C@]21C)C(C)C
REMARK SMILES IDX 4 1 3 2 2 3 1 4 29 5 30 6 31 7 5 8 6 9 7 10 8 11 9 12 27 13
REMARK SMILES IDX 10 14 11 15 26 16 28 17 12 18 25 19 24 20 13 21 22 22 14 23
REMARK SMILES IDX 16 24 21 25 23 26 15 27 17 28 20 29 18 30 19 31
REMARK H PARENT
REMARK Flexibility Score: inf
ROOT
ATOM      1  C   UNL     1     -23.820  11.010 -29.741  1.00  0.00     0.004 C 
ENDROOT
BRANCH   1   2
ATOM      2  C   UNL     1     -24.990  11.835 -29.128  1.00  0.00    -0.009 C 
BRANCH   2   3
ATOM      3  C   UNL     1     -25.378  12.997 -30.087  1.00  0.00     0.000 C 
ATOM      4  C   UNL     1     -25.820  14.267 -29.355  1.00  0.00     0.004 C 
ENDBRANCH   2   3
BRANCH   2   5
ATOM      5  C   UNL     1     -26.225  10.947 -28.735  1.00  0.00    -0.014 C 
ATOM      6  C   UNL     1     -27.377  11.015 -29.752  1.00  0.00     0.007 C 
ATOM      7  C   UNL     1     -26.749  11.248 -27.322  1.00  0.00     0.007 C 
ENDBRANCH   2   5
ENDBRANCH   1   2
BRANCH   1   8
ATOM      8  C   UNL     1     -22.467  11.210 -29.032  1.00  0.00     0.004 C 
BRANCH   8   9
ATOM      9  C   UNL     1     -21.479  12.048 -29.898  1.00  0.00    -0.011 C 
ATOM     10  C   UNL     1     -21.909  13.522 -29.938  1.00  0.00     0.008 C 
BRANCH   9  11
ATOM     11  C   UNL     1     -19.949  11.885 -29.587  1.00  0.00    -0.002 C 
ATOM     12  C   UNL     1     -19.659  11.031 -28.321  1.00  0.00     0.005 C 
ATOM     13  C   UNL     1     -18.994  13.116 -29.479  1.00  0.00    -0.026 C 
ATOM     14  C   UNL     1     -18.364  11.578 -27.705  1.00  0.00     0.005 C 
ATOM     15  C   UNL     1     -17.775  12.447 -28.809  1.00  0.00    -0.001 C 
ATOM     16  C   UNL     1     -18.507  13.701 -30.828  1.00  0.00     0.007 C 
ATOM     17  C   UNL     1     -19.630  14.248 -28.617  1.00  0.00     0.012 C 
ATOM     18  C   UNL     1     -16.650  13.445 -28.464  1.00  0.00     0.004 C 
ATOM     19  C   UNL     1     -17.326  14.695 -30.644  1.00  0.00     0.005 C 
ATOM     20  C   UNL     1     -16.138  14.180 -29.760  1.00  0.00     0.003 C 
ATOM     21  C   UNL     1     -15.510  12.821 -27.642  1.00  0.00     0.085 C 
ATOM     22  C   UNL     1     -14.971  13.481 -30.601  1.00  0.00    -0.000 C 
ATOM     23  C   UNL     1     -14.587  12.034 -28.499  1.00  0.00     0.159 C 
ATOM     24  C   UNL     1     -14.037  12.674 -29.699  1.00  0.00     0.005 C 
ATOM     25  C   UNL     1     -14.136  14.600 -31.311  1.00  0.00     0.020 C 
ATOM     26  C   UNL     1     -15.501  12.500 -31.679  1.00  0.00     0.017 C 
ATOM     27  O   UNL     1     -14.225  10.875 -28.154  1.00  0.00    -0.295 OA
ATOM     28  C   UNL     1     -12.743  12.473 -30.011  1.00  0.00     0.055 C 
ATOM     29  C   UNL     1     -12.891  14.069 -32.035  1.00  0.00     0.081 C 
ATOM     30  C   UNL     1     -12.105  13.151 -31.151  1.00  0.00     0.156 C 
ATOM     31  O   UNL     1     -10.883  12.951 -31.385  1.00  0.00    -0.295 OA
ENDBRANCH   9  11
ENDBRANCH   8   9
ENDBRANCH   1   8
TORSDOF 6
ENDMDL
MODEL 7
REMARK VINA RESULT:     1.445      1.496      2.210
REMARK INTER + INTRA:           1.182
REMARK INTER:                   1.195
REMARK INTRA:                  -0.013
REMARK UNBOUND:                -0.770
REMARK SMILES CC[C@H](CC[C@@H](C)[C@@H]1CC[C@@H]2[C@H]3CC(=O)C4=CC(=O)CC[C@]4(C)[C@H]3CC[C@]21C)C(C)C
REMARK SMILES IDX 4 1 3 2 2 3 1 4 29 5 30 6 31 7 5 8 6 9 7 10 8 11 9 12 27 13
REMARK SMILES IDX 10 14 11 15 26 16 28 17 12 18 25 19 24 20 13 21 22 22 14 23
REMARK SMILES IDX 16 24 21 25 23 26 15 27 17 28 20 29 18 30 19 31
REMARK H PARENT
REMARK Flexibility Score: inf
ROOT
ATOM      1  C   UNL     1     -25.343  12.757 -29.775  1.00  0.00     0.004 C 
ENDROOT
BRANCH   1   2
ATOM      2  C   UNL     1     -26.728  13.274 -29.287  1.00  0.00    -0.009 C 
BRANCH   2   3
ATOM      3  C   UNL     1     -27.718  13.351 -30.486  1.00  0.00     0.000 C 
ATOM      4  C   UNL     1     -27.705  14.705 -31.200  1.00  0.00     0.004 C 
ENDBRANCH   2   3
BRANCH   2   5
ATOM      5  C   UNL     1     -27.306  12.440 -28.089  1.00  0.00    -0.014 C 
ATOM      6  C   UNL     1     -26.565  11.113 -27.851  1.00  0.00     0.007 C 
ATOM      7  C   UNL     1     -28.817  12.186 -28.215  1.00  0.00     0.007 C 
ENDBRANCH   2   5
ENDBRANCH   1   2
BRANCH   1   8
ATOM      8  C   UNL     1     -24.145  13.573 -29.254  1.00  0.00     0.004 C 
BRANCH   8   9
ATOM      9  C   UNL     1     -22.988  12.650 -28.765  1.00  0.00    -0.011 C 
ATOM     10  C   UNL     1     -23.199  11.209 -29.254  1.00  0.00     0.008 C 
BRANCH   9  11
ATOM     11  C   UNL     1     -21.524  13.153 -29.019  1.00  0.00    -0.002 C 
ATOM     12  C   UNL     1     -21.404  14.149 -30.207  1.00  0.00     0.005 C 
ATOM     13  C   UNL     1     -20.330  12.161 -29.195  1.00  0.00    -0.026 C 
ATOM     14  C   UNL     1     -20.017  13.936 -30.827  1.00  0.00     0.005 C 
ATOM     15  C   UNL     1     -19.271  13.122 -29.777  1.00  0.00    -0.001 C 
ATOM     16  C   UNL     1     -19.745  11.583 -27.882  1.00  0.00     0.007 C 
ATOM     17  C   UNL     1     -20.704  10.996 -30.160  1.00  0.00     0.012 C 
ATOM     18  C   UNL     1     -17.957  12.412 -30.166  1.00  0.00     0.004 C 
ATOM     19  C   UNL     1     -18.380  10.876 -28.110  1.00  0.00     0.005 C 
ATOM     20  C   UNL     1     -17.317  11.698 -28.917  1.00  0.00     0.003 C 
ATOM     21  C   UNL     1     -16.965  13.326 -30.905  1.00  0.00     0.085 C 
ATOM     22  C   UNL     1     -16.332  12.554 -27.992  1.00  0.00    -0.000 C 
ATOM     23  C   UNL     1     -16.238  14.216 -29.965  1.00  0.00     0.159 C 
ATOM     24  C   UNL     1     -15.579  13.609 -28.802  1.00  0.00     0.005 C 
ATOM     25  C   UNL     1     -15.289  11.580 -27.348  1.00  0.00     0.020 C 
ATOM     26  C   UNL     1     -17.069  13.312 -26.857  1.00  0.00     0.017 C 
ATOM     27  O   UNL     1     -16.124  15.449 -30.209  1.00  0.00    -0.295 OA
ATOM     28  C   UNL     1     -14.360  14.049 -28.439  1.00  0.00     0.055 C 
ATOM     29  C   UNL     1     -14.191  12.298 -26.550  1.00  0.00     0.081 C 
ATOM     30  C   UNL     1     -13.606  13.429 -27.338  1.00  0.00     0.156 C 
ATOM     31  O   UNL     1     -12.456  13.860 -27.055  1.00  0.00    -0.295 OA
ENDBRANCH   9  11
ENDBRANCH   8   9
ENDBRANCH   1   8
TORSDOF 6
ENDMDL
MODEL 8
REMARK VINA RESULT:     1.718      3.532      8.861
REMARK INTER + INTRA:           1.550
REMARK INTER:                   2.526
REMARK INTRA:                  -0.976
REMARK UNBOUND:                -0.770
REMARK SMILES CC[C@H](CC[C@@H](C)[C@@H]1CC[C@@H]2[C@H]3CC(=O)C4=CC(=O)CC[C@]4(C)[C@H]3CC[C@]21C)C(C)C
REMARK SMILES IDX 4 1 3 2 2 3 1 4 29 5 30 6 31 7 5 8 6 9 7 10 8 11 9 12 27 13
REMARK SMILES IDX 10 14 11 15 26 16 28 17 12 18 25 19 24 20 13 21 22 22 14 23
REMARK SMILES IDX 16 24 21 25 23 26 15 27 17 28 20 29 18 30 19 31
REMARK H PARENT
REMARK Flexibility Score: inf
ROOT
ATOM      1  C   UNL     1     -10.877  15.623 -31.589  1.00  0.00     0.004 C 
ENDROOT
BRANCH   1   2
ATOM      2  C   UNL     1     -11.980  15.525 -32.684  1.00  0.00    -0.009 C 
BRANCH   2   3
ATOM      3  C   UNL     1     -11.592  16.407 -33.906  1.00  0.00     0.000 C 
ATOM      4  C   UNL     1     -11.167  17.826 -33.522  1.00  0.00     0.004 C 
ENDBRANCH   2   3
BRANCH   2   5
ATOM      5  C   UNL     1     -12.306  14.045 -33.095  1.00  0.00    -0.014 C 
ATOM      6  C   UNL     1     -11.164  13.355 -33.860  1.00  0.00     0.007 C 
ATOM      7  C   UNL     1     -13.620  13.922 -33.883  1.00  0.00     0.007 C 
ENDBRANCH   2   5
ENDBRANCH   1   2
BRANCH   1   8
ATOM      8  C   UNL     1     -11.096  14.685 -30.386  1.00  0.00     0.004 C 
BRANCH   8   9
ATOM      9  C   UNL     1     -11.828  15.408 -29.215  1.00  0.00    -0.011 C 
ATOM     10  C   UNL     1     -12.198  16.845 -29.612  1.00  0.00     0.008 C 
BRANCH   9  11
ATOM     11  C   UNL     1     -13.030  14.647 -28.554  1.00  0.00    -0.002 C 
ATOM     12  C   UNL     1     -12.783  14.263 -27.068  1.00  0.00     0.005 C 
ATOM     13  C   UNL     1     -13.660  13.375 -29.206  1.00  0.00    -0.026 C 
ATOM     14  C   UNL     1     -13.549  12.958 -26.814  1.00  0.00     0.005 C 
ATOM     15  C   UNL     1     -14.483  12.846 -28.012  1.00  0.00    -0.001 C 
ATOM     16  C   UNL     1     -14.657  13.644 -30.361  1.00  0.00     0.007 C 
ATOM     17  C   UNL     1     -12.558  12.384 -29.686  1.00  0.00     0.012 C 
ATOM     18  C   UNL     1     -15.176  11.499 -28.304  1.00  0.00     0.004 C 
ATOM     19  C   UNL     1     -15.476  12.377 -30.735  1.00  0.00     0.005 C 
ATOM     20  C   UNL     1     -16.151  11.627 -29.535  1.00  0.00     0.003 C 
ATOM     21  C   UNL     1     -15.852  10.879 -27.070  1.00  0.00     0.085 C 
ATOM     22  C   UNL     1     -17.654  12.097 -29.250  1.00  0.00    -0.000 C 
ATOM     23  C   UNL     1     -17.160  11.521 -26.783  1.00  0.00     0.159 C 
ATOM     24  C   UNL     1     -18.134  11.633 -27.875  1.00  0.00     0.005 C 
ATOM     25  C   UNL     1     -18.583  11.467 -30.343  1.00  0.00     0.020 C 
ATOM     26  C   UNL     1     -17.826  13.638 -29.282  1.00  0.00     0.017 C 
ATOM     27  O   UNL     1     -17.451  11.885 -25.610  1.00  0.00    -0.295 OA
ATOM     28  C   UNL     1     -19.434  11.394 -27.618  1.00  0.00     0.055 C 
ATOM     29  C   UNL     1     -20.077  11.722 -30.097  1.00  0.00     0.081 C 
ATOM     30  C   UNL     1     -20.451  11.405 -28.682  1.00  0.00     0.156 C 
ATOM     31  O   UNL     1     -21.650  11.147 -28.394  1.00  0.00    -0.295 OA
ENDBRANCH   9  11
ENDBRANCH   8   9
ENDBRANCH   1   8
TORSDOF 6
ENDMDL
