MODEL 1
REMARK VINA RESULT:    -3.367      0.000      0.000
REMARK INTER + INTRA:          -3.652
REMARK INTER:                  -3.564
REMARK INTRA:                  -0.089
REMARK UNBOUND:                -0.089
REMARK SMILES C=C(C)[C@@H]1CC=C(C)C(=O)C1
REMARK SMILES IDX 8 1 7 2 6 3 5 4 4 5 11 6 9 7 10 8 2 9 1 10 3 11
REMARK H PARENT
REMARK Flexibility Score: inf
ROOT
ATOM      1  C   UNL     1       5.875 -33.007  14.863  1.00  0.00     0.048 C 
ATOM      2  C   UNL     1       7.316 -32.705  14.558  1.00  0.00    -0.012 C 
ATOM      3  C   UNL     1       7.769 -32.809  13.296  1.00  0.00    -0.019 C 
ATOM      4  C   UNL     1       9.198 -32.500  12.933  1.00  0.00     0.036 C 
ATOM      5  C   UNL     1      10.153 -32.856  14.088  1.00  0.00     0.025 C 
ATOM      6  C   UNL     1       9.715 -32.147  15.382  1.00  0.00     0.089 C 
ATOM      7  C   UNL     1       8.262 -32.413  15.665  1.00  0.00     0.158 C 
ATOM      8  O   UNL     1       7.846 -32.351  16.853  1.00  0.00    -0.295 OA
ENDROOT
BRANCH   5   9
ATOM      9  C   UNL     1      11.598 -32.529  13.736  1.00  0.00    -0.077 C 
ATOM     10  C   UNL     1      12.331 -33.399  13.023  1.00  0.00     0.008 C 
ATOM     11  C   UNL     1      12.241 -31.236  14.175  1.00  0.00     0.039 C 
ENDBRANCH   5   9
TORSDOF 1
ENDMDL
MODEL 2
REMARK VINA RESULT:    -3.366      1.890      3.357
REMARK INTER + INTRA:          -3.652
REMARK INTER:                  -3.554
REMARK INTRA:                  -0.098
REMARK UNBOUND:                -0.089
REMARK SMILES C=C(C)[C@@H]1CC=C(C)C(=O)C1
REMARK SMILES IDX 8 1 7 2 6 3 5 4 4 5 11 6 9 7 10 8 2 9 1 10 3 11
REMARK H PARENT
REMARK Flexibility Score: inf
ROOT
ATOM      1  C   UNL     1       7.618 -34.480  12.875  1.00  0.00     0.048 C 
ATOM      2  C   UNL     1       8.056 -33.543  13.967  1.00  0.00    -0.012 C 
ATOM      3  C   UNL     1       9.337 -33.141  14.030  1.00  0.00    -0.019 C 
ATOM      4  C   UNL     1       9.823 -32.190  15.091  1.00  0.00     0.036 C 
ATOM      5  C   UNL     1       9.049 -32.385  16.408  1.00  0.00     0.025 C 
ATOM      6  C   UNL     1       7.535 -32.259  16.163  1.00  0.00     0.089 C 
ATOM      7  C   UNL     1       7.104 -33.164  15.041  1.00  0.00     0.158 C 
ATOM      8  O   UNL     1       5.911 -33.569  15.004  1.00  0.00    -0.295 OA
ENDROOT
BRANCH   5   9
ATOM      9  C   UNL     1       9.522 -31.414  17.481  1.00  0.00    -0.077 C 
ATOM     10  C   UNL     1      10.477 -30.513  17.201  1.00  0.00     0.008 C 
ATOM     11  C   UNL     1       8.940 -31.436  18.874  1.00  0.00     0.039 C 
ENDBRANCH   5   9
TORSDOF 1
ENDMDL
MODEL 3
REMARK VINA RESULT:    -3.273      2.036      4.266
REMARK INTER + INTRA:          -3.553
REMARK INTER:                  -3.456
REMARK INTRA:                  -0.097
REMARK UNBOUND:                -0.089
REMARK SMILES C=C(C)[C@@H]1CC=C(C)C(=O)C1
REMARK SMILES IDX 8 1 7 2 6 3 5 4 4 5 11 6 9 7 10 8 2 9 1 10 3 11
REMARK H PARENT
REMARK Flexibility Score: inf
ROOT
ATOM      1  C   UNL     1      10.034 -31.150  17.028  1.00  0.00     0.048 C 
ATOM      2  C   UNL     1       9.168 -31.866  16.028  1.00  0.00    -0.012 C 
ATOM      3  C   UNL     1       7.932 -32.262  16.376  1.00  0.00    -0.019 C 
ATOM      4  C   UNL     1       7.018 -32.966  15.409  1.00  0.00     0.036 C 
ATOM      5  C   UNL     1       7.818 -33.838  14.423  1.00  0.00     0.025 C 
ATOM      6  C   UNL     1       8.886 -32.993  13.705  1.00  0.00     0.089 C 
ATOM      7  C   UNL     1       9.724 -32.242  14.704  1.00  0.00     0.158 C 
ATOM      8  O   UNL     1      10.896 -31.903  14.389  1.00  0.00    -0.295 OA
ENDROOT
BRANCH   5   9
ATOM      9  C   UNL     1       6.902 -34.539  13.429  1.00  0.00    -0.077 C 
ATOM     10  C   UNL     1       5.875 -33.875  12.875  1.00  0.00     0.008 C 
ATOM     11  C   UNL     1       7.118 -35.982  13.043  1.00  0.00     0.039 C 
ENDBRANCH   5   9
TORSDOF 1
ENDMDL
MODEL 4
REMARK VINA RESULT:    -3.264      1.276      4.160
REMARK INTER + INTRA:          -3.543
REMARK INTER:                  -3.453
REMARK INTRA:                  -0.090
REMARK UNBOUND:                -0.089
REMARK SMILES C=C(C)[C@@H]1CC=C(C)C(=O)C1
REMARK SMILES IDX 8 1 7 2 6 3 5 4 4 5 11 6 9 7 10 8 2 9 1 10 3 11
REMARK H PARENT
REMARK Flexibility Score: inf
ROOT
ATOM      1  C   UNL     1      12.002 -31.150  14.419  1.00  0.00     0.048 C 
ATOM      2  C   UNL     1      10.704 -31.908  14.373  1.00  0.00    -0.012 C 
ATOM      3  C   UNL     1      10.339 -32.542  13.246  1.00  0.00    -0.019 C 
ATOM      4  C   UNL     1       9.059 -33.330  13.153  1.00  0.00     0.036 C 
ATOM      5  C   UNL     1       7.960 -32.710  14.035  1.00  0.00     0.025 C 
ATOM      6  C   UNL     1       8.454 -32.571  15.487  1.00  0.00     0.089 C 
ATOM      7  C   UNL     1       9.774 -31.851  15.529  1.00  0.00     0.158 C 
ATOM      8  O   UNL     1      10.099 -31.227  16.574  1.00  0.00    -0.295 OA
ENDROOT
BRANCH   5   9
ATOM      9  C   UNL     1       6.667 -33.511  13.962  1.00  0.00    -0.077 C 
ATOM     10  C   UNL     1       5.883 -33.427  12.875  1.00  0.00     0.008 C 
ATOM     11  C   UNL     1       6.234 -34.410  15.094  1.00  0.00     0.039 C 
ENDBRANCH   5   9
TORSDOF 1
ENDMDL
MODEL 5
REMARK VINA RESULT:    -3.159      1.656      3.917
REMARK INTER + INTRA:          -3.433
REMARK INTER:                  -3.345
REMARK INTRA:                  -0.088
REMARK UNBOUND:                -0.089
REMARK SMILES C=C(C)[C@@H]1CC=C(C)C(=O)C1
REMARK SMILES IDX 8 1 7 2 6 3 5 4 4 5 11 6 9 7 10 8 2 9 1 10 3 11
REMARK H PARENT
REMARK Flexibility Score: inf
ROOT
ATOM      1  C   UNL     1      10.578 -30.704  16.990  1.00  0.00     0.048 C 
ATOM      2  C   UNL     1       9.759 -31.660  16.169  1.00  0.00    -0.012 C 
ATOM      3  C   UNL     1      10.091 -31.896  14.888  1.00  0.00    -0.019 C 
ATOM      4  C   UNL     1       9.316 -32.858  14.027  1.00  0.00     0.036 C 
ATOM      5  C   UNL     1       7.826 -32.872  14.413  1.00  0.00     0.025 C 
ATOM      6  C   UNL     1       7.664 -33.174  15.914  1.00  0.00     0.089 C 
ATOM      7  C   UNL     1       8.517 -32.246  16.735  1.00  0.00     0.158 C 
ATOM      8  O   UNL     1       8.184 -31.997  17.924  1.00  0.00    -0.295 OA
ENDROOT
BRANCH   5   9
ATOM      9  C   UNL     1       7.038 -33.856  13.560  1.00  0.00    -0.077 C 
ATOM     10  C   UNL     1       5.905 -33.466  12.952  1.00  0.00     0.008 C 
ATOM     11  C   UNL     1       7.498 -35.281  13.375  1.00  0.00     0.039 C 
ENDBRANCH   5   9
TORSDOF 1
ENDMDL
MODEL 6
REMARK VINA RESULT:    -3.150      1.940      3.286
REMARK INTER + INTRA:          -3.423
REMARK INTER:                  -3.328
REMARK INTRA:                  -0.095
REMARK UNBOUND:                -0.089
REMARK SMILES C=C(C)[C@@H]1CC=C(C)C(=O)C1
REMARK SMILES IDX 8 1 7 2 6 3 5 4 4 5 11 6 9 7 10 8 2 9 1 10 3 11
REMARK H PARENT
REMARK Flexibility Score: inf
ROOT
ATOM      1  C   UNL     1       8.932 -31.461  18.956  1.00  0.00     0.048 C 
ATOM      2  C   UNL     1       8.955 -31.900  17.519  1.00  0.00    -0.012 C 
ATOM      3  C   UNL     1       8.118 -32.865  17.101  1.00  0.00    -0.019 C 
ATOM      4  C   UNL     1       8.087 -33.330  15.669  1.00  0.00     0.036 C 
ATOM      5  C   UNL     1       9.484 -33.242  15.027  1.00  0.00     0.025 C 
ATOM      6  C   UNL     1      10.047 -31.815  15.164  1.00  0.00     0.089 C 
ATOM      7  C   UNL     1       9.984 -31.358  16.596  1.00  0.00     0.158 C 
ATOM      8  O   UNL     1      10.794 -30.479  16.995  1.00  0.00    -0.295 OA
ENDROOT
BRANCH   5   9
ATOM      9  C   UNL     1       9.459 -33.692  13.572  1.00  0.00    -0.077 C 
ATOM     10  C   UNL     1      10.603 -33.783  12.875  1.00  0.00     0.008 C 
ATOM     11  C   UNL     1       8.164 -34.043  12.880  1.00  0.00     0.039 C 
ENDBRANCH   5   9
TORSDOF 1
ENDMDL
MODEL 7
REMARK VINA RESULT:    -3.086      1.867      4.420
REMARK INTER + INTRA:          -3.355
REMARK INTER:                  -3.264
REMARK INTRA:                  -0.090
REMARK UNBOUND:                -0.089
REMARK SMILES C=C(C)[C@@H]1CC=C(C)C(=O)C1
REMARK SMILES IDX 8 1 7 2 6 3 5 4 4 5 11 6 9 7 10 8 2 9 1 10 3 11
REMARK H PARENT
REMARK Flexibility Score: inf
ROOT
ATOM      1  C   UNL     1      12.802 -33.585  12.875  1.00  0.00     0.048 C 
ATOM      2  C   UNL     1      11.352 -33.507  13.266  1.00  0.00    -0.012 C 
ATOM      3  C   UNL     1      10.501 -34.471  12.876  1.00  0.00    -0.019 C 
ATOM      4  C   UNL     1       9.043 -34.451  13.255  1.00  0.00     0.036 C 
ATOM      5  C   UNL     1       8.518 -33.007  13.362  1.00  0.00     0.025 C 
ATOM      6  C   UNL     1       9.386 -32.193  14.340  1.00  0.00     0.089 C 
ATOM      7  C   UNL     1      10.841 -32.306  13.975  1.00  0.00     0.158 C 
ATOM      8  O   UNL     1      11.631 -31.384  14.310  1.00  0.00    -0.295 OA
ENDROOT
BRANCH   5   9
ATOM      9  C   UNL     1       7.050 -32.976  13.764  1.00  0.00    -0.077 C 
ATOM     10  C   UNL     1       6.101 -33.317  12.877  1.00  0.00     0.008 C 
ATOM     11  C   UNL     1       6.623 -32.565  15.152  1.00  0.00     0.039 C 
ENDBRANCH   5   9
TORSDOF 1
ENDMDL
MODEL 8
REMARK VINA RESULT:    -2.838      2.558      4.543
REMARK INTER + INTRA:          -3.093
REMARK INTER:                  -2.998
REMARK INTRA:                  -0.094
REMARK UNBOUND:                -0.089
REMARK SMILES C=C(C)[C@@H]1CC=C(C)C(=O)C1
REMARK SMILES IDX 8 1 7 2 6 3 5 4 4 5 11 6 9 7 10 8 2 9 1 10 3 11
REMARK H PARENT
REMARK Flexibility Score: inf
ROOT
ATOM      1  C   UNL     1      11.985 -31.255  14.376  1.00  0.00     0.048 C 
ATOM      2  C   UNL     1      10.847 -32.156  13.985  1.00  0.00    -0.012 C 
ATOM      3  C   UNL     1       9.601 -31.880  14.405  1.00  0.00    -0.019 C 
ATOM      4  C   UNL     1       8.423 -32.739  14.027  1.00  0.00     0.036 C 
ATOM      5  C   UNL     1       8.838 -34.215  13.878  1.00  0.00     0.025 C 
ATOM      6  C   UNL     1       9.999 -34.346  12.875  1.00  0.00     0.089 C 
ATOM      7  C   UNL     1      11.120 -33.412  13.241  1.00  0.00     0.158 C 
ATOM      8  O   UNL     1      12.294 -33.691  12.877  1.00  0.00    -0.295 OA
ENDROOT
BRANCH   5   9
ATOM      9  C   UNL     1       7.656 -35.088  13.477  1.00  0.00    -0.077 C 
ATOM     10  C   UNL     1       7.804 -36.420  13.383  1.00  0.00     0.008 C 
ATOM     11  C   UNL     1       6.304 -34.491  13.176  1.00  0.00     0.039 C 
ENDBRANCH   5   9
TORSDOF 1
ENDMDL
MODEL 9
REMARK VINA RESULT:    -1.912      2.410      3.674
REMARK INTER + INTRA:          -2.113
REMARK INTER:                  -2.018
REMARK INTRA:                  -0.095
REMARK UNBOUND:                -0.089
REMARK SMILES C=C(C)[C@@H]1CC=C(C)C(=O)C1
REMARK SMILES IDX 8 1 7 2 6 3 5 4 4 5 11 6 9 7 10 8 2 9 1 10 3 11
REMARK H PARENT
REMARK Flexibility Score: inf
ROOT
ATOM      1  C   UNL     1       7.179 -34.693  13.193  1.00  0.00     0.048 C 
ATOM      2  C   UNL     1       7.866 -33.973  14.320  1.00  0.00    -0.012 C 
ATOM      3  C   UNL     1       7.722 -34.414  15.582  1.00  0.00    -0.019 C 
ATOM      4  C   UNL     1       8.402 -33.741  16.745  1.00  0.00     0.036 C 
ATOM      5  C   UNL     1       8.537 -32.225  16.507  1.00  0.00     0.025 C 
ATOM      6  C   UNL     1       9.258 -31.954  15.174  1.00  0.00     0.089 C 
ATOM      7  C   UNL     1       8.598 -32.709  14.053  1.00  0.00     0.158 C 
ATOM      8  O   UNL     1       8.704 -32.275  12.875  1.00  0.00    -0.295 OA
ENDROOT
BRANCH   5   9
ATOM      9  C   UNL     1       9.241 -31.539  17.670  1.00  0.00    -0.077 C 
ATOM     10  C   UNL     1       8.859 -31.791  18.932  1.00  0.00     0.008 C 
ATOM     11  C   UNL     1      10.373 -30.568  17.441  1.00  0.00     0.039 C 
ENDBRANCH   5   9
TORSDOF 1
ENDMDL
