MODEL 1
REMARK VINA RESULT:    -5.147      0.000      0.000
REMARK INTER + INTRA:          -6.573
REMARK INTER:                  -6.049
REMARK INTRA:                  -0.524
REMARK UNBOUND:                -0.524
REMARK SMILES C=CC(C)=CCC=C(C)C
REMARK SMILES IDX 5 1 3 2 4 3 6 4 7 5 9 6 8 7 10 8 2 9 1 10
REMARK H PARENT
REMARK Flexibility Score: inf
ROOT
ATOM      1  C   UNL     1       2.774  13.252   5.543  1.00  0.00    -0.020 C 
ATOM      2  C   UNL     1       2.785  13.061   4.208  1.00  0.00    -0.055 C 
ATOM      3  C   UNL     1       4.051  12.559   3.558  1.00  0.00     0.044 C 
ENDROOT
BRANCH   1   4
ATOM      4  C   UNL     1       1.583  13.772   6.306  1.00  0.00     0.055 C 
BRANCH   4   5
ATOM      5  C   UNL     1       0.599  12.669   6.604  1.00  0.00    -0.024 C 
ATOM      6  C   UNL     1      -1.596  11.564   6.690  1.00  0.00     0.039 C 
ATOM      7  C   UNL     1      -0.722  12.737   6.330  1.00  0.00    -0.080 C 
ATOM      8  C   UNL     1      -1.337  13.951   5.669  1.00  0.00     0.039 C 
ENDBRANCH   4   5
ENDBRANCH   1   4
BRANCH   2   9
ATOM      9  C   UNL     1       1.587  13.358   3.372  1.00  0.00    -0.005 C 
ATOM     10  C   UNL     1       1.450  14.474   2.654  1.00  0.00     0.009 C 
ENDBRANCH   2   9
TORSDOF 3
ENDMDL
MODEL 2
REMARK VINA RESULT:    -5.120      0.416      4.305
REMARK INTER + INTRA:          -6.542
REMARK INTER:                  -6.019
REMARK INTRA:                  -0.523
REMARK UNBOUND:                -0.524
REMARK SMILES C=CC(C)=CCC=C(C)C
REMARK SMILES IDX 5 1 3 2 4 3 6 4 7 5 9 6 8 7 10 8 2 9 1 10
REMARK H PARENT
REMARK Flexibility Score: inf
ROOT
ATOM      1  C   UNL     1       0.577  12.652   6.625  1.00  0.00    -0.020 C 
ATOM      2  C   UNL     1      -0.730  12.707   6.298  1.00  0.00    -0.055 C 
ATOM      3  C   UNL     1      -1.615  11.534   6.647  1.00  0.00     0.044 C 
ENDROOT
BRANCH   1   4
ATOM      4  C   UNL     1       1.566  13.745   6.309  1.00  0.00     0.055 C 
BRANCH   4   5
ATOM      5  C   UNL     1       2.739  13.212   5.524  1.00  0.00    -0.024 C 
ATOM      6  C   UNL     1       4.034  12.628   3.517  1.00  0.00     0.039 C 
ATOM      7  C   UNL     1       2.805  13.200   4.175  1.00  0.00    -0.080 C 
ATOM      8  C   UNL     1       1.686  13.748   3.318  1.00  0.00     0.039 C 
ENDBRANCH   4   5
ENDBRANCH   1   4
BRANCH   2   9
ATOM      9  C   UNL     1      -1.303  13.883   5.583  1.00  0.00    -0.005 C 
ATOM     10  C   UNL     1      -2.084  14.790   6.172  1.00  0.00     0.009 C 
ENDBRANCH   2   9
TORSDOF 3
ENDMDL
MODEL 3
REMARK VINA RESULT:    -4.993      1.334      4.885
REMARK INTER + INTRA:          -6.392
REMARK INTER:                  -5.733
REMARK INTRA:                  -0.659
REMARK UNBOUND:                -0.524
REMARK SMILES C=CC(C)=CCC=C(C)C
REMARK SMILES IDX 5 1 3 2 4 3 6 4 7 5 9 6 8 7 10 8 2 9 1 10
REMARK H PARENT
REMARK Flexibility Score: inf
ROOT
ATOM      1  C   UNL     1       0.137  13.937   3.631  1.00  0.00    -0.020 C 
ATOM      2  C   UNL     1      -0.025  13.637   4.936  1.00  0.00    -0.055 C 
ATOM      3  C   UNL     1      -1.238  14.172   5.658  1.00  0.00     0.044 C 
ENDROOT
BRANCH   1   4
ATOM      4  C   UNL     1       1.315  13.485   2.806  1.00  0.00     0.055 C 
BRANCH   4   5
ATOM      5  C   UNL     1       2.490  14.416   2.973  1.00  0.00    -0.024 C 
ATOM      6  C   UNL     1       4.807  15.056   3.489  1.00  0.00     0.039 C 
ATOM      7  C   UNL     1       3.724  14.018   3.351  1.00  0.00    -0.080 C 
ATOM      8  C   UNL     1       4.042  12.566   3.629  1.00  0.00     0.039 C 
ENDBRANCH   4   5
ENDBRANCH   1   4
BRANCH   2   9
ATOM      9  C   UNL     1       0.976  12.814   5.673  1.00  0.00    -0.005 C 
ATOM     10  C   UNL     1       1.810  13.315   6.584  1.00  0.00     0.009 C 
ENDBRANCH   2   9
TORSDOF 3
ENDMDL
MODEL 4
REMARK VINA RESULT:    -4.883      1.714      4.659
REMARK INTER + INTRA:          -6.262
REMARK INTER:                  -5.615
REMARK INTRA:                  -0.648
REMARK UNBOUND:                -0.524
REMARK SMILES C=CC(C)=CCC=C(C)C
REMARK SMILES IDX 5 1 3 2 4 3 6 4 7 5 9 6 8 7 10 8 2 9 1 10
REMARK H PARENT
REMARK Flexibility Score: inf
ROOT
ATOM      1  C   UNL     1       3.227  13.400   5.033  1.00  0.00    -0.020 C 
ATOM      2  C   UNL     1       1.964  13.229   5.474  1.00  0.00    -0.055 C 
ATOM      3  C   UNL     1       1.703  13.267   6.960  1.00  0.00     0.044 C 
ENDROOT
BRANCH   1   4
ATOM      4  C   UNL     1       3.621  13.358   3.579  1.00  0.00     0.055 C 
BRANCH   4   5
ATOM      5  C   UNL     1       3.925  14.740   3.054  1.00  0.00    -0.024 C 
ATOM      6  C   UNL     1       3.621  16.743   1.662  1.00  0.00     0.039 C 
ATOM      7  C   UNL     1       3.199  15.365   2.101  1.00  0.00    -0.080 C 
ATOM      8  C   UNL     1       1.982  14.722   1.477  1.00  0.00     0.039 C 
ENDBRANCH   4   5
ENDBRANCH   1   4
BRANCH   2   9
ATOM      9  C   UNL     1       0.838  12.983   4.528  1.00  0.00    -0.005 C 
ATOM     10  C   UNL     1      -0.205  13.804   4.398  1.00  0.00     0.009 C 
ENDBRANCH   2   9
TORSDOF 3
ENDMDL
MODEL 5
REMARK VINA RESULT:    -4.831      1.806      3.250
REMARK INTER + INTRA:          -6.202
REMARK INTER:                  -5.637
REMARK INTRA:                  -0.564
REMARK UNBOUND:                -0.524
REMARK SMILES C=CC(C)=CCC=C(C)C
REMARK SMILES IDX 5 1 3 2 4 3 6 4 7 5 9 6 8 7 10 8 2 9 1 10
REMARK H PARENT
REMARK Flexibility Score: inf
ROOT
ATOM      1  C   UNL     1       2.046  14.477   2.374  1.00  0.00    -0.020 C 
ATOM      2  C   UNL     1       3.215  15.149   2.429  1.00  0.00    -0.055 C 
ATOM      3  C   UNL     1       3.403  16.352   1.537  1.00  0.00     0.044 C 
ENDROOT
BRANCH   1   4
ATOM      4  C   UNL     1       1.746  13.249   3.195  1.00  0.00     0.055 C 
BRANCH   4   5
ATOM      5  C   UNL     1       0.670  13.521   4.216  1.00  0.00    -0.024 C 
ATOM      6  C   UNL     1      -0.279  13.863   6.458  1.00  0.00     0.039 C 
ATOM      7  C   UNL     1       0.890  13.593   5.547  1.00  0.00    -0.080 C 
ATOM      8  C   UNL     1       2.271  13.417   6.137  1.00  0.00     0.039 C 
ENDBRANCH   4   5
ENDBRANCH   1   4
BRANCH   2   9
ATOM      9  C   UNL     1       4.320  14.711   3.329  1.00  0.00    -0.005 C 
ATOM     10  C   UNL     1       5.196  15.553   3.879  1.00  0.00     0.009 C 
ENDBRANCH   2   9
TORSDOF 3
ENDMDL
MODEL 6
REMARK VINA RESULT:    -4.779      1.989      3.304
REMARK INTER + INTRA:          -6.141
REMARK INTER:                  -5.624
REMARK INTRA:                  -0.516
REMARK UNBOUND:                -0.524
REMARK SMILES C=CC(C)=CCC=C(C)C
REMARK SMILES IDX 5 1 3 2 4 3 6 4 7 5 9 6 8 7 10 8 2 9 1 10
REMARK H PARENT
REMARK Flexibility Score: inf
ROOT
ATOM      1  C   UNL     1       4.207  14.841   3.173  1.00  0.00    -0.020 C 
ATOM      2  C   UNL     1       3.611  15.680   2.301  1.00  0.00    -0.055 C 
ATOM      3  C   UNL     1       4.205  17.052   2.094  1.00  0.00     0.044 C 
ENDROOT
BRANCH   1   4
ATOM      4  C   UNL     1       3.698  13.457   3.485  1.00  0.00     0.055 C 
BRANCH   4   5
ATOM      5  C   UNL     1       3.241  13.351   4.919  1.00  0.00    -0.024 C 
ATOM      6  C   UNL     1       1.630  13.262   6.773  1.00  0.00     0.039 C 
ATOM      7  C   UNL     1       1.946  13.366   5.304  1.00  0.00    -0.080 C 
ATOM      8  C   UNL     1       0.819  13.475   4.303  1.00  0.00     0.039 C 
ENDBRANCH   4   5
ENDBRANCH   1   4
BRANCH   2   9
ATOM      9  C   UNL     1       2.376  15.285   1.564  1.00  0.00    -0.005 C 
ATOM     10  C   UNL     1       1.720  16.103   0.740  1.00  0.00     0.009 C 
ENDBRANCH   2   9
TORSDOF 3
ENDMDL
MODEL 7
REMARK VINA RESULT:    -4.723      1.872      5.247
REMARK INTER + INTRA:          -6.075
REMARK INTER:                  -5.678
REMARK INTRA:                  -0.397
REMARK UNBOUND:                -0.524
REMARK SMILES C=CC(C)=CCC=C(C)C
REMARK SMILES IDX 5 1 3 2 4 3 6 4 7 5 9 6 8 7 10 8 2 9 1 10
REMARK H PARENT
REMARK Flexibility Score: inf
ROOT
ATOM      1  C   UNL     1       0.529  14.092   3.266  1.00  0.00    -0.020 C 
ATOM      2  C   UNL     1       0.424  13.679   4.546  1.00  0.00    -0.055 C 
ATOM      3  C   UNL     1      -0.808  14.060   5.331  1.00  0.00     0.044 C 
ENDROOT
BRANCH   1   4
ATOM      4  C   UNL     1       1.717  13.799   2.386  1.00  0.00     0.055 C 
BRANCH   4   5
ATOM      5  C   UNL     1       2.744  14.902   2.465  1.00  0.00    -0.024 C 
ATOM      6  C   UNL     1       3.889  16.971   1.795  1.00  0.00     0.039 C 
ATOM      7  C   UNL     1       2.804  15.943   1.606  1.00  0.00    -0.080 C 
ATOM      8  C   UNL     1       1.814  16.101   0.475  1.00  0.00     0.039 C 
ENDBRANCH   4   5
ENDBRANCH   1   4
BRANCH   2   9
ATOM      9  C   UNL     1       1.503  12.882   5.196  1.00  0.00    -0.005 C 
ATOM     10  C   UNL     1       2.347  13.387   6.097  1.00  0.00     0.009 C 
ENDBRANCH   2   9
TORSDOF 3
ENDMDL
MODEL 8
REMARK VINA RESULT:    -4.707      1.041      2.034
REMARK INTER + INTRA:          -6.056
REMARK INTER:                  -5.683
REMARK INTRA:                  -0.372
REMARK UNBOUND:                -0.524
REMARK SMILES C=CC(C)=CCC=C(C)C
REMARK SMILES IDX 5 1 3 2 4 3 6 4 7 5 9 6 8 7 10 8 2 9 1 10
REMARK H PARENT
REMARK Flexibility Score: inf
ROOT
ATOM      1  C   UNL     1       0.891  13.830   3.545  1.00  0.00    -0.020 C 
ATOM      2  C   UNL     1       1.911  13.476   2.736  1.00  0.00    -0.055 C 
ATOM      3  C   UNL     1       1.681  13.462   1.244  1.00  0.00     0.044 C 
ENDROOT
BRANCH   1   4
ATOM      4  C   UNL     1       0.986  13.859   5.049  1.00  0.00     0.055 C 
BRANCH   4   5
ATOM      5  C   UNL     1       0.272  12.682   5.666  1.00  0.00    -0.024 C 
ATOM      6  C   UNL     1      -1.593  11.467   6.710  1.00  0.00     0.039 C 
ATOM      7  C   UNL     1      -1.006  12.715   6.104  1.00  0.00    -0.080 C 
ATOM      8  C   UNL     1      -1.853  13.963   5.995  1.00  0.00     0.039 C 
ENDBRANCH   4   5
ENDBRANCH   1   4
BRANCH   2   9
ATOM      9  C   UNL     1       3.237  13.078   3.288  1.00  0.00    -0.005 C 
ATOM     10  C   UNL     1       3.567  11.817   3.572  1.00  0.00     0.009 C 
ENDBRANCH   2   9
TORSDOF 3
ENDMDL
MODEL 9
REMARK VINA RESULT:    -4.640      1.572      2.845
REMARK INTER + INTRA:          -5.978
REMARK INTER:                  -5.616
REMARK INTRA:                  -0.361
REMARK UNBOUND:                -0.524
REMARK SMILES C=CC(C)=CCC=C(C)C
REMARK SMILES IDX 5 1 3 2 4 3 6 4 7 5 9 6 8 7 10 8 2 9 1 10
REMARK H PARENT
REMARK Flexibility Score: inf
ROOT
ATOM      1  C   UNL     1       0.440  13.429   6.514  1.00  0.00    -0.020 C 
ATOM      2  C   UNL     1       1.493  13.301   5.681  1.00  0.00    -0.055 C 
ATOM      3  C   UNL     1       2.882  13.532   6.227  1.00  0.00     0.044 C 
ENDROOT
BRANCH   1   4
ATOM      4  C   UNL     1      -0.994  13.250   6.086  1.00  0.00     0.055 C 
BRANCH   4   5
ATOM      5  C   UNL     1      -1.650  14.577   5.796  1.00  0.00    -0.024 C 
ATOM      6  C   UNL     1      -3.483  16.210   5.677  1.00  0.00     0.039 C 
ATOM      7  C   UNL     1      -2.955  14.842   6.022  1.00  0.00    -0.080 C 
ATOM      8  C   UNL     1      -3.886  13.809   6.615  1.00  0.00     0.039 C 
ENDBRANCH   4   5
ENDBRANCH   1   4
BRANCH   2   9
ATOM      9  C   UNL     1       1.308  12.963   4.241  1.00  0.00    -0.005 C 
ATOM     10  C   UNL     1       1.298  13.875   3.268  1.00  0.00     0.009 C 
ENDBRANCH   2   9
TORSDOF 3
ENDMDL
