MODEL 1
REMARK VINA RESULT:     7.513      0.000      0.000
REMARK INTER + INTRA:           8.324
REMARK INTER:                   8.830
REMARK INTRA:                  -0.507
REMARK UNBOUND:                -0.507
REMARK SMILES C=C(C)[C@H]1CC[C@]2(CO)CC[C@]3(C)[C@H](CC[C@H]4[C@]5(C)CC[C@@H](O)C(C)(C)[C@@H]5CC[C@@]43C)[C@H]12
REMARK SMILES IDX 4 1 5 2 6 3 7 4 32 5 14 6 15 7 16 8 17 9 18 10 20 11 21 12
REMARK SMILES IDX 22 13 24 14 27 15 28 16 29 17 30 18 12 19 11 20 10 21 13 22
REMARK SMILES IDX 31 23 25 24 26 25 19 26 2 27 3 28 1 29 8 30 9 31 23 33
REMARK H PARENT 9 32 23 34
REMARK Flexibility Score: inf
ROOT
ATOM      1  C   UNL     1     -27.961  11.820 -29.785  1.00  0.00     0.018 C 
ATOM      2  C   UNL     1     -28.911  10.828 -30.473  1.00  0.00     0.009 C 
ATOM      3  C   UNL     1     -28.536  10.792 -31.952  1.00  0.00     0.010 C 
ATOM      4  C   UNL     1     -27.046  11.178 -32.036  1.00  0.00    -0.003 C 
ATOM      5  C   UNL     1     -26.848  12.127 -30.814  1.00  0.00     0.008 C 
ATOM      6  C   UNL     1     -25.380  12.158 -30.308  1.00  0.00    -0.000 C 
ATOM      7  C   UNL     1     -25.074  13.201 -29.233  1.00  0.00     0.005 C 
ATOM      8  C   UNL     1     -23.561  13.557 -29.235  1.00  0.00     0.005 C 
ATOM      9  C   UNL     1     -22.623  12.470 -29.886  1.00  0.00     0.002 C 
ATOM     10  C   UNL     1     -21.017  12.747 -29.844  1.00  0.00    -0.026 C 
ATOM     11  C   UNL     1     -20.530  12.972 -31.314  1.00  0.00     0.010 C 
ATOM     12  C   UNL     1     -19.015  13.142 -31.482  1.00  0.00     0.033 C 
ATOM     13  C   UNL     1     -18.234  11.939 -30.927  1.00  0.00     0.120 C 
ATOM     14  C   UNL     1     -18.571  11.649 -29.433  1.00  0.00    -0.006 C 
ATOM     15  C   UNL     1     -20.159  11.551 -29.232  1.00  0.00     0.003 C 
ATOM     16  C   UNL     1     -20.689  10.143 -29.662  1.00  0.00     0.005 C 
ATOM     17  C   UNL     1     -22.148  10.028 -30.113  1.00  0.00     0.008 C 
ATOM     18  C   UNL     1     -23.129  11.041 -29.485  1.00  0.00    -0.024 C 
ATOM     19  C   UNL     1     -24.662  10.783 -30.038  1.00  0.00    -0.024 C 
ATOM     20  C   UNL     1     -24.732  10.056 -31.424  1.00  0.00     0.008 C 
ATOM     21  C   UNL     1     -26.171   9.875 -31.971  1.00  0.00     0.010 C 
ATOM     22  C   UNL     1     -25.434   9.876 -29.023  1.00  0.00     0.012 C 
ATOM     23  C   UNL     1     -23.059  10.904 -27.919  1.00  0.00     0.012 C 
ATOM     24  C   UNL     1     -17.924  12.730 -28.502  1.00  0.00     0.014 C 
ATOM     25  C   UNL     1     -17.879  10.308 -29.028  1.00  0.00     0.014 C 
ATOM     26  C   UNL     1     -20.754  14.055 -29.038  1.00  0.00     0.012 C 
ENDROOT
BRANCH   1  27
ATOM     27  C   UNL     1     -28.686  13.083 -29.318  1.00  0.00    -0.077 C 
ATOM     28  C   UNL     1     -29.285  14.056 -30.303  1.00  0.00     0.039 C 
ATOM     29  C   UNL     1     -28.769  13.369 -28.009  1.00  0.00     0.008 C 
ENDBRANCH   1  27
BRANCH   4  30
ATOM     30  C   UNL     1     -26.746  11.899 -33.385  1.00  0.00     0.163 C 
BRANCH  30  31
ATOM     31  O   UNL     1     -26.357  13.236 -33.188  1.00  0.00    -0.396 OA
ATOM     32  H   UNL     1     -25.834  13.275 -32.346  1.00  0.00     0.210 HD
ENDBRANCH  30  31
ENDBRANCH   4  30
BRANCH  13  33
ATOM     33  O   UNL     1     -16.854  12.161 -31.077  1.00  0.00    -0.393 OA
ATOM     34  H   UNL     1     -16.723  12.606 -31.953  1.00  0.00     0.210 HD
ENDBRANCH  13  33
TORSDOF 4
ENDMDL
MODEL 2
REMARK VINA RESULT:    10.404      4.824      6.622
REMARK INTER + INTRA:          11.722
REMARK INTER:                  11.747
REMARK INTRA:                  -0.024
REMARK UNBOUND:                -0.507
REMARK SMILES C=C(C)[C@H]1CC[C@]2(CO)CC[C@]3(C)[C@H](CC[C@H]4[C@]5(C)CC[C@@H](O)C(C)(C)[C@@H]5CC[C@@]43C)[C@H]12
REMARK SMILES IDX 4 1 5 2 6 3 7 4 32 5 14 6 15 7 16 8 17 9 18 10 20 11 21 12
REMARK SMILES IDX 22 13 24 14 27 15 28 16 29 17 30 18 12 19 11 20 10 21 13 22
REMARK SMILES IDX 31 23 25 24 26 25 19 26 2 27 3 28 1 29 8 30 9 31 23 33
REMARK H PARENT 9 32 23 34
REMARK Flexibility Score: inf
ROOT
ATOM      1  C   UNL     1     -27.913  12.877 -29.790  1.00  0.00     0.018 C 
ATOM      2  C   UNL     1     -27.320  11.560 -29.266  1.00  0.00     0.009 C 
ATOM      3  C   UNL     1     -26.408  11.007 -30.357  1.00  0.00     0.010 C 
ATOM      4  C   UNL     1     -25.926  12.217 -31.181  1.00  0.00    -0.003 C 
ATOM      5  C   UNL     1     -27.106  13.229 -31.062  1.00  0.00     0.008 C 
ATOM      6  C   UNL     1     -26.657  14.703 -31.251  1.00  0.00    -0.000 C 
ATOM      7  C   UNL     1     -27.784  15.733 -31.330  1.00  0.00     0.005 C 
ATOM      8  C   UNL     1     -27.308  17.004 -32.087  1.00  0.00     0.005 C 
ATOM      9  C   UNL     1     -25.745  17.210 -32.125  1.00  0.00     0.002 C 
ATOM     10  C   UNL     1     -25.188  18.568 -32.834  1.00  0.00    -0.026 C 
ATOM     11  C   UNL     1     -24.416  18.152 -34.129  1.00  0.00     0.010 C 
ATOM     12  C   UNL     1     -23.724  19.300 -34.875  1.00  0.00     0.033 C 
ATOM     13  C   UNL     1     -22.727  20.053 -33.979  1.00  0.00     0.120 C 
ATOM     14  C   UNL     1     -23.390  20.594 -32.676  1.00  0.00    -0.006 C 
ATOM     15  C   UNL     1     -24.185  19.417 -31.930  1.00  0.00     0.003 C 
ATOM     16  C   UNL     1     -23.207  18.519 -31.103  1.00  0.00     0.005 C 
ATOM     17  C   UNL     1     -23.617  17.070 -30.825  1.00  0.00     0.008 C 
ATOM     18  C   UNL     1     -25.135  16.805 -30.738  1.00  0.00    -0.024 C 
ATOM     19  C   UNL     1     -25.429  15.215 -30.408  1.00  0.00    -0.024 C 
ATOM     20  C   UNL     1     -24.270  14.247 -30.827  1.00  0.00     0.008 C 
ATOM     21  C   UNL     1     -24.576  12.749 -30.577  1.00  0.00     0.010 C 
ATOM     22  C   UNL     1     -25.623  15.032 -28.866  1.00  0.00     0.012 C 
ATOM     23  C   UNL     1     -25.746  17.738 -29.629  1.00  0.00     0.012 C 
ATOM     24  C   UNL     1     -24.311  21.820 -32.993  1.00  0.00     0.014 C 
ATOM     25  C   UNL     1     -22.263  21.167 -31.757  1.00  0.00     0.014 C 
ATOM     26  C   UNL     1     -26.402  19.451 -33.252  1.00  0.00     0.012 C 
ENDROOT
BRANCH   1  27
ATOM     27  C   UNL     1     -29.413  12.765 -30.065  1.00  0.00    -0.077 C 
ATOM     28  C   UNL     1     -30.125  11.436 -30.016  1.00  0.00     0.039 C 
ATOM     29  C   UNL     1     -30.122  13.857 -30.395  1.00  0.00     0.008 C 
ENDBRANCH   1  27
BRANCH   4  30
ATOM     30  C   UNL     1     -25.665  11.799 -32.660  1.00  0.00     0.163 C 
BRANCH  30  31
ATOM     31  O   UNL     1     -26.386  12.600 -33.563  1.00  0.00    -0.396 OA
ATOM     32  H   UNL     1     -25.732  13.020 -34.181  1.00  0.00     0.210 HD
ENDBRANCH  30  31
ENDBRANCH   4  30
BRANCH  13  33
ATOM     33  O   UNL     1     -22.147  21.111 -34.700  1.00  0.00    -0.393 OA
ATOM     34  H   UNL     1     -21.725  21.718 -34.040  1.00  0.00     0.210 HD
ENDBRANCH  13  33
TORSDOF 4
ENDMDL
