MODEL 1
REMARK VINA RESULT:    -4.184      0.000      0.000
REMARK INTER + INTRA:         -13.894
REMARK INTER:                  -9.565
REMARK INTRA:                  -4.329
REMARK UNBOUND:                -4.329
REMARK SMILES CCCCCCCCCCCCCCCCCCCCCCCC(=O)[O-]
REMARK SMILES IDX 13 1 14 2 15 3 16 4 17 5 18 6 19 7 20 8 21 9 22 10 23 11
REMARK SMILES IDX 24 12 25 13 26 14 12 15 11 16 10 17 9 18 8 19 7 20 6 21 5 22
REMARK SMILES IDX 4 23 3 24 2 25 1 26
REMARK H PARENT
REMARK Flexibility Score: inf
ROOT
ATOM      1  C   UNL     1      -3.725  30.655  57.051  1.00  0.00     0.000 C 
ENDROOT
BRANCH   1   2
ATOM      2  C   UNL     1      -2.310  30.715  56.448  1.00  0.00     0.000 C 
BRANCH   2   3
ATOM      3  C   UNL     1      -1.206  30.561  57.507  1.00  0.00     0.000 C 
BRANCH   3   4
ATOM      4  C   UNL     1      -1.086  29.127  58.052  1.00  0.00     0.000 C 
BRANCH   4   5
ATOM      5  C   UNL     1      -1.539  28.934  59.515  1.00  0.00     0.000 C 
BRANCH   5   6
ATOM      6  C   UNL     1      -2.836  28.126  59.706  1.00  0.00     0.000 C 
BRANCH   6   7
ATOM      7  C   UNL     1      -2.823  26.768  58.989  1.00  0.00     0.000 C 
BRANCH   7   8
ATOM      8  C   UNL     1      -4.084  25.963  59.338  1.00  0.00     0.000 C 
BRANCH   8   9
ATOM      9  C   UNL     1      -4.659  25.187  58.139  1.00  0.00     0.000 C 
BRANCH   9  10
ATOM     10  C   UNL     1      -5.826  25.879  57.408  1.00  0.00     0.006 C 
BRANCH  10  11
ATOM     11  C   UNL     1      -6.701  26.735  58.336  1.00  0.00     0.053 C 
BRANCH  11  12
ATOM     12  C   UNL     1      -7.942  25.993  58.718  1.00  0.00     0.041 C 
ATOM     13  O   UNL     1      -8.534  25.270  57.874  1.00  0.00    -0.550 OA
ATOM     14  O   UNL     1      -8.477  26.140  59.992  1.00  0.00    -0.550 OA
ENDBRANCH  11  12
ENDBRANCH  10  11
ENDBRANCH   9  10
ENDBRANCH   8   9
ENDBRANCH   7   8
ENDBRANCH   6   7
ENDBRANCH   5   6
ENDBRANCH   4   5
ENDBRANCH   3   4
ENDBRANCH   2   3
ENDBRANCH   1   2
BRANCH   1  15
ATOM     15  C   UNL     1      -4.511  29.364  56.747  1.00  0.00     0.000 C 
BRANCH  15  16
ATOM     16  C   UNL     1      -4.834  29.197  55.253  1.00  0.00     0.000 C 
BRANCH  16  17
ATOM     17  C   UNL     1      -4.275  27.878  54.678  1.00  0.00     0.000 C 
BRANCH  17  18
ATOM     18  C   UNL     1      -3.014  27.378  55.402  1.00  0.00    -0.000 C 
BRANCH  18  19
ATOM     19  C   UNL     1      -1.731  27.586  54.580  1.00  0.00    -0.000 C 
BRANCH  19  20
ATOM     20  C   UNL     1      -0.541  26.786  55.131  1.00  0.00    -0.000 C 
BRANCH  20  21
ATOM     21  C   UNL     1      -0.974  25.683  56.112  1.00  0.00    -0.000 C 
BRANCH  21  22
ATOM     22  C   UNL     1      -0.443  24.289  55.708  1.00  0.00    -0.000 C 
BRANCH  22  23
ATOM     23  C   UNL     1      -1.478  23.427  54.964  1.00  0.00    -0.000 C 
BRANCH  23  24
ATOM     24  C   UNL     1      -2.941  23.684  55.372  1.00  0.00    -0.000 C 
BRANCH  24  25
ATOM     25  C   UNL     1      -3.718  22.402  55.746  1.00  0.00    -0.003 C 
ATOM     26  C   UNL     1      -2.840  21.152  55.764  1.00  0.00     0.004 C 
ENDBRANCH  24  25
ENDBRANCH  23  24
ENDBRANCH  22  23
ENDBRANCH  21  22
ENDBRANCH  20  21
ENDBRANCH  19  20
ENDBRANCH  18  19
ENDBRANCH  17  18
ENDBRANCH  16  17
ENDBRANCH  15  16
ENDBRANCH   1  15
TORSDOF 22
ENDMDL
MODEL 2
REMARK VINA RESULT:    -4.036      2.492      5.028
REMARK INTER + INTRA:         -13.556
REMARK INTER:                  -9.345
REMARK INTRA:                  -4.211
REMARK UNBOUND:                -4.329
REMARK SMILES CCCCCCCCCCCCCCCCCCCCCCCC(=O)[O-]
REMARK SMILES IDX 13 1 14 2 15 3 16 4 17 5 18 6 19 7 20 8 21 9 22 10 23 11
REMARK SMILES IDX 24 12 25 13 26 14 12 15 11 16 10 17 9 18 8 19 7 20 6 21 5 22
REMARK SMILES IDX 4 23 3 24 2 25 1 26
REMARK H PARENT
REMARK Flexibility Score: inf
ROOT
ATOM      1  C   UNL     1      -2.918  28.110  59.356  1.00  0.00     0.000 C 
ENDROOT
BRANCH   1   2
ATOM      2  C   UNL     1      -2.719  29.562  58.884  1.00  0.00     0.000 C 
BRANCH   2   3
ATOM      3  C   UNL     1      -1.254  29.879  58.542  1.00  0.00     0.000 C 
BRANCH   3   4
ATOM      4  C   UNL     1      -1.073  30.442  57.121  1.00  0.00     0.000 C 
BRANCH   4   5
ATOM      5  C   UNL     1      -0.800  29.392  56.022  1.00  0.00     0.000 C 
BRANCH   5   6
ATOM      6  C   UNL     1      -1.486  29.654  54.670  1.00  0.00     0.000 C 
BRANCH   6   7
ATOM      7  C   UNL     1      -2.263  30.979  54.623  1.00  0.00     0.000 C 
BRANCH   7   8
ATOM      8  C   UNL     1      -3.739  30.725  54.286  1.00  0.00     0.000 C 
BRANCH   8   9
ATOM      9  C   UNL     1      -4.339  29.531  55.050  1.00  0.00     0.000 C 
BRANCH   9  10
ATOM     10  C   UNL     1      -5.269  29.903  56.222  1.00  0.00     0.006 C 
BRANCH  10  11
ATOM     11  C   UNL     1      -5.693  31.379  56.216  1.00  0.00     0.053 C 
BRANCH  11  12
ATOM     12  C   UNL     1      -7.120  31.512  55.787  1.00  0.00     0.041 C 
ATOM     13  O   UNL     1      -8.047  31.418  56.633  1.00  0.00    -0.550 OA
ATOM     14  O   UNL     1      -7.430  31.690  54.445  1.00  0.00    -0.550 OA
ENDBRANCH  11  12
ENDBRANCH  10  11
ENDBRANCH   9  10
ENDBRANCH   8   9
ENDBRANCH   7   8
ENDBRANCH   6   7
ENDBRANCH   5   6
ENDBRANCH   4   5
ENDBRANCH   3   4
ENDBRANCH   2   3
ENDBRANCH   1   2
BRANCH   1  15
ATOM     15  C   UNL     1      -3.684  27.202  58.373  1.00  0.00     0.000 C 
BRANCH  15  16
ATOM     16  C   UNL     1      -3.115  25.775  58.308  1.00  0.00     0.000 C 
BRANCH  16  17
ATOM     17  C   UNL     1      -2.213  25.560  57.074  1.00  0.00     0.000 C 
BRANCH  17  18
ATOM     18  C   UNL     1      -2.648  26.378  55.846  1.00  0.00    -0.000 C 
BRANCH  18  19
ATOM     19  C   UNL     1      -3.074  25.494  54.661  1.00  0.00    -0.000 C 
BRANCH  19  20
ATOM     20  C   UNL     1      -4.479  24.901  54.843  1.00  0.00    -0.000 C 
BRANCH  20  21
ATOM     21  C   UNL     1      -5.557  25.982  55.036  1.00  0.00    -0.000 C 
BRANCH  21  22
ATOM     22  C   UNL     1      -6.688  25.527  55.985  1.00  0.00    -0.000 C 
BRANCH  22  23
ATOM     23  C   UNL     1      -6.291  24.353  56.898  1.00  0.00    -0.000 C 
BRANCH  23  24
ATOM     24  C   UNL     1      -6.622  24.556  58.388  1.00  0.00    -0.000 C 
BRANCH  24  25
ATOM     25  C   UNL     1      -7.710  25.621  58.646  1.00  0.00    -0.003 C 
ATOM     26  C   UNL     1      -7.685  26.172  60.071  1.00  0.00     0.004 C 
ENDBRANCH  24  25
ENDBRANCH  23  24
ENDBRANCH  22  23
ENDBRANCH  21  22
ENDBRANCH  20  21
ENDBRANCH  19  20
ENDBRANCH  18  19
ENDBRANCH  17  18
ENDBRANCH  16  17
ENDBRANCH  15  16
ENDBRANCH   1  15
TORSDOF 22
ENDMDL
MODEL 3
REMARK VINA RESULT:    -3.971      2.418      4.717
REMARK INTER + INTRA:         -13.408
REMARK INTER:                  -8.999
REMARK INTRA:                  -4.409
REMARK UNBOUND:                -4.329
REMARK SMILES CCCCCCCCCCCCCCCCCCCCCCCC(=O)[O-]
REMARK SMILES IDX 13 1 14 2 15 3 16 4 17 5 18 6 19 7 20 8 21 9 22 10 23 11
REMARK SMILES IDX 24 12 25 13 26 14 12 15 11 16 10 17 9 18 8 19 7 20 6 21 5 22
REMARK SMILES IDX 4 23 3 24 2 25 1 26
REMARK H PARENT
REMARK Flexibility Score: inf
ROOT
ATOM      1  C   UNL     1      -2.579  26.867  58.259  1.00  0.00     0.000 C 
ENDROOT
BRANCH   1   2
ATOM      2  C   UNL     1      -1.894  28.101  58.874  1.00  0.00     0.000 C 
BRANCH   2   3
ATOM      3  C   UNL     1      -2.701  29.392  58.669  1.00  0.00     0.000 C 
BRANCH   3   4
ATOM      4  C   UNL     1      -1.920  30.480  57.910  1.00  0.00     0.000 C 
BRANCH   4   5
ATOM      5  C   UNL     1      -1.000  29.969  56.781  1.00  0.00     0.000 C 
BRANCH   5   6
ATOM      6  C   UNL     1      -1.643  29.894  55.385  1.00  0.00     0.000 C 
BRANCH   6   7
ATOM      7  C   UNL     1      -2.034  28.469  54.966  1.00  0.00     0.000 C 
BRANCH   7   8
ATOM      8  C   UNL     1      -3.561  28.337  54.864  1.00  0.00     0.000 C 
BRANCH   8   9
ATOM      9  C   UNL     1      -4.288  29.694  54.877  1.00  0.00     0.000 C 
BRANCH   9  10
ATOM     10  C   UNL     1      -5.306  29.882  56.020  1.00  0.00     0.006 C 
BRANCH  10  11
ATOM     11  C   UNL     1      -5.776  31.334  56.182  1.00  0.00     0.053 C 
BRANCH  11  12
ATOM     12  C   UNL     1      -7.256  31.432  55.984  1.00  0.00     0.041 C 
ATOM     13  O   UNL     1      -8.026  31.472  56.979  1.00  0.00    -0.550 OA
ATOM     14  O   UNL     1      -7.788  31.428  54.701  1.00  0.00    -0.550 OA
ENDBRANCH  11  12
ENDBRANCH  10  11
ENDBRANCH   9  10
ENDBRANCH   8   9
ENDBRANCH   7   8
ENDBRANCH   6   7
ENDBRANCH   5   6
ENDBRANCH   4   5
ENDBRANCH   3   4
ENDBRANCH   2   3
ENDBRANCH   1   2
BRANCH   1  15
ATOM     15  C   UNL     1      -4.117  26.940  58.189  1.00  0.00     0.000 C 
BRANCH  15  16
ATOM     16  C   UNL     1      -4.806  26.140  59.307  1.00  0.00     0.000 C 
BRANCH  16  17
ATOM     17  C   UNL     1      -6.296  25.873  59.001  1.00  0.00     0.000 C 
BRANCH  17  18
ATOM     18  C   UNL     1      -6.596  24.409  58.639  1.00  0.00    -0.000 C 
BRANCH  18  19
ATOM     19  C   UNL     1      -6.564  24.150  57.123  1.00  0.00    -0.000 C 
BRANCH  19  20
ATOM     20  C   UNL     1      -7.086  25.345  56.310  1.00  0.00    -0.000 C 
BRANCH  20  21
ATOM     21  C   UNL     1      -6.115  25.771  55.196  1.00  0.00    -0.000 C 
BRANCH  21  22
ATOM     22  C   UNL     1      -5.808  24.623  54.208  1.00  0.00    -0.000 C 
BRANCH  22  23
ATOM     23  C   UNL     1      -4.305  24.428  53.938  1.00  0.00    -0.000 C 
BRANCH  23  24
ATOM     24  C   UNL     1      -3.390  24.745  55.136  1.00  0.00    -0.000 C 
BRANCH  24  25
ATOM     25  C   UNL     1      -3.210  23.563  56.113  1.00  0.00    -0.003 C 
ATOM     26  C   UNL     1      -3.504  22.206  55.474  1.00  0.00     0.004 C 
ENDBRANCH  24  25
ENDBRANCH  23  24
ENDBRANCH  22  23
ENDBRANCH  21  22
ENDBRANCH  20  21
ENDBRANCH  19  20
ENDBRANCH  18  19
ENDBRANCH  17  18
ENDBRANCH  16  17
ENDBRANCH  15  16
ENDBRANCH   1  15
TORSDOF 22
ENDMDL
MODEL 4
REMARK VINA RESULT:    -3.905      1.462      4.469
REMARK INTER + INTRA:         -13.256
REMARK INTER:                  -8.922
REMARK INTRA:                  -4.334
REMARK UNBOUND:                -4.329
REMARK SMILES CCCCCCCCCCCCCCCCCCCCCCCC(=O)[O-]
REMARK SMILES IDX 13 1 14 2 15 3 16 4 17 5 18 6 19 7 20 8 21 9 22 10 23 11
REMARK SMILES IDX 24 12 25 13 26 14 12 15 11 16 10 17 9 18 8 19 7 20 6 21 5 22
REMARK SMILES IDX 4 23 3 24 2 25 1 26
REMARK H PARENT
REMARK Flexibility Score: inf
ROOT
ATOM      1  C   UNL     1      -3.770  28.467  54.783  1.00  0.00     0.000 C 
ENDROOT
BRANCH   1   2
ATOM      2  C   UNL     1      -2.709  27.375  54.553  1.00  0.00     0.000 C 
BRANCH   2   3
ATOM      3  C   UNL     1      -1.273  27.897  54.724  1.00  0.00     0.000 C 
BRANCH   3   4
ATOM      4  C   UNL     1      -0.361  26.921  55.489  1.00  0.00     0.000 C 
BRANCH   4   5
ATOM      5  C   UNL     1       0.239  25.776  54.645  1.00  0.00     0.000 C 
BRANCH   5   6
ATOM      6  C   UNL     1       0.052  24.361  55.221  1.00  0.00     0.000 C 
BRANCH   6   7
ATOM      7  C   UNL     1      -1.267  24.181  55.988  1.00  0.00     0.000 C 
BRANCH   7   8
ATOM      8  C   UNL     1      -2.215  23.250  55.218  1.00  0.00     0.000 C 
BRANCH   8   9
ATOM      9  C   UNL     1      -3.624  23.175  55.834  1.00  0.00     0.000 C 
BRANCH   9  10
ATOM     10  C   UNL     1      -4.785  23.217  54.820  1.00  0.00     0.006 C 
BRANCH  10  11
ATOM     11  C   UNL     1      -5.328  24.632  54.577  1.00  0.00     0.053 C 
BRANCH  11  12
ATOM     12  C   UNL     1      -6.760  24.725  54.999  1.00  0.00     0.041 C 
ATOM     13  O   UNL     1      -7.193  25.772  55.548  1.00  0.00    -0.550 OA
ATOM     14  O   UNL     1      -7.606  23.635  54.835  1.00  0.00    -0.550 OA
ENDBRANCH  11  12
ENDBRANCH  10  11
ENDBRANCH   9  10
ENDBRANCH   8   9
ENDBRANCH   7   8
ENDBRANCH   6   7
ENDBRANCH   5   6
ENDBRANCH   4   5
ENDBRANCH   3   4
ENDBRANCH   2   3
ENDBRANCH   1   2
BRANCH   1  15
ATOM     15  C   UNL     1      -4.860  28.112  55.812  1.00  0.00     0.000 C 
BRANCH  15  16
ATOM     16  C   UNL     1      -5.173  29.269  56.777  1.00  0.00     0.000 C 
BRANCH  16  17
ATOM     17  C   UNL     1      -4.062  30.340  56.784  1.00  0.00     0.000 C 
BRANCH  17  18
ATOM     18  C   UNL     1      -3.225  30.348  58.075  1.00  0.00    -0.000 C 
BRANCH  18  19
ATOM     19  C   UNL     1      -1.826  29.739  57.882  1.00  0.00    -0.000 C 
BRANCH  19  20
ATOM     20  C   UNL     1      -1.463  28.736  58.989  1.00  0.00    -0.000 C 
BRANCH  20  21
ATOM     21  C   UNL     1      -2.608  27.755  59.295  1.00  0.00    -0.000 C 
BRANCH  21  22
ATOM     22  C   UNL     1      -2.632  26.552  58.325  1.00  0.00    -0.000 C 
BRANCH  22  23
ATOM     23  C   UNL     1      -3.848  25.629  58.519  1.00  0.00    -0.000 C 
BRANCH  23  24
ATOM     24  C   UNL     1      -5.088  26.315  59.120  1.00  0.00    -0.000 C 
BRANCH  24  25
ATOM     25  C   UNL     1      -6.415  25.590  58.807  1.00  0.00    -0.003 C 
ATOM     26  C   UNL     1      -7.649  26.398  59.208  1.00  0.00     0.004 C 
ENDBRANCH  24  25
ENDBRANCH  23  24
ENDBRANCH  22  23
ENDBRANCH  21  22
ENDBRANCH  20  21
ENDBRANCH  19  20
ENDBRANCH  18  19
ENDBRANCH  17  18
ENDBRANCH  16  17
ENDBRANCH  15  16
ENDBRANCH   1  15
TORSDOF 22
ENDMDL
MODEL 5
REMARK VINA RESULT:    -3.898      1.378      4.911
REMARK INTER + INTRA:         -13.240
REMARK INTER:                  -9.120
REMARK INTRA:                  -4.120
REMARK UNBOUND:                -4.329
REMARK SMILES CCCCCCCCCCCCCCCCCCCCCCCC(=O)[O-]
REMARK SMILES IDX 13 1 14 2 15 3 16 4 17 5 18 6 19 7 20 8 21 9 22 10 23 11
REMARK SMILES IDX 24 12 25 13 26 14 12 15 11 16 10 17 9 18 8 19 7 20 6 21 5 22
REMARK SMILES IDX 4 23 3 24 2 25 1 26
REMARK H PARENT
REMARK Flexibility Score: inf
ROOT
ATOM      1  C   UNL     1      -1.272  26.923  55.917  1.00  0.00     0.000 C 
ENDROOT
BRANCH   1   2
ATOM      2  C   UNL     1      -0.137  26.041  55.365  1.00  0.00     0.000 C 
BRANCH   2   3
ATOM      3  C   UNL     1      -0.376  24.542  55.613  1.00  0.00     0.000 C 
BRANCH   3   4
ATOM      4  C   UNL     1      -0.638  23.750  54.320  1.00  0.00     0.000 C 
BRANCH   4   5
ATOM      5  C   UNL     1      -1.325  22.380  54.510  1.00  0.00     0.000 C 
BRANCH   5   6
ATOM      6  C   UNL     1      -2.838  22.353  54.228  1.00  0.00     0.000 C 
BRANCH   6   7
ATOM      7  C   UNL     1      -3.688  22.067  55.475  1.00  0.00     0.000 C 
BRANCH   7   8
ATOM      8  C   UNL     1      -3.777  23.317  56.364  1.00  0.00     0.000 C 
BRANCH   8   9
ATOM      9  C   UNL     1      -5.208  23.618  56.845  1.00  0.00     0.000 C 
BRANCH   9  10
ATOM     10  C   UNL     1      -5.320  24.713  57.924  1.00  0.00     0.006 C 
BRANCH  10  11
ATOM     11  C   UNL     1      -6.666  24.703  58.662  1.00  0.00     0.053 C 
BRANCH  11  12
ATOM     12  C   UNL     1      -7.644  25.608  57.982  1.00  0.00     0.041 C 
ATOM     13  O   UNL     1      -7.561  26.856  58.127  1.00  0.00    -0.550 OA
ATOM     14  O   UNL     1      -8.681  25.072  57.228  1.00  0.00    -0.550 OA
ENDBRANCH  11  12
ENDBRANCH  10  11
ENDBRANCH   9  10
ENDBRANCH   8   9
ENDBRANCH   7   8
ENDBRANCH   6   7
ENDBRANCH   5   6
ENDBRANCH   4   5
ENDBRANCH   3   4
ENDBRANCH   2   3
ENDBRANCH   1   2
BRANCH   1  15
ATOM     15  C   UNL     1      -1.994  26.360  57.157  1.00  0.00     0.000 C 
BRANCH  15  16
ATOM     16  C   UNL     1      -2.242  27.423  58.240  1.00  0.00     0.000 C 
BRANCH  16  17
ATOM     17  C   UNL     1      -1.168  28.531  58.228  1.00  0.00     0.000 C 
BRANCH  17  18
ATOM     18  C   UNL     1      -1.673  29.872  57.669  1.00  0.00    -0.000 C 
BRANCH  18  19
ATOM     19  C   UNL     1      -3.049  30.271  58.228  1.00  0.00    -0.000 C 
BRANCH  19  20
ATOM     20  C   UNL     1      -4.017  30.740  57.131  1.00  0.00    -0.000 C 
BRANCH  20  21
ATOM     21  C   UNL     1      -4.026  29.804  55.910  1.00  0.00    -0.000 C 
BRANCH  21  22
ATOM     22  C   UNL     1      -5.282  28.904  55.865  1.00  0.00    -0.000 C 
BRANCH  22  23
ATOM     23  C   UNL     1      -4.969  27.423  55.583  1.00  0.00    -0.000 C 
BRANCH  23  24
ATOM     24  C   UNL     1      -5.941  26.734  54.609  1.00  0.00    -0.000 C 
BRANCH  24  25
ATOM     25  C   UNL     1      -5.286  25.631  53.749  1.00  0.00    -0.003 C 
ATOM     26  C   UNL     1      -3.812  25.900  53.448  1.00  0.00     0.004 C 
ENDBRANCH  24  25
ENDBRANCH  23  24
ENDBRANCH  22  23
ENDBRANCH  21  22
ENDBRANCH  20  21
ENDBRANCH  19  20
ENDBRANCH  18  19
ENDBRANCH  17  18
ENDBRANCH  16  17
ENDBRANCH  15  16
ENDBRANCH   1  15
TORSDOF 22
ENDMDL
MODEL 6
REMARK VINA RESULT:    -3.878      2.821      5.278
REMARK INTER + INTRA:         -13.196
REMARK INTER:                  -8.152
REMARK INTRA:                  -5.043
REMARK UNBOUND:                -4.329
REMARK SMILES CCCCCCCCCCCCCCCCCCCCCCCC(=O)[O-]
REMARK SMILES IDX 13 1 14 2 15 3 16 4 17 5 18 6 19 7 20 8 21 9 22 10 23 11
REMARK SMILES IDX 24 12 25 13 26 14 12 15 11 16 10 17 9 18 8 19 7 20 6 21 5 22
REMARK SMILES IDX 4 23 3 24 2 25 1 26
REMARK H PARENT
REMARK Flexibility Score: inf
ROOT
ATOM      1  C   UNL     1      -4.153  28.358  55.698  1.00  0.00     0.000 C 
ENDROOT
BRANCH   1   2
ATOM      2  C   UNL     1      -4.556  29.047  57.015  1.00  0.00     0.000 C 
BRANCH   2   3
ATOM      3  C   UNL     1      -3.383  29.784  57.682  1.00  0.00     0.000 C 
BRANCH   3   4
ATOM      4  C   UNL     1      -2.024  29.475  57.028  1.00  0.00     0.000 C 
BRANCH   4   5
ATOM      5  C   UNL     1      -1.058  30.674  56.911  1.00  0.00     0.000 C 
BRANCH   5   6
ATOM      6  C   UNL     1      -1.266  31.573  55.678  1.00  0.00     0.000 C 
BRANCH   6   7
ATOM      7  C   UNL     1      -1.506  30.788  54.380  1.00  0.00     0.000 C 
BRANCH   7   8
ATOM      8  C   UNL     1      -2.829  31.216  53.729  1.00  0.00     0.000 C 
BRANCH   8   9
ATOM      9  C   UNL     1      -3.518  32.380  54.465  1.00  0.00     0.000 C 
BRANCH   9  10
ATOM     10  C   UNL     1      -4.893  32.045  55.078  1.00  0.00     0.006 C 
BRANCH  10  11
ATOM     11  C   UNL     1      -5.952  31.680  54.028  1.00  0.00     0.053 C 
BRANCH  11  12
ATOM     12  C   UNL     1      -7.285  32.241  54.412  1.00  0.00     0.041 C 
ATOM     13  O   UNL     1      -7.543  33.457  54.212  1.00  0.00    -0.550 OA
ATOM     14  O   UNL     1      -8.226  31.433  55.039  1.00  0.00    -0.550 OA
ENDBRANCH  11  12
ENDBRANCH  10  11
ENDBRANCH   9  10
ENDBRANCH   8   9
ENDBRANCH   7   8
ENDBRANCH   6   7
ENDBRANCH   5   6
ENDBRANCH   4   5
ENDBRANCH   3   4
ENDBRANCH   2   3
ENDBRANCH   1   2
BRANCH   1  15
ATOM     15  C   UNL     1      -5.320  27.751  54.895  1.00  0.00     0.000 C 
BRANCH  15  16
ATOM     16  C   UNL     1      -5.040  26.313  54.425  1.00  0.00     0.000 C 
BRANCH  16  17
ATOM     17  C   UNL     1      -5.628  25.260  55.387  1.00  0.00     0.000 C 
BRANCH  17  18
ATOM     18  C   UNL     1      -6.674  25.831  56.360  1.00  0.00    -0.000 C 
BRANCH  18  19
ATOM     19  C   UNL     1      -6.280  25.646  57.835  1.00  0.00    -0.000 C 
BRANCH  19  20
ATOM     20  C   UNL     1      -4.906  24.978  57.999  1.00  0.00    -0.000 C 
BRANCH  20  21
ATOM     21  C   UNL     1      -3.908  25.860  58.768  1.00  0.00    -0.000 C 
BRANCH  21  22
ATOM     22  C   UNL     1      -2.556  26.004  58.033  1.00  0.00    -0.000 C 
BRANCH  22  23
ATOM     23  C   UNL     1      -2.276  24.868  57.033  1.00  0.00    -0.000 C 
BRANCH  23  24
ATOM     24  C   UNL     1      -1.893  25.337  55.617  1.00  0.00    -0.000 C 
BRANCH  24  25
ATOM     25  C   UNL     1      -0.722  26.344  55.590  1.00  0.00    -0.003 C 
ATOM     26  C   UNL     1      -0.729  27.240  54.351  1.00  0.00     0.004 C 
ENDBRANCH  24  25
ENDBRANCH  23  24
ENDBRANCH  22  23
ENDBRANCH  21  22
ENDBRANCH  20  21
ENDBRANCH  19  20
ENDBRANCH  18  19
ENDBRANCH  17  18
ENDBRANCH  16  17
ENDBRANCH  15  16
ENDBRANCH   1  15
TORSDOF 22
ENDMDL
MODEL 7
REMARK VINA RESULT:    -3.856      2.664      5.403
REMARK INTER + INTRA:         -13.144
REMARK INTER:                  -9.290
REMARK INTRA:                  -3.853
REMARK UNBOUND:                -4.329
REMARK SMILES CCCCCCCCCCCCCCCCCCCCCCCC(=O)[O-]
REMARK SMILES IDX 13 1 14 2 15 3 16 4 17 5 18 6 19 7 20 8 21 9 22 10 23 11
REMARK SMILES IDX 24 12 25 13 26 14 12 15 11 16 10 17 9 18 8 19 7 20 6 21 5 22
REMARK SMILES IDX 4 23 3 24 2 25 1 26
REMARK H PARENT
REMARK Flexibility Score: inf
ROOT
ATOM      1  C   UNL     1      -4.039  25.854  53.320  1.00  0.00     0.000 C 
ENDROOT
BRANCH   1   2
ATOM      2  C   UNL     1      -5.089  26.680  54.085  1.00  0.00     0.000 C 
BRANCH   2   3
ATOM      3  C   UNL     1      -4.457  27.743  54.999  1.00  0.00     0.000 C 
BRANCH   3   4
ATOM      4  C   UNL     1      -3.017  28.107  54.598  1.00  0.00     0.000 C 
BRANCH   4   5
ATOM      5  C   UNL     1      -2.836  29.509  53.977  1.00  0.00     0.000 C 
BRANCH   5   6
ATOM      6  C   UNL     1      -2.087  30.529  54.853  1.00  0.00     0.000 C 
BRANCH   6   7
ATOM      7  C   UNL     1      -1.932  30.085  56.315  1.00  0.00     0.000 C 
BRANCH   7   8
ATOM      8  C   UNL     1      -3.149  30.522  57.143  1.00  0.00     0.000 C 
BRANCH   8   9
ATOM      9  C   UNL     1      -3.975  31.632  56.467  1.00  0.00     0.000 C 
BRANCH   9  10
ATOM     10  C   UNL     1      -5.452  31.280  56.200  1.00  0.00     0.006 C 
BRANCH  10  11
ATOM     11  C   UNL     1      -5.879  31.517  54.744  1.00  0.00     0.053 C 
BRANCH  11  12
ATOM     12  C   UNL     1      -7.326  31.891  54.676  1.00  0.00     0.041 C 
ATOM     13  O   UNL     1      -7.760  32.572  53.710  1.00  0.00    -0.550 OA
ATOM     14  O   UNL     1      -8.187  31.533  55.706  1.00  0.00    -0.550 OA
ENDBRANCH  11  12
ENDBRANCH  10  11
ENDBRANCH   9  10
ENDBRANCH   8   9
ENDBRANCH   7   8
ENDBRANCH   6   7
ENDBRANCH   5   6
ENDBRANCH   4   5
ENDBRANCH   3   4
ENDBRANCH   2   3
ENDBRANCH   1   2
BRANCH   1  15
ATOM     15  C   UNL     1      -4.067  24.339  53.602  1.00  0.00     0.000 C 
BRANCH  15  16
ATOM     16  C   UNL     1      -3.536  23.980  55.000  1.00  0.00     0.000 C 
BRANCH  16  17
ATOM     17  C   UNL     1      -2.100  24.495  55.230  1.00  0.00     0.000 C 
BRANCH  17  18
ATOM     18  C   UNL     1      -1.788  24.810  56.703  1.00  0.00    -0.000 C 
BRANCH  18  19
ATOM     19  C   UNL     1      -1.416  26.285  56.932  1.00  0.00    -0.000 C 
BRANCH  19  20
ATOM     20  C   UNL     1      -2.243  26.934  58.053  1.00  0.00    -0.000 C 
BRANCH  20  21
ATOM     21  C   UNL     1      -3.172  25.931  58.758  1.00  0.00    -0.000 C 
BRANCH  21  22
ATOM     22  C   UNL     1      -4.655  26.126  58.371  1.00  0.00    -0.000 C 
BRANCH  22  23
ATOM     23  C   UNL     1      -5.412  24.804  58.149  1.00  0.00    -0.000 C 
BRANCH  23  24
ATOM     24  C   UNL     1      -6.895  24.835  58.563  1.00  0.00    -0.000 C 
BRANCH  24  25
ATOM     25  C   UNL     1      -7.875  24.842  57.370  1.00  0.00    -0.003 C 
ATOM     26  C   UNL     1      -7.195  24.557  56.032  1.00  0.00     0.004 C 
ENDBRANCH  24  25
ENDBRANCH  23  24
ENDBRANCH  22  23
ENDBRANCH  21  22
ENDBRANCH  20  21
ENDBRANCH  19  20
ENDBRANCH  18  19
ENDBRANCH  17  18
ENDBRANCH  16  17
ENDBRANCH  15  16
ENDBRANCH   1  15
TORSDOF 22
ENDMDL
MODEL 8
REMARK VINA RESULT:    -3.840      1.697      5.509
REMARK INTER + INTRA:         -13.107
REMARK INTER:                  -9.141
REMARK INTRA:                  -3.965
REMARK UNBOUND:                -4.329
REMARK SMILES CCCCCCCCCCCCCCCCCCCCCCCC(=O)[O-]
REMARK SMILES IDX 13 1 14 2 15 3 16 4 17 5 18 6 19 7 20 8 21 9 22 10 23 11
REMARK SMILES IDX 24 12 25 13 26 14 12 15 11 16 10 17 9 18 8 19 7 20 6 21 5 22
REMARK SMILES IDX 4 23 3 24 2 25 1 26
REMARK H PARENT
REMARK Flexibility Score: inf
ROOT
ATOM      1  C   UNL     1      -4.253  27.403  57.126  1.00  0.00     0.000 C 
ENDROOT
BRANCH   1   2
ATOM      2  C   UNL     1      -3.827  27.099  55.677  1.00  0.00     0.000 C 
BRANCH   2   3
ATOM      3  C   UNL     1      -2.372  26.613  55.577  1.00  0.00     0.000 C 
BRANCH   3   4
ATOM      4  C   UNL     1      -2.242  25.222  54.929  1.00  0.00     0.000 C 
BRANCH   4   5
ATOM      5  C   UNL     1      -1.903  24.069  55.898  1.00  0.00     0.000 C 
BRANCH   5   6
ATOM      6  C   UNL     1      -2.845  22.853  55.836  1.00  0.00     0.000 C 
BRANCH   6   7
ATOM      7  C   UNL     1      -4.249  23.192  55.312  1.00  0.00     0.000 C 
BRANCH   7   8
ATOM      8  C   UNL     1      -5.158  23.648  56.463  1.00  0.00     0.000 C 
BRANCH   8   9
ATOM      9  C   UNL     1      -6.402  24.417  55.984  1.00  0.00     0.000 C 
BRANCH   9  10
ATOM     10  C   UNL     1      -7.467  24.680  57.067  1.00  0.00     0.006 C 
BRANCH  10  11
ATOM     11  C   UNL     1      -6.885  24.748  58.487  1.00  0.00     0.053 C 
BRANCH  11  12
ATOM     12  C   UNL     1      -7.324  26.003  59.174  1.00  0.00     0.041 C 
ATOM     13  O   UNL     1      -7.490  27.062  58.514  1.00  0.00    -0.550 OA
ATOM     14  O   UNL     1      -7.500  26.017  60.552  1.00  0.00    -0.550 OA
ENDBRANCH  11  12
ENDBRANCH  10  11
ENDBRANCH   9  10
ENDBRANCH   8   9
ENDBRANCH   7   8
ENDBRANCH   6   7
ENDBRANCH   5   6
ENDBRANCH   4   5
ENDBRANCH   3   4
ENDBRANCH   2   3
ENDBRANCH   1   2
BRANCH   1  15
ATOM     15  C   UNL     1      -3.634  26.484  58.196  1.00  0.00     0.000 C 
BRANCH  15  16
ATOM     16  C   UNL     1      -2.831  27.255  59.257  1.00  0.00     0.000 C 
BRANCH  16  17
ATOM     17  C   UNL     1      -2.604  28.729  58.860  1.00  0.00     0.000 C 
BRANCH  17  18
ATOM     18  C   UNL     1      -1.146  29.048  58.487  1.00  0.00    -0.000 C 
BRANCH  18  19
ATOM     19  C   UNL     1      -1.006  30.355  57.688  1.00  0.00    -0.000 C 
BRANCH  19  20
ATOM     20  C   UNL     1      -0.867  30.110  56.177  1.00  0.00    -0.000 C 
BRANCH  20  21
ATOM     21  C   UNL     1      -2.197  30.289  55.425  1.00  0.00    -0.000 C 
BRANCH  21  22
ATOM     22  C   UNL     1      -3.019  31.487  55.952  1.00  0.00    -0.000 C 
BRANCH  22  23
ATOM     23  C   UNL     1      -4.334  31.076  56.639  1.00  0.00    -0.000 C 
BRANCH  23  24
ATOM     24  C   UNL     1      -5.586  31.192  55.750  1.00  0.00    -0.000 C 
BRANCH  24  25
ATOM     25  C   UNL     1      -5.529  32.360  54.741  1.00  0.00    -0.003 C 
ATOM     26  C   UNL     1      -6.839  32.559  53.979  1.00  0.00     0.004 C 
ENDBRANCH  24  25
ENDBRANCH  23  24
ENDBRANCH  22  23
ENDBRANCH  21  22
ENDBRANCH  20  21
ENDBRANCH  19  20
ENDBRANCH  18  19
ENDBRANCH  17  18
ENDBRANCH  16  17
ENDBRANCH  15  16
ENDBRANCH   1  15
TORSDOF 22
ENDMDL
MODEL 9
REMARK VINA RESULT:    -3.821      2.570      4.886
REMARK INTER + INTRA:         -13.065
REMARK INTER:                  -9.107
REMARK INTRA:                  -3.958
REMARK UNBOUND:                -4.329
REMARK SMILES CCCCCCCCCCCCCCCCCCCCCCCC(=O)[O-]
REMARK SMILES IDX 13 1 14 2 15 3 16 4 17 5 18 6 19 7 20 8 21 9 22 10 23 11
REMARK SMILES IDX 24 12 25 13 26 14 12 15 11 16 10 17 9 18 8 19 7 20 6 21 5 22
REMARK SMILES IDX 4 23 3 24 2 25 1 26
REMARK H PARENT
REMARK Flexibility Score: inf
ROOT
ATOM      1  C   UNL     1      -5.633  26.866  56.571  1.00  0.00     0.000 C 
ENDROOT
BRANCH   1   2
ATOM      2  C   UNL     1      -5.114  25.737  57.481  1.00  0.00     0.000 C 
BRANCH   2   3
ATOM      3  C   UNL     1      -4.804  26.220  58.907  1.00  0.00     0.000 C 
BRANCH   3   4
ATOM      4  C   UNL     1      -3.302  26.188  59.244  1.00  0.00     0.000 C 
BRANCH   4   5
ATOM      5  C   UNL     1      -2.485  27.396  58.738  1.00  0.00     0.000 C 
BRANCH   5   6
ATOM      6  C   UNL     1      -2.595  28.674  59.589  1.00  0.00     0.000 C 
BRANCH   6   7
ATOM      7  C   UNL     1      -2.937  29.928  58.770  1.00  0.00     0.000 C 
BRANCH   7   8
ATOM      8  C   UNL     1      -3.400  29.539  57.359  1.00  0.00     0.000 C 
BRANCH   8   9
ATOM      9  C   UNL     1      -4.229  30.638  56.668  1.00  0.00     0.000 C 
BRANCH   9  10
ATOM     10  C   UNL     1      -5.567  30.168  56.065  1.00  0.00     0.006 C 
BRANCH  10  11
ATOM     11  C   UNL     1      -5.930  30.889  54.758  1.00  0.00     0.053 C 
BRANCH  11  12
ATOM     12  C   UNL     1      -7.177  31.697  54.934  1.00  0.00     0.041 C 
ATOM     13  O   UNL     1      -7.565  32.470  54.019  1.00  0.00    -0.550 OA
ATOM     14  O   UNL     1      -7.883  31.637  56.129  1.00  0.00    -0.550 OA
ENDBRANCH  11  12
ENDBRANCH  10  11
ENDBRANCH   9  10
ENDBRANCH   8   9
ENDBRANCH   7   8
ENDBRANCH   6   7
ENDBRANCH   5   6
ENDBRANCH   4   5
ENDBRANCH   3   4
ENDBRANCH   2   3
ENDBRANCH   1   2
BRANCH   1  15
ATOM     15  C   UNL     1      -6.031  26.427  55.149  1.00  0.00     0.000 C 
BRANCH  15  16
ATOM     16  C   UNL     1      -5.891  24.911  54.928  1.00  0.00     0.000 C 
BRANCH  16  17
ATOM     17  C   UNL     1      -4.951  24.576  53.751  1.00  0.00     0.000 C 
BRANCH  17  18
ATOM     18  C   UNL     1      -4.229  23.227  53.905  1.00  0.00    -0.000 C 
BRANCH  18  19
ATOM     19  C   UNL     1      -4.094  22.786  55.373  1.00  0.00    -0.000 C 
BRANCH  19  20
ATOM     20  C   UNL     1      -2.631  22.721  55.836  1.00  0.00    -0.000 C 
BRANCH  20  21
ATOM     21  C   UNL     1      -1.753  23.798  55.177  1.00  0.00    -0.000 C 
BRANCH  21  22
ATOM     22  C   UNL     1      -1.426  24.964  56.138  1.00  0.00    -0.000 C 
BRANCH  22  23
ATOM     23  C   UNL     1      -1.986  26.320  55.674  1.00  0.00    -0.000 C 
BRANCH  23  24
ATOM     24  C   UNL     1      -0.932  27.298  55.124  1.00  0.00    -0.000 C 
BRANCH  24  25
ATOM     25  C   UNL     1      -1.463  28.228  54.012  1.00  0.00    -0.003 C 
ATOM     26  C   UNL     1      -2.985  28.197  53.880  1.00  0.00     0.004 C 
ENDBRANCH  24  25
ENDBRANCH  23  24
ENDBRANCH  22  23
ENDBRANCH  21  22
ENDBRANCH  20  21
ENDBRANCH  19  20
ENDBRANCH  18  19
ENDBRANCH  17  18
ENDBRANCH  16  17
ENDBRANCH  15  16
ENDBRANCH   1  15
TORSDOF 22
ENDMDL
