MODEL 1
REMARK VINA RESULT:    -3.982      0.000      0.000
REMARK INTER + INTRA:          -7.740
REMARK INTER:                  -5.379
REMARK INTRA:                  -2.361
REMARK UNBOUND:                -2.361
REMARK SMILES C=CC(C)=CCC=C(C)CCC=C(C)C
REMARK SMILES IDX 8 1 7 2 9 3 10 4 11 5 12 6 14 7 13 8 15 9 6 10 5 11 3 12
REMARK SMILES IDX 4 13 2 14 1 15
REMARK H PARENT
REMARK Flexibility Score: inf
ROOT
ATOM      1  C   UNL     1      10.172  19.543  27.086  1.00  0.00    -0.077 C 
ATOM      2  C   UNL     1       8.988  18.893  27.011  1.00  0.00    -0.024 C 
ATOM      3  C   UNL     1      11.339  18.838  27.724  1.00  0.00     0.039 C 
ENDROOT
BRANCH   1   4
ATOM      4  C   UNL     1      10.356  20.972  26.614  1.00  0.00     0.034 C 
BRANCH   4   5
ATOM      5  C   UNL     1      11.596  21.091  25.720  1.00  0.00     0.032 C 
BRANCH   5   6
ATOM      6  C   UNL     1      11.200  21.380  24.294  1.00  0.00    -0.028 C 
ATOM      7  C   UNL     1      11.346  18.980  23.596  1.00  0.00     0.039 C 
ATOM      8  C   UNL     1      11.058  20.440  23.335  1.00  0.00    -0.080 C 
ATOM      9  C   UNL     1      10.615  20.876  21.962  1.00  0.00     0.039 C 
ENDBRANCH   5   6
ENDBRANCH   4   5
ENDBRANCH   1   4
BRANCH   2  10
ATOM     10  C   UNL     1       7.732  19.470  26.407  1.00  0.00     0.055 C 
BRANCH  10  11
ATOM     11  C   UNL     1       7.541  18.996  24.990  1.00  0.00    -0.020 C 
ATOM     12  C   UNL     1       7.427  19.825  23.934  1.00  0.00    -0.055 C 
ATOM     13  C   UNL     1       7.485  21.328  24.099  1.00  0.00     0.044 C 
BRANCH  12  14
ATOM     14  C   UNL     1       7.318  19.221  22.582  1.00  0.00    -0.005 C 
ATOM     15  C   UNL     1       8.026  18.162  22.186  1.00  0.00     0.009 C 
ENDBRANCH  12  14
ENDBRANCH  10  11
ENDBRANCH   2  10
TORSDOF 6
ENDMDL
MODEL 2
REMARK VINA RESULT:    -3.902      1.118      5.195
REMARK INTER + INTRA:          -7.631
REMARK INTER:                  -5.737
REMARK INTRA:                  -1.894
REMARK UNBOUND:                -2.361
REMARK SMILES C=CC(C)=CCC=C(C)CCC=C(C)C
REMARK SMILES IDX 8 1 7 2 9 3 10 4 11 5 12 6 14 7 13 8 15 9 6 10 5 11 3 12
REMARK SMILES IDX 4 13 2 14 1 15
REMARK H PARENT
REMARK Flexibility Score: inf
ROOT
ATOM      1  C   UNL     1       8.956  19.228  22.744  1.00  0.00    -0.077 C 
ATOM      2  C   UNL     1      10.244  18.866  22.946  1.00  0.00    -0.024 C 
ATOM      3  C   UNL     1       8.071  18.311  21.941  1.00  0.00     0.039 C 
ENDROOT
BRANCH   1   4
ATOM      4  C   UNL     1       8.384  20.542  23.237  1.00  0.00     0.034 C 
BRANCH   4   5
ATOM      5  C   UNL     1       7.155  20.301  24.119  1.00  0.00     0.032 C 
BRANCH   5   6
ATOM      6  C   UNL     1       7.455  19.278  25.185  1.00  0.00    -0.028 C 
ATOM      7  C   UNL     1       6.985  20.862  27.067  1.00  0.00     0.039 C 
ATOM      8  C   UNL     1       7.359  19.506  26.513  1.00  0.00    -0.080 C 
ATOM      9  C   UNL     1       7.652  18.372  27.461  1.00  0.00     0.039 C 
ENDBRANCH   5   6
ENDBRANCH   4   5
ENDBRANCH   1   4
BRANCH   2  10
ATOM     10  C   UNL     1      11.249  19.680  23.722  1.00  0.00     0.055 C 
BRANCH  10  11
ATOM     11  C   UNL     1      11.317  19.237  25.160  1.00  0.00    -0.020 C 
ATOM     12  C   UNL     1      11.033  20.041  26.203  1.00  0.00    -0.055 C 
ATOM     13  C   UNL     1      10.617  21.481  26.002  1.00  0.00     0.044 C 
BRANCH  12  14
ATOM     14  C   UNL     1      11.068  19.452  27.566  1.00  0.00    -0.005 C 
ATOM     15  C   UNL     1      12.194  19.219  28.242  1.00  0.00     0.009 C 
ENDBRANCH  12  14
ENDBRANCH  10  11
ENDBRANCH   2  10
TORSDOF 6
ENDMDL
MODEL 3
REMARK VINA RESULT:    -3.833      0.933      4.117
REMARK INTER + INTRA:          -7.538
REMARK INTER:                  -5.276
REMARK INTRA:                  -2.262
REMARK UNBOUND:                -2.361
REMARK SMILES C=CC(C)=CCC=C(C)CCC=C(C)C
REMARK SMILES IDX 8 1 7 2 9 3 10 4 11 5 12 6 14 7 13 8 15 9 6 10 5 11 3 12
REMARK SMILES IDX 4 13 2 14 1 15
REMARK H PARENT
REMARK Flexibility Score: inf
ROOT
ATOM      1  C   UNL     1       7.720  19.721  24.172  1.00  0.00    -0.077 C 
ATOM      2  C   UNL     1       7.602  19.015  25.320  1.00  0.00    -0.024 C 
ATOM      3  C   UNL     1       7.247  19.090  22.889  1.00  0.00     0.039 C 
ENDROOT
BRANCH   1   4
ATOM      4  C   UNL     1       8.365  21.091  24.113  1.00  0.00     0.034 C 
BRANCH   4   5
ATOM      5  C   UNL     1       9.521  21.103  23.107  1.00  0.00     0.032 C 
BRANCH   5   6
ATOM      6  C   UNL     1      10.847  21.202  23.820  1.00  0.00    -0.028 C 
ATOM      7  C   UNL     1      11.335  18.757  23.594  1.00  0.00     0.039 C 
ATOM      8  C   UNL     1      11.685  20.163  24.023  1.00  0.00    -0.080 C 
ATOM      9  C   UNL     1      12.998  20.423  24.716  1.00  0.00     0.039 C 
ENDBRANCH   5   6
ENDBRANCH   4   5
ENDBRANCH   1   4
BRANCH   2  10
ATOM     10  C   UNL     1       8.035  19.510  26.677  1.00  0.00     0.055 C 
BRANCH  10  11
ATOM     11  C   UNL     1       9.375  18.939  27.063  1.00  0.00    -0.020 C 
ATOM     12  C   UNL     1      10.427  19.693  27.438  1.00  0.00    -0.055 C 
ATOM     13  C   UNL     1      10.338  21.202  27.499  1.00  0.00     0.044 C 
BRANCH  12  14
ATOM     14  C   UNL     1      11.667  18.995  27.866  1.00  0.00    -0.005 C 
ATOM     15  C   UNL     1      12.717  19.619  28.402  1.00  0.00     0.009 C 
ENDBRANCH  12  14
ENDBRANCH  10  11
ENDBRANCH   2  10
TORSDOF 6
ENDMDL
MODEL 4
REMARK VINA RESULT:    -3.794      1.191      4.559
REMARK INTER + INTRA:          -7.486
REMARK INTER:                  -5.397
REMARK INTRA:                  -2.089
REMARK UNBOUND:                -2.361
REMARK SMILES C=CC(C)=CCC=C(C)CCC=C(C)C
REMARK SMILES IDX 8 1 7 2 9 3 10 4 11 5 12 6 14 7 13 8 15 9 6 10 5 11 3 12
REMARK SMILES IDX 4 13 2 14 1 15
REMARK H PARENT
REMARK Flexibility Score: inf
ROOT
ATOM      1  C   UNL     1       6.741  19.676  23.932  1.00  0.00    -0.077 C 
ATOM      2  C   UNL     1       6.998  19.982  25.224  1.00  0.00    -0.024 C 
ATOM      3  C   UNL     1       5.716  20.494  23.191  1.00  0.00     0.039 C 
ENDROOT
BRANCH   1   4
ATOM      4  C   UNL     1       7.392  18.508  23.219  1.00  0.00     0.034 C 
BRANCH   4   5
ATOM      5  C   UNL     1       8.461  19.001  22.237  1.00  0.00     0.032 C 
BRANCH   5   6
ATOM      6  C   UNL     1       9.837  18.880  22.841  1.00  0.00    -0.028 C 
ATOM      7  C   UNL     1      10.004  21.325  23.355  1.00  0.00     0.039 C 
ATOM      8  C   UNL     1      10.532  19.909  23.372  1.00  0.00    -0.080 C 
ATOM      9  C   UNL     1      11.883  19.628  23.979  1.00  0.00     0.039 C 
ENDBRANCH   5   6
ENDBRANCH   4   5
ENDBRANCH   1   4
BRANCH   2  10
ATOM     10  C   UNL     1       7.990  19.252  26.095  1.00  0.00     0.055 C 
BRANCH  10  11
ATOM     11  C   UNL     1       8.924  20.214  26.782  1.00  0.00    -0.020 C 
ATOM     12  C   UNL     1      10.119  19.858  27.291  1.00  0.00    -0.055 C 
ATOM     13  C   UNL     1      10.622  18.433  27.210  1.00  0.00     0.044 C 
BRANCH  12  14
ATOM     14  C   UNL     1      10.973  20.924  27.875  1.00  0.00    -0.005 C 
ATOM     15  C   UNL     1      11.740  21.738  27.148  1.00  0.00     0.009 C 
ENDBRANCH  12  14
ENDBRANCH  10  11
ENDBRANCH   2  10
TORSDOF 6
ENDMDL
MODEL 5
REMARK VINA RESULT:    -3.735      1.168      3.861
REMARK INTER + INTRA:          -7.405
REMARK INTER:                  -5.808
REMARK INTRA:                  -1.597
REMARK UNBOUND:                -2.361
REMARK SMILES C=CC(C)=CCC=C(C)CCC=C(C)C
REMARK SMILES IDX 8 1 7 2 9 3 10 4 11 5 12 6 14 7 13 8 15 9 6 10 5 11 3 12
REMARK SMILES IDX 4 13 2 14 1 15
REMARK H PARENT
REMARK Flexibility Score: inf
ROOT
ATOM      1  C   UNL     1       8.447  18.971  27.216  1.00  0.00    -0.077 C 
ATOM      2  C   UNL     1       9.735  18.582  27.360  1.00  0.00    -0.024 C 
ATOM      3  C   UNL     1       7.360  18.042  27.685  1.00  0.00     0.039 C 
ENDROOT
BRANCH   1   4
ATOM      4  C   UNL     1       8.053  20.273  26.547  1.00  0.00     0.034 C 
BRANCH   4   5
ATOM      5  C   UNL     1       7.168  20.006  25.324  1.00  0.00     0.032 C 
BRANCH   5   6
ATOM      6  C   UNL     1       7.948  19.301  24.244  1.00  0.00    -0.028 C 
ATOM      7  C   UNL     1       5.940  18.964  22.787  1.00  0.00     0.039 C 
ATOM      8  C   UNL     1       7.417  18.850  23.087  1.00  0.00    -0.080 C 
ATOM      9  C   UNL     1       8.331  18.199  22.082  1.00  0.00     0.039 C 
ENDBRANCH   5   6
ENDBRANCH   4   5
ENDBRANCH   1   4
BRANCH   2  10
ATOM     10  C   UNL     1      10.929  19.399  26.934  1.00  0.00     0.055 C 
BRANCH  10  11
ATOM     11  C   UNL     1      11.432  18.965  25.582  1.00  0.00    -0.020 C 
ATOM     12  C   UNL     1      11.544  19.794  24.526  1.00  0.00    -0.055 C 
ATOM     13  C   UNL     1      11.162  21.255  24.623  1.00  0.00     0.044 C 
BRANCH  12  14
ATOM     14  C   UNL     1      12.126  19.251  23.272  1.00  0.00    -0.005 C 
ATOM     15  C   UNL     1      12.412  20.000  22.206  1.00  0.00     0.009 C 
ENDBRANCH  12  14
ENDBRANCH  10  11
ENDBRANCH   2  10
TORSDOF 6
ENDMDL
MODEL 6
REMARK VINA RESULT:    -3.733      1.321      4.998
REMARK INTER + INTRA:          -7.404
REMARK INTER:                  -5.128
REMARK INTRA:                  -2.275
REMARK UNBOUND:                -2.361
REMARK SMILES C=CC(C)=CCC=C(C)CCC=C(C)C
REMARK SMILES IDX 8 1 7 2 9 3 10 4 11 5 12 6 14 7 13 8 15 9 6 10 5 11 3 12
REMARK SMILES IDX 4 13 2 14 1 15
REMARK H PARENT
REMARK Flexibility Score: inf
ROOT
ATOM      1  C   UNL     1       6.998  19.102  22.625  1.00  0.00    -0.077 C 
ATOM      2  C   UNL     1       8.261  18.655  22.442  1.00  0.00    -0.024 C 
ATOM      3  C   UNL     1       5.861  18.127  22.465  1.00  0.00     0.039 C 
ENDROOT
BRANCH   1   4
ATOM      4  C   UNL     1       6.674  20.553  22.923  1.00  0.00     0.034 C 
BRANCH   4   5
ATOM      5  C   UNL     1       5.944  20.680  24.265  1.00  0.00     0.032 C 
BRANCH   5   6
ATOM      6  C   UNL     1       6.837  21.314  25.301  1.00  0.00    -0.028 C 
ATOM      7  C   UNL     1       7.450  19.125  26.349  1.00  0.00     0.039 C 
ATOM      8  C   UNL     1       7.541  20.628  26.227  1.00  0.00    -0.080 C 
ATOM      9  C   UNL     1       8.426  21.398  27.173  1.00  0.00     0.039 C 
ENDBRANCH   5   6
ENDBRANCH   4   5
ENDBRANCH   1   4
BRANCH   2  10
ATOM     10  C   UNL     1       9.497  19.511  22.561  1.00  0.00     0.055 C 
BRANCH  10  11
ATOM     11  C   UNL     1      10.219  19.248  23.858  1.00  0.00    -0.020 C 
ATOM     12  C   UNL     1      10.846  20.204  24.570  1.00  0.00    -0.055 C 
ATOM     13  C   UNL     1      10.873  21.645  24.109  1.00  0.00     0.044 C 
BRANCH  12  14
ATOM     14  C   UNL     1      11.455  19.819  25.869  1.00  0.00    -0.005 C 
ATOM     15  C   UNL     1      11.083  18.746  26.569  1.00  0.00     0.009 C 
ENDBRANCH  12  14
ENDBRANCH  10  11
ENDBRANCH   2  10
TORSDOF 6
ENDMDL
MODEL 7
REMARK VINA RESULT:    -3.637      1.199      1.945
REMARK INTER + INTRA:          -7.274
REMARK INTER:                  -5.322
REMARK INTRA:                  -1.951
REMARK UNBOUND:                -2.361
REMARK SMILES C=CC(C)=CCC=C(C)CCC=C(C)C
REMARK SMILES IDX 8 1 7 2 9 3 10 4 11 5 12 6 14 7 13 8 15 9 6 10 5 11 3 12
REMARK SMILES IDX 4 13 2 14 1 15
REMARK H PARENT
REMARK Flexibility Score: inf
ROOT
ATOM      1  C   UNL     1       9.773  19.951  27.143  1.00  0.00    -0.077 C 
ATOM      2  C   UNL     1       8.475  20.097  26.790  1.00  0.00    -0.024 C 
ATOM      3  C   UNL     1      10.370  20.942  28.106  1.00  0.00     0.039 C 
ENDROOT
BRANCH   1   4
ATOM      4  C   UNL     1      10.666  18.871  26.565  1.00  0.00     0.034 C 
BRANCH   4   5
ATOM      5  C   UNL     1      11.656  19.469  25.560  1.00  0.00     0.032 C 
BRANCH   5   6
ATOM      6  C   UNL     1      11.066  19.481  24.172  1.00  0.00    -0.028 C 
ATOM      7  C   UNL     1      10.568  21.935  24.230  1.00  0.00     0.039 C 
ATOM      8  C   UNL     1      10.597  20.585  23.550  1.00  0.00    -0.080 C 
ATOM      9  C   UNL     1      10.073  20.450  22.144  1.00  0.00     0.039 C 
ENDBRANCH   5   6
ENDBRANCH   4   5
ENDBRANCH   1   4
BRANCH   2  10
ATOM     10  C   UNL     1       7.742  19.189  25.834  1.00  0.00     0.055 C 
BRANCH  10  11
ATOM     11  C   UNL     1       7.025  19.981  24.771  1.00  0.00    -0.020 C 
ATOM     12  C   UNL     1       6.815  19.530  23.519  1.00  0.00    -0.055 C 
ATOM     13  C   UNL     1       7.294  18.165  23.079  1.00  0.00     0.044 C 
BRANCH  12  14
ATOM     14  C   UNL     1       6.028  20.385  22.594  1.00  0.00    -0.005 C 
ATOM     15  C   UNL     1       5.178  19.903  21.685  1.00  0.00     0.009 C 
ENDBRANCH  12  14
ENDBRANCH  10  11
ENDBRANCH   2  10
TORSDOF 6
ENDMDL
MODEL 8
REMARK VINA RESULT:    -3.605      1.324      3.140
REMARK INTER + INTRA:          -7.230
REMARK INTER:                  -5.077
REMARK INTRA:                  -2.153
REMARK UNBOUND:                -2.361
REMARK SMILES C=CC(C)=CCC=C(C)CCC=C(C)C
REMARK SMILES IDX 8 1 7 2 9 3 10 4 11 5 12 6 14 7 13 8 15 9 6 10 5 11 3 12
REMARK SMILES IDX 4 13 2 14 1 15
REMARK H PARENT
REMARK Flexibility Score: inf
ROOT
ATOM      1  C   UNL     1      11.254  19.693  26.413  1.00  0.00    -0.077 C 
ATOM      2  C   UNL     1      11.467  19.023  25.258  1.00  0.00    -0.024 C 
ATOM      3  C   UNL     1      11.499  18.976  27.714  1.00  0.00     0.039 C 
ENDROOT
BRANCH   1   4
ATOM      4  C   UNL     1      10.720  21.111  26.454  1.00  0.00     0.034 C 
BRANCH   4   5
ATOM      5  C   UNL     1       9.533  21.215  27.418  1.00  0.00     0.032 C 
BRANCH   5   6
ATOM      6  C   UNL     1       8.271  21.573  26.674  1.00  0.00    -0.028 C 
ATOM      7  C   UNL     1       7.588  19.185  26.354  1.00  0.00     0.039 C 
ATOM      8  C   UNL     1       7.374  20.675  26.213  1.00  0.00    -0.080 C 
ATOM      9  C   UNL     1       6.136  21.184  25.522  1.00  0.00     0.039 C 
ENDBRANCH   5   6
ENDBRANCH   4   5
ENDBRANCH   1   4
BRANCH   2  10
ATOM     10  C   UNL     1      11.260  19.604  23.881  1.00  0.00     0.055 C 
BRANCH  10  11
ATOM     11  C   UNL     1      10.039  19.019  23.220  1.00  0.00    -0.020 C 
ATOM     12  C   UNL     1       8.988  19.754  22.810  1.00  0.00    -0.055 C 
ATOM     13  C   UNL     1       8.955  21.256  22.988  1.00  0.00     0.044 C 
BRANCH  12  14
ATOM     14  C   UNL     1       7.882  19.057  22.105  1.00  0.00    -0.005 C 
ATOM     15  C   UNL     1       6.615  19.071  22.522  1.00  0.00     0.009 C 
ENDBRANCH  12  14
ENDBRANCH  10  11
ENDBRANCH   2  10
TORSDOF 6
ENDMDL
MODEL 9
REMARK VINA RESULT:    -3.600      1.383      4.815
REMARK INTER + INTRA:          -7.224
REMARK INTER:                  -4.834
REMARK INTRA:                  -2.390
REMARK UNBOUND:                -2.361
REMARK SMILES C=CC(C)=CCC=C(C)CCC=C(C)C
REMARK SMILES IDX 8 1 7 2 9 3 10 4 11 5 12 6 14 7 13 8 15 9 6 10 5 11 3 12
REMARK SMILES IDX 4 13 2 14 1 15
REMARK H PARENT
REMARK Flexibility Score: inf
ROOT
ATOM      1  C   UNL     1       7.412  20.719  24.962  1.00  0.00    -0.077 C 
ATOM      2  C   UNL     1       8.135  21.429  24.066  1.00  0.00    -0.024 C 
ATOM      3  C   UNL     1       6.324  21.425  25.727  1.00  0.00     0.039 C 
ENDROOT
BRANCH   1   4
ATOM      4  C   UNL     1       7.692  19.263  25.274  1.00  0.00     0.034 C 
BRANCH   4   5
ATOM      5  C   UNL     1       7.908  19.062  26.778  1.00  0.00     0.032 C 
BRANCH   5   6
ATOM      6  C   UNL     1       9.345  18.711  27.068  1.00  0.00    -0.028 C 
ATOM      7  C   UNL     1       9.977  21.067  27.634  1.00  0.00     0.039 C 
ATOM      8  C   UNL     1      10.281  19.595  27.479  1.00  0.00    -0.080 C 
ATOM      9  C   UNL     1      11.670  19.088  27.771  1.00  0.00     0.039 C 
ENDBRANCH   5   6
ENDBRANCH   4   5
ENDBRANCH   1   4
BRANCH   2  10
ATOM     10  C   UNL     1       9.257  20.864  23.232  1.00  0.00     0.055 C 
BRANCH  10  11
ATOM     11  C   UNL     1      10.601  21.225  23.809  1.00  0.00    -0.020 C 
ATOM     12  C   UNL     1      11.556  20.320  24.100  1.00  0.00    -0.055 C 
ATOM     13  C   UNL     1      11.343  18.841  23.865  1.00  0.00     0.044 C 
BRANCH  12  14
ATOM     14  C   UNL     1      12.864  20.822  24.594  1.00  0.00    -0.005 C 
ATOM     15  C   UNL     1      12.987  21.750  25.544  1.00  0.00     0.009 C 
ENDBRANCH  12  14
ENDBRANCH  10  11
ENDBRANCH   2  10
TORSDOF 6
ENDMDL
