MODEL 1
REMARK VINA RESULT:    -4.541      0.000      0.000
REMARK INTER + INTRA:          -5.853
REMARK INTER:                  -5.603
REMARK INTRA:                  -0.251
REMARK UNBOUND:                -0.251
REMARK SMILES CCCCC=CC(C)=O
REMARK SMILES IDX 4 1 3 2 2 3 1 4 5 5 6 6 7 7 9 8 8 9
REMARK H PARENT
REMARK Flexibility Score: inf
ROOT
ATOM      1  C   UNL     1      -8.254  33.429  21.147  1.00  0.00     0.027 C 
ENDROOT
BRANCH   1   2
ATOM      2  C   UNL     1      -7.872  34.734  21.856  1.00  0.00     0.004 C 
BRANCH   2   3
ATOM      3  C   UNL     1      -7.517  34.476  23.325  1.00  0.00    -0.003 C 
ATOM      4  C   UNL     1      -8.522  35.142  24.260  1.00  0.00     0.004 C 
ENDBRANCH   2   3
ENDBRANCH   1   2
BRANCH   1   5
ATOM      5  C   UNL     1      -7.827  32.231  21.945  1.00  0.00    -0.023 C 
ATOM      6  C   UNL     1      -8.475  31.063  21.852  1.00  0.00     0.042 C 
BRANCH   6   7
ATOM      7  C   UNL     1      -8.085  29.855  22.608  1.00  0.00     0.152 C 
ATOM      8  O   UNL     1      -8.877  28.877  22.633  1.00  0.00    -0.295 OA
ATOM      9  C   UNL     1      -6.782  29.755  23.345  1.00  0.00     0.093 C 
ENDBRANCH   6   7
ENDBRANCH   1   5
TORSDOF 4
ENDMDL
MODEL 2
REMARK VINA RESULT:    -4.445      0.793      1.166
REMARK INTER + INTRA:          -5.735
REMARK INTER:                  -5.532
REMARK INTRA:                  -0.203
REMARK UNBOUND:                -0.251
REMARK SMILES CCCCC=CC(C)=O
REMARK SMILES IDX 4 1 3 2 2 3 1 4 5 5 6 6 7 7 9 8 8 9
REMARK H PARENT
REMARK Flexibility Score: inf
ROOT
ATOM      1  C   UNL     1      -8.072  34.230  21.946  1.00  0.00     0.027 C 
ENDROOT
BRANCH   1   2
ATOM      2  C   UNL     1      -7.453  34.624  23.294  1.00  0.00     0.004 C 
BRANCH   2   3
ATOM      3  C   UNL     1      -8.501  35.260  24.214  1.00  0.00    -0.003 C 
ATOM      4  C   UNL     1      -8.077  35.171  25.677  1.00  0.00     0.004 C 
ENDBRANCH   2   3
ENDBRANCH   1   2
BRANCH   1   5
ATOM      5  C   UNL     1      -7.994  32.747  21.726  1.00  0.00    -0.023 C 
ATOM      6  C   UNL     1      -7.965  31.889  22.752  1.00  0.00     0.042 C 
BRANCH   6   7
ATOM      7  C   UNL     1      -7.902  30.423  22.585  1.00  0.00     0.152 C 
ATOM      8  O   UNL     1      -8.763  29.861  21.857  1.00  0.00    -0.295 OA
ATOM      9  C   UNL     1      -6.853  29.582  23.250  1.00  0.00     0.093 C 
ENDBRANCH   6   7
ENDBRANCH   1   5
TORSDOF 4
ENDMDL
MODEL 3
REMARK VINA RESULT:    -4.423      2.211      4.327
REMARK INTER + INTRA:          -5.708
REMARK INTER:                  -5.440
REMARK INTRA:                  -0.268
REMARK UNBOUND:                -0.251
REMARK SMILES CCCCC=CC(C)=O
REMARK SMILES IDX 4 1 3 2 2 3 1 4 5 5 6 6 7 7 9 8 8 9
REMARK H PARENT
REMARK Flexibility Score: inf
ROOT
ATOM      1  C   UNL     1      -7.820  34.496  21.662  1.00  0.00     0.027 C 
ENDROOT
BRANCH   1   2
ATOM      2  C   UNL     1      -8.657  33.252  21.336  1.00  0.00     0.004 C 
BRANCH   2   3
ATOM      3  C   UNL     1      -7.764  32.095  20.876  1.00  0.00    -0.003 C 
ATOM      4  C   UNL     1      -7.759  30.962  21.899  1.00  0.00     0.004 C 
ENDBRANCH   2   3
ENDBRANCH   1   2
BRANCH   1   5
ATOM      5  C   UNL     1      -7.949  34.875  23.109  1.00  0.00    -0.023 C 
ATOM      6  C   UNL     1      -8.235  33.963  24.046  1.00  0.00     0.042 C 
BRANCH   6   7
ATOM      7  C   UNL     1      -8.359  34.286  25.482  1.00  0.00     0.152 C 
ATOM      8  O   UNL     1      -8.369  33.341  26.315  1.00  0.00    -0.295 OA
ATOM      9  C   UNL     1      -8.477  35.695  25.982  1.00  0.00     0.093 C 
ENDBRANCH   6   7
ENDBRANCH   1   5
TORSDOF 4
ENDMDL
MODEL 4
REMARK VINA RESULT:    -4.401      3.142      4.441
REMARK INTER + INTRA:          -5.681
REMARK INTER:                  -5.468
REMARK INTRA:                  -0.213
REMARK UNBOUND:                -0.251
REMARK SMILES CCCCC=CC(C)=O
REMARK SMILES IDX 4 1 3 2 2 3 1 4 5 5 6 6 7 7 9 8 8 9
REMARK H PARENT
REMARK Flexibility Score: inf
ROOT
ATOM      1  C   UNL     1      -7.869  34.572  21.950  1.00  0.00     0.027 C 
ENDROOT
BRANCH   1   2
ATOM      2  C   UNL     1      -8.702  33.322  21.641  1.00  0.00     0.004 C 
BRANCH   2   3
ATOM      3  C   UNL     1      -7.967  32.402  20.660  1.00  0.00    -0.003 C 
ATOM      4  C   UNL     1      -7.112  33.205  19.685  1.00  0.00     0.004 C 
ENDBRANCH   2   3
ENDBRANCH   1   2
BRANCH   1   5
ATOM      5  C   UNL     1      -7.867  34.875  23.421  1.00  0.00    -0.023 C 
ATOM      6  C   UNL     1      -8.327  33.992  24.316  1.00  0.00     0.042 C 
BRANCH   6   7
ATOM      7  C   UNL     1      -8.334  34.240  25.772  1.00  0.00     0.152 C 
ATOM      8  O   UNL     1      -8.365  35.430  26.182  1.00  0.00    -0.295 OA
ATOM      9  C   UNL     1      -8.301  33.126  26.776  1.00  0.00     0.093 C 
ENDBRANCH   6   7
ENDBRANCH   1   5
TORSDOF 4
ENDMDL
MODEL 5
REMARK VINA RESULT:    -4.399      1.473      2.454
REMARK INTER + INTRA:          -5.679
REMARK INTER:                  -5.449
REMARK INTRA:                  -0.230
REMARK UNBOUND:                -0.251
REMARK SMILES CCCCC=CC(C)=O
REMARK SMILES IDX 4 1 3 2 2 3 1 4 5 5 6 6 7 7 9 8 8 9
REMARK H PARENT
REMARK Flexibility Score: inf
ROOT
ATOM      1  C   UNL     1      -7.916  34.063  23.409  1.00  0.00     0.027 C 
ENDROOT
BRANCH   1   2
ATOM      2  C   UNL     1      -7.931  34.614  21.978  1.00  0.00     0.004 C 
BRANCH   2   3
ATOM      3  C   UNL     1      -8.303  33.518  20.973  1.00  0.00    -0.003 C 
ATOM      4  C   UNL     1      -7.281  33.437  19.842  1.00  0.00     0.004 C 
ENDBRANCH   2   3
ENDBRANCH   1   2
BRANCH   1   5
ATOM      5  C   UNL     1      -7.559  32.604  23.427  1.00  0.00    -0.023 C 
ATOM      6  C   UNL     1      -8.225  31.733  24.193  1.00  0.00     0.042 C 
BRANCH   6   7
ATOM      7  C   UNL     1      -7.920  30.288  24.234  1.00  0.00     0.152 C 
ATOM      8  O   UNL     1      -8.579  29.553  25.016  1.00  0.00    -0.295 OA
ATOM      9  C   UNL     1      -6.853  29.668  23.381  1.00  0.00     0.093 C 
ENDBRANCH   6   7
ENDBRANCH   1   5
TORSDOF 4
ENDMDL
MODEL 6
REMARK VINA RESULT:    -4.234      2.540      4.247
REMARK INTER + INTRA:          -5.475
REMARK INTER:                  -5.319
REMARK INTRA:                  -0.157
REMARK UNBOUND:                -0.251
REMARK SMILES CCCCC=CC(C)=O
REMARK SMILES IDX 4 1 3 2 2 3 1 4 5 5 6 6 7 7 9 8 8 9
REMARK H PARENT
REMARK Flexibility Score: inf
ROOT
ATOM      1  C   UNL     1      -7.132  30.005  23.880  1.00  0.00     0.027 C 
ENDROOT
BRANCH   1   2
ATOM      2  C   UNL     1      -8.186  29.656  24.938  1.00  0.00     0.004 C 
BRANCH   2   3
ATOM      3  C   UNL     1      -7.606  29.776  26.351  1.00  0.00    -0.003 C 
ATOM      4  C   UNL     1      -7.987  31.107  26.993  1.00  0.00     0.004 C 
ENDBRANCH   2   3
ENDBRANCH   1   2
BRANCH   1   5
ATOM      5  C   UNL     1      -7.525  31.230  23.105  1.00  0.00    -0.023 C 
ATOM      6  C   UNL     1      -7.834  31.163  21.804  1.00  0.00     0.042 C 
BRANCH   6   7
ATOM      7  C   UNL     1      -8.238  32.338  21.004  1.00  0.00     0.152 C 
ATOM      8  O   UNL     1      -9.408  32.785  21.137  1.00  0.00    -0.295 OA
ATOM      9  C   UNL     1      -7.307  33.012  20.041  1.00  0.00     0.093 C 
ENDBRANCH   6   7
ENDBRANCH   1   5
TORSDOF 4
ENDMDL
MODEL 7
REMARK VINA RESULT:    -4.192     16.166     17.259
REMARK INTER + INTRA:          -5.423
REMARK INTER:                  -5.836
REMARK INTRA:                   0.413
REMARK UNBOUND:                -0.251
REMARK SMILES CCCCC=CC(C)=O
REMARK SMILES IDX 4 1 3 2 2 3 1 4 5 5 6 6 7 7 9 8 8 9
REMARK H PARENT
REMARK Flexibility Score: inf
ROOT
ATOM      1  C   UNL     1       8.125  33.676  29.799  1.00  0.00     0.027 C 
ENDROOT
BRANCH   1   2
ATOM      2  C   UNL     1       9.638  33.446  29.707  1.00  0.00     0.004 C 
BRANCH   2   3
ATOM      3  C   UNL     1      10.124  33.566  28.258  1.00  0.00    -0.003 C 
ATOM      4  C   UNL     1      10.125  32.209  27.562  1.00  0.00     0.004 C 
ENDBRANCH   2   3
ENDBRANCH   1   2
BRANCH   1   5
ATOM      5  C   UNL     1       7.382  32.814  28.820  1.00  0.00    -0.023 C 
ATOM      6  C   UNL     1       7.238  31.498  29.017  1.00  0.00     0.042 C 
BRANCH   6   7
ATOM      7  C   UNL     1       6.507  30.612  28.089  1.00  0.00     0.152 C 
ATOM      8  O   UNL     1       5.877  31.131  27.129  1.00  0.00    -0.295 OA
ATOM      9  C   UNL     1       6.485  29.121  28.251  1.00  0.00     0.093 C 
ENDBRANCH   6   7
ENDBRANCH   1   5
TORSDOF 4
ENDMDL
MODEL 8
REMARK VINA RESULT:    -4.178     16.373     17.436
REMARK INTER + INTRA:          -5.406
REMARK INTER:                  -5.725
REMARK INTRA:                   0.318
REMARK UNBOUND:                -0.251
REMARK SMILES CCCCC=CC(C)=O
REMARK SMILES IDX 4 1 3 2 2 3 1 4 5 5 6 6 7 7 9 8 8 9
REMARK H PARENT
REMARK Flexibility Score: inf
ROOT
ATOM      1  C   UNL     1      10.125  31.762  27.376  1.00  0.00     0.027 C 
ENDROOT
BRANCH   1   2
ATOM      2  C   UNL     1       9.922  33.185  27.910  1.00  0.00     0.004 C 
BRANCH   2   3
ATOM      3  C   UNL     1      10.102  33.230  29.432  1.00  0.00    -0.003 C 
ATOM      4  C   UNL     1       8.822  33.687  30.125  1.00  0.00     0.004 C 
ENDBRANCH   2   3
ENDBRANCH   1   2
BRANCH   1   5
ATOM      5  C   UNL     1       8.831  30.999  27.356  1.00  0.00    -0.023 C 
ATOM      6  C   UNL     1       7.899  31.182  28.297  1.00  0.00     0.042 C 
BRANCH   6   7
ATOM      7  C   UNL     1       6.607  30.465  28.312  1.00  0.00     0.152 C 
ATOM      8  O   UNL     1       5.545  31.136  28.406  1.00  0.00    -0.295 OA
ATOM      9  C   UNL     1       6.517  28.971  28.223  1.00  0.00     0.093 C 
ENDBRANCH   6   7
ENDBRANCH   1   5
TORSDOF 4
ENDMDL
MODEL 9
REMARK VINA RESULT:    -4.005      2.281      4.599
REMARK INTER + INTRA:          -5.192
REMARK INTER:                  -4.985
REMARK INTRA:                  -0.207
REMARK UNBOUND:                -0.251
REMARK SMILES CCCCC=CC(C)=O
REMARK SMILES IDX 4 1 3 2 2 3 1 4 5 5 6 6 7 7 9 8 8 9
REMARK H PARENT
REMARK Flexibility Score: inf
ROOT
ATOM      1  C   UNL     1      -8.966  32.080  22.042  1.00  0.00     0.027 C 
ENDROOT
BRANCH   1   2
ATOM      2  C   UNL     1      -8.562  30.609  21.886  1.00  0.00     0.004 C 
BRANCH   2   3
ATOM      3  C   UNL     1      -8.197  29.993  23.241  1.00  0.00    -0.003 C 
ATOM      4  C   UNL     1      -6.719  29.620  23.298  1.00  0.00     0.004 C 
ENDBRANCH   2   3
ENDBRANCH   1   2
BRANCH   1   5
ATOM      5  C   UNL     1      -8.988  32.488  23.487  1.00  0.00    -0.023 C 
ATOM      6  C   UNL     1      -8.512  33.673  23.884  1.00  0.00     0.042 C 
BRANCH   6   7
ATOM      7  C   UNL     1      -8.523  34.123  25.291  1.00  0.00     0.152 C 
ATOM      8  O   UNL     1      -8.575  33.255  26.203  1.00  0.00    -0.295 OA
ATOM      9  C   UNL     1      -8.479  35.573  25.672  1.00  0.00     0.093 C 
ENDBRANCH   6   7
ENDBRANCH   1   5
TORSDOF 4
ENDMDL
