MODEL 1
REMARK VINA RESULT:    -2.273      0.000      0.000
REMARK INTER + INTRA:          -2.691
REMARK INTER:                  -2.671
REMARK INTRA:                  -0.020
REMARK UNBOUND:                -0.020
REMARK SMILES CCCCC(=O)[O-]
REMARK SMILES IDX 4 1 5 2 6 3 7 4 3 5 2 6 1 7
REMARK H PARENT
REMARK Flexibility Score: inf
ROOT
ATOM      1  C   UNL     1       8.961  -3.941   0.296  1.00  0.00     0.053 C 
ENDROOT
BRANCH   1   2
ATOM      2  C   UNL     1       8.500  -3.723   1.703  1.00  0.00     0.041 C 
ATOM      3  O   UNL     1       8.789  -2.656   2.307  1.00  0.00    -0.550 OA
ATOM      4  O   UNL     1       7.793  -4.718   2.365  1.00  0.00    -0.550 OA
ENDBRANCH   1   2
BRANCH   1   5
ATOM      5  C   UNL     1       8.910  -2.627  -0.493  1.00  0.00     0.006 C 
BRANCH   5   6
ATOM      6  C   UNL     1       8.390  -2.820  -1.926  1.00  0.00    -0.003 C 
ATOM      7  C   UNL     1       7.692  -1.574  -2.474  1.00  0.00     0.004 C 
ENDBRANCH   5   6
ENDBRANCH   1   5
TORSDOF 3
ENDMDL
MODEL 2
REMARK VINA RESULT:    -2.234      2.628      3.534
REMARK INTER + INTRA:          -2.645
REMARK INTER:                  -2.611
REMARK INTRA:                  -0.034
REMARK UNBOUND:                -0.020
REMARK SMILES CCCCC(=O)[O-]
REMARK SMILES IDX 4 1 5 2 6 3 7 4 3 5 2 6 1 7
REMARK H PARENT
REMARK Flexibility Score: inf
ROOT
ATOM      1  C   UNL     1       8.195  -2.018  -2.028  1.00  0.00     0.053 C 
ENDROOT
BRANCH   1   2
ATOM      2  C   UNL     1       8.372  -3.493  -1.849  1.00  0.00     0.041 C 
ATOM      3  O   UNL     1       9.027  -3.938  -0.870  1.00  0.00    -0.550 OA
ATOM      4  O   UNL     1       7.856  -4.374  -2.790  1.00  0.00    -0.550 OA
ENDBRANCH   1   2
BRANCH   1   5
ATOM      5  C   UNL     1       7.219  -1.731  -3.175  1.00  0.00     0.006 C 
BRANCH   5   6
ATOM      6  C   UNL     1       6.881  -0.238  -3.303  1.00  0.00    -0.003 C 
ATOM      7  C   UNL     1       7.517   0.609  -2.200  1.00  0.00     0.004 C 
ENDBRANCH   5   6
ENDBRANCH   1   5
TORSDOF 3
ENDMDL
MODEL 3
REMARK VINA RESULT:    -2.209      2.917      3.833
REMARK INTER + INTRA:          -2.616
REMARK INTER:                  -2.581
REMARK INTRA:                  -0.036
REMARK UNBOUND:                -0.020
REMARK SMILES CCCCC(=O)[O-]
REMARK SMILES IDX 4 1 5 2 6 3 7 4 3 5 2 6 1 7
REMARK H PARENT
REMARK Flexibility Score: inf
ROOT
ATOM      1  C   UNL     1       8.105  -1.930  -2.051  1.00  0.00     0.053 C 
ENDROOT
BRANCH   1   2
ATOM      2  C   UNL     1       8.318  -3.406  -2.178  1.00  0.00     0.041 C 
ATOM      3  O   UNL     1       7.584  -4.089  -2.940  1.00  0.00    -0.550 OA
ATOM      4  O   UNL     1       9.296  -4.035  -1.419  1.00  0.00    -0.550 OA
ENDBRANCH   1   2
BRANCH   1   5
ATOM      5  C   UNL     1       7.244  -1.412  -3.209  1.00  0.00     0.006 C 
BRANCH   5   6
ATOM      6  C   UNL     1       6.982   0.099  -3.119  1.00  0.00    -0.003 C 
ATOM      7  C   UNL     1       7.711   0.757  -1.947  1.00  0.00     0.004 C 
ENDBRANCH   5   6
ENDBRANCH   1   5
TORSDOF 3
ENDMDL
MODEL 4
REMARK VINA RESULT:    -2.209      3.365      4.046
REMARK INTER + INTRA:          -2.616
REMARK INTER:                  -2.580
REMARK INTRA:                  -0.036
REMARK UNBOUND:                -0.020
REMARK SMILES CCCCC(=O)[O-]
REMARK SMILES IDX 4 1 5 2 6 3 7 4 3 5 2 6 1 7
REMARK H PARENT
REMARK Flexibility Score: inf
ROOT
ATOM      1  C   UNL     1       7.433  -2.194  -3.139  1.00  0.00     0.053 C 
ENDROOT
BRANCH   1   2
ATOM      2  C   UNL     1       7.761  -3.624  -2.844  1.00  0.00     0.041 C 
ATOM      3  O   UNL     1       8.635  -3.909  -1.983  1.00  0.00    -0.550 OA
ATOM      4  O   UNL     1       7.137  -4.641  -3.555  1.00  0.00    -0.550 OA
ENDBRANCH   1   2
BRANCH   1   5
ATOM      5  C   UNL     1       8.001  -1.279  -2.048  1.00  0.00     0.006 C 
BRANCH   5   6
ATOM      6  C   UNL     1       7.554   0.182  -2.211  1.00  0.00    -0.003 C 
ATOM      7  C   UNL     1       6.676   0.397  -3.444  1.00  0.00     0.004 C 
ENDBRANCH   5   6
ENDBRANCH   1   5
TORSDOF 3
ENDMDL
MODEL 5
REMARK VINA RESULT:    -2.163      1.689      2.307
REMARK INTER + INTRA:          -2.562
REMARK INTER:                  -2.527
REMARK INTRA:                  -0.035
REMARK UNBOUND:                -0.020
REMARK SMILES CCCCC(=O)[O-]
REMARK SMILES IDX 4 1 5 2 6 3 7 4 3 5 2 6 1 7
REMARK H PARENT
REMARK Flexibility Score: inf
ROOT
ATOM      1  C   UNL     1       8.695  -1.269  -0.710  1.00  0.00     0.053 C 
ENDROOT
BRANCH   1   2
ATOM      2  C   UNL     1       9.006  -2.163   0.449  1.00  0.00     0.041 C 
ATOM      3  O   UNL     1       9.607  -3.254   0.265  1.00  0.00    -0.550 OA
ATOM      4  O   UNL     1       8.588  -1.815   1.727  1.00  0.00    -0.550 OA
ENDBRANCH   1   2
BRANCH   1   5
ATOM      5  C   UNL     1       8.284  -2.100  -1.931  1.00  0.00     0.006 C 
BRANCH   5   6
ATOM      6  C   UNL     1       7.354  -1.332  -2.882  1.00  0.00    -0.003 C 
ATOM      7  C   UNL     1       7.294   0.164  -2.569  1.00  0.00     0.004 C 
ENDBRANCH   5   6
ENDBRANCH   1   5
TORSDOF 3
ENDMDL
MODEL 6
REMARK VINA RESULT:    -2.156      4.017      5.023
REMARK INTER + INTRA:          -2.554
REMARK INTER:                  -2.517
REMARK INTRA:                  -0.036
REMARK UNBOUND:                -0.020
REMARK SMILES CCCCC(=O)[O-]
REMARK SMILES IDX 4 1 5 2 6 3 7 4 3 5 2 6 1 7
REMARK H PARENT
REMARK Flexibility Score: inf
ROOT
ATOM      1  C   UNL     1       7.266  -0.065  -2.752  1.00  0.00     0.053 C 
ENDROOT
BRANCH   1   2
ATOM      2  C   UNL     1       7.529   1.206  -2.008  1.00  0.00     0.041 C 
ATOM      3  O   UNL     1       8.273   1.203  -0.991  1.00  0.00    -0.550 OA
ATOM      4  O   UNL     1       6.914   2.386  -2.406  1.00  0.00    -0.550 OA
ENDBRANCH   1   2
BRANCH   1   5
ATOM      5  C   UNL     1       7.965  -1.243  -2.063  1.00  0.00     0.006 C 
BRANCH   5   6
ATOM      6  C   UNL     1       7.719  -2.577  -2.783  1.00  0.00    -0.003 C 
ATOM      7  C   UNL     1       6.861  -2.422  -4.039  1.00  0.00     0.004 C 
ENDBRANCH   5   6
ENDBRANCH   1   5
TORSDOF 3
ENDMDL
MODEL 7
REMARK VINA RESULT:    -2.144      3.499      4.274
REMARK INTER + INTRA:          -2.539
REMARK INTER:                  -2.505
REMARK INTRA:                  -0.034
REMARK UNBOUND:                -0.020
REMARK SMILES CCCCC(=O)[O-]
REMARK SMILES IDX 4 1 5 2 6 3 7 4 3 5 2 6 1 7
REMARK H PARENT
REMARK Flexibility Score: inf
ROOT
ATOM      1  C   UNL     1       8.029  -2.219  -2.233  1.00  0.00     0.053 C 
ENDROOT
BRANCH   1   2
ATOM      2  C   UNL     1       7.841  -3.545  -2.901  1.00  0.00     0.041 C 
ATOM      3  O   UNL     1       8.557  -4.528  -2.571  1.00  0.00    -0.550 OA
ATOM      4  O   UNL     1       6.909  -3.684  -3.921  1.00  0.00    -0.550 OA
ENDBRANCH   1   2
BRANCH   1   5
ATOM      5  C   UNL     1       7.198  -1.142  -2.940  1.00  0.00     0.006 C 
BRANCH   5   6
ATOM      6  C   UNL     1       7.432   0.260  -2.357  1.00  0.00    -0.003 C 
ATOM      7  C   UNL     1       8.419   0.258  -1.190  1.00  0.00     0.004 C 
ENDBRANCH   5   6
ENDBRANCH   1   5
TORSDOF 3
ENDMDL
MODEL 8
REMARK VINA RESULT:    -2.064      3.721      4.310
REMARK INTER + INTRA:          -2.446
REMARK INTER:                  -2.411
REMARK INTRA:                  -0.035
REMARK UNBOUND:                -0.020
REMARK SMILES CCCCC(=O)[O-]
REMARK SMILES IDX 4 1 5 2 6 3 7 4 3 5 2 6 1 7
REMARK H PARENT
REMARK Flexibility Score: inf
ROOT
ATOM      1  C   UNL     1       8.559  -0.272  -0.983  1.00  0.00     0.053 C 
ENDROOT
BRANCH   1   2
ATOM      2  C   UNL     1       8.932   0.981  -0.255  1.00  0.00     0.041 C 
ATOM      3  O   UNL     1       8.198   2.001  -0.332  1.00  0.00    -0.550 OA
ATOM      4  O   UNL     1      10.116   1.038   0.469  1.00  0.00    -0.550 OA
ENDBRANCH   1   2
BRANCH   1   5
ATOM      5  C   UNL     1       7.669   0.054  -2.188  1.00  0.00     0.006 C 
BRANCH   5   6
ATOM      6  C   UNL     1       7.251  -1.201  -2.969  1.00  0.00    -0.003 C 
ATOM      7  C   UNL     1       7.943  -2.468  -2.467  1.00  0.00     0.004 C 
ENDBRANCH   5   6
ENDBRANCH   1   5
TORSDOF 3
ENDMDL
MODEL 9
REMARK VINA RESULT:    -2.057      5.638      6.270
REMARK INTER + INTRA:          -2.438
REMARK INTER:                  -2.395
REMARK INTRA:                  -0.042
REMARK UNBOUND:                -0.020
REMARK SMILES CCCCC(=O)[O-]
REMARK SMILES IDX 4 1 5 2 6 3 7 4 3 5 2 6 1 7
REMARK H PARENT
REMARK Flexibility Score: inf
ROOT
ATOM      1  C   UNL     1       8.222   2.400   1.919  1.00  0.00     0.053 C 
ENDROOT
BRANCH   1   2
ATOM      2  C   UNL     1       7.214   3.484   2.137  1.00  0.00     0.041 C 
ATOM      3  O   UNL     1       6.931   3.861   3.305  1.00  0.00    -0.550 OA
ATOM      4  O   UNL     1       6.552   4.046   1.053  1.00  0.00    -0.550 OA
ENDBRANCH   1   2
BRANCH   1   5
ATOM      5  C   UNL     1       8.685   2.386   0.457  1.00  0.00     0.006 C 
BRANCH   5   6
ATOM      6  C   UNL     1       8.670   0.976  -0.152  1.00  0.00    -0.003 C 
ATOM      7  C   UNL     1       8.053   0.943  -1.551  1.00  0.00     0.004 C 
ENDBRANCH   5   6
ENDBRANCH   1   5
TORSDOF 3
ENDMDL
