MODEL 1
REMARK VINA RESULT:    -5.678      0.000      0.000
REMARK INTER + INTRA:          -9.795
REMARK INTER:                  -8.167
REMARK INTRA:                  -1.627
REMARK UNBOUND:                -1.627
REMARK SMILES O=c1c(O[C@H]2O[C@@H](CO)[C@H](O)[C@@H](O)[C@@H]2O)c(-c2ccc(O)cc2)oc2cc(O)cc(O)c12
REMARK SMILES IDX 4 1 3 2 16 3 24 4 2 5 25 6 1 7 32 8 26 9 30 10 27 11 29 12
REMARK SMILES IDX 17 13 18 14 19 15 20 16 23 17 22 18 21 19 31 21 28 23 5 25
REMARK SMILES IDX 14 26 6 27 12 28 7 29 10 30 15 31 13 33 8 35 9 36 11 38
REMARK H PARENT 21 20 31 22 28 24 15 32 13 34 9 37 11 39
REMARK Flexibility Score: inf
ROOT
ATOM      1  O   UNL     1      17.285  -1.306 -11.552  1.00  0.00    -0.454 OA
ENDROOT
BRANCH   1   2
ATOM      2  C   UNL     1      15.991  -0.990 -12.014  1.00  0.00     0.214 A 
ATOM      3  C   UNL     1      15.548  -1.574 -13.216  1.00  0.00     0.180 A 
ATOM      4  O   UNL     1      14.375  -1.233 -13.732  1.00  0.00    -0.452 OA
ATOM      5  C   UNL     1      15.125  -0.094 -11.348  1.00  0.00     0.239 A 
ATOM      6  C   UNL     1      13.536  -0.390 -13.147  1.00  0.00     0.146 A 
ATOM      7  O   UNL     1      15.508   0.464 -10.289  1.00  0.00    -0.285 OA
ATOM      8  C   UNL     1      13.848   0.190 -11.891  1.00  0.00     0.111 A 
ATOM      9  C   UNL     1      12.339  -0.080 -13.796  1.00  0.00     0.094 A 
ATOM     10  C   UNL     1      12.880   1.043 -11.279  1.00  0.00     0.134 A 
ATOM     11  C   UNL     1      11.432   0.806 -13.222  1.00  0.00     0.123 A 
ATOM     12  C   UNL     1      11.706   1.365 -11.972  1.00  0.00     0.093 A 
BRANCH   3  13
ATOM     13  C   UNL     1      16.383  -2.534 -13.965  1.00  0.00     0.021 A 
ATOM     14  C   UNL     1      16.196  -3.918 -13.819  1.00  0.00     0.016 A 
ATOM     15  C   UNL     1      16.988  -4.816 -14.540  1.00  0.00     0.047 A 
ATOM     16  C   UNL     1      17.960  -4.341 -15.427  1.00  0.00     0.115 A 
ATOM     17  C   UNL     1      17.343  -2.062 -14.872  1.00  0.00     0.016 A 
ATOM     18  C   UNL     1      18.134  -2.961 -15.593  1.00  0.00     0.047 A 
BRANCH  16  19
ATOM     19  O   UNL     1      18.743  -5.248 -16.139  1.00  0.00    -0.508 OA
ATOM     20  H   UNL     1      19.604  -5.619 -15.755  1.00  0.00     0.293 HD
ENDBRANCH  16  19
ENDBRANCH   3  13
BRANCH  10  21
ATOM     21  O   UNL     1      13.009   1.573  -9.992  1.00  0.00    -0.507 OA
ATOM     22  H   UNL     1      12.266   1.614  -9.310  1.00  0.00     0.293 HD
ENDBRANCH  10  21
BRANCH  11  23
ATOM     23  O   UNL     1      10.255   1.120 -13.899  1.00  0.00    -0.508 OA
ATOM     24  H   UNL     1       9.776   2.001 -13.748  1.00  0.00     0.293 HD
ENDBRANCH  11  23
ENDBRANCH   1   2
BRANCH   1  25
ATOM     25  C   UNL     1      17.670  -2.519 -10.898  1.00  0.00     0.339 C 
ATOM     26  C   UNL     1      17.108  -2.572  -9.461  1.00  0.00     0.214 C 
ATOM     27  O   UNL     1      19.073  -2.736 -10.948  1.00  0.00    -0.332 OA
ATOM     28  C   UNL     1      17.893  -1.689  -8.466  1.00  0.00     0.180 C 
ATOM     29  C   UNL     1      19.842  -1.809 -10.193  1.00  0.00     0.179 C 
ATOM     30  C   UNL     1      19.422  -1.705  -8.698  1.00  0.00     0.177 C 
BRANCH  26  31
ATOM     31  O   UNL     1      17.031  -3.898  -8.992  1.00  0.00    -0.384 OA
ATOM     32  H   UNL     1      17.943  -4.285  -8.999  1.00  0.00     0.211 HD
ENDBRANCH  26  31
BRANCH  28  33
ATOM     33  O   UNL     1      17.400  -0.372  -8.446  1.00  0.00    -0.387 OA
ATOM     34  H   UNL     1      16.894  -0.244  -7.608  1.00  0.00     0.211 HD
ENDBRANCH  28  33
BRANCH  29  35
ATOM     35  C   UNL     1      20.011  -0.447 -10.892  1.00  0.00     0.191 C 
BRANCH  35  36
ATOM     36  O   UNL     1      19.307   0.540 -10.191  1.00  0.00    -0.394 OA
ATOM     37  H   UNL     1      19.946   0.922  -9.535  1.00  0.00     0.210 HD
ENDBRANCH  35  36
ENDBRANCH  29  35
BRANCH  30  38
ATOM     38  O   UNL     1      20.016  -2.736  -7.943  1.00  0.00    -0.387 OA
ATOM     39  H   UNL     1      20.945  -2.466  -7.731  1.00  0.00     0.211 HD
ENDBRANCH  30  38
ENDBRANCH   1  25
TORSDOF 11
ENDMDL
MODEL 2
REMARK VINA RESULT:    -5.659      2.912      6.090
REMARK INTER + INTRA:          -9.767
REMARK INTER:                  -8.047
REMARK INTRA:                  -1.720
REMARK UNBOUND:                -1.627
REMARK SMILES O=c1c(O[C@H]2O[C@@H](CO)[C@H](O)[C@@H](O)[C@@H]2O)c(-c2ccc(O)cc2)oc2cc(O)cc(O)c12
REMARK SMILES IDX 4 1 3 2 16 3 24 4 2 5 25 6 1 7 32 8 26 9 30 10 27 11 29 12
REMARK SMILES IDX 17 13 18 14 19 15 20 16 23 17 22 18 21 19 31 21 28 23 5 25
REMARK SMILES IDX 14 26 6 27 12 28 7 29 10 30 15 31 13 33 8 35 9 36 11 38
REMARK H PARENT 21 20 31 22 28 24 15 32 13 34 9 37 11 39
REMARK Flexibility Score: inf
ROOT
ATOM      1  O   UNL     1      18.162   0.282  -8.935  1.00  0.00    -0.454 OA
ENDROOT
BRANCH   1   2
ATOM      2  C   UNL     1      17.570  -0.871  -9.490  1.00  0.00     0.214 A 
ATOM      3  C   UNL     1      18.088  -2.129  -9.128  1.00  0.00     0.180 A 
ATOM      4  O   UNL     1      17.621  -3.232  -9.696  1.00  0.00    -0.452 OA
ATOM      5  C   UNL     1      16.501  -0.829 -10.413  1.00  0.00     0.239 A 
ATOM      6  C   UNL     1      16.627  -3.238 -10.574  1.00  0.00     0.146 A 
ATOM      7  O   UNL     1      16.040   0.283 -10.775  1.00  0.00    -0.285 OA
ATOM      8  C   UNL     1      15.978  -2.034 -10.943  1.00  0.00     0.111 A 
ATOM      9  C   UNL     1      16.236  -4.458 -11.130  1.00  0.00     0.094 A 
ATOM     10  C   UNL     1      14.874  -2.109 -11.846  1.00  0.00     0.134 A 
ATOM     11  C   UNL     1      15.203  -4.511 -12.062  1.00  0.00     0.123 A 
ATOM     12  C   UNL     1      14.530  -3.340 -12.417  1.00  0.00     0.093 A 
BRANCH   3  13
ATOM     13  C   UNL     1      19.192  -2.262  -8.157  1.00  0.00     0.021 A 
ATOM     14  C   UNL     1      18.931  -2.502  -6.799  1.00  0.00     0.016 A 
ATOM     15  C   UNL     1      19.986  -2.634  -5.890  1.00  0.00     0.047 A 
ATOM     16  C   UNL     1      21.310  -2.547  -6.333  1.00  0.00     0.115 A 
ATOM     17  C   UNL     1      20.521  -2.198  -8.601  1.00  0.00     0.016 A 
ATOM     18  C   UNL     1      21.575  -2.332  -7.692  1.00  0.00     0.047 A 
BRANCH  16  19
ATOM     19  O   UNL     1      22.351  -2.680  -5.417  1.00  0.00    -0.508 OA
ATOM     20  H   UNL     1      23.317  -2.537  -5.690  1.00  0.00     0.293 HD
ENDBRANCH  16  19
ENDBRANCH   3  13
BRANCH  10  21
ATOM     21  O   UNL     1      14.072  -1.017 -12.190  1.00  0.00    -0.507 OA
ATOM     22  H   UNL     1      14.151  -0.494 -13.050  1.00  0.00     0.293 HD
ENDBRANCH  10  21
BRANCH  11  23
ATOM     23  O   UNL     1      14.845  -5.735 -12.623  1.00  0.00    -0.508 OA
ATOM     24  H   UNL     1      14.609  -5.819 -13.605  1.00  0.00     0.293 HD
ENDBRANCH  11  23
ENDBRANCH   1   2
BRANCH   1  25
ATOM     25  C   UNL     1      18.976   1.228  -9.636  1.00  0.00     0.339 C 
ATOM     26  C   UNL     1      20.366   1.354  -8.975  1.00  0.00     0.214 C 
ATOM     27  O   UNL     1      18.328   2.481  -9.798  1.00  0.00    -0.332 OA
ATOM     28  C   UNL     1      20.352   2.200  -7.683  1.00  0.00     0.180 C 
ATOM     29  C   UNL     1      18.122   3.201  -8.589  1.00  0.00     0.179 C 
ATOM     30  C   UNL     1      19.419   3.430  -7.759  1.00  0.00     0.177 C 
BRANCH  26  31
ATOM     31  O   UNL     1      21.319   1.854  -9.884  1.00  0.00    -0.384 OA
ATOM     32  H   UNL     1      22.007   1.157 -10.032  1.00  0.00     0.211 HD
ENDBRANCH  26  31
BRANCH  28  33
ATOM     33  O   UNL     1      20.057   1.412  -6.555  1.00  0.00    -0.387 OA
ATOM     34  H   UNL     1      20.831   1.449  -5.942  1.00  0.00     0.211 HD
ENDBRANCH  28  33
BRANCH  29  35
ATOM     35  C   UNL     1      16.934   2.674  -7.763  1.00  0.00     0.191 C 
BRANCH  35  36
ATOM     36  O   UNL     1      15.895   2.282  -8.617  1.00  0.00    -0.394 OA
ATOM     37  H   UNL     1      15.077   2.732  -8.282  1.00  0.00     0.210 HD
ENDBRANCH  35  36
ENDBRANCH  29  35
BRANCH  30  38
ATOM     38  O   UNL     1      20.128   4.547  -8.244  1.00  0.00    -0.387 OA
ATOM     39  H   UNL     1      20.880   4.727  -7.625  1.00  0.00     0.211 HD
ENDBRANCH  30  38
ENDBRANCH   1  25
TORSDOF 11
ENDMDL
MODEL 3
REMARK VINA RESULT:    -5.642      2.653      5.482
REMARK INTER + INTRA:          -9.743
REMARK INTER:                  -7.987
REMARK INTRA:                  -1.756
REMARK UNBOUND:                -1.627
REMARK SMILES O=c1c(O[C@H]2O[C@@H](CO)[C@H](O)[C@@H](O)[C@@H]2O)c(-c2ccc(O)cc2)oc2cc(O)cc(O)c12
REMARK SMILES IDX 4 1 3 2 16 3 24 4 2 5 25 6 1 7 32 8 26 9 30 10 27 11 29 12
REMARK SMILES IDX 17 13 18 14 19 15 20 16 23 17 22 18 21 19 31 21 28 23 5 25
REMARK SMILES IDX 14 26 6 27 12 28 7 29 10 30 15 31 13 33 8 35 9 36 11 38
REMARK H PARENT 21 20 31 22 28 24 15 32 13 34 9 37 11 39
REMARK Flexibility Score: inf
ROOT
ATOM      1  O   UNL     1      17.953  -0.503 -12.170  1.00  0.00    -0.454 OA
ENDROOT
BRANCH   1   2
ATOM      2  C   UNL     1      18.119  -0.552 -13.569  1.00  0.00     0.214 A 
ATOM      3  C   UNL     1      17.053  -1.033 -14.353  1.00  0.00     0.180 A 
ATOM      4  O   UNL     1      17.199  -1.182 -15.662  1.00  0.00    -0.452 OA
ATOM      5  C   UNL     1      19.311  -0.172 -14.225  1.00  0.00     0.239 A 
ATOM      6  C   UNL     1      18.303  -0.847 -16.316  1.00  0.00     0.146 A 
ATOM      7  O   UNL     1      20.288   0.231 -13.545  1.00  0.00    -0.285 OA
ATOM      8  C   UNL     1      19.406  -0.275 -15.635  1.00  0.00     0.111 A 
ATOM      9  C   UNL     1      18.358  -1.075 -17.693  1.00  0.00     0.094 A 
ATOM     10  C   UNL     1      20.545   0.122 -16.400  1.00  0.00     0.134 A 
ATOM     11  C   UNL     1      19.499  -0.747 -18.419  1.00  0.00     0.123 A 
ATOM     12  C   UNL     1      20.586  -0.154 -17.772  1.00  0.00     0.093 A 
BRANCH   3  13
ATOM     13  C   UNL     1      15.767  -1.434 -13.749  1.00  0.00     0.021 A 
ATOM     14  C   UNL     1      14.738  -0.498 -13.558  1.00  0.00     0.016 A 
ATOM     15  C   UNL     1      13.521  -0.893 -12.992  1.00  0.00     0.047 A 
ATOM     16  C   UNL     1      13.315  -2.228 -12.630  1.00  0.00     0.115 A 
ATOM     17  C   UNL     1      15.547  -2.777 -13.406  1.00  0.00     0.016 A 
ATOM     18  C   UNL     1      14.330  -3.170 -12.842  1.00  0.00     0.047 A 
BRANCH  16  19
ATOM     19  O   UNL     1      12.098  -2.608 -12.068  1.00  0.00    -0.508 OA
ATOM     20  H   UNL     1      12.057  -3.177 -11.229  1.00  0.00     0.293 HD
ENDBRANCH  16  19
ENDBRANCH   3  13
BRANCH  10  21
ATOM     21  O   UNL     1      21.640   0.810 -15.870  1.00  0.00    -0.507 OA
ATOM     22  H   UNL     1      21.575   1.606 -15.252  1.00  0.00     0.293 HD
ENDBRANCH  10  21
BRANCH  11  23
ATOM     23  O   UNL     1      19.542  -1.006 -19.788  1.00  0.00    -0.508 OA
ATOM     24  H   UNL     1      18.840  -1.578 -20.241  1.00  0.00     0.293 HD
ENDBRANCH  11  23
ENDBRANCH   1   2
BRANCH   1  25
ATOM     25  C   UNL     1      18.479  -1.443 -11.228  1.00  0.00     0.339 C 
ATOM     26  C   UNL     1      17.341  -2.213 -10.523  1.00  0.00     0.214 C 
ATOM     27  O   UNL     1      19.384  -0.841 -10.314  1.00  0.00    -0.332 OA
ATOM     28  C   UNL     1      16.634  -1.386  -9.427  1.00  0.00     0.180 C 
ATOM     29  C   UNL     1      18.787   0.083  -9.413  1.00  0.00     0.179 C 
ATOM     30  C   UNL     1      17.597  -0.503  -8.600  1.00  0.00     0.177 C 
BRANCH  26  31
ATOM     31  O   UNL     1      17.801  -3.437 -10.001  1.00  0.00    -0.384 OA
ATOM     32  H   UNL     1      17.539  -3.488  -9.047  1.00  0.00     0.211 HD
ENDBRANCH  26  31
BRANCH  28  33
ATOM     33  O   UNL     1      15.580  -0.621  -9.958  1.00  0.00    -0.387 OA
ATOM     34  H   UNL     1      14.931  -0.444  -9.235  1.00  0.00     0.211 HD
ENDBRANCH  28  33
BRANCH  29  35
ATOM     35  C   UNL     1      18.494   1.453 -10.053  1.00  0.00     0.191 C 
BRANCH  35  36
ATOM     36  O   UNL     1      19.486   1.764 -10.991  1.00  0.00    -0.394 OA
ATOM     37  H   UNL     1      20.324   1.896 -10.476  1.00  0.00     0.210 HD
ENDBRANCH  35  36
ENDBRANCH  29  35
BRANCH  30  38
ATOM     38  O   UNL     1      18.065  -1.217  -7.479  1.00  0.00    -0.387 OA
ATOM     39  H   UNL     1      18.775  -1.837  -7.782  1.00  0.00     0.211 HD
ENDBRANCH  30  38
ENDBRANCH   1  25
TORSDOF 11
ENDMDL
MODEL 4
REMARK VINA RESULT:    -5.630      2.791      6.807
REMARK INTER + INTRA:          -9.726
REMARK INTER:                  -8.151
REMARK INTRA:                  -1.575
REMARK UNBOUND:                -1.627
REMARK SMILES O=c1c(O[C@H]2O[C@@H](CO)[C@H](O)[C@@H](O)[C@@H]2O)c(-c2ccc(O)cc2)oc2cc(O)cc(O)c12
REMARK SMILES IDX 4 1 3 2 16 3 24 4 2 5 25 6 1 7 32 8 26 9 30 10 27 11 29 12
REMARK SMILES IDX 17 13 18 14 19 15 20 16 23 17 22 18 21 19 31 21 28 23 5 25
REMARK SMILES IDX 14 26 6 27 12 28 7 29 10 30 15 31 13 33 8 35 9 36 11 38
REMARK H PARENT 21 20 31 22 28 24 15 32 13 34 9 37 11 39
REMARK Flexibility Score: inf
ROOT
ATOM      1  O   UNL     1      17.280  -2.611 -13.562  1.00  0.00    -0.454 OA
ENDROOT
BRANCH   1   2
ATOM      2  C   UNL     1      17.908  -2.140 -14.734  1.00  0.00     0.214 A 
ATOM      3  C   UNL     1      18.320  -0.795 -14.777  1.00  0.00     0.180 A 
ATOM      4  O   UNL     1      18.831  -0.289 -15.891  1.00  0.00    -0.452 OA
ATOM      5  C   UNL     1      18.120  -2.941 -15.878  1.00  0.00     0.239 A 
ATOM      6  C   UNL     1      19.038  -1.001 -16.990  1.00  0.00     0.146 A 
ATOM      7  O   UNL     1      17.733  -4.138 -15.875  1.00  0.00    -0.285 OA
ATOM      8  C   UNL     1      18.737  -2.386 -17.025  1.00  0.00     0.111 A 
ATOM      9  C   UNL     1      19.555  -0.357 -18.116  1.00  0.00     0.094 A 
ATOM     10  C   UNL     1      19.037  -3.115 -18.216  1.00  0.00     0.134 A 
ATOM     11  C   UNL     1      19.781  -1.063 -19.294  1.00  0.00     0.123 A 
ATOM     12  C   UNL     1      19.519  -2.434 -19.340  1.00  0.00     0.093 A 
BRANCH   3  13
ATOM     13  C   UNL     1      18.153   0.105 -13.620  1.00  0.00     0.021 A 
ATOM     14  C   UNL     1      17.131   1.068 -13.597  1.00  0.00     0.016 A 
ATOM     15  C   UNL     1      16.978   1.909 -12.491  1.00  0.00     0.047 A 
ATOM     16  C   UNL     1      17.832   1.784 -11.390  1.00  0.00     0.115 A 
ATOM     17  C   UNL     1      18.992  -0.032 -12.504  1.00  0.00     0.016 A 
ATOM     18  C   UNL     1      18.837   0.809 -11.398  1.00  0.00     0.047 A 
BRANCH  16  19
ATOM     19  O   UNL     1      17.668   2.629 -10.294  1.00  0.00    -0.508 OA
ATOM     20  H   UNL     1      17.625   2.267  -9.349  1.00  0.00     0.293 HD
ENDBRANCH  16  19
ENDBRANCH   3  13
BRANCH  10  21
ATOM     21  O   UNL     1      18.908  -4.502 -18.335  1.00  0.00    -0.507 OA
ATOM     22  H   UNL     1      19.665  -5.161 -18.231  1.00  0.00     0.293 HD
ENDBRANCH  10  21
BRANCH  11  23
ATOM     23  O   UNL     1      20.274  -0.395 -20.413  1.00  0.00    -0.508 OA
ATOM     24  H   UNL     1      20.518   0.588 -20.379  1.00  0.00     0.293 HD
ENDBRANCH  11  23
ENDBRANCH   1   2
BRANCH   1  25
ATOM     25  C   UNL     1      15.883  -2.524 -13.266  1.00  0.00     0.339 C 
ATOM     26  C   UNL     1      15.648  -1.799 -11.923  1.00  0.00     0.214 C 
ATOM     27  O   UNL     1      15.240  -3.789 -13.328  1.00  0.00    -0.332 OA
ATOM     28  C   UNL     1      15.938  -2.686 -10.692  1.00  0.00     0.180 C 
ATOM     29  C   UNL     1      15.637  -4.704 -12.314  1.00  0.00     0.179 C 
ATOM     30  C   UNL     1      15.483  -4.154 -10.867  1.00  0.00     0.177 C 
BRANCH  26  31
ATOM     31  O   UNL     1      14.347  -1.265 -11.853  1.00  0.00    -0.384 OA
ATOM     32  H   UNL     1      13.752  -1.812 -12.426  1.00  0.00     0.211 HD
ENDBRANCH  26  31
BRANCH  28  33
ATOM     33  O   UNL     1      17.292  -2.618 -10.316  1.00  0.00    -0.387 OA
ATOM     34  H   UNL     1      17.355  -2.087  -9.486  1.00  0.00     0.211 HD
ENDBRANCH  28  33
BRANCH  29  35
ATOM     35  C   UNL     1      17.001  -5.364 -12.592  1.00  0.00     0.191 C 
BRANCH  35  36
ATOM     36  O   UNL     1      17.936  -4.948 -11.636  1.00  0.00    -0.394 OA
ATOM     37  H   UNL     1      17.512  -4.202 -11.139  1.00  0.00     0.210 HD
ENDBRANCH  35  36
ENDBRANCH  29  35
BRANCH  30  38
ATOM     38  O   UNL     1      14.158  -4.307 -10.415  1.00  0.00    -0.387 OA
ATOM     39  H   UNL     1      13.550  -3.974 -11.123  1.00  0.00     0.211 HD
ENDBRANCH  30  38
ENDBRANCH   1  25
TORSDOF 11
ENDMDL
MODEL 5
REMARK VINA RESULT:    -5.616      2.967      6.888
REMARK INTER + INTRA:          -9.705
REMARK INTER:                  -8.125
REMARK INTRA:                  -1.580
REMARK UNBOUND:                -1.627
REMARK SMILES O=c1c(O[C@H]2O[C@@H](CO)[C@H](O)[C@@H](O)[C@@H]2O)c(-c2ccc(O)cc2)oc2cc(O)cc(O)c12
REMARK SMILES IDX 4 1 3 2 16 3 24 4 2 5 25 6 1 7 32 8 26 9 30 10 27 11 29 12
REMARK SMILES IDX 17 13 18 14 19 15 20 16 23 17 22 18 21 19 31 21 28 23 5 25
REMARK SMILES IDX 14 26 6 27 12 28 7 29 10 30 15 31 13 33 8 35 9 36 11 38
REMARK H PARENT 21 20 31 22 28 24 15 32 13 34 9 37 11 39
REMARK Flexibility Score: inf
ROOT
ATOM      1  O   UNL     1      17.319  -2.295 -13.889  1.00  0.00    -0.454 OA
ENDROOT
BRANCH   1   2
ATOM      2  C   UNL     1      17.986  -1.917 -15.073  1.00  0.00     0.214 A 
ATOM      3  C   UNL     1      18.370  -0.571 -15.223  1.00  0.00     0.180 A 
ATOM      4  O   UNL     1      18.916  -0.155 -16.357  1.00  0.00    -0.452 OA
ATOM      5  C   UNL     1      18.263  -2.813 -16.130  1.00  0.00     0.239 A 
ATOM      6  C   UNL     1      19.185  -0.958 -17.377  1.00  0.00     0.146 A 
ATOM      7  O   UNL     1      17.903  -4.013 -16.032  1.00  0.00    -0.285 OA
ATOM      8  C   UNL     1      18.916  -2.348 -17.297  1.00  0.00     0.111 A 
ATOM      9  C   UNL     1      19.735  -0.406 -18.536  1.00  0.00     0.094 A 
ATOM     10  C   UNL     1      19.282  -3.174 -18.403  1.00  0.00     0.134 A 
ATOM     11  C   UNL     1      20.025  -1.210 -19.634  1.00  0.00     0.123 A 
ATOM     12  C   UNL     1      19.796  -2.586 -19.565  1.00  0.00     0.093 A 
BRANCH   3  13
ATOM     13  C   UNL     1      18.134   0.425 -14.160  1.00  0.00     0.021 A 
ATOM     14  C   UNL     1      19.034   0.566 -13.091  1.00  0.00     0.016 A 
ATOM     15  C   UNL     1      18.804   1.519 -12.095  1.00  0.00     0.047 A 
ATOM     16  C   UNL     1      17.683   2.353 -12.166  1.00  0.00     0.115 A 
ATOM     17  C   UNL     1      17.024   1.279 -14.240  1.00  0.00     0.016 A 
ATOM     18  C   UNL     1      16.795   2.233 -13.243  1.00  0.00     0.047 A 
BRANCH  16  19
ATOM     19  O   UNL     1      17.465   3.299 -11.166  1.00  0.00    -0.508 OA
ATOM     20  H   UNL     1      18.187   3.536 -10.496  1.00  0.00     0.293 HD
ENDBRANCH  16  19
ENDBRANCH   3  13
BRANCH  10  21
ATOM     21  O   UNL     1      19.188  -4.569 -18.400  1.00  0.00    -0.507 OA
ATOM     22  H   UNL     1      19.384  -5.159 -19.195  1.00  0.00     0.293 HD
ENDBRANCH  10  21
BRANCH  11  23
ATOM     23  O   UNL     1      20.551  -0.634 -20.789  1.00  0.00    -0.508 OA
ATOM     24  H   UNL     1      21.532  -0.391 -20.861  1.00  0.00     0.293 HD
ENDBRANCH  11  23
ENDBRANCH   1   2
BRANCH   1  25
ATOM     25  C   UNL     1      17.908  -2.969 -12.772  1.00  0.00     0.339 C 
ATOM     26  C   UNL     1      17.371  -4.412 -12.655  1.00  0.00     0.214 C 
ATOM     27  O   UNL     1      17.772  -2.232 -11.566  1.00  0.00    -0.332 OA
ATOM     28  C   UNL     1      15.949  -4.487 -12.055  1.00  0.00     0.180 C 
ATOM     29  C   UNL     1      16.437  -2.115 -11.091  1.00  0.00     0.179 C 
ATOM     30  C   UNL     1      15.707  -3.477 -10.909  1.00  0.00     0.177 C 
BRANCH  26  31
ATOM     31  O   UNL     1      18.258  -5.228 -11.927  1.00  0.00    -0.384 OA
ATOM     32  H   UNL     1      19.055  -5.405 -12.489  1.00  0.00     0.211 HD
ENDBRANCH  26  31
BRANCH  28  33
ATOM     33  O   UNL     1      14.963  -4.365 -13.051  1.00  0.00    -0.387 OA
ATOM     34  H   UNL     1      15.363  -3.900 -13.826  1.00  0.00     0.211 HD
ENDBRANCH  28  33
BRANCH  29  35
ATOM     35  C   UNL     1      15.613  -1.058 -11.849  1.00  0.00     0.191 C 
BRANCH  35  36
ATOM     36  O   UNL     1      14.286  -1.489 -11.977  1.00  0.00    -0.394 OA
ATOM     37  H   UNL     1      14.293  -2.208 -12.661  1.00  0.00     0.210 HD
ENDBRANCH  35  36
ENDBRANCH  29  35
BRANCH  30  38
ATOM     38  O   UNL     1      16.043  -4.060  -9.671  1.00  0.00    -0.387 OA
ATOM     39  H   UNL     1      16.829  -3.580  -9.308  1.00  0.00     0.211 HD
ENDBRANCH  30  38
ENDBRANCH   1  25
TORSDOF 11
ENDMDL
MODEL 6
REMARK VINA RESULT:    -5.534      2.951      5.948
REMARK INTER + INTRA:          -9.587
REMARK INTER:                  -7.995
REMARK INTRA:                  -1.592
REMARK UNBOUND:                -1.627
REMARK SMILES O=c1c(O[C@H]2O[C@@H](CO)[C@H](O)[C@@H](O)[C@@H]2O)c(-c2ccc(O)cc2)oc2cc(O)cc(O)c12
REMARK SMILES IDX 4 1 3 2 16 3 24 4 2 5 25 6 1 7 32 8 26 9 30 10 27 11 29 12
REMARK SMILES IDX 17 13 18 14 19 15 20 16 23 17 22 18 21 19 31 21 28 23 5 25
REMARK SMILES IDX 14 26 6 27 12 28 7 29 10 30 15 31 13 33 8 35 9 36 11 38
REMARK H PARENT 21 20 31 22 28 24 15 32 13 34 9 37 11 39
REMARK Flexibility Score: inf
ROOT
ATOM      1  O   UNL     1      18.407   0.364  -9.256  1.00  0.00    -0.454 OA
ENDROOT
BRANCH   1   2
ATOM      2  C   UNL     1      17.672  -0.756  -9.696  1.00  0.00     0.214 A 
ATOM      3  C   UNL     1      18.023  -2.024  -9.197  1.00  0.00     0.180 A 
ATOM      4  O   UNL     1      17.419  -3.113  -9.654  1.00  0.00    -0.452 OA
ATOM      5  C   UNL     1      16.620  -0.675 -10.636  1.00  0.00     0.239 A 
ATOM      6  C   UNL     1      16.435  -3.084 -10.542  1.00  0.00     0.146 A 
ATOM      7  O   UNL     1      16.308   0.442 -11.119  1.00  0.00    -0.285 OA
ATOM      8  C   UNL     1      15.947  -1.852 -11.045  1.00  0.00     0.111 A 
ATOM      9  C   UNL     1      15.891  -4.295 -10.975  1.00  0.00     0.094 A 
ATOM     10  C   UNL     1      14.845  -1.880 -11.953  1.00  0.00     0.134 A 
ATOM     11  C   UNL     1      14.862  -4.314 -11.912  1.00  0.00     0.123 A 
ATOM     12  C   UNL     1      14.346  -3.110 -12.398  1.00  0.00     0.093 A 
BRANCH   3  13
ATOM     13  C   UNL     1      19.098  -2.194  -8.200  1.00  0.00     0.021 A 
ATOM     14  C   UNL     1      18.798  -2.500  -6.863  1.00  0.00     0.016 A 
ATOM     15  C   UNL     1      19.826  -2.667  -5.929  1.00  0.00     0.047 A 
ATOM     16  C   UNL     1      21.162  -2.548  -6.327  1.00  0.00     0.115 A 
ATOM     17  C   UNL     1      20.440  -2.099  -8.599  1.00  0.00     0.016 A 
ATOM     18  C   UNL     1      21.466  -2.267  -7.665  1.00  0.00     0.047 A 
BRANCH  16  19
ATOM     19  O   UNL     1      22.176  -2.716  -5.386  1.00  0.00    -0.508 OA
ATOM     20  H   UNL     1      22.299  -2.066  -4.619  1.00  0.00     0.293 HD
ENDBRANCH  16  19
ENDBRANCH   3  13
BRANCH  10  21
ATOM     21  O   UNL     1      14.191  -0.736 -12.422  1.00  0.00    -0.507 OA
ATOM     22  H   UNL     1      14.587   0.192 -12.422  1.00  0.00     0.293 HD
ENDBRANCH  10  21
BRANCH  11  23
ATOM     23  O   UNL     1      14.350  -5.534 -12.348  1.00  0.00    -0.508 OA
ATOM     24  H   UNL     1      14.461  -6.381 -11.803  1.00  0.00     0.293 HD
ENDBRANCH  11  23
ENDBRANCH   1   2
BRANCH   1  25
ATOM     25  C   UNL     1      18.128   1.146  -8.090  1.00  0.00     0.339 C 
ATOM     26  C   UNL     1      17.042   2.203  -8.383  1.00  0.00     0.214 C 
ATOM     27  O   UNL     1      19.304   1.707  -7.524  1.00  0.00    -0.332 OA
ATOM     28  C   UNL     1      17.572   3.421  -9.172  1.00  0.00     0.180 C 
ATOM     29  C   UNL     1      19.931   2.700  -8.326  1.00  0.00     0.179 C 
ATOM     30  C   UNL     1      18.989   3.867  -8.741  1.00  0.00     0.177 C 
BRANCH  26  31
ATOM     31  O   UNL     1      16.406   2.621  -7.198  1.00  0.00    -0.384 OA
ATOM     32  H   UNL     1      16.664   2.003  -6.469  1.00  0.00     0.211 HD
ENDBRANCH  26  31
BRANCH  28  33
ATOM     33  O   UNL     1      17.514   3.200 -10.560  1.00  0.00    -0.387 OA
ATOM     34  H   UNL     1      17.019   3.949 -10.971  1.00  0.00     0.211 HD
ENDBRANCH  28  33
BRANCH  29  35
ATOM     35  C   UNL     1      20.751   2.112  -9.490  1.00  0.00     0.191 C 
BRANCH  35  36
ATOM     36  O   UNL     1      20.120   2.394 -10.709  1.00  0.00    -0.394 OA
ATOM     37  H   UNL     1      20.646   1.926 -11.407  1.00  0.00     0.210 HD
ENDBRANCH  35  36
ENDBRANCH  29  35
BRANCH  30  38
ATOM     38  O   UNL     1      18.903   4.826  -7.712  1.00  0.00    -0.387 OA
ATOM     39  H   UNL     1      17.945   4.994  -7.527  1.00  0.00     0.211 HD
ENDBRANCH  30  38
ENDBRANCH   1  25
TORSDOF 11
ENDMDL
MODEL 7
REMARK VINA RESULT:    -5.508      6.926     10.297
REMARK INTER + INTRA:          -9.550
REMARK INTER:                  -7.847
REMARK INTRA:                  -1.703
REMARK UNBOUND:                -1.627
REMARK SMILES O=c1c(O[C@H]2O[C@@H](CO)[C@H](O)[C@@H](O)[C@@H]2O)c(-c2ccc(O)cc2)oc2cc(O)cc(O)c12
REMARK SMILES IDX 4 1 3 2 16 3 24 4 2 5 25 6 1 7 32 8 26 9 30 10 27 11 29 12
REMARK SMILES IDX 17 13 18 14 19 15 20 16 23 17 22 18 21 19 31 21 28 23 5 25
REMARK SMILES IDX 14 26 6 27 12 28 7 29 10 30 15 31 13 33 8 35 9 36 11 38
REMARK H PARENT 21 20 31 22 28 24 15 32 13 34 9 37 11 39
REMARK Flexibility Score: inf
ROOT
ATOM      1  O   UNL     1      10.933   3.670 -17.229  1.00  0.00    -0.454 OA
ENDROOT
BRANCH   1   2
ATOM      2  C   UNL     1       9.639   3.113 -17.161  1.00  0.00     0.214 A 
ATOM      3  C   UNL     1       9.144   2.722 -15.903  1.00  0.00     0.180 A 
ATOM      4  O   UNL     1       7.972   2.111 -15.806  1.00  0.00    -0.452 OA
ATOM      5  C   UNL     1       8.823   2.899 -18.295  1.00  0.00     0.239 A 
ATOM      6  C   UNL     1       7.179   1.881 -16.844  1.00  0.00     0.146 A 
ATOM      7  O   UNL     1       9.254   3.212 -19.434  1.00  0.00    -0.285 OA
ATOM      8  C   UNL     1       7.544   2.311 -18.144  1.00  0.00     0.111 A 
ATOM      9  C   UNL     1       5.978   1.203 -16.629  1.00  0.00     0.094 A 
ATOM     10  C   UNL     1       6.623   2.091 -19.214  1.00  0.00     0.134 A 
ATOM     11  C   UNL     1       5.119   0.933 -17.690  1.00  0.00     0.123 A 
ATOM     12  C   UNL     1       5.445   1.374 -18.975  1.00  0.00     0.093 A 
BRANCH   3  13
ATOM     13  C   UNL     1       9.924   2.926 -14.666  1.00  0.00     0.021 A 
ATOM     14  C   UNL     1       9.898   4.157 -13.992  1.00  0.00     0.016 A 
ATOM     15  C   UNL     1      10.635   4.335 -12.818  1.00  0.00     0.047 A 
ATOM     16  C   UNL     1      11.390   3.280 -12.295  1.00  0.00     0.115 A 
ATOM     17  C   UNL     1      10.664   1.863 -14.126  1.00  0.00     0.016 A 
ATOM     18  C   UNL     1      11.400   2.042 -12.951  1.00  0.00     0.047 A 
BRANCH  16  19
ATOM     19  O   UNL     1      12.120   3.471 -11.123  1.00  0.00    -0.508 OA
ATOM     20  H   UNL     1      13.126   3.348 -11.101  1.00  0.00     0.293 HD
ENDBRANCH  16  19
ENDBRANCH   3  13
BRANCH  10  21
ATOM     21  O   UNL     1       6.805   2.576 -20.512  1.00  0.00    -0.507 OA
ATOM     22  H   UNL     1       6.825   3.553 -20.763  1.00  0.00     0.293 HD
ENDBRANCH  10  21
BRANCH  11  23
ATOM     23  O   UNL     1       3.936   0.233 -17.458  1.00  0.00    -0.508 OA
ATOM     24  H   UNL     1       3.725  -0.628 -17.948  1.00  0.00     0.293 HD
ENDBRANCH  11  23
ENDBRANCH   1   2
BRANCH   1  25
ATOM     25  C   UNL     1      12.075   3.067 -17.844  1.00  0.00     0.339 C 
ATOM     26  C   UNL     1      13.192   2.817 -16.807  1.00  0.00     0.214 C 
ATOM     27  O   UNL     1      12.527   3.799 -18.974  1.00  0.00    -0.332 OA
ATOM     28  C   UNL     1      13.969   4.097 -16.428  1.00  0.00     0.180 C 
ATOM     29  C   UNL     1      13.072   5.077 -18.671  1.00  0.00     0.179 C 
ATOM     30  C   UNL     1      14.223   5.043 -17.625  1.00  0.00     0.177 C 
BRANCH  26  31
ATOM     31  O   UNL     1      14.076   1.812 -17.243  1.00  0.00    -0.384 OA
ATOM     32  H   UNL     1      13.544   1.079 -17.644  1.00  0.00     0.211 HD
ENDBRANCH  26  31
BRANCH  28  33
ATOM     33  O   UNL     1      13.348   4.781 -15.367  1.00  0.00    -0.387 OA
ATOM     34  H   UNL     1      13.707   4.425 -14.518  1.00  0.00     0.211 HD
ENDBRANCH  28  33
BRANCH  29  35
ATOM     35  C   UNL     1      11.999   6.144 -18.388  1.00  0.00     0.191 C 
BRANCH  35  36
ATOM     36  O   UNL     1      10.870   5.909 -19.185  1.00  0.00    -0.394 OA
ATOM     37  H   UNL     1      10.207   5.461 -18.600  1.00  0.00     0.210 HD
ENDBRANCH  35  36
ENDBRANCH  29  35
BRANCH  30  38
ATOM     38  O   UNL     1      15.448   4.724 -18.243  1.00  0.00    -0.387 OA
ATOM     39  H   UNL     1      15.680   3.791 -18.004  1.00  0.00     0.211 HD
ENDBRANCH  30  38
ENDBRANCH   1  25
TORSDOF 11
ENDMDL
MODEL 8
REMARK VINA RESULT:    -5.447      1.699      6.426
REMARK INTER + INTRA:          -9.463
REMARK INTER:                  -7.843
REMARK INTRA:                  -1.620
REMARK UNBOUND:                -1.627
REMARK SMILES O=c1c(O[C@H]2O[C@@H](CO)[C@H](O)[C@@H](O)[C@@H]2O)c(-c2ccc(O)cc2)oc2cc(O)cc(O)c12
REMARK SMILES IDX 4 1 3 2 16 3 24 4 2 5 25 6 1 7 32 8 26 9 30 10 27 11 29 12
REMARK SMILES IDX 17 13 18 14 19 15 20 16 23 17 22 18 21 19 31 21 28 23 5 25
REMARK SMILES IDX 14 26 6 27 12 28 7 29 10 30 15 31 13 33 8 35 9 36 11 38
REMARK H PARENT 21 20 31 22 28 24 15 32 13 34 9 37 11 39
REMARK Flexibility Score: inf
ROOT
ATOM      1  O   UNL     1      15.573  -0.668 -11.434  1.00  0.00    -0.454 OA
ENDROOT
BRANCH   1   2
ATOM      2  C   UNL     1      16.713  -0.996 -10.671  1.00  0.00     0.214 A 
ATOM      3  C   UNL     1      17.410  -2.178 -10.984  1.00  0.00     0.180 A 
ATOM      4  O   UNL     1      18.431  -2.570 -10.235  1.00  0.00    -0.452 OA
ATOM      5  C   UNL     1      17.176  -0.215  -9.588  1.00  0.00     0.239 A 
ATOM      6  C   UNL     1      18.892  -1.874  -9.205  1.00  0.00     0.146 A 
ATOM      7  O   UNL     1      16.553   0.830  -9.269  1.00  0.00    -0.285 OA
ATOM      8  C   UNL     1      18.316  -0.627  -8.856  1.00  0.00     0.111 A 
ATOM      9  C   UNL     1      19.956  -2.398  -8.467  1.00  0.00     0.094 A 
ATOM     10  C   UNL     1      18.893   0.108  -7.775  1.00  0.00     0.134 A 
ATOM     11  C   UNL     1      20.466  -1.706  -7.373  1.00  0.00     0.123 A 
ATOM     12  C   UNL     1      19.933  -0.461  -7.031  1.00  0.00     0.093 A 
BRANCH   3  13
ATOM     13  C   UNL     1      17.004  -3.041 -12.110  1.00  0.00     0.021 A 
ATOM     14  C   UNL     1      17.407  -2.751 -13.423  1.00  0.00     0.016 A 
ATOM     15  C   UNL     1      17.022  -3.581 -14.480  1.00  0.00     0.047 A 
ATOM     16  C   UNL     1      16.248  -4.719 -14.233  1.00  0.00     0.115 A 
ATOM     17  C   UNL     1      16.246  -4.197 -11.864  1.00  0.00     0.016 A 
ATOM     18  C   UNL     1      15.863  -5.027 -12.921  1.00  0.00     0.047 A 
BRANCH  16  19
ATOM     19  O   UNL     1      15.871  -5.539 -15.296  1.00  0.00    -0.508 OA
ATOM     20  H   UNL     1      14.903  -5.614 -15.588  1.00  0.00     0.293 HD
ENDBRANCH  16  19
ENDBRANCH   3  13
BRANCH  10  21
ATOM     21  O   UNL     1      18.502   1.400  -7.414  1.00  0.00    -0.507 OA
ATOM     22  H   UNL     1      19.138   2.159  -7.218  1.00  0.00     0.293 HD
ENDBRANCH  10  21
BRANCH  11  23
ATOM     23  O   UNL     1      21.512  -2.258  -6.636  1.00  0.00    -0.508 OA
ATOM     24  H   UNL     1      22.011  -1.719  -5.938  1.00  0.00     0.293 HD
ENDBRANCH  11  23
ENDBRANCH   1   2
BRANCH   1  25
ATOM     25  C   UNL     1      15.521   0.288 -12.497  1.00  0.00     0.339 C 
ATOM     26  C   UNL     1      14.685   1.521 -12.089  1.00  0.00     0.214 C 
ATOM     27  O   UNL     1      15.090  -0.290 -13.720  1.00  0.00    -0.332 OA
ATOM     28  C   UNL     1      13.162   1.266 -12.134  1.00  0.00     0.180 C 
ATOM     29  C   UNL     1      13.734  -0.719 -13.725  1.00  0.00     0.179 C 
ATOM     30  C   UNL     1      12.717   0.390 -13.329  1.00  0.00     0.177 C 
BRANCH  26  31
ATOM     31  O   UNL     1      15.022   2.645 -12.868  1.00  0.00    -0.384 OA
ATOM     32  H   UNL     1      14.513   2.602 -13.717  1.00  0.00     0.211 HD
ENDBRANCH  26  31
BRANCH  28  33
ATOM     33  O   UNL     1      12.693   0.737 -10.918  1.00  0.00    -0.387 OA
ATOM     34  H   UNL     1      13.461   0.351 -10.432  1.00  0.00     0.211 HD
ENDBRANCH  28  33
BRANCH  29  35
ATOM     35  C   UNL     1      13.517  -2.058 -12.996  1.00  0.00     0.191 C 
BRANCH  35  36
ATOM     36  O   UNL     1      12.583  -1.894 -11.965  1.00  0.00    -0.394 OA
ATOM     37  H   UNL     1      13.040  -2.175 -11.131  1.00  0.00     0.210 HD
ENDBRANCH  35  36
ENDBRANCH  29  35
BRANCH  30  38
ATOM     38  O   UNL     1      12.410   1.204 -14.438  1.00  0.00    -0.387 OA
ATOM     39  H   UNL     1      11.829   0.685 -15.049  1.00  0.00     0.211 HD
ENDBRANCH  30  38
ENDBRANCH   1  25
TORSDOF 11
ENDMDL
MODEL 9
REMARK VINA RESULT:    -5.391      6.967     10.116
REMARK INTER + INTRA:          -9.382
REMARK INTER:                  -7.562
REMARK INTRA:                  -1.820
REMARK UNBOUND:                -1.627
REMARK SMILES O=c1c(O[C@H]2O[C@@H](CO)[C@H](O)[C@@H](O)[C@@H]2O)c(-c2ccc(O)cc2)oc2cc(O)cc(O)c12
REMARK SMILES IDX 4 1 3 2 16 3 24 4 2 5 25 6 1 7 32 8 26 9 30 10 27 11 29 12
REMARK SMILES IDX 17 13 18 14 19 15 20 16 23 17 22 18 21 19 31 21 28 23 5 25
REMARK SMILES IDX 14 26 6 27 12 28 7 29 10 30 15 31 13 33 8 35 9 36 11 38
REMARK H PARENT 21 20 31 22 28 24 15 32 13 34 9 37 11 39
REMARK Flexibility Score: inf
ROOT
ATOM      1  O   UNL     1      10.040   2.946 -15.587  1.00  0.00    -0.454 OA
ENDROOT
BRANCH   1   2
ATOM      2  C   UNL     1       9.009   2.688 -16.513  1.00  0.00     0.214 A 
ATOM      3  C   UNL     1       9.077   3.301 -17.778  1.00  0.00     0.180 A 
ATOM      4  O   UNL     1       8.084   3.158 -18.645  1.00  0.00    -0.452 OA
ATOM      5  C   UNL     1       7.894   1.869 -16.227  1.00  0.00     0.239 A 
ATOM      6  C   UNL     1       7.016   2.407 -18.414  1.00  0.00     0.146 A 
ATOM      7  O   UNL     1       7.795   1.334 -15.094  1.00  0.00    -0.285 OA
ATOM      8  C   UNL     1       6.887   1.679 -17.205  1.00  0.00     0.111 A 
ATOM      9  C   UNL     1       6.015   2.353 -19.387  1.00  0.00     0.094 A 
ATOM     10  C   UNL     1       5.744   0.839 -17.037  1.00  0.00     0.134 A 
ATOM     11  C   UNL     1       4.873   1.585 -19.185  1.00  0.00     0.123 A 
ATOM     12  C   UNL     1       4.741   0.835 -18.013  1.00  0.00     0.093 A 
BRANCH   3  13
ATOM     13  C   UNL     1      10.216   4.157 -18.164  1.00  0.00     0.021 A 
ATOM     14  C   UNL     1      11.433   3.594 -18.580  1.00  0.00     0.016 A 
ATOM     15  C   UNL     1      12.502   4.416 -18.950  1.00  0.00     0.047 A 
ATOM     16  C   UNL     1      12.359   5.807 -18.927  1.00  0.00     0.115 A 
ATOM     17  C   UNL     1      10.070   5.553 -18.164  1.00  0.00     0.016 A 
ATOM     18  C   UNL     1      11.138   6.374 -18.536  1.00  0.00     0.047 A 
BRANCH  16  19
ATOM     19  O   UNL     1      13.432   6.615 -19.299  1.00  0.00    -0.508 OA
ATOM     20  H   UNL     1      13.478   7.043 -20.216  1.00  0.00     0.293 HD
ENDBRANCH  16  19
ENDBRANCH   3  13
BRANCH  10  21
ATOM     21  O   UNL     1       5.562  -0.024 -15.953  1.00  0.00    -0.507 OA
ATOM     22  H   UNL     1       6.278  -0.624 -15.570  1.00  0.00     0.293 HD
ENDBRANCH  10  21
BRANCH  11  23
ATOM     23  O   UNL     1       3.876   1.564 -20.158  1.00  0.00    -0.508 OA
ATOM     24  H   UNL     1       2.923   1.301 -19.935  1.00  0.00     0.293 HD
ENDBRANCH  11  23
ENDBRANCH   1   2
BRANCH   1  25
ATOM     25  C   UNL     1       9.978   3.870 -14.496  1.00  0.00     0.339 C 
ATOM     26  C   UNL     1      11.063   4.960 -14.634  1.00  0.00     0.214 C 
ATOM     27  O   UNL     1      10.010   3.218 -13.235  1.00  0.00    -0.332 OA
ATOM     28  C   UNL     1      12.474   4.468 -14.243  1.00  0.00     0.180 C 
ATOM     29  C   UNL     1      11.245   2.581 -12.930  1.00  0.00     0.179 C 
ATOM     30  C   UNL     1      12.482   3.521 -13.021  1.00  0.00     0.177 C 
BRANCH  26  31
ATOM     31  O   UNL     1      10.721   6.115 -13.904  1.00  0.00    -0.384 OA
ATOM     32  H   UNL     1      10.120   6.671 -14.460  1.00  0.00     0.211 HD
ENDBRANCH  26  31
BRANCH  28  33
ATOM     33  O   UNL     1      13.138   3.885 -15.338  1.00  0.00    -0.387 OA
ATOM     34  H   UNL     1      13.767   3.207 -14.992  1.00  0.00     0.211 HD
ENDBRANCH  28  33
BRANCH  29  35
ATOM     35  C   UNL     1      11.427   1.233 -13.652  1.00  0.00     0.191 C 
BRANCH  35  36
ATOM     36  O   UNL     1      10.204   0.553 -13.710  1.00  0.00    -0.394 OA
ATOM     37  H   UNL     1       9.546   1.126 -13.237  1.00  0.00     0.210 HD
ENDBRANCH  35  36
ENDBRANCH  29  35
BRANCH  30  38
ATOM     38  O   UNL     1      12.630   4.263 -11.833  1.00  0.00    -0.387 OA
ATOM     39  H   UNL     1      12.430   5.211 -12.036  1.00  0.00     0.211 HD
ENDBRANCH  30  38
ENDBRANCH   1  25
TORSDOF 11
ENDMDL
