MODEL 1
REMARK VINA RESULT:    -4.603      0.000      0.000
REMARK INTER + INTRA:          -8.692
REMARK INTER:                  -7.024
REMARK INTRA:                  -1.668
REMARK UNBOUND:                -1.668
REMARK SMILES CC(=O)CCC=C(C)CCC=C(C)CCC=C(C)C
REMARK SMILES IDX 10 1 11 2 12 3 13 4 14 5 15 6 16 7 18 8 17 9 19 10 9 11 7 12
REMARK SMILES IDX 6 13 8 14 5 15 4 16 2 17 3 18 1 19
REMARK H PARENT
REMARK Flexibility Score: inf
ROOT
ATOM      1  C   UNL     1      58.854 -16.861  -3.141  1.00  0.00     0.032 C 
ENDROOT
BRANCH   1   2
ATOM      2  C   UNL     1      59.661 -17.894  -2.395  1.00  0.00    -0.028 C 
ATOM      3  C   UNL     1      60.691 -17.610  -1.566  1.00  0.00    -0.077 C 
ATOM      4  C   UNL     1      61.170 -16.194  -1.346  1.00  0.00     0.039 C 
BRANCH   3   5
ATOM      5  C   UNL     1      61.389 -18.744  -0.846  1.00  0.00     0.034 C 
BRANCH   5   6
ATOM      6  C   UNL     1      60.808 -18.941   0.558  1.00  0.00     0.032 C 
BRANCH   6   7
ATOM      7  C   UNL     1      59.620 -19.874   0.535  1.00  0.00    -0.028 C 
ATOM      8  C   UNL     1      57.213 -20.438   0.684  1.00  0.00     0.039 C 
ATOM      9  C   UNL     1      58.351 -19.451   0.720  1.00  0.00    -0.080 C 
ATOM     10  C   UNL     1      58.028 -17.998   0.966  1.00  0.00     0.039 C 
ENDBRANCH   6   7
ENDBRANCH   5   6
ENDBRANCH   3   5
ENDBRANCH   1   2
BRANCH   1  11
ATOM     11  C   UNL     1      57.354 -17.088  -2.928  1.00  0.00     0.034 C 
BRANCH  11  12
ATOM     12  C   UNL     1      56.547 -16.284  -3.929  1.00  0.00    -0.077 C 
ATOM     13  C   UNL     1      55.416 -16.749  -4.508  1.00  0.00    -0.028 C 
ATOM     14  C   UNL     1      57.065 -14.935  -4.355  1.00  0.00     0.039 C 
BRANCH  13  15
ATOM     15  C   UNL     1      54.755 -18.066  -4.180  1.00  0.00     0.035 C 
BRANCH  15  16
ATOM     16  C   UNL     1      53.699 -17.909  -3.077  1.00  0.00     0.079 C 
BRANCH  16  17
ATOM     17  C   UNL     1      54.090 -18.655  -1.826  1.00  0.00     0.130 C 
ATOM     18  O   UNL     1      54.831 -19.622  -1.908  1.00  0.00    -0.300 OA
ATOM     19  C   UNL     1      53.589 -18.230  -0.477  1.00  0.00     0.087 C 
ENDBRANCH  16  17
ENDBRANCH  15  16
ENDBRANCH  13  15
ENDBRANCH  11  12
ENDBRANCH   1  11
TORSDOF 9
ENDMDL
MODEL 2
REMARK VINA RESULT:    -4.596      3.455      5.729
REMARK INTER + INTRA:          -8.682
REMARK INTER:                  -7.474
REMARK INTRA:                  -1.208
REMARK UNBOUND:                -1.668
REMARK SMILES CC(=O)CCC=C(C)CCC=C(C)CCC=C(C)C
REMARK SMILES IDX 10 1 11 2 12 3 13 4 14 5 15 6 16 7 18 8 17 9 19 10 9 11 7 12
REMARK SMILES IDX 6 13 8 14 5 15 4 16 2 17 3 18 1 19
REMARK H PARENT
REMARK Flexibility Score: inf
ROOT
ATOM      1  C   UNL     1      57.151 -20.204   0.664  1.00  0.00     0.032 C 
ENDROOT
BRANCH   1   2
ATOM      2  C   UNL     1      58.616 -20.087   1.004  1.00  0.00    -0.028 C 
ATOM      3  C   UNL     1      59.096 -19.830   2.243  1.00  0.00    -0.077 C 
ATOM      4  C   UNL     1      58.180 -19.580   3.417  1.00  0.00     0.039 C 
BRANCH   3   5
ATOM      5  C   UNL     1      60.595 -19.780   2.453  1.00  0.00     0.034 C 
BRANCH   5   6
ATOM      6  C   UNL     1      60.932 -19.351   3.885  1.00  0.00     0.032 C 
BRANCH   6   7
ATOM      7  C   UNL     1      61.567 -20.479   4.661  1.00  0.00    -0.028 C 
ATOM      8  C   UNL     1      63.157 -21.462   6.287  1.00  0.00     0.039 C 
ATOM      9  C   UNL     1      62.569 -20.289   5.548  1.00  0.00    -0.080 C 
ATOM     10  C   UNL     1      63.127 -18.916   5.827  1.00  0.00     0.039 C 
ENDBRANCH   6   7
ENDBRANCH   5   6
ENDBRANCH   3   5
ENDBRANCH   1   2
BRANCH   1  11
ATOM     11  C   UNL     1      56.590 -18.852   0.211  1.00  0.00     0.034 C 
BRANCH  11  12
ATOM     12  C   UNL     1      56.509 -18.790  -1.301  1.00  0.00    -0.077 C 
ATOM     13  C   UNL     1      57.448 -18.187  -2.066  1.00  0.00    -0.028 C 
ATOM     14  C   UNL     1      55.293 -19.362  -1.983  1.00  0.00     0.039 C 
BRANCH  13  15
ATOM     15  C   UNL     1      58.732 -17.584  -1.545  1.00  0.00     0.035 C 
BRANCH  15  16
ATOM     16  C   UNL     1      59.923 -17.918  -2.453  1.00  0.00     0.079 C 
BRANCH  16  17
ATOM     17  C   UNL     1      61.234 -17.774  -1.723  1.00  0.00     0.130 C 
ATOM     18  O   UNL     1      61.808 -16.695  -1.723  1.00  0.00    -0.300 OA
ATOM     19  C   UNL     1      61.850 -18.930  -0.991  1.00  0.00     0.087 C 
ENDBRANCH  16  17
ENDBRANCH  15  16
ENDBRANCH  13  15
ENDBRANCH  11  12
ENDBRANCH   1  11
TORSDOF 9
ENDMDL
MODEL 3
REMARK VINA RESULT:    -4.591      1.848      4.915
REMARK INTER + INTRA:          -8.674
REMARK INTER:                  -6.849
REMARK INTRA:                  -1.825
REMARK UNBOUND:                -1.668
REMARK SMILES CC(=O)CCC=C(C)CCC=C(C)CCC=C(C)C
REMARK SMILES IDX 10 1 11 2 12 3 13 4 14 5 15 6 16 7 18 8 17 9 19 10 9 11 7 12
REMARK SMILES IDX 6 13 8 14 5 15 4 16 2 17 3 18 1 19
REMARK H PARENT
REMARK Flexibility Score: inf
ROOT
ATOM      1  C   UNL     1      54.983 -16.893  -4.623  1.00  0.00     0.032 C 
ENDROOT
BRANCH   1   2
ATOM      2  C   UNL     1      55.260 -17.955  -3.588  1.00  0.00    -0.028 C 
ATOM      3  C   UNL     1      54.382 -18.342  -2.635  1.00  0.00    -0.077 C 
ATOM      4  C   UNL     1      53.027 -17.691  -2.486  1.00  0.00     0.039 C 
BRANCH   3   5
ATOM      5  C   UNL     1      54.774 -19.453  -1.683  1.00  0.00     0.034 C 
BRANCH   5   6
ATOM      6  C   UNL     1      55.462 -18.887  -0.436  1.00  0.00     0.032 C 
BRANCH   6   7
ATOM      7  C   UNL     1      56.765 -19.598  -0.158  1.00  0.00    -0.028 C 
ATOM      8  C   UNL     1      59.105 -19.754   0.639  1.00  0.00     0.039 C 
ATOM      9  C   UNL     1      57.836 -18.982   0.389  1.00  0.00    -0.080 C 
ATOM     10  C   UNL     1      57.801 -17.522   0.765  1.00  0.00     0.039 C 
ENDBRANCH   6   7
ENDBRANCH   5   6
ENDBRANCH   3   5
ENDBRANCH   1   2
BRANCH   1  11
ATOM     11  C   UNL     1      55.777 -15.619  -4.317  1.00  0.00     0.034 C 
BRANCH  11  12
ATOM     12  C   UNL     1      57.148 -15.680  -4.961  1.00  0.00    -0.077 C 
ATOM     13  C   UNL     1      58.255 -16.094  -4.301  1.00  0.00    -0.028 C 
ATOM     14  C   UNL     1      57.303 -15.189  -6.377  1.00  0.00     0.039 C 
BRANCH  13  15
ATOM     15  C   UNL     1      58.270 -16.633  -2.891  1.00  0.00     0.035 C 
BRANCH  15  16
ATOM     16  C   UNL     1      59.313 -17.748  -2.724  1.00  0.00     0.079 C 
BRANCH  16  17
ATOM     17  C   UNL     1      60.476 -17.296  -1.877  1.00  0.00     0.130 C 
ATOM     18  O   UNL     1      60.476 -16.169  -1.406  1.00  0.00    -0.300 OA
ATOM     19  C   UNL     1      61.635 -18.206  -1.597  1.00  0.00     0.087 C 
ENDBRANCH  16  17
ENDBRANCH  15  16
ENDBRANCH  13  15
ENDBRANCH  11  12
ENDBRANCH   1  11
TORSDOF 9
ENDMDL
MODEL 4
REMARK VINA RESULT:    -4.566      2.028      6.755
REMARK INTER + INTRA:          -8.635
REMARK INTER:                  -6.799
REMARK INTRA:                  -1.836
REMARK UNBOUND:                -1.668
REMARK SMILES CC(=O)CCC=C(C)CCC=C(C)CCC=C(C)C
REMARK SMILES IDX 10 1 11 2 12 3 13 4 14 5 15 6 16 7 18 8 17 9 19 10 9 11 7 12
REMARK SMILES IDX 6 13 8 14 5 15 4 16 2 17 3 18 1 19
REMARK H PARENT
REMARK Flexibility Score: inf
ROOT
ATOM      1  C   UNL     1      56.993 -18.731  -0.033  1.00  0.00     0.032 C 
ENDROOT
BRANCH   1   2
ATOM      2  C   UNL     1      56.435 -18.784  -1.433  1.00  0.00    -0.028 C 
ATOM      3  C   UNL     1      55.131 -18.607  -1.745  1.00  0.00    -0.077 C 
ATOM      4  C   UNL     1      54.080 -18.383  -0.683  1.00  0.00     0.039 C 
BRANCH   3   5
ATOM      5  C   UNL     1      54.711 -18.645  -3.200  1.00  0.00     0.034 C 
BRANCH   5   6
ATOM      6  C   UNL     1      54.581 -17.227  -3.768  1.00  0.00     0.032 C 
BRANCH   6   7
ATOM      7  C   UNL     1      55.771 -16.868  -4.626  1.00  0.00    -0.028 C 
ATOM      8  C   UNL     1      57.910 -15.721  -5.121  1.00  0.00     0.039 C 
ATOM      9  C   UNL     1      56.751 -16.036  -4.212  1.00  0.00    -0.080 C 
ATOM     10  C   UNL     1      56.722 -15.400  -2.844  1.00  0.00     0.039 C 
ENDBRANCH   6   7
ENDBRANCH   5   6
ENDBRANCH   3   5
ENDBRANCH   1   2
BRANCH   1  11
ATOM     11  C   UNL     1      57.718 -20.036   0.311  1.00  0.00     0.034 C 
BRANCH  11  12
ATOM     12  C   UNL     1      58.443 -19.907   1.637  1.00  0.00    -0.077 C 
ATOM     13  C   UNL     1      59.780 -19.726   1.731  1.00  0.00    -0.028 C 
ATOM     14  C   UNL     1      57.651 -20.060   2.910  1.00  0.00     0.039 C 
BRANCH  13  15
ATOM     15  C   UNL     1      60.713 -19.535   0.559  1.00  0.00     0.035 C 
BRANCH  15  16
ATOM     16  C   UNL     1      60.678 -18.091   0.039  1.00  0.00     0.079 C 
BRANCH  16  17
ATOM     17  C   UNL     1      60.858 -18.036  -1.457  1.00  0.00     0.130 C 
ATOM     18  O   UNL     1      61.927 -18.368  -1.948  1.00  0.00    -0.300 OA
ATOM     19  C   UNL     1      59.747 -17.585  -2.359  1.00  0.00     0.087 C 
ENDBRANCH  16  17
ENDBRANCH  15  16
ENDBRANCH  13  15
ENDBRANCH  11  12
ENDBRANCH   1  11
TORSDOF 9
ENDMDL
MODEL 5
REMARK VINA RESULT:    -4.548      2.339      6.515
REMARK INTER + INTRA:          -8.609
REMARK INTER:                  -6.232
REMARK INTRA:                  -2.377
REMARK UNBOUND:                -1.668
REMARK SMILES CC(=O)CCC=C(C)CCC=C(C)CCC=C(C)C
REMARK SMILES IDX 10 1 11 2 12 3 13 4 14 5 15 6 16 7 18 8 17 9 19 10 9 11 7 12
REMARK SMILES IDX 6 13 8 14 5 15 4 16 2 17 3 18 1 19
REMARK H PARENT
REMARK Flexibility Score: inf
ROOT
ATOM      1  C   UNL     1      56.557 -17.599   0.793  1.00  0.00     0.032 C 
ENDROOT
BRANCH   1   2
ATOM      2  C   UNL     1      57.202 -16.675  -0.209  1.00  0.00    -0.028 C 
ATOM      3  C   UNL     1      57.528 -17.025  -1.475  1.00  0.00    -0.077 C 
ATOM      4  C   UNL     1      57.315 -18.427  -1.995  1.00  0.00     0.039 C 
BRANCH   3   5
ATOM      5  C   UNL     1      58.133 -15.983  -2.392  1.00  0.00     0.034 C 
BRANCH   5   6
ATOM      6  C   UNL     1      58.423 -16.575  -3.776  1.00  0.00     0.032 C 
BRANCH   6   7
ATOM      7  C   UNL     1      57.949 -15.656  -4.876  1.00  0.00    -0.028 C 
ATOM      8  C   UNL     1      56.268 -14.686  -6.415  1.00  0.00     0.039 C 
ATOM      9  C   UNL     1      56.671 -15.630  -5.312  1.00  0.00    -0.080 C 
ATOM     10  C   UNL     1      55.615 -16.530  -4.720  1.00  0.00     0.039 C 
ENDBRANCH   6   7
ENDBRANCH   5   6
ENDBRANCH   3   5
ENDBRANCH   1   2
BRANCH   1  11
ATOM     11  C   UNL     1      57.607 -18.185   1.743  1.00  0.00     0.034 C 
BRANCH  11  12
ATOM     12  C   UNL     1      57.982 -19.591   1.319  1.00  0.00    -0.077 C 
ATOM     13  C   UNL     1      59.222 -19.928   0.896  1.00  0.00    -0.028 C 
ATOM     14  C   UNL     1      56.909 -20.648   1.298  1.00  0.00     0.039 C 
BRANCH  13  15
ATOM     15  C   UNL     1      60.412 -18.997   0.875  1.00  0.00     0.035 C 
BRANCH  15  16
ATOM     16  C   UNL     1      60.876 -18.707  -0.559  1.00  0.00     0.079 C 
BRANCH  16  17
ATOM     17  C   UNL     1      61.157 -17.240  -0.764  1.00  0.00     0.130 C 
ATOM     18  O   UNL     1      61.685 -16.867  -1.801  1.00  0.00    -0.300 OA
ATOM     19  C   UNL     1      60.797 -16.224   0.280  1.00  0.00     0.087 C 
ENDBRANCH  16  17
ENDBRANCH  15  16
ENDBRANCH  13  15
ENDBRANCH  11  12
ENDBRANCH   1  11
TORSDOF 9
ENDMDL
MODEL 6
REMARK VINA RESULT:    -4.517      3.164      6.656
REMARK INTER + INTRA:          -8.561
REMARK INTER:                  -6.495
REMARK INTRA:                  -2.066
REMARK UNBOUND:                -1.668
REMARK SMILES CC(=O)CCC=C(C)CCC=C(C)CCC=C(C)C
REMARK SMILES IDX 10 1 11 2 12 3 13 4 14 5 15 6 16 7 18 8 17 9 19 10 9 11 7 12
REMARK SMILES IDX 6 13 8 14 5 15 4 16 2 17 3 18 1 19
REMARK H PARENT
REMARK Flexibility Score: inf
ROOT
ATOM      1  C   UNL     1      56.560 -17.702   0.721  1.00  0.00     0.032 C 
ENDROOT
BRANCH   1   2
ATOM      2  C   UNL     1      57.314 -17.157  -0.466  1.00  0.00    -0.028 C 
ATOM      3  C   UNL     1      57.166 -17.599  -1.736  1.00  0.00    -0.077 C 
ATOM      4  C   UNL     1      56.244 -18.746  -2.079  1.00  0.00     0.039 C 
BRANCH   3   5
ATOM      5  C   UNL     1      57.956 -16.933  -2.843  1.00  0.00     0.034 C 
BRANCH   5   6
ATOM      6  C   UNL     1      59.339 -16.502  -2.344  1.00  0.00     0.032 C 
BRANCH   6   7
ATOM      7  C   UNL     1      60.247 -17.693  -2.147  1.00  0.00    -0.028 C 
ATOM      8  C   UNL     1      61.850 -19.103  -0.891  1.00  0.00     0.039 C 
ATOM      9  C   UNL     1      60.964 -17.891  -1.019  1.00  0.00    -0.080 C 
ATOM     10  C   UNL     1      60.905 -16.924   0.136  1.00  0.00     0.039 C 
ENDBRANCH   6   7
ENDBRANCH   5   6
ENDBRANCH   3   5
ENDBRANCH   1   2
BRANCH   1  11
ATOM     11  C   UNL     1      57.530 -18.141   1.823  1.00  0.00     0.034 C 
BRANCH  11  12
ATOM     12  C   UNL     1      57.969 -19.575   1.604  1.00  0.00    -0.077 C 
ATOM     13  C   UNL     1      59.181 -20.041   1.983  1.00  0.00    -0.028 C 
ATOM     14  C   UNL     1      57.045 -20.508   0.865  1.00  0.00     0.039 C 
BRANCH  13  15
ATOM     15  C   UNL     1      60.214 -19.247   2.748  1.00  0.00     0.035 C 
BRANCH  15  16
ATOM     16  C   UNL     1      61.432 -20.106   3.113  1.00  0.00     0.079 C 
BRANCH  16  17
ATOM     17  C   UNL     1      61.542 -20.308   4.603  1.00  0.00     0.130 C 
ATOM     18  O   UNL     1      62.640 -20.271   5.136  1.00  0.00    -0.300 OA
ATOM     19  C   UNL     1      60.326 -20.551   5.448  1.00  0.00     0.087 C 
ENDBRANCH  16  17
ENDBRANCH  15  16
ENDBRANCH  13  15
ENDBRANCH  11  12
ENDBRANCH   1  11
TORSDOF 9
ENDMDL
MODEL 7
REMARK VINA RESULT:    -4.495      1.301      2.291
REMARK INTER + INTRA:          -8.527
REMARK INTER:                  -6.118
REMARK INTRA:                  -2.410
REMARK UNBOUND:                -1.668
REMARK SMILES CC(=O)CCC=C(C)CCC=C(C)CCC=C(C)C
REMARK SMILES IDX 10 1 11 2 12 3 13 4 14 5 15 6 16 7 18 8 17 9 19 10 9 11 7 12
REMARK SMILES IDX 6 13 8 14 5 15 4 16 2 17 3 18 1 19
REMARK H PARENT
REMARK Flexibility Score: inf
ROOT
ATOM      1  C   UNL     1      60.926 -15.372  -1.572  1.00  0.00     0.032 C 
ENDROOT
BRANCH   1   2
ATOM      2  C   UNL     1      61.181 -16.641  -0.798  1.00  0.00    -0.028 C 
ATOM      3  C   UNL     1      61.164 -17.883  -1.335  1.00  0.00    -0.077 C 
ATOM      4  C   UNL     1      60.828 -18.118  -2.788  1.00  0.00     0.039 C 
BRANCH   3   5
ATOM      5  C   UNL     1      61.479 -19.070  -0.450  1.00  0.00     0.034 C 
BRANCH   5   6
ATOM      6  C   UNL     1      60.642 -19.033   0.833  1.00  0.00     0.032 C 
BRANCH   6   7
ATOM      7  C   UNL     1      59.418 -19.910   0.715  1.00  0.00    -0.028 C 
ATOM      8  C   UNL     1      57.033 -20.484   1.059  1.00  0.00     0.039 C 
ATOM      9  C   UNL     1      58.212 -19.559   1.213  1.00  0.00    -0.080 C 
ATOM     10  C   UNL     1      58.003 -18.249   1.930  1.00  0.00     0.039 C 
ENDBRANCH   6   7
ENDBRANCH   5   6
ENDBRANCH   3   5
ENDBRANCH   1   2
BRANCH   1  11
ATOM     11  C   UNL     1      59.502 -14.864  -1.326  1.00  0.00     0.034 C 
BRANCH  11  12
ATOM     12  C   UNL     1      58.648 -15.056  -2.564  1.00  0.00    -0.077 C 
ATOM     13  C   UNL     1      57.710 -16.025  -2.669  1.00  0.00    -0.028 C 
ATOM     14  C   UNL     1      58.902 -14.175  -3.759  1.00  0.00     0.039 C 
BRANCH  13  15
ATOM     15  C   UNL     1      57.319 -16.975  -1.562  1.00  0.00     0.035 C 
BRANCH  15  16
ATOM     16  C   UNL     1      57.138 -18.407  -2.084  1.00  0.00     0.079 C 
BRANCH  16  17
ATOM     17  C   UNL     1      55.691 -18.711  -2.377  1.00  0.00     0.130 C 
ATOM     18  O   UNL     1      55.041 -19.373  -1.581  1.00  0.00    -0.300 OA
ATOM     19  C   UNL     1      55.028 -18.214  -3.628  1.00  0.00     0.087 C 
ENDBRANCH  16  17
ENDBRANCH  15  16
ENDBRANCH  13  15
ENDBRANCH  11  12
ENDBRANCH   1  11
TORSDOF 9
ENDMDL
MODEL 8
REMARK VINA RESULT:    -4.473      2.006      3.360
REMARK INTER + INTRA:          -8.495
REMARK INTER:                  -6.695
REMARK INTRA:                  -1.799
REMARK UNBOUND:                -1.668
REMARK SMILES CC(=O)CCC=C(C)CCC=C(C)CCC=C(C)C
REMARK SMILES IDX 10 1 11 2 12 3 13 4 14 5 15 6 16 7 18 8 17 9 19 10 9 11 7 12
REMARK SMILES IDX 6 13 8 14 5 15 4 16 2 17 3 18 1 19
REMARK H PARENT
REMARK Flexibility Score: inf
ROOT
ATOM      1  C   UNL     1      58.727 -17.218  -2.761  1.00  0.00     0.032 C 
ENDROOT
BRANCH   1   2
ATOM      2  C   UNL     1      59.806 -18.116  -2.209  1.00  0.00    -0.028 C 
ATOM      3  C   UNL     1      60.894 -17.681  -1.534  1.00  0.00    -0.077 C 
ATOM      4  C   UNL     1      61.158 -16.210  -1.311  1.00  0.00     0.039 C 
BRANCH   3   5
ATOM      5  C   UNL     1      61.880 -18.696  -0.996  1.00  0.00     0.034 C 
BRANCH   5   6
ATOM      6  C   UNL     1      61.164 -19.768  -0.167  1.00  0.00     0.032 C 
BRANCH   6   7
ATOM      7  C   UNL     1      60.616 -19.192   1.117  1.00  0.00    -0.028 C 
ATOM      8  C   UNL     1      58.842 -18.715   2.779  1.00  0.00     0.039 C 
ATOM      9  C   UNL     1      59.322 -19.315   1.483  1.00  0.00    -0.080 C 
ATOM     10  C   UNL     1      58.322 -20.047   0.622  1.00  0.00     0.039 C 
ENDBRANCH   6   7
ENDBRANCH   5   6
ENDBRANCH   3   5
ENDBRANCH   1   2
BRANCH   1  11
ATOM     11  C   UNL     1      57.516 -17.186  -1.822  1.00  0.00     0.034 C 
BRANCH  11  12
ATOM     12  C   UNL     1      56.284 -17.719  -2.526  1.00  0.00    -0.077 C 
ATOM     13  C   UNL     1      55.516 -16.963  -3.344  1.00  0.00    -0.028 C 
ATOM     14  C   UNL     1      55.850 -19.135  -2.247  1.00  0.00     0.039 C 
BRANCH  13  15
ATOM     15  C   UNL     1      55.820 -15.538  -3.742  1.00  0.00     0.035 C 
BRANCH  15  16
ATOM     16  C   UNL     1      56.105 -15.420  -5.246  1.00  0.00     0.079 C 
BRANCH  16  17
ATOM     17  C   UNL     1      57.574 -15.217  -5.517  1.00  0.00     0.130 C 
ATOM     18  O   UNL     1      58.148 -15.955  -6.304  1.00  0.00    -0.300 OA
ATOM     19  C   UNL     1      58.348 -14.123  -4.842  1.00  0.00     0.087 C 
ENDBRANCH  16  17
ENDBRANCH  15  16
ENDBRANCH  13  15
ENDBRANCH  11  12
ENDBRANCH   1  11
TORSDOF 9
ENDMDL
MODEL 9
REMARK VINA RESULT:    -4.472      1.250      5.367
REMARK INTER + INTRA:          -8.492
REMARK INTER:                  -6.788
REMARK INTRA:                  -1.705
REMARK UNBOUND:                -1.668
REMARK SMILES CC(=O)CCC=C(C)CCC=C(C)CCC=C(C)C
REMARK SMILES IDX 10 1 11 2 12 3 13 4 14 5 15 6 16 7 18 8 17 9 19 10 9 11 7 12
REMARK SMILES IDX 6 13 8 14 5 15 4 16 2 17 3 18 1 19
REMARK H PARENT
REMARK Flexibility Score: inf
ROOT
ATOM      1  C   UNL     1      58.635 -16.553  -2.363  1.00  0.00     0.032 C 
ENDROOT
BRANCH   1   2
ATOM      2  C   UNL     1      57.239 -16.398  -2.913  1.00  0.00    -0.028 C 
ATOM      3  C   UNL     1      56.948 -16.201  -4.219  1.00  0.00    -0.077 C 
ATOM      4  C   UNL     1      58.029 -16.063  -5.265  1.00  0.00     0.039 C 
BRANCH   3   5
ATOM      5  C   UNL     1      55.498 -16.103  -4.642  1.00  0.00     0.034 C 
BRANCH   5   6
ATOM      6  C   UNL     1      54.769 -17.431  -4.406  1.00  0.00     0.032 C 
BRANCH   6   7
ATOM      7  C   UNL     1      53.956 -17.392  -3.134  1.00  0.00    -0.028 C 
ATOM      8  C   UNL     1      53.302 -18.156  -0.870  1.00  0.00     0.039 C 
ATOM      9  C   UNL     1      54.151 -18.252  -2.111  1.00  0.00    -0.080 C 
ATOM     10  C   UNL     1      55.211 -19.324  -2.170  1.00  0.00     0.039 C 
ENDBRANCH   6   7
ENDBRANCH   5   6
ENDBRANCH   3   5
ENDBRANCH   1   2
BRANCH   1  11
ATOM     11  C   UNL     1      58.893 -18.003  -1.942  1.00  0.00     0.034 C 
BRANCH  11  12
ATOM     12  C   UNL     1      60.247 -18.130  -1.272  1.00  0.00    -0.077 C 
ATOM     13  C   UNL     1      60.399 -18.259   0.066  1.00  0.00    -0.028 C 
ATOM     14  C   UNL     1      61.486 -18.035  -2.125  1.00  0.00     0.039 C 
BRANCH  13  15
ATOM     15  C   UNL     1      59.265 -18.388   1.057  1.00  0.00     0.035 C 
BRANCH  15  16
ATOM     16  C   UNL     1      58.765 -19.835   1.156  1.00  0.00     0.079 C 
BRANCH  16  17
ATOM     17  C   UNL     1      57.263 -19.912   1.040  1.00  0.00     0.130 C 
ATOM     18  O   UNL     1      56.737 -20.967   0.723  1.00  0.00    -0.300 OA
ATOM     19  C   UNL     1      56.399 -18.715   1.311  1.00  0.00     0.087 C 
ENDBRANCH  16  17
ENDBRANCH  15  16
ENDBRANCH  13  15
ENDBRANCH  11  12
ENDBRANCH   1  11
TORSDOF 9
ENDMDL
