MODEL 1
REMARK VINA RESULT:    -5.297      0.000      0.000
REMARK INTER + INTRA:          -7.281
REMARK INTER:                  -7.464
REMARK INTRA:                   0.183
REMARK UNBOUND:                 0.183
REMARK SMILES CC1=CCC(=C(C)C)C(=O)CC(C)=CCC1
REMARK SMILES IDX 12 1 14 2 13 3 15 4 16 5 2 6 1 7 3 8 11 10 9 11 10 12 5 13
REMARK SMILES IDX 6 14 7 15 8 16 4 17
REMARK H PARENT
REMARK Flexibility Score: 60.00
ROOT
ATOM      1  C   UNL     1      -8.598  33.614  26.908  1.00  0.00    -0.070 C 
ATOM      2  C   UNL     1      -8.251  34.769  26.299  1.00  0.00    -0.027 C 
ATOM      3  C   UNL     1      -8.227  33.441  28.360  1.00  0.00     0.039 C 
ENDROOT
BRANCH   2   4
ATOM      4  C   UNL     1      -8.448  35.090  24.834  1.00  0.00     0.032 C 
BRANCH   4   5
ATOM      5  C   UNL     1      -7.294  34.642  23.911  1.00  0.00     0.034 C 
BRANCH   5   6
ATOM      6  C   UNL     1      -7.763  33.802  22.736  1.00  0.00    -0.077 C 
ATOM      7  C   UNL     1      -8.431  34.515  21.588  1.00  0.00     0.039 C 
ATOM      8  C   UNL     1      -7.681  32.450  22.681  1.00  0.00    -0.023 CG0
ATOM      9  G   UNL     1      -7.038  31.531  23.701  1.00  0.00     0.000 G0
ENDBRANCH   5   6
ENDBRANCH   4   5
ENDBRANCH   2   4
BRANCH   1  10
ATOM     10  C   UNL     1      -9.255  32.457  26.183  1.00  0.00     0.111 C 
BRANCH  10  11
ATOM     11  C   UNL     1      -8.282  31.337  25.928  1.00  0.00     0.163 C 
ATOM     12  O   UNL     1      -7.622  30.890  26.905  1.00  0.00    -0.294 OA
BRANCH  11  13
ATOM     13  C   UNL     1      -8.031  30.789  24.562  1.00  0.00    -0.002 C 
ATOM     14  C   UNL     1      -8.625  29.626  24.156  1.00  0.00    -0.069 C 
ATOM     15  C   UNL     1      -9.671  28.940  25.007  1.00  0.00     0.039 C 
ATOM     16  C   UNL     1      -8.271  28.962  22.843  1.00  0.00     0.039 C 
BRANCH  13  17
ATOM     17  C   UNL     1      -7.024  31.523  23.692  1.00  0.00     0.066 CG0
ATOM     18  G   UNL     1      -7.690  32.452  22.697  1.00  0.00     0.000 G0
ENDBRANCH  13  17
ENDBRANCH  11  13
ENDBRANCH  10  11
ENDBRANCH   1  10
TORSDOF 0
ENDMDL
MODEL 2
REMARK VINA RESULT:    -5.253      1.575      4.177
REMARK INTER + INTRA:          -7.220
REMARK INTER:                  -7.451
REMARK INTRA:                   0.230
REMARK UNBOUND:                 0.183
REMARK SMILES CC1=CCC(=C(C)C)C(=O)CC(C)=CCC1
REMARK SMILES IDX 12 1 14 2 13 3 15 4 16 5 2 6 1 7 3 8 11 10 9 11 10 12 5 13
REMARK SMILES IDX 6 14 7 15 8 16 4 17
REMARK H PARENT
REMARK Flexibility Score: 60.00
ROOT
ATOM      1  C   UNL     1      -8.322  30.304  24.427  1.00  0.00    -0.070 C 
ATOM      2  C   UNL     1      -8.262  30.014  23.109  1.00  0.00    -0.027 C 
ATOM      3  C   UNL     1      -9.088  29.364  25.323  1.00  0.00     0.039 C 
ENDROOT
BRANCH   2   4
ATOM      4  C   UNL     1      -7.628  30.879  22.041  1.00  0.00     0.032 C 
BRANCH   4   5
ATOM      5  C   UNL     1      -8.608  31.804  21.290  1.00  0.00     0.034 C 
BRANCH   5   6
ATOM      6  C   UNL     1      -8.200  33.267  21.334  1.00  0.00    -0.077 C 
ATOM      7  C   UNL     1      -7.216  33.750  20.299  1.00  0.00     0.039 C 
ATOM      8  C   UNL     1      -8.610  34.146  22.280  1.00  0.00    -0.023 CG0
ATOM      9  G   UNL     1      -9.603  33.892  23.397  1.00  0.00     0.000 G0
ENDBRANCH   5   6
ENDBRANCH   4   5
ENDBRANCH   2   4
BRANCH   1  10
ATOM     10  C   UNL     1      -7.740  31.568  25.027  1.00  0.00     0.111 C 
BRANCH  10  11
ATOM     11  C   UNL     1      -8.818  32.536  25.436  1.00  0.00     0.163 C 
ATOM     12  O   UNL     1      -9.638  32.173  26.322  1.00  0.00    -0.294 OA
BRANCH  11  13
ATOM     13  C   UNL     1      -8.983  33.872  24.789  1.00  0.00    -0.002 C 
ATOM     14  C   UNL     1      -8.653  35.018  25.457  1.00  0.00    -0.069 C 
ATOM     15  C   UNL     1      -7.968  34.970  26.805  1.00  0.00     0.039 C 
ATOM     16  C   UNL     1      -8.955  36.389  24.893  1.00  0.00     0.039 C 
BRANCH  13  17
ATOM     17  C   UNL     1      -9.617  33.902  23.407  1.00  0.00     0.066 CG0
ATOM     18  G   UNL     1      -8.599  34.149  22.312  1.00  0.00     0.000 G0
ENDBRANCH  13  17
ENDBRANCH  11  13
ENDBRANCH  10  11
ENDBRANCH   1  10
TORSDOF 0
ENDMDL
MODEL 3
REMARK VINA RESULT:    -5.125      1.699      3.668
REMARK INTER + INTRA:          -7.039
REMARK INTER:                  -7.464
REMARK INTRA:                   0.426
REMARK UNBOUND:                 0.183
REMARK SMILES CC1=CCC(=C(C)C)C(=O)CC(C)=CCC1
REMARK SMILES IDX 12 1 14 2 13 3 15 4 16 5 2 6 1 7 3 8 11 10 9 11 10 12 5 13
REMARK SMILES IDX 6 14 7 15 8 16 4 17
REMARK H PARENT
REMARK Flexibility Score: 60.00
ROOT
ATOM      1  C   UNL     1      -7.294  30.935  22.781  1.00  0.00    -0.070 C 
ATOM      2  C   UNL     1      -7.140  31.977  21.934  1.00  0.00    -0.027 C 
ATOM      3  C   UNL     1      -6.076  30.441  23.521  1.00  0.00     0.039 C 
ENDROOT
BRANCH   2   4
ATOM      4  C   UNL     1      -8.213  32.550  21.034  1.00  0.00     0.032 C 
BRANCH   4   5
ATOM      5  C   UNL     1      -9.275  33.406  21.756  1.00  0.00     0.034 C 
BRANCH   5   6
ATOM      6  C   UNL     1      -8.736  34.108  22.992  1.00  0.00    -0.077 C 
ATOM      7  C   UNL     1      -7.828  35.294  22.783  1.00  0.00     0.039 C 
ATOM      8  C   UNL     1      -8.963  33.697  24.263  1.00  0.00    -0.023 CG0
ATOM      9  G   UNL     1      -9.850  32.552  24.710  1.00  0.00     0.000 G0
ENDBRANCH   5   6
ENDBRANCH   4   5
ENDBRANCH   2   4
BRANCH   1  10
ATOM     10  C   UNL     1      -8.600  30.187  22.951  1.00  0.00     0.111 C 
BRANCH  10  11
ATOM     11  C   UNL     1      -9.031  30.142  24.393  1.00  0.00     0.163 C 
ATOM     12  O   UNL     1      -9.404  29.035  24.867  1.00  0.00    -0.294 OA
BRANCH  11  13
ATOM     13  C   UNL     1      -9.091  31.364  25.250  1.00  0.00    -0.002 C 
ATOM     14  C   UNL     1      -8.542  31.367  26.502  1.00  0.00    -0.069 C 
ATOM     15  C   UNL     1      -7.722  30.197  27.001  1.00  0.00     0.039 C 
ATOM     16  C   UNL     1      -8.722  32.530  27.453  1.00  0.00     0.039 C 
BRANCH  13  17
ATOM     17  C   UNL     1      -9.865  32.555  24.710  1.00  0.00     0.066 CG0
ATOM     18  G   UNL     1      -8.953  33.679  24.259  1.00  0.00     0.000 G0
ENDBRANCH  13  17
ENDBRANCH  11  13
ENDBRANCH  10  11
ENDBRANCH   1  10
TORSDOF 0
ENDMDL
MODEL 4
REMARK VINA RESULT:    -5.093      1.709      3.597
REMARK INTER + INTRA:          -6.994
REMARK INTER:                  -7.266
REMARK INTRA:                   0.272
REMARK UNBOUND:                 0.183
REMARK SMILES CC1=CCC(=C(C)C)C(=O)CC(C)=CCC1
REMARK SMILES IDX 12 1 14 2 13 3 15 4 16 5 2 6 1 7 3 8 11 10 9 11 10 12 5 13
REMARK SMILES IDX 6 14 7 15 8 16 4 17
REMARK H PARENT
REMARK Flexibility Score: 60.00
ROOT
ATOM      1  C   UNL     1      -8.423  34.601  25.782  1.00  0.00    -0.070 C 
ATOM      2  C   UNL     1      -8.423  34.012  26.998  1.00  0.00    -0.027 C 
ATOM      3  C   UNL     1      -7.929  36.023  25.686  1.00  0.00     0.039 C 
ENDROOT
BRANCH   2   4
ATOM      4  C   UNL     1      -8.967  32.635  27.313  1.00  0.00     0.032 C 
BRANCH   4   5
ATOM      5  C   UNL     1      -7.975  31.476  27.075  1.00  0.00     0.034 C 
BRANCH   5   6
ATOM      6  C   UNL     1      -8.541  30.379  26.191  1.00  0.00    -0.077 C 
ATOM      7  C   UNL     1      -9.554  29.442  26.799  1.00  0.00     0.039 C 
ATOM      8  C   UNL     1      -8.146  30.145  24.915  1.00  0.00    -0.023 CG0
ATOM      9  G   UNL     1      -7.163  30.961  24.098  1.00  0.00     0.000 G0
ENDBRANCH   5   6
ENDBRANCH   4   5
ENDBRANCH   2   4
BRANCH   1  10
ATOM     10  C   UNL     1      -8.978  33.939  24.537  1.00  0.00     0.111 C 
BRANCH  10  11
ATOM     11  C   UNL     1      -7.881  33.394  23.662  1.00  0.00     0.163 C 
ATOM     12  O   UNL     1      -6.983  34.188  23.271  1.00  0.00    -0.294 OA
BRANCH  11  13
ATOM     13  C   UNL     1      -7.858  31.975  23.196  1.00  0.00    -0.002 C 
ATOM     14  C   UNL     1      -8.515  31.603  22.056  1.00  0.00    -0.069 C 
ATOM     15  C   UNL     1      -9.153  32.631  21.148  1.00  0.00     0.039 C 
ATOM     16  C   UNL     1      -8.644  30.153  21.643  1.00  0.00     0.039 C 
BRANCH  13  17
ATOM     17  C   UNL     1      -7.159  30.962  24.088  1.00  0.00     0.066 CG0
ATOM     18  G   UNL     1      -8.138  30.139  24.902  1.00  0.00     0.000 G0
ENDBRANCH  13  17
ENDBRANCH  11  13
ENDBRANCH  10  11
ENDBRANCH   1  10
TORSDOF 0
ENDMDL
MODEL 5
REMARK VINA RESULT:    -5.041      1.821      4.432
REMARK INTER + INTRA:          -6.921
REMARK INTER:                  -7.298
REMARK INTRA:                   0.377
REMARK UNBOUND:                 0.183
REMARK SMILES CC1=CCC(=C(C)C)C(=O)CC(C)=CCC1
REMARK SMILES IDX 12 1 14 2 13 3 15 4 16 5 2 6 1 7 3 8 11 10 9 11 10 12 5 13
REMARK SMILES IDX 6 14 7 15 8 16 4 17
REMARK H PARENT
REMARK Flexibility Score: 60.00
ROOT
ATOM      1  C   UNL     1      -7.688  34.522  22.378  1.00  0.00    -0.070 C 
ATOM      2  C   UNL     1      -7.766  33.649  21.349  1.00  0.00    -0.027 C 
ATOM      3  C   UNL     1      -7.848  35.990  22.074  1.00  0.00     0.039 C 
ENDROOT
BRANCH   2   4
ATOM      4  C   UNL     1      -7.537  32.156  21.436  1.00  0.00     0.032 C 
BRANCH   4   5
ATOM      5  C   UNL     1      -8.681  31.363  22.103  1.00  0.00     0.034 C 
BRANCH   5   6
ATOM      6  C   UNL     1      -8.232  30.586  23.329  1.00  0.00    -0.077 C 
ATOM      7  C   UNL     1      -7.262  29.450  23.121  1.00  0.00     0.039 C 
ATOM      8  C   UNL     1      -8.696  30.802  24.584  1.00  0.00    -0.023 CG0
ATOM      9  G   UNL     1      -9.653  31.890  25.030  1.00  0.00     0.000 G0
ENDBRANCH   5   6
ENDBRANCH   4   5
ENDBRANCH   2   4
BRANCH   1  10
ATOM     10  C   UNL     1      -7.357  34.105  23.797  1.00  0.00     0.111 C 
BRANCH  10  11
ATOM     11  C   UNL     1      -8.562  34.192  24.696  1.00  0.00     0.163 C 
ATOM     12  O   UNL     1      -9.236  35.258  24.685  1.00  0.00    -0.294 OA
BRANCH  11  13
ATOM     13  C   UNL     1      -8.943  33.094  25.634  1.00  0.00    -0.002 C 
ATOM     14  C   UNL     1      -8.581  33.144  26.952  1.00  0.00    -0.069 C 
ATOM     15  C   UNL     1      -7.924  34.374  27.539  1.00  0.00     0.039 C 
ATOM     16  C   UNL     1      -8.812  31.979  27.890  1.00  0.00     0.039 C 
BRANCH  13  17
ATOM     17  C   UNL     1      -9.659  31.890  25.043  1.00  0.00     0.066 CG0
ATOM     18  G   UNL     1      -8.694  30.815  24.583  1.00  0.00     0.000 G0
ENDBRANCH  13  17
ENDBRANCH  11  13
ENDBRANCH  10  11
ENDBRANCH   1  10
TORSDOF 0
ENDMDL
MODEL 6
REMARK VINA RESULT:    -4.887      1.850      2.404
REMARK INTER + INTRA:          -6.704
REMARK INTER:                  -7.007
REMARK INTRA:                   0.303
REMARK UNBOUND:                 0.183
REMARK SMILES CC1=CCC(=C(C)C)C(=O)CC(C)=CCC1
REMARK SMILES IDX 12 1 14 2 13 3 15 4 16 5 2 6 1 7 3 8 11 10 9 11 10 12 5 13
REMARK SMILES IDX 6 14 7 15 8 16 4 17
REMARK H PARENT
REMARK Flexibility Score: 60.00
ROOT
ATOM      1  C   UNL     1      -8.049  35.085  24.734  1.00  0.00    -0.070 C 
ATOM      2  C   UNL     1      -8.028  35.938  23.686  1.00  0.00    -0.027 C 
ATOM      3  C   UNL     1      -8.397  35.642  26.092  1.00  0.00     0.039 C 
ENDROOT
BRANCH   2   4
ATOM      4  C   UNL     1      -7.612  35.592  22.273  1.00  0.00     0.032 C 
BRANCH   4   5
ATOM      5  C   UNL     1      -8.582  34.654  21.523  1.00  0.00     0.034 C 
BRANCH   5   6
ATOM      6  C   UNL     1      -7.889  33.454  20.901  1.00  0.00    -0.077 C 
ATOM      7  C   UNL     1      -6.791  33.720  19.902  1.00  0.00     0.039 C 
ATOM      8  C   UNL     1      -8.238  32.165  21.133  1.00  0.00    -0.023 CG0
ATOM      9  G   UNL     1      -9.289  31.663  22.103  1.00  0.00     0.000 G0
ENDBRANCH   5   6
ENDBRANCH   4   5
ENDBRANCH   2   4
BRANCH   1  10
ATOM     10  C   UNL     1      -7.653  33.627  24.627  1.00  0.00     0.111 C 
BRANCH  10  11
ATOM     11  C   UNL     1      -8.848  32.742  24.390  1.00  0.00     0.163 C 
ATOM     12  O   UNL     1      -9.921  33.021  24.991  1.00  0.00    -0.294 OA
BRANCH  11  13
ATOM     13  C   UNL     1      -8.787  31.525  23.526  1.00  0.00    -0.002 C 
ATOM     14  C   UNL     1      -8.213  30.372  23.985  1.00  0.00    -0.069 C 
ATOM     15  C   UNL     1      -7.766  30.236  25.424  1.00  0.00     0.039 C 
ATOM     16  C   UNL     1      -7.993  29.175  23.086  1.00  0.00     0.039 C 
BRANCH  13  17
ATOM     17  C   UNL     1      -9.297  31.657  22.101  1.00  0.00     0.066 CG0
ATOM     18  G   UNL     1      -8.231  32.168  21.152  1.00  0.00     0.000 G0
ENDBRANCH  13  17
ENDBRANCH  11  13
ENDBRANCH  10  11
ENDBRANCH   1  10
TORSDOF 0
ENDMDL
MODEL 7
REMARK VINA RESULT:    -4.712      1.596      2.746
REMARK INTER + INTRA:          -6.458
REMARK INTER:                  -6.999
REMARK INTRA:                   0.541
REMARK UNBOUND:                 0.183
REMARK SMILES CC1=CCC(=C(C)C)C(=O)CC(C)=CCC1
REMARK SMILES IDX 12 1 14 2 13 3 15 4 16 5 2 6 1 7 3 8 11 10 9 11 10 12 5 13
REMARK SMILES IDX 6 14 7 15 8 16 4 17
REMARK H PARENT
REMARK Flexibility Score: 60.00
ROOT
ATOM      1  C   UNL     1      -8.165  35.168  23.917  1.00  0.00    -0.070 C 
ATOM      2  C   UNL     1      -7.730  35.230  22.639  1.00  0.00    -0.027 C 
ATOM      3  C   UNL     1      -7.477  36.035  24.941  1.00  0.00     0.039 C 
ENDROOT
BRANCH   2   4
ATOM      4  C   UNL     1      -8.224  34.374  21.494  1.00  0.00     0.032 C 
BRANCH   4   5
ATOM      5  C   UNL     1      -7.526  33.004  21.360  1.00  0.00     0.034 C 
BRANCH   5   6
ATOM      6  C   UNL     1      -8.473  31.831  21.543  1.00  0.00    -0.077 C 
ATOM      7  C   UNL     1      -9.370  31.469  20.385  1.00  0.00     0.039 C 
ATOM      8  C   UNL     1      -8.613  31.133  22.696  1.00  0.00    -0.023 CG0
ATOM      9  G   UNL     1      -7.813  31.306  23.972  1.00  0.00     0.000 G0
ENDBRANCH   5   6
ENDBRANCH   4   5
ENDBRANCH   2   4
BRANCH   1  10
ATOM     10  C   UNL     1      -9.241  34.209  24.382  1.00  0.00     0.111 C 
BRANCH  10  11
ATOM     11  C   UNL     1      -8.714  33.236  25.403  1.00  0.00     0.163 C 
ATOM     12  O   UNL     1      -8.271  33.697  26.490  1.00  0.00    -0.294 OA
BRANCH  11  13
ATOM     13  C   UNL     1      -8.641  31.766  25.147  1.00  0.00    -0.002 C 
ATOM     14  C   UNL     1      -9.241  30.879  25.997  1.00  0.00    -0.069 C 
ATOM     15  C   UNL     1     -10.125  31.352  27.130  1.00  0.00     0.039 C 
ATOM     16  C   UNL     1      -9.054  29.384  25.856  1.00  0.00     0.039 C 
BRANCH  13  17
ATOM     17  C   UNL     1      -7.800  31.306  23.968  1.00  0.00     0.066 CG0
ATOM     18  G   UNL     1      -8.620  31.143  22.704  1.00  0.00     0.000 G0
ENDBRANCH  13  17
ENDBRANCH  11  13
ENDBRANCH  10  11
ENDBRANCH   1  10
TORSDOF 0
ENDMDL
MODEL 8
REMARK VINA RESULT:    -4.690      1.910      4.925
REMARK INTER + INTRA:          -6.426
REMARK INTER:                  -7.081
REMARK INTRA:                   0.654
REMARK UNBOUND:                 0.183
REMARK SMILES CC1=CCC(=C(C)C)C(=O)CC(C)=CCC1
REMARK SMILES IDX 12 1 14 2 13 3 15 4 16 5 2 6 1 7 3 8 11 10 9 11 10 12 5 13
REMARK SMILES IDX 6 14 7 15 8 16 4 17
REMARK H PARENT
REMARK Flexibility Score: 60.00
ROOT
ATOM      1  C   UNL     1      -8.161  33.657  21.131  1.00  0.00    -0.070 C 
ATOM      2  C   UNL     1      -8.345  32.336  20.908  1.00  0.00    -0.027 C 
ATOM      3  C   UNL     1      -7.131  34.377  20.297  1.00  0.00     0.039 C 
ENDROOT
BRANCH   2   4
ATOM      4  C   UNL     1      -9.256  31.425  21.701  1.00  0.00     0.032 C 
BRANCH   4   5
ATOM      5  C   UNL     1      -8.549  30.231  22.378  1.00  0.00     0.034 C 
BRANCH   5   6
ATOM      6  C   UNL     1      -7.394  30.651  23.272  1.00  0.00    -0.077 C 
ATOM      7  C   UNL     1      -6.059  29.987  23.049  1.00  0.00     0.039 C 
ATOM      8  C   UNL     1      -7.503  31.531  24.297  1.00  0.00    -0.023 CG0
ATOM      9  G   UNL     1      -8.730  32.328  24.692  1.00  0.00     0.000 G0
ENDBRANCH   5   6
ENDBRANCH   4   5
ENDBRANCH   2   4
BRANCH   1  10
ATOM     10  C   UNL     1      -8.867  34.420  22.232  1.00  0.00     0.111 C 
BRANCH  10  11
ATOM     11  C   UNL     1      -8.031  34.492  23.482  1.00  0.00     0.163 C 
ATOM     12  O   UNL     1      -6.927  35.098  23.424  1.00  0.00    -0.294 OA
BRANCH  11  13
ATOM     13  C   UNL     1      -8.434  33.824  24.756  1.00  0.00    -0.002 C 
ATOM     14  C   UNL     1      -8.463  34.521  25.932  1.00  0.00    -0.069 C 
ATOM     15  C   UNL     1      -8.243  36.017  25.962  1.00  0.00     0.039 C 
ATOM     16  C   UNL     1      -8.711  33.840  27.260  1.00  0.00     0.039 C 
BRANCH  13  17
ATOM     17  C   UNL     1      -8.713  32.331  24.699  1.00  0.00     0.066 CG0
ATOM     18  G   UNL     1      -7.488  31.530  24.304  1.00  0.00     0.000 G0
ENDBRANCH  13  17
ENDBRANCH  11  13
ENDBRANCH  10  11
ENDBRANCH   1  10
TORSDOF 0
ENDMDL
MODEL 9
REMARK VINA RESULT:    -4.618      2.187      4.052
REMARK INTER + INTRA:          -6.325
REMARK INTER:                  -7.568
REMARK INTRA:                   1.243
REMARK UNBOUND:                 0.183
REMARK SMILES CC1=CCC(=C(C)C)C(=O)CC(C)=CCC1
REMARK SMILES IDX 12 1 14 2 13 3 15 4 16 5 2 6 1 7 3 8 11 10 9 11 10 12 5 13
REMARK SMILES IDX 6 14 7 15 8 16 4 17
REMARK H PARENT
REMARK Flexibility Score: 60.00
ROOT
ATOM      1  C   UNL     1      -7.814  34.253  21.546  1.00  0.00    -0.070 C 
ATOM      2  C   UNL     1      -7.138  35.137  22.314  1.00  0.00    -0.027 C 
ATOM      3  C   UNL     1      -7.233  33.896  20.202  1.00  0.00     0.039 C 
ENDROOT
BRANCH   2   4
ATOM      4  C   UNL     1      -7.604  35.691  23.643  1.00  0.00     0.032 C 
BRANCH   4   5
ATOM      5  C   UNL     1      -8.921  35.084  24.172  1.00  0.00     0.034 C 
BRANCH   5   6
ATOM      6  C   UNL     1      -8.768  34.419  25.529  1.00  0.00    -0.077 C 
ATOM      7  C   UNL     1      -8.209  35.249  26.657  1.00  0.00     0.039 C 
ATOM      8  C   UNL     1      -9.036  33.113  25.775  1.00  0.00    -0.023 CG0
ATOM      9  G   UNL     1      -9.619  32.102  24.807  1.00  0.00     0.000 G0
ENDBRANCH   5   6
ENDBRANCH   4   5
ENDBRANCH   2   4
BRANCH   1  10
ATOM     10  C   UNL     1      -9.163  33.680  21.930  1.00  0.00     0.111 C 
BRANCH  10  11
ATOM     11  C   UNL     1      -9.063  32.224  22.300  1.00  0.00     0.163 C 
ATOM     12  O   UNL     1      -9.380  31.368  21.430  1.00  0.00    -0.294 OA
BRANCH  11  13
ATOM     13  C   UNL     1      -8.667  31.769  23.666  1.00  0.00    -0.002 C 
ATOM     14  C   UNL     1      -7.538  31.020  23.852  1.00  0.00    -0.069 C 
ATOM     15  C   UNL     1      -6.572  30.760  22.717  1.00  0.00     0.039 C 
ATOM     16  C   UNL     1      -7.194  30.412  25.194  1.00  0.00     0.039 C 
BRANCH  13  17
ATOM     17  C   UNL     1      -9.615  32.091  24.809  1.00  0.00     0.066 CG0
ATOM     18  G   UNL     1      -9.032  33.104  25.774  1.00  0.00     0.000 G0
ENDBRANCH  13  17
ENDBRANCH  11  13
ENDBRANCH  10  11
ENDBRANCH   1  10
TORSDOF 0
ENDMDL
