MODEL 1
REMARK VINA RESULT:    -6.674      0.000      0.000
REMARK INTER + INTRA:          -7.485
REMARK INTER:                  -7.259
REMARK INTRA:                  -0.225
REMARK UNBOUND:                -0.225
REMARK SMILES C=C1C[C@]2(O)O[C@]3(C[C@H]2C(C)C)[C@H](C)CC[C@H]13
REMARK SMILES IDX 14 1 13 2 15 3 16 4 17 5 7 6 8 7 9 8 4 9 6 10 3 11 2 12 1 13
REMARK SMILES IDX 10 14 11 15 12 16 5 17
REMARK H PARENT 5 18
REMARK Flexibility Score: inf
ROOT
ATOM      1  C   UNL     1      -3.913 -12.700   2.680  1.00  0.00     0.011 C 
ATOM      2  C   UNL     1      -5.253 -12.049   2.301  1.00  0.00     0.019 C 
ATOM      3  C   UNL     1      -5.606 -10.875   3.224  1.00  0.00     0.007 C 
ATOM      4  C   UNL     1      -7.111 -10.945   3.489  1.00  0.00     0.011 C 
ATOM      5  C   UNL     1      -7.665 -12.078   2.623  1.00  0.00     0.047 C 
ATOM      6  C   UNL     1      -6.456 -13.004   2.365  1.00  0.00     0.081 C 
ATOM      7  C   UNL     1      -6.621 -13.865   1.119  1.00  0.00     0.046 C 
ATOM      8  C   UNL     1      -7.466 -15.031   1.626  1.00  0.00     0.054 C 
ATOM      9  C   UNL     1      -7.359 -14.859   3.183  1.00  0.00     0.173 C 
ATOM     10  O   UNL     1      -6.339 -13.917   3.427  1.00  0.00    -0.342 OA
ATOM     11  C   UNL     1      -8.669 -14.247   3.753  1.00  0.00     0.096 C 
ATOM     12  C   UNL     1      -8.824 -12.806   3.299  1.00  0.00    -0.066 C 
ATOM     13  C   UNL     1      -9.986 -12.171   3.506  1.00  0.00     0.008 C 
ENDROOT
BRANCH   8  14
ATOM     14  C   UNL     1      -7.040 -16.420   1.048  1.00  0.00    -0.009 C 
ATOM     15  C   UNL     1      -7.753 -16.706  -0.288  1.00  0.00     0.008 C 
ATOM     16  C   UNL     1      -5.520 -16.500   0.793  1.00  0.00     0.008 C 
ENDBRANCH   8  14
BRANCH   9  17
ATOM     17  O   UNL     1      -7.002 -16.059   3.831  1.00  0.00    -0.365 OA
ATOM     18  H   UNL     1      -7.681 -16.279   4.520  1.00  0.00     0.214 HD
ENDBRANCH   9  17
TORSDOF 2
ENDMDL
MODEL 2
REMARK VINA RESULT:    -6.605      2.145      4.302
REMARK INTER + INTRA:          -7.409
REMARK INTER:                  -7.166
REMARK INTRA:                  -0.243
REMARK UNBOUND:                -0.225
REMARK SMILES C=C1C[C@]2(O)O[C@]3(C[C@H]2C(C)C)[C@H](C)CC[C@H]13
REMARK SMILES IDX 14 1 13 2 15 3 16 4 17 5 7 6 8 7 9 8 4 9 6 10 3 11 2 12 1 13
REMARK SMILES IDX 10 14 11 15 12 16 5 17
REMARK H PARENT 5 18
REMARK Flexibility Score: inf
ROOT
ATOM      1  C   UNL     1      -6.938 -16.300   1.124  1.00  0.00     0.011 C 
ATOM      2  C   UNL     1      -6.848 -15.428   2.386  1.00  0.00     0.019 C 
ATOM      3  C   UNL     1      -8.120 -14.599   2.609  1.00  0.00     0.007 C 
ATOM      4  C   UNL     1      -7.682 -13.221   3.106  1.00  0.00     0.011 C 
ATOM      5  C   UNL     1      -6.165 -13.277   3.299  1.00  0.00     0.047 C 
ATOM      6  C   UNL     1      -5.691 -14.415   2.367  1.00  0.00     0.081 C 
ATOM      7  C   UNL     1      -4.351 -15.007   2.785  1.00  0.00     0.046 C 
ATOM      8  C   UNL     1      -3.348 -14.028   2.180  1.00  0.00     0.054 C 
ATOM      9  C   UNL     1      -4.248 -13.211   1.187  1.00  0.00     0.173 C 
ATOM     10  O   UNL     1      -5.474 -13.895   1.079  1.00  0.00    -0.342 OA
ATOM     11  C   UNL     1      -4.576 -11.811   1.778  1.00  0.00     0.096 C 
ATOM     12  C   UNL     1      -5.494 -11.943   2.980  1.00  0.00    -0.066 C 
ATOM     13  C   UNL     1      -5.722 -10.875   3.758  1.00  0.00     0.008 C 
ENDROOT
BRANCH   8  14
ATOM     14  C   UNL     1      -2.083 -14.716   1.568  1.00  0.00    -0.009 C 
ATOM     15  C   UNL     1      -0.828 -14.411   2.408  1.00  0.00     0.008 C 
ATOM     16  C   UNL     1      -2.236 -16.249   1.496  1.00  0.00     0.008 C 
ENDBRANCH   8  14
BRANCH   9  17
ATOM     17  O   UNL     1      -3.684 -13.128  -0.103  1.00  0.00    -0.365 OA
ATOM     18  H   UNL     1      -3.724 -14.017  -0.540  1.00  0.00     0.214 HD
ENDBRANCH   9  17
TORSDOF 2
ENDMDL
MODEL 3
REMARK VINA RESULT:    -6.497      2.117      4.175
REMARK INTER + INTRA:          -7.292
REMARK INTER:                  -7.036
REMARK INTRA:                  -0.256
REMARK UNBOUND:                -0.225
REMARK SMILES C=C1C[C@]2(O)O[C@]3(C[C@H]2C(C)C)[C@H](C)CC[C@H]13
REMARK SMILES IDX 14 1 13 2 15 3 16 4 17 5 7 6 8 7 9 8 4 9 6 10 3 11 2 12 1 13
REMARK SMILES IDX 10 14 11 15 12 16 5 17
REMARK H PARENT 5 18
REMARK Flexibility Score: inf
ROOT
ATOM      1  C   UNL     1      -6.299 -10.935   4.055  1.00  0.00     0.011 C 
ATOM      2  C   UNL     1      -5.350 -12.062   4.492  1.00  0.00     0.019 C 
ATOM      3  C   UNL     1      -4.043 -11.521   5.087  1.00  0.00     0.007 C 
ATOM      4  C   UNL     1      -2.911 -12.420   4.587  1.00  0.00     0.011 C 
ATOM      5  C   UNL     1      -3.562 -13.564   3.806  1.00  0.00     0.047 C 
ATOM      6  C   UNL     1      -4.929 -13.005   3.352  1.00  0.00     0.081 C 
ATOM      7  C   UNL     1      -5.948 -14.096   3.051  1.00  0.00     0.046 C 
ATOM      8  C   UNL     1      -5.589 -14.507   1.626  1.00  0.00     0.054 C 
ATOM      9  C   UNL     1      -4.645 -13.335   1.177  1.00  0.00     0.173 C 
ATOM     10  O   UNL     1      -4.765 -12.314   2.140  1.00  0.00    -0.342 OA
ATOM     11  C   UNL     1      -3.160 -13.794   1.204  1.00  0.00     0.096 C 
ATOM     12  C   UNL     1      -2.700 -14.022   2.632  1.00  0.00    -0.066 C 
ATOM     13  C   UNL     1      -1.523 -14.623   2.858  1.00  0.00     0.008 C 
ENDROOT
BRANCH   8  14
ATOM     14  C   UNL     1      -6.830 -14.788   0.716  1.00  0.00    -0.009 C 
ATOM     15  C   UNL     1      -7.121 -16.299   0.629  1.00  0.00     0.008 C 
ATOM     16  C   UNL     1      -8.105 -14.097   1.246  1.00  0.00     0.008 C 
ENDBRANCH   8  14
BRANCH   9  17
ATOM     17  O   UNL     1      -5.016 -12.797  -0.073  1.00  0.00    -0.365 OA
ATOM     18  H   UNL     1      -5.183 -11.824   0.021  1.00  0.00     0.214 HD
ENDBRANCH   9  17
TORSDOF 2
ENDMDL
MODEL 4
REMARK VINA RESULT:    -6.418      2.324      4.958
REMARK INTER + INTRA:          -7.206
REMARK INTER:                  -6.969
REMARK INTRA:                  -0.237
REMARK UNBOUND:                -0.225
REMARK SMILES C=C1C[C@]2(O)O[C@]3(C[C@H]2C(C)C)[C@H](C)CC[C@H]13
REMARK SMILES IDX 14 1 13 2 15 3 16 4 17 5 7 6 8 7 9 8 4 9 6 10 3 11 2 12 1 13
REMARK SMILES IDX 10 14 11 15 12 16 5 17
REMARK H PARENT 5 18
REMARK Flexibility Score: inf
ROOT
ATOM      1  C   UNL     1      -1.560 -14.470   1.875  1.00  0.00     0.011 C 
ATOM      2  C   UNL     1      -2.849 -15.230   2.220  1.00  0.00     0.019 C 
ATOM      3  C   UNL     1      -3.263 -16.203   1.107  1.00  0.00     0.007 C 
ATOM      4  C   UNL     1      -4.786 -16.132   0.987  1.00  0.00     0.011 C 
ATOM      5  C   UNL     1      -5.280 -15.219   2.111  1.00  0.00     0.047 C 
ATOM      6  C   UNL     1      -4.069 -14.324   2.454  1.00  0.00     0.081 C 
ATOM      7  C   UNL     1      -4.139 -13.742   3.861  1.00  0.00     0.046 C 
ATOM      8  C   UNL     1      -5.045 -12.527   3.676  1.00  0.00     0.054 C 
ATOM      9  C   UNL     1      -5.072 -12.374   2.114  1.00  0.00     0.173 C 
ATOM     10  O   UNL     1      -4.062 -13.210   1.598  1.00  0.00    -0.342 OA
ATOM     11  C   UNL     1      -6.416 -12.902   1.540  1.00  0.00     0.096 C 
ATOM     12  C   UNL     1      -6.506 -14.409   1.698  1.00  0.00    -0.066 C 
ATOM     13  C   UNL     1      -7.672 -15.029   1.461  1.00  0.00     0.008 C 
ENDROOT
BRANCH   8  14
ATOM     14  C   UNL     1      -4.593 -11.271   4.491  1.00  0.00    -0.009 C 
ATOM     15  C   UNL     1      -5.643 -10.894   5.554  1.00  0.00     0.008 C 
ATOM     16  C   UNL     1      -3.254 -11.505   5.221  1.00  0.00     0.008 C 
ENDBRANCH   8  14
BRANCH   9  17
ATOM     17  O   UNL     1      -4.794 -11.055   1.700  1.00  0.00    -0.365 OA
ATOM     18  H   UNL     1      -4.380 -11.069   0.799  1.00  0.00     0.214 HD
ENDBRANCH   9  17
TORSDOF 2
ENDMDL
MODEL 5
REMARK VINA RESULT:    -6.358      1.873      4.537
REMARK INTER + INTRA:          -7.141
REMARK INTER:                  -6.907
REMARK INTRA:                  -0.234
REMARK UNBOUND:                -0.225
REMARK SMILES C=C1C[C@]2(O)O[C@]3(C[C@H]2C(C)C)[C@H](C)CC[C@H]13
REMARK SMILES IDX 14 1 13 2 15 3 16 4 17 5 7 6 8 7 9 8 4 9 6 10 3 11 2 12 1 13
REMARK SMILES IDX 10 14 11 15 12 16 5 17
REMARK H PARENT 5 18
REMARK Flexibility Score: inf
ROOT
ATOM      1  C   UNL     1      -4.088 -16.405   0.825  1.00  0.00     0.011 C 
ATOM      2  C   UNL     1      -5.458 -16.138   1.468  1.00  0.00     0.019 C 
ATOM      3  C   UNL     1      -6.617 -16.467   0.519  1.00  0.00     0.007 C 
ATOM      4  C   UNL     1      -7.681 -15.385   0.710  1.00  0.00     0.011 C 
ATOM      5  C   UNL     1      -7.208 -14.494   1.860  1.00  0.00     0.047 C 
ATOM      6  C   UNL     1      -5.675 -14.678   1.898  1.00  0.00     0.081 C 
ATOM      7  C   UNL     1      -5.069 -14.341   3.255  1.00  0.00     0.046 C 
ATOM      8  C   UNL     1      -4.933 -12.822   3.194  1.00  0.00     0.054 C 
ATOM      9  C   UNL     1      -5.142 -12.537   1.665  1.00  0.00     0.173 C 
ATOM     10  O   UNL     1      -5.080 -13.776   0.999  1.00  0.00    -0.342 OA
ATOM     11  C   UNL     1      -6.567 -11.970   1.409  1.00  0.00     0.096 C 
ATOM     12  C   UNL     1      -7.617 -13.036   1.664  1.00  0.00    -0.066 C 
ATOM     13  C   UNL     1      -8.912 -12.690   1.706  1.00  0.00     0.008 C 
ENDROOT
BRANCH   8  14
ATOM     14  C   UNL     1      -3.611 -12.279   3.830  1.00  0.00    -0.009 C 
ATOM     15  C   UNL     1      -3.910 -11.362   5.031  1.00  0.00     0.008 C 
ATOM     16  C   UNL     1      -2.697 -13.419   4.329  1.00  0.00     0.008 C 
ENDBRANCH   8  14
BRANCH   9  17
ATOM     17  O   UNL     1      -4.133 -11.709   1.132  1.00  0.00    -0.365 OA
ATOM     18  H   UNL     1      -3.545 -12.242   0.537  1.00  0.00     0.214 HD
ENDBRANCH   9  17
TORSDOF 2
ENDMDL
MODEL 6
REMARK VINA RESULT:    -6.306      1.662      4.421
REMARK INTER + INTRA:          -7.084
REMARK INTER:                  -6.835
REMARK INTRA:                  -0.249
REMARK UNBOUND:                -0.225
REMARK SMILES C=C1C[C@]2(O)O[C@]3(C[C@H]2C(C)C)[C@H](C)CC[C@H]13
REMARK SMILES IDX 14 1 13 2 15 3 16 4 17 5 7 6 8 7 9 8 4 9 6 10 3 11 2 12 1 13
REMARK SMILES IDX 10 14 11 15 12 16 5 17
REMARK H PARENT 5 18
REMARK Flexibility Score: inf
ROOT
ATOM      1  C   UNL     1      -2.943 -13.463   2.411  1.00  0.00     0.011 C 
ATOM      2  C   UNL     1      -3.756 -14.766   2.466  1.00  0.00     0.019 C 
ATOM      3  C   UNL     1      -3.277 -15.791   1.430  1.00  0.00     0.007 C 
ATOM      4  C   UNL     1      -4.521 -16.474   0.859  1.00  0.00     0.011 C 
ATOM      5  C   UNL     1      -5.720 -15.946   1.648  1.00  0.00     0.047 C 
ATOM      6  C   UNL     1      -5.259 -14.580   2.202  1.00  0.00     0.081 C 
ATOM      7  C   UNL     1      -6.047 -14.138   3.429  1.00  0.00     0.046 C 
ATOM      8  C   UNL     1      -7.301 -13.520   2.817  1.00  0.00     0.054 C 
ATOM      9  C   UNL     1      -6.887 -13.365   1.311  1.00  0.00     0.173 C 
ATOM     10  O   UNL     1      -5.498 -13.586   1.237  1.00  0.00    -0.342 OA
ATOM     11  C   UNL     1      -7.556 -14.471   0.447  1.00  0.00     0.096 C 
ATOM     12  C   UNL     1      -6.973 -15.832   0.782  1.00  0.00    -0.066 C 
ATOM     13  C   UNL     1      -7.561 -16.938   0.304  1.00  0.00     0.008 C 
ENDROOT
BRANCH   8  14
ATOM     14  C   UNL     1      -7.786 -12.222   3.543  1.00  0.00    -0.009 C 
ATOM     15  C   UNL     1      -9.038 -12.501   4.398  1.00  0.00     0.008 C 
ATOM     16  C   UNL     1      -6.703 -11.642   4.477  1.00  0.00     0.008 C 
ENDBRANCH   8  14
BRANCH   9  17
ATOM     17  O   UNL     1      -7.145 -12.070   0.815  1.00  0.00    -0.365 OA
ATOM     18  H   UNL     1      -6.735 -11.396   1.416  1.00  0.00     0.214 HD
ENDBRANCH   9  17
TORSDOF 2
ENDMDL
MODEL 7
REMARK VINA RESULT:    -6.210      1.615      3.493
REMARK INTER + INTRA:          -6.980
REMARK INTER:                  -6.793
REMARK INTRA:                  -0.187
REMARK UNBOUND:                -0.225
REMARK SMILES C=C1C[C@]2(O)O[C@]3(C[C@H]2C(C)C)[C@H](C)CC[C@H]13
REMARK SMILES IDX 14 1 13 2 15 3 16 4 17 5 7 6 8 7 9 8 4 9 6 10 3 11 2 12 1 13
REMARK SMILES IDX 10 14 11 15 12 16 5 17
REMARK H PARENT 5 18
REMARK Flexibility Score: inf
ROOT
ATOM      1  C   UNL     1      -6.218 -11.130   3.745  1.00  0.00     0.011 C 
ATOM      2  C   UNL     1      -6.406 -11.610   2.298  1.00  0.00     0.019 C 
ATOM      3  C   UNL     1      -7.873 -11.541   1.851  1.00  0.00     0.007 C 
ATOM      4  C   UNL     1      -8.149 -12.788   1.008  1.00  0.00     0.011 C 
ATOM      5  C   UNL     1      -6.816 -13.523   0.851  1.00  0.00     0.047 C 
ATOM      6  C   UNL     1      -5.966 -13.063   2.055  1.00  0.00     0.081 C 
ATOM      7  C   UNL     1      -4.469 -13.219   1.821  1.00  0.00     0.046 C 
ATOM      8  C   UNL     1      -4.229 -14.690   2.152  1.00  0.00     0.054 C 
ATOM      9  C   UNL     1      -5.561 -15.081   2.884  1.00  0.00     0.173 C 
ATOM     10  O   UNL     1      -6.250 -13.884   3.160  1.00  0.00    -0.342 OA
ATOM     11  C   UNL     1      -6.477 -15.908   1.939  1.00  0.00     0.096 C 
ATOM     12  C   UNL     1      -6.997 -15.038   0.808  1.00  0.00    -0.066 C 
ATOM     13  C   UNL     1      -7.627 -15.610  -0.228  1.00  0.00     0.008 C 
ENDROOT
BRANCH   8  14
ATOM     14  C   UNL     1      -2.900 -14.953   2.936  1.00  0.00    -0.009 C 
ATOM     15  C   UNL     1      -1.698 -15.032   1.975  1.00  0.00     0.008 C 
ATOM     16  C   UNL     1      -2.604 -13.842   3.964  1.00  0.00     0.008 C 
ENDBRANCH   8  14
BRANCH   9  17
ATOM     17  O   UNL     1      -5.326 -15.737   4.110  1.00  0.00    -0.365 OA
ATOM     18  H   UNL     1      -4.748 -15.172   4.684  1.00  0.00     0.214 HD
ENDBRANCH   9  17
TORSDOF 2
ENDMDL
MODEL 8
REMARK VINA RESULT:    -6.097      9.544     12.085
REMARK INTER + INTRA:          -6.857
REMARK INTER:                  -6.707
REMARK INTRA:                  -0.151
REMARK UNBOUND:                -0.225
REMARK SMILES C=C1C[C@]2(O)O[C@]3(C[C@H]2C(C)C)[C@H](C)CC[C@H]13
REMARK SMILES IDX 14 1 13 2 15 3 16 4 17 5 7 6 8 7 9 8 4 9 6 10 3 11 2 12 1 13
REMARK SMILES IDX 10 14 11 15 12 16 5 17
REMARK H PARENT 5 18
REMARK Flexibility Score: inf
ROOT
ATOM      1  C   UNL     1     -11.189 -23.177  -7.823  1.00  0.00     0.011 C 
ATOM      2  C   UNL     1      -9.992 -22.352  -7.324  1.00  0.00     0.019 C 
ATOM      3  C   UNL     1      -8.876 -23.238  -6.755  1.00  0.00     0.007 C 
ATOM      4  C   UNL     1      -8.318 -22.528  -5.521  1.00  0.00     0.011 C 
ATOM      5  C   UNL     1      -9.014 -21.167  -5.437  1.00  0.00     0.047 C 
ATOM      6  C   UNL     1     -10.339 -21.353  -6.208  1.00  0.00     0.081 C 
ATOM      7  C   UNL     1     -10.920 -20.041  -6.719  1.00  0.00     0.046 C 
ATOM      8  C   UNL     1     -11.653 -19.499  -5.494  1.00  0.00     0.054 C 
ATOM      9  C   UNL     1     -11.696 -20.757  -4.557  1.00  0.00     0.173 C 
ATOM     10  O   UNL     1     -11.313 -21.867  -5.334  1.00  0.00    -0.342 OA
ATOM     11  C   UNL     1     -10.639 -20.627  -3.424  1.00  0.00     0.096 C 
ATOM     12  C   UNL     1      -9.236 -20.722  -3.994  1.00  0.00    -0.066 C 
ATOM     13  C   UNL     1      -8.185 -20.421  -3.216  1.00  0.00     0.008 C 
ENDROOT
BRANCH   8  14
ATOM     14  C   UNL     1     -13.027 -18.829  -5.825  1.00  0.00    -0.009 C 
ATOM     15  C   UNL     1     -13.369 -17.732  -4.798  1.00  0.00     0.008 C 
ATOM     16  C   UNL     1     -13.033 -18.178  -7.223  1.00  0.00     0.008 C 
ENDBRANCH   8  14
BRANCH   9  17
ATOM     17  O   UNL     1     -12.990 -21.007  -4.055  1.00  0.00    -0.365 OA
ATOM     18  H   UNL     1     -13.051 -21.947  -3.746  1.00  0.00     0.214 HD
ENDBRANCH   9  17
TORSDOF 2
ENDMDL
MODEL 9
REMARK VINA RESULT:    -5.981      1.948      3.742
REMARK INTER + INTRA:          -6.731
REMARK INTER:                  -6.527
REMARK INTRA:                  -0.204
REMARK UNBOUND:                -0.225
REMARK SMILES C=C1C[C@]2(O)O[C@]3(C[C@H]2C(C)C)[C@H](C)CC[C@H]13
REMARK SMILES IDX 14 1 13 2 15 3 16 4 17 5 7 6 8 7 9 8 4 9 6 10 3 11 2 12 1 13
REMARK SMILES IDX 10 14 11 15 12 16 5 17
REMARK H PARENT 5 18
REMARK Flexibility Score: inf
ROOT
ATOM      1  C   UNL     1      -8.785 -12.412   1.273  1.00  0.00     0.011 C 
ATOM      2  C   UNL     1      -8.332 -12.477   2.739  1.00  0.00     0.019 C 
ATOM      3  C   UNL     1      -8.739 -11.224   3.527  1.00  0.00     0.007 C 
ATOM      4  C   UNL     1      -7.576 -10.875   4.457  1.00  0.00     0.011 C 
ATOM      5  C   UNL     1      -6.540 -11.991   4.313  1.00  0.00     0.047 C 
ATOM      6  C   UNL     1      -6.810 -12.604   2.921  1.00  0.00     0.081 C 
ATOM      7  C   UNL     1      -6.295 -14.032   2.789  1.00  0.00     0.046 C 
ATOM      8  C   UNL     1      -4.818 -13.827   2.465  1.00  0.00     0.054 C 
ATOM      9  C   UNL     1      -4.774 -12.302   2.094  1.00  0.00     0.173 C 
ATOM     10  O   UNL     1      -6.107 -11.872   1.950  1.00  0.00    -0.342 OA
ATOM     11  C   UNL     1      -4.169 -11.477   3.264  1.00  0.00     0.096 C 
ATOM     12  C   UNL     1      -5.111 -11.472   4.454  1.00  0.00    -0.066 C 
ATOM     13  C   UNL     1      -4.683 -10.997   5.633  1.00  0.00     0.008 C 
ENDROOT
BRANCH   8  14
ATOM     14  C   UNL     1      -4.262 -14.821   1.392  1.00  0.00    -0.009 C 
ATOM     15  C   UNL     1      -2.823 -15.254   1.732  1.00  0.00     0.008 C 
ATOM     16  C   UNL     1      -5.121 -16.098   1.285  1.00  0.00     0.008 C 
ENDBRANCH   8  14
BRANCH   9  17
ATOM     17  O   UNL     1      -4.109 -12.067   0.873  1.00  0.00    -0.365 OA
ATOM     18  H   UNL     1      -3.835 -11.115   0.822  1.00  0.00     0.214 HD
ENDBRANCH   9  17
TORSDOF 2
ENDMDL
