MODEL 1
REMARK VINA RESULT:    -6.142      0.000      0.000
REMARK INTER + INTRA:          -6.142
REMARK INTER:                  -6.142
REMARK INTRA:                   0.000
REMARK UNBOUND:                 0.000
REMARK SMILES CC(C)=C1CC[C@@H](C)CC1=O
REMARK SMILES IDX 8 1 7 2 6 3 5 4 4 5 2 6 1 7 3 8 10 9 11 10 9 11
REMARK H PARENT
REMARK Flexibility Score: inf
ROOT
ATOM      1  C   UNL     1      -5.945 -14.369  29.244  1.00  0.00     0.008 C 
ATOM      2  C   UNL     1      -5.315 -13.022  28.855  1.00  0.00    -0.006 C 
ATOM      3  C   UNL     1      -4.310 -13.162  27.697  1.00  0.00     0.008 C 
ATOM      4  C   UNL     1      -3.056 -13.963  28.082  1.00  0.00     0.039 C 
ATOM      5  C   UNL     1      -2.424 -13.488  29.383  1.00  0.00    -0.006 C 
ATOM      6  C   UNL     1      -1.080 -13.601  29.598  1.00  0.00    -0.070 C 
ATOM      7  C   UNL     1      -0.169 -14.216  28.560  1.00  0.00     0.039 C 
ATOM      8  C   UNL     1      -0.430 -13.085  30.861  1.00  0.00     0.039 C 
ATOM      9  C   UNL     1      -3.364 -13.013  30.440  1.00  0.00     0.159 C 
ATOM     10  O   UNL     1      -3.112 -13.177  31.664  1.00  0.00    -0.295 OA
ATOM     11  C   UNL     1      -4.648 -12.336  30.056  1.00  0.00     0.084 C 
ENDROOT
TORSDOF 0
ENDMDL
MODEL 2
REMARK VINA RESULT:    -5.960      1.490      3.812
REMARK INTER + INTRA:          -5.960
REMARK INTER:                  -5.960
REMARK INTRA:                   0.000
REMARK UNBOUND:                 0.000
REMARK SMILES CC(C)=C1CC[C@@H](C)CC1=O
REMARK SMILES IDX 8 1 7 2 6 3 5 4 4 5 2 6 1 7 3 8 10 9 11 10 9 11
REMARK H PARENT
REMARK Flexibility Score: inf
ROOT
ATOM      1  C   UNL     1      -3.073 -11.472  27.428  1.00  0.00     0.008 C 
ATOM      2  C   UNL     1      -2.681 -12.940  27.663  1.00  0.00    -0.006 C 
ATOM      3  C   UNL     1      -3.673 -13.920  27.010  1.00  0.00     0.008 C 
ATOM      4  C   UNL     1      -5.065 -13.888  27.660  1.00  0.00     0.039 C 
ATOM      5  C   UNL     1      -5.015 -13.993  29.178  1.00  0.00    -0.006 C 
ATOM      6  C   UNL     1      -6.034 -14.569  29.881  1.00  0.00    -0.070 C 
ATOM      7  C   UNL     1      -7.260 -15.111  29.182  1.00  0.00     0.039 C 
ATOM      8  C   UNL     1      -5.974 -14.730  31.383  1.00  0.00     0.039 C 
ATOM      9  C   UNL     1      -3.859 -13.329  29.849  1.00  0.00     0.159 C 
ATOM     10  O   UNL     1      -3.973 -12.809  30.992  1.00  0.00    -0.295 OA
ATOM     11  C   UNL     1      -2.528 -13.256  29.158  1.00  0.00     0.084 C 
ENDROOT
TORSDOF 0
ENDMDL
MODEL 3
REMARK VINA RESULT:    -5.891      1.064      3.769
REMARK INTER + INTRA:          -5.891
REMARK INTER:                  -5.891
REMARK INTRA:                   0.000
REMARK UNBOUND:                 0.000
REMARK SMILES CC(C)=C1CC[C@@H](C)CC1=O
REMARK SMILES IDX 8 1 7 2 6 3 5 4 4 5 2 6 1 7 3 8 10 9 11 10 9 11
REMARK H PARENT
REMARK Flexibility Score: inf
ROOT
ATOM      1  C   UNL     1      -0.765 -11.756  30.761  1.00  0.00     0.008 C 
ATOM      2  C   UNL     1      -1.032 -13.267  30.855  1.00  0.00    -0.006 C 
ATOM      3  C   UNL     1      -0.917 -13.965  29.488  1.00  0.00     0.008 C 
ATOM      4  C   UNL     1      -2.016 -13.542  28.502  1.00  0.00     0.039 C 
ATOM      5  C   UNL     1      -3.413 -13.609  29.104  1.00  0.00    -0.006 C 
ATOM      6  C   UNL     1      -4.506 -13.869  28.327  1.00  0.00    -0.070 C 
ATOM      7  C   UNL     1      -4.375 -14.084  26.837  1.00  0.00     0.039 C 
ATOM      8  C   UNL     1      -5.891 -13.993  28.919  1.00  0.00     0.039 C 
ATOM      9  C   UNL     1      -3.527 -13.257  30.550  1.00  0.00     0.159 C 
ATOM     10  O   UNL     1      -4.556 -12.690  31.008  1.00  0.00    -0.295 OA
ATOM     11  C   UNL     1      -2.398 -13.565  31.491  1.00  0.00     0.084 C 
ENDROOT
TORSDOF 0
ENDMDL
MODEL 4
REMARK VINA RESULT:    -5.833      1.824      4.337
REMARK INTER + INTRA:          -5.833
REMARK INTER:                  -5.833
REMARK INTRA:                   0.000
REMARK UNBOUND:                 0.000
REMARK SMILES CC(C)=C1CC[C@@H](C)CC1=O
REMARK SMILES IDX 8 1 7 2 6 3 5 4 4 5 2 6 1 7 3 8 10 9 11 10 9 11
REMARK H PARENT
REMARK Flexibility Score: inf
ROOT
ATOM      1  C   UNL     1      -0.344 -13.253  30.105  1.00  0.00     0.008 C 
ATOM      2  C   UNL     1      -1.380 -12.131  30.277  1.00  0.00    -0.006 C 
ATOM      3  C   UNL     1      -2.091 -12.198  31.641  1.00  0.00     0.008 C 
ATOM      4  C   UNL     1      -2.985 -13.438  31.793  1.00  0.00     0.039 C 
ATOM      5  C   UNL     1      -3.919 -13.646  30.608  1.00  0.00    -0.006 C 
ATOM      6  C   UNL     1      -5.135 -14.248  30.764  1.00  0.00    -0.070 C 
ATOM      7  C   UNL     1      -5.595 -14.747  32.115  1.00  0.00     0.039 C 
ATOM      8  C   UNL     1      -6.095 -14.412  29.609  1.00  0.00     0.039 C 
ATOM      9  C   UNL     1      -3.381 -13.269  29.268  1.00  0.00     0.159 C 
ATOM     10  O   UNL     1      -3.714 -13.897  28.227  1.00  0.00    -0.295 OA
ATOM     11  C   UNL     1      -2.412 -12.129  29.140  1.00  0.00     0.084 C 
ENDROOT
TORSDOF 0
ENDMDL
MODEL 5
REMARK VINA RESULT:    -5.831      1.846      4.276
REMARK INTER + INTRA:          -5.831
REMARK INTER:                  -5.831
REMARK INTRA:                   0.000
REMARK UNBOUND:                 0.000
REMARK SMILES CC(C)=C1CC[C@@H](C)CC1=O
REMARK SMILES IDX 8 1 7 2 6 3 5 4 4 5 2 6 1 7 3 8 10 9 11 10 9 11
REMARK H PARENT
REMARK Flexibility Score: inf
ROOT
ATOM      1  C   UNL     1      -0.870 -13.268  31.377  1.00  0.00     0.008 C 
ATOM      2  C   UNL     1      -1.864 -12.144  31.049  1.00  0.00    -0.006 C 
ATOM      3  C   UNL     1      -3.190 -12.296  31.817  1.00  0.00     0.008 C 
ATOM      4  C   UNL     1      -3.999 -13.528  31.382  1.00  0.00     0.039 C 
ATOM      5  C   UNL     1      -4.154 -13.634  29.871  1.00  0.00    -0.006 C 
ATOM      6  C   UNL     1      -5.252 -14.224  29.313  1.00  0.00    -0.070 C 
ATOM      7  C   UNL     1      -6.349 -14.810  30.173  1.00  0.00     0.039 C 
ATOM      8  C   UNL     1      -5.447 -14.288  27.815  1.00  0.00     0.039 C 
ATOM      9  C   UNL     1      -2.995 -13.171  29.053  1.00  0.00     0.159 C 
ATOM     10  O   UNL     1      -2.708 -13.717  27.953  1.00  0.00    -0.295 OA
ATOM     11  C   UNL     1      -2.133 -12.042  29.540  1.00  0.00     0.084 C 
ENDROOT
TORSDOF 0
ENDMDL
MODEL 6
REMARK VINA RESULT:    -5.659      1.808      2.973
REMARK INTER + INTRA:          -5.659
REMARK INTER:                  -5.659
REMARK INTRA:                   0.000
REMARK UNBOUND:                 0.000
REMARK SMILES CC(C)=C1CC[C@@H](C)CC1=O
REMARK SMILES IDX 8 1 7 2 6 3 5 4 4 5 2 6 1 7 3 8 10 9 11 10 9 11
REMARK H PARENT
REMARK Flexibility Score: inf
ROOT
ATOM      1  C   UNL     1      -3.375 -12.062  26.357  1.00  0.00     0.008 C 
ATOM      2  C   UNL     1      -3.884 -13.072  27.398  1.00  0.00    -0.006 C 
ATOM      3  C   UNL     1      -4.547 -12.382  28.604  1.00  0.00     0.008 C 
ATOM      4  C   UNL     1      -3.555 -11.571  29.453  1.00  0.00     0.039 C 
ATOM      5  C   UNL     1      -2.301 -12.356  29.814  1.00  0.00    -0.006 C 
ATOM      6  C   UNL     1      -1.621 -12.109  30.972  1.00  0.00    -0.070 C 
ATOM      7  C   UNL     1      -2.077 -11.036  31.934  1.00  0.00     0.039 C 
ATOM      8  C   UNL     1      -0.407 -12.916  31.370  1.00  0.00     0.039 C 
ATOM      9  C   UNL     1      -1.799 -13.311  28.782  1.00  0.00     0.159 C 
ATOM     10  O   UNL     1      -0.568 -13.540  28.645  1.00  0.00    -0.295 OA
ATOM     11  C   UNL     1      -2.766 -14.012  27.872  1.00  0.00     0.084 C 
ENDROOT
TORSDOF 0
ENDMDL
MODEL 7
REMARK VINA RESULT:    -5.538      2.148      3.575
REMARK INTER + INTRA:          -5.538
REMARK INTER:                  -5.538
REMARK INTRA:                   0.000
REMARK UNBOUND:                 0.000
REMARK SMILES CC(C)=C1CC[C@@H](C)CC1=O
REMARK SMILES IDX 8 1 7 2 6 3 5 4 4 5 2 6 1 7 3 8 10 9 11 10 9 11
REMARK H PARENT
REMARK Flexibility Score: inf
ROOT
ATOM      1  C   UNL     1      -4.132 -11.409  32.124  1.00  0.00     0.008 C 
ATOM      2  C   UNL     1      -2.923 -12.226  31.642  1.00  0.00    -0.006 C 
ATOM      3  C   UNL     1      -2.082 -11.465  30.601  1.00  0.00     0.008 C 
ATOM      4  C   UNL     1      -2.825 -11.244  29.274  1.00  0.00     0.039 C 
ATOM      5  C   UNL     1      -3.462 -12.516  28.731  1.00  0.00    -0.006 C 
ATOM      6  C   UNL     1      -3.622 -12.708  27.388  1.00  0.00    -0.070 C 
ATOM      7  C   UNL     1      -3.187 -11.660  26.389  1.00  0.00     0.039 C 
ATOM      8  C   UNL     1      -4.201 -13.988  26.831  1.00  0.00     0.039 C 
ATOM      9  C   UNL     1      -4.004 -13.469  29.743  1.00  0.00     0.159 C 
ATOM     10  O   UNL     1      -5.021 -14.173  29.502  1.00  0.00    -0.295 OA
ATOM     11  C   UNL     1      -3.345 -13.595  31.086  1.00  0.00     0.084 C 
ENDROOT
TORSDOF 0
ENDMDL
MODEL 8
REMARK VINA RESULT:    -5.533      1.606      2.623
REMARK INTER + INTRA:          -5.533
REMARK INTER:                  -5.533
REMARK INTRA:                   0.000
REMARK UNBOUND:                 0.000
REMARK SMILES CC(C)=C1CC[C@@H](C)CC1=O
REMARK SMILES IDX 8 1 7 2 6 3 5 4 4 5 2 6 1 7 3 8 10 9 11 10 9 11
REMARK H PARENT
REMARK Flexibility Score: inf
ROOT
ATOM      1  C   UNL     1      -5.253 -11.204  29.454  1.00  0.00     0.008 C 
ATOM      2  C   UNL     1      -5.053 -12.668  29.879  1.00  0.00    -0.006 C 
ATOM      3  C   UNL     1      -4.335 -12.787  31.236  1.00  0.00     0.008 C 
ATOM      4  C   UNL     1      -2.878 -12.301  31.189  1.00  0.00     0.039 C 
ATOM      5  C   UNL     1      -2.091 -12.894  30.028  1.00  0.00    -0.006 C 
ATOM      6  C   UNL     1      -0.744 -13.102  30.120  1.00  0.00    -0.070 C 
ATOM      7  C   UNL     1       0.022 -12.735  31.371  1.00  0.00     0.039 C 
ATOM      8  C   UNL     1       0.042 -13.740  28.998  1.00  0.00     0.039 C 
ATOM      9  C   UNL     1      -2.847 -13.118  28.761  1.00  0.00     0.159 C 
ATOM     10  O   UNL     1      -2.291 -13.001  27.636  1.00  0.00    -0.295 OA
ATOM     11  C   UNL     1      -4.305 -13.475  28.809  1.00  0.00     0.084 C 
ENDROOT
TORSDOF 0
ENDMDL
MODEL 9
REMARK VINA RESULT:    -5.309      1.508      2.062
REMARK INTER + INTRA:          -5.309
REMARK INTER:                  -5.309
REMARK INTRA:                   0.000
REMARK UNBOUND:                 0.000
REMARK SMILES CC(C)=C1CC[C@@H](C)CC1=O
REMARK SMILES IDX 8 1 7 2 6 3 5 4 4 5 2 6 1 7 3 8 10 9 11 10 9 11
REMARK H PARENT
REMARK Flexibility Score: inf
ROOT
ATOM      1  C   UNL     1      -5.962 -14.277  29.434  1.00  0.00     0.008 C 
ATOM      2  C   UNL     1      -5.153 -13.272  28.599  1.00  0.00    -0.006 C 
ATOM      3  C   UNL     1      -3.688 -13.710  28.419  1.00  0.00     0.008 C 
ATOM      4  C   UNL     1      -2.891 -13.698  29.733  1.00  0.00     0.039 C 
ATOM      5  C   UNL     1      -3.047 -12.399  30.511  1.00  0.00    -0.006 C 
ATOM      6  C   UNL     1      -2.046 -11.931  31.313  1.00  0.00    -0.070 C 
ATOM      7  C   UNL     1      -0.750 -12.692  31.474  1.00  0.00     0.039 C 
ATOM      8  C   UNL     1      -2.164 -10.615  32.049  1.00  0.00     0.039 C 
ATOM      9  C   UNL     1      -4.385 -11.742  30.440  1.00  0.00     0.159 C 
ATOM     10  O   UNL     1      -4.850 -11.094  31.416  1.00  0.00    -0.295 OA
ATOM     11  C   UNL     1      -5.215 -11.857  29.194  1.00  0.00     0.084 C 
ENDROOT
TORSDOF 0
ENDMDL
