MODEL 1
REMARK VINA RESULT:    -7.129      0.000      0.000
REMARK INTER + INTRA:          -7.337
REMARK INTER:                  -7.337
REMARK INTRA:                   0.000
REMARK UNBOUND:                 0.000
REMARK SMILES C[C@@H]1CC[C@]2(OC1)O[C@@H]1C[C@H]3[C@@H]4CC=C5C[C@@H](O)CC[C@@]5(C)[C@@H]4CC[C@@]3(C)[C@@H]1[C@H]2C
REMARK SMILES IDX 1 1 2 2 3 3 4 4 5 5 29 6 28 7 9 8 8 9 10 10 11 11 26 12
REMARK SMILES IDX 25 13 24 14 23 15 12 16 13 17 14 18 15 19 21 20 20 21 19 22
REMARK SMILES IDX 17 23 16 24 22 25 27 26 30 27 6 28 7 29 18 30
REMARK H PARENT 18 31
REMARK Flexibility Score: inf
ROOT
ATOM      1  C   UNL     1      -4.030 -10.625  12.060  1.00  0.00     0.010 C 
ATOM      2  C   UNL     1      -3.179 -11.191  13.207  1.00  0.00     0.012 C 
ATOM      3  C   UNL     1      -2.585 -10.079  14.085  1.00  0.00     0.011 C 
ATOM      4  C   UNL     1      -1.433  -9.362  13.375  1.00  0.00     0.066 C 
ATOM      5  C   UNL     1      -0.423 -10.376  12.784  1.00  0.00     0.171 C 
ATOM      6  C   UNL     1       0.653  -9.640  11.967  1.00  0.00     0.052 C 
ATOM      7  C   UNL     1       1.861 -10.570  12.101  1.00  0.00     0.033 C 
ATOM      8  C   UNL     1       1.582 -11.253  13.435  1.00  0.00     0.126 C 
ATOM      9  O   UNL     1       0.247 -11.039  13.835  1.00  0.00    -0.346 OA
ATOM     10  C   UNL     1       2.536 -10.643  14.466  1.00  0.00     0.037 C 
ATOM     11  C   UNL     1       3.354  -9.560  13.747  1.00  0.00     0.002 C 
ATOM     12  C   UNL     1       3.273  -9.917  12.239  1.00  0.00    -0.024 C 
ATOM     13  C   UNL     1       4.348 -10.978  11.860  1.00  0.00     0.008 C 
ATOM     14  C   UNL     1       5.757 -10.646  12.375  1.00  0.00     0.005 C 
ATOM     15  C   UNL     1       5.765 -10.524  13.920  1.00  0.00     0.003 C 
ATOM     16  C   UNL     1       4.780  -9.411  14.363  1.00  0.00     0.000 C 
ATOM     17  C   UNL     1       5.377  -8.021  14.091  1.00  0.00     0.031 C 
ATOM     18  C   UNL     1       6.718  -7.871  14.731  1.00  0.00    -0.027 C 
ATOM     19  C   UNL     1       7.572  -8.899  14.907  1.00  0.00    -0.065 C 
ATOM     20  C   UNL     1       7.194 -10.361  14.608  1.00  0.00    -0.008 C 
ATOM     21  C   UNL     1       7.157 -11.101  15.987  1.00  0.00     0.014 C 
ATOM     22  C   UNL     1       8.408 -10.873  16.864  1.00  0.00     0.033 C 
ATOM     23  C   UNL     1       8.723  -9.379  17.064  1.00  0.00     0.118 C 
ATOM     24  C   UNL     1       8.829  -8.654  15.717  1.00  0.00     0.063 C 
ATOM     25  C   UNL     1       8.303 -11.005  13.732  1.00  0.00     0.016 C 
ATOM     26  C   UNL     1       3.428  -8.693  11.300  1.00  0.00     0.012 C 
ATOM     27  C   UNL     1       0.227  -9.380  10.507  1.00  0.00     0.014 C 
ATOM     28  O   UNL     1      -1.085 -11.328  11.952  1.00  0.00    -0.349 OA
ATOM     29  C   UNL     1      -2.045 -12.082  12.673  1.00  0.00     0.167 C 
ENDROOT
BRANCH  23  30
ATOM     30  O   UNL     1       7.725  -8.770  17.845  1.00  0.00    -0.393 OA
ATOM     31  H   UNL     1       7.451  -9.434  18.529  1.00  0.00     0.210 HD
ENDBRANCH  23  30
TORSDOF 1
ENDMDL
MODEL 2
REMARK VINA RESULT:    -6.775     16.300     20.066
REMARK INTER + INTRA:          -6.973
REMARK INTER:                  -6.973
REMARK INTRA:                   0.000
REMARK UNBOUND:                 0.000
REMARK SMILES C[C@@H]1CC[C@]2(OC1)O[C@@H]1C[C@H]3[C@@H]4CC=C5C[C@@H](O)CC[C@@]5(C)[C@@H]4CC[C@@]3(C)[C@@H]1[C@H]2C
REMARK SMILES IDX 1 1 2 2 3 3 4 4 5 5 29 6 28 7 9 8 8 9 10 10 11 11 26 12
REMARK SMILES IDX 25 13 24 14 23 15 12 16 13 17 14 18 15 19 21 20 20 21 19 22
REMARK SMILES IDX 17 23 16 24 22 25 27 26 30 27 6 28 7 29 18 30
REMARK H PARENT 18 31
REMARK Flexibility Score: inf
ROOT
ATOM      1  C   UNL     1       1.203   5.181  13.917  1.00  0.00     0.010 C 
ATOM      2  C   UNL     1       0.040   4.179  13.850  1.00  0.00     0.012 C 
ATOM      3  C   UNL     1      -0.252   3.735  12.410  1.00  0.00     0.011 C 
ATOM      4  C   UNL     1      -0.953   4.840  11.614  1.00  0.00     0.066 C 
ATOM      5  C   UNL     1      -2.151   5.424  12.405  1.00  0.00     0.171 C 
ATOM      6  C   UNL     1      -2.757   6.617  11.646  1.00  0.00     0.052 C 
ATOM      7  C   UNL     1      -4.220   6.581  12.092  1.00  0.00     0.033 C 
ATOM      8  C   UNL     1      -4.411   5.104  12.417  1.00  0.00     0.126 C 
ATOM      9  O   UNL     1      -3.165   4.448  12.507  1.00  0.00    -0.346 OA
ATOM     10  C   UNL     1      -5.237   4.492  11.282  1.00  0.00     0.037 C 
ATOM     11  C   UNL     1      -5.498   5.605  10.256  1.00  0.00     0.002 C 
ATOM     12  C   UNL     1      -5.315   6.934  11.036  1.00  0.00    -0.024 C 
ATOM     13  C   UNL     1      -6.622   7.322  11.788  1.00  0.00     0.008 C 
ATOM     14  C   UNL     1      -7.885   7.248  10.917  1.00  0.00     0.005 C 
ATOM     15  C   UNL     1      -8.090   5.816  10.363  1.00  0.00     0.003 C 
ATOM     16  C   UNL     1      -6.858   5.400   9.518  1.00  0.00     0.000 C 
ATOM     17  C   UNL     1      -6.877   6.103   8.152  1.00  0.00     0.031 C 
ATOM     18  C   UNL     1      -8.161   5.856   7.431  1.00  0.00    -0.027 C 
ATOM     19  C   UNL     1      -9.339   5.673   8.061  1.00  0.00    -0.065 C 
ATOM     20  C   UNL     1      -9.459   5.546   9.590  1.00  0.00    -0.008 C 
ATOM     21  C   UNL     1      -9.899   4.074   9.881  1.00  0.00     0.014 C 
ATOM     22  C   UNL     1     -11.110   3.596   9.049  1.00  0.00     0.033 C 
ATOM     23  C   UNL     1     -10.906   3.807   7.537  1.00  0.00     0.118 C 
ATOM     24  C   UNL     1     -10.539   5.265   7.230  1.00  0.00     0.063 C 
ATOM     25  C   UNL     1     -10.572   6.504  10.094  1.00  0.00     0.016 C 
ATOM     26  C   UNL     1      -4.880   8.125  10.143  1.00  0.00     0.012 C 
ATOM     27  C   UNL     1      -2.046   7.950  11.953  1.00  0.00     0.014 C 
ATOM     28  O   UNL     1      -1.746   5.844  13.707  1.00  0.00    -0.349 OA
ATOM     29  C   UNL     1      -1.237   4.766  14.474  1.00  0.00     0.167 C 
ENDROOT
BRANCH  23  30
ATOM     30  O   UNL     1      -9.892   2.960   7.058  1.00  0.00    -0.393 OA
ATOM     31  H   UNL     1      -9.636   2.365   7.810  1.00  0.00     0.210 HD
ENDBRANCH  23  30
TORSDOF 1
ENDMDL
MODEL 3
REMARK VINA RESULT:    -6.103      4.188     12.293
REMARK INTER + INTRA:          -6.281
REMARK INTER:                  -6.281
REMARK INTRA:                   0.000
REMARK UNBOUND:                 0.000
REMARK SMILES C[C@@H]1CC[C@]2(OC1)O[C@@H]1C[C@H]3[C@@H]4CC=C5C[C@@H](O)CC[C@@]5(C)[C@@H]4CC[C@@]3(C)[C@@H]1[C@H]2C
REMARK SMILES IDX 1 1 2 2 3 3 4 4 5 5 29 6 28 7 9 8 8 9 10 10 11 11 26 12
REMARK SMILES IDX 25 13 24 14 23 15 12 16 13 17 14 18 15 19 21 20 20 21 19 22
REMARK SMILES IDX 17 23 16 24 22 25 27 26 30 27 6 28 7 29 18 30
REMARK H PARENT 18 31
REMARK Flexibility Score: inf
ROOT
ATOM      1  C   UNL     1       1.888 -10.316  14.432  1.00  0.00     0.010 C 
ATOM      2  C   UNL     1       1.114 -10.901  13.240  1.00  0.00     0.012 C 
ATOM      3  C   UNL     1       0.385  -9.813  12.439  1.00  0.00     0.011 C 
ATOM      4  C   UNL     1      -0.848  -9.299  13.188  1.00  0.00     0.066 C 
ATOM      5  C   UNL     1      -1.722 -10.472  13.697  1.00  0.00     0.171 C 
ATOM      6  C   UNL     1      -2.882  -9.938  14.555  1.00  0.00     0.052 C 
ATOM      7  C   UNL     1      -3.963 -11.000  14.345  1.00  0.00     0.033 C 
ATOM      8  C   UNL     1      -3.601 -11.546  12.968  1.00  0.00     0.126 C 
ATOM      9  O   UNL     1      -2.303 -11.137  12.595  1.00  0.00    -0.346 OA
ATOM     10  C   UNL     1      -4.624 -10.989  11.975  1.00  0.00     0.037 C 
ATOM     11  C   UNL     1      -5.571 -10.072  12.762  1.00  0.00     0.002 C 
ATOM     12  C   UNL     1      -5.446 -10.522  14.241  1.00  0.00    -0.024 C 
ATOM     13  C   UNL     1      -6.378 -11.734  14.534  1.00  0.00     0.008 C 
ATOM     14  C   UNL     1      -7.818 -11.547  14.032  1.00  0.00     0.005 C 
ATOM     15  C   UNL     1      -7.842 -11.317  12.500  1.00  0.00     0.003 C 
ATOM     16  C   UNL     1      -7.006 -10.059  12.146  1.00  0.00     0.000 C 
ATOM     17  C   UNL     1      -7.773  -8.779  12.510  1.00  0.00     0.031 C 
ATOM     18  C   UNL     1      -9.122  -8.753  11.871  1.00  0.00    -0.027 C 
ATOM     19  C   UNL     1      -9.840  -9.866  11.615  1.00  0.00    -0.065 C 
ATOM     20  C   UNL     1      -9.281 -11.286  11.812  1.00  0.00    -0.008 C 
ATOM     21  C   UNL     1      -9.151 -11.915  10.386  1.00  0.00     0.014 C 
ATOM     22  C   UNL     1     -10.421 -11.784   9.516  1.00  0.00     0.033 C 
ATOM     23  C   UNL     1     -10.922 -10.331   9.419  1.00  0.00     0.118 C 
ATOM     24  C   UNL     1     -11.119  -9.723  10.814  1.00  0.00     0.063 C 
ATOM     25  C   UNL     1     -10.299 -12.125  12.631  1.00  0.00     0.016 C 
ATOM     26  C   UNL     1      -5.753  -9.397  15.263  1.00  0.00     0.012 C 
ATOM     27  C   UNL     1      -2.492  -9.731  16.033  1.00  0.00     0.014 C 
ATOM     28  O   UNL     1      -0.945 -11.390  14.465  1.00  0.00    -0.349 OA
ATOM     29  C   UNL     1       0.102 -11.964  13.700  1.00  0.00     0.167 C 
ENDROOT
BRANCH  23  30
ATOM     30  O   UNL     1     -10.010  -9.547   8.693  1.00  0.00    -0.393 OA
ATOM     31  H   UNL     1      -9.193 -10.098   8.569  1.00  0.00     0.210 HD
ENDBRANCH  23  30
TORSDOF 1
ENDMDL
MODEL 4
REMARK VINA RESULT:    -6.045     16.113     18.092
REMARK INTER + INTRA:          -6.222
REMARK INTER:                  -6.222
REMARK INTRA:                   0.000
REMARK UNBOUND:                 0.000
REMARK SMILES C[C@@H]1CC[C@]2(OC1)O[C@@H]1C[C@H]3[C@@H]4CC=C5C[C@@H](O)CC[C@@]5(C)[C@@H]4CC[C@@]3(C)[C@@H]1[C@H]2C
REMARK SMILES IDX 1 1 2 2 3 3 4 4 5 5 29 6 28 7 9 8 8 9 10 10 11 11 26 12
REMARK SMILES IDX 25 13 24 14 23 15 12 16 13 17 14 18 15 19 21 20 20 21 19 22
REMARK SMILES IDX 17 23 16 24 22 25 27 26 30 27 6 28 7 29 18 30
REMARK H PARENT 18 31
REMARK Flexibility Score: inf
ROOT
ATOM      1  C   UNL     1     -11.125   7.546   7.438  1.00  0.00     0.010 C 
ATOM      2  C   UNL     1      -9.875   6.764   7.006  1.00  0.00     0.012 C 
ATOM      3  C   UNL     1      -9.734   5.439   7.768  1.00  0.00     0.011 C 
ATOM      4  C   UNL     1      -9.281   5.670   9.213  1.00  0.00     0.066 C 
ATOM      5  C   UNL     1      -8.061   6.623   9.270  1.00  0.00     0.171 C 
ATOM      6  C   UNL     1      -7.706   6.943  10.732  1.00  0.00     0.052 C 
ATOM      7  C   UNL     1      -6.201   7.208  10.654  1.00  0.00     0.033 C 
ATOM      8  C   UNL     1      -5.799   6.371   9.446  1.00  0.00     0.126 C 
ATOM      9  O   UNL     1      -6.937   5.979   8.710  1.00  0.00    -0.346 OA
ATOM     10  C   UNL     1      -5.072   5.131   9.973  1.00  0.00     0.037 C 
ATOM     11  C   UNL     1      -5.084   5.213  11.507  1.00  0.00     0.002 C 
ATOM     12  C   UNL     1      -5.310   6.712  11.837  1.00  0.00    -0.024 C 
ATOM     13  C   UNL     1      -3.965   7.497  11.806  1.00  0.00     0.008 C 
ATOM     14  C   UNL     1      -2.833   6.821  12.595  1.00  0.00     0.005 C 
ATOM     15  C   UNL     1      -2.543   5.404  12.040  1.00  0.00     0.003 C 
ATOM     16  C   UNL     1      -3.824   4.534  12.131  1.00  0.00     0.000 C 
ATOM     17  C   UNL     1      -4.074   4.088  13.579  1.00  0.00     0.031 C 
ATOM     18  C   UNL     1      -2.882   3.391  14.147  1.00  0.00    -0.027 C 
ATOM     19  C   UNL     1      -1.615   3.683  13.788  1.00  0.00    -0.065 C 
ATOM     20  C   UNL     1      -1.273   4.654  12.644  1.00  0.00    -0.008 C 
ATOM     21  C   UNL     1      -0.630   3.793  11.507  1.00  0.00     0.014 C 
ATOM     22  C   UNL     1       0.502   2.855  11.982  1.00  0.00     0.033 C 
ATOM     23  C   UNL     1       0.068   1.957  13.157  1.00  0.00     0.118 C 
ATOM     24  C   UNL     1      -0.502   2.795  14.308  1.00  0.00     0.063 C 
ATOM     25  C   UNL     1      -0.218   5.678  13.145  1.00  0.00     0.016 C 
ATOM     26  C   UNL     1      -5.997   6.952  13.206  1.00  0.00     0.012 C 
ATOM     27  C   UNL     1      -8.517   8.125  11.304  1.00  0.00     0.014 C 
ATOM     28  O   UNL     1      -8.329   7.836   8.568  1.00  0.00    -0.349 OA
ATOM     29  C   UNL     1      -8.600   7.602   7.196  1.00  0.00     0.167 C 
ENDROOT
BRANCH  23  30
ATOM     30  O   UNL     1      -0.898   1.029  12.732  1.00  0.00    -0.393 OA
ATOM     31  H   UNL     1      -0.406   0.229  12.412  1.00  0.00     0.210 HD
ENDBRANCH  23  30
TORSDOF 1
ENDMDL
MODEL 5
REMARK VINA RESULT:    -5.990      1.870      8.222
REMARK INTER + INTRA:          -6.166
REMARK INTER:                  -6.166
REMARK INTRA:                   0.000
REMARK UNBOUND:                 0.000
REMARK SMILES C[C@@H]1CC[C@]2(OC1)O[C@@H]1C[C@H]3[C@@H]4CC=C5C[C@@H](O)CC[C@@]5(C)[C@@H]4CC[C@@]3(C)[C@@H]1[C@H]2C
REMARK SMILES IDX 1 1 2 2 3 3 4 4 5 5 29 6 28 7 9 8 8 9 10 10 11 11 26 12
REMARK SMILES IDX 25 13 24 14 23 15 12 16 13 17 14 18 15 19 21 20 20 21 19 22
REMARK SMILES IDX 17 23 16 24 22 25 27 26 30 27 6 28 7 29 18 30
REMARK H PARENT 18 31
REMARK Flexibility Score: inf
ROOT
ATOM      1  C   UNL     1       8.660 -10.226  20.341  1.00  0.00     0.010 C 
ATOM      2  C   UNL     1       7.156  -9.938  20.218  1.00  0.00     0.012 C 
ATOM      3  C   UNL     1       6.370 -11.174  19.756  1.00  0.00     0.011 C 
ATOM      4  C   UNL     1       6.597 -11.457  18.268  1.00  0.00     0.066 C 
ATOM      5  C   UNL     1       6.410 -10.174  17.420  1.00  0.00     0.171 C 
ATOM      6  C   UNL     1       6.769 -10.452  15.950  1.00  0.00     0.052 C 
ATOM      7  C   UNL     1       5.887  -9.451  15.202  1.00  0.00     0.033 C 
ATOM      8  C   UNL     1       4.725  -9.273  16.172  1.00  0.00     0.126 C 
ATOM      9  O   UNL     1       5.052  -9.791  17.442  1.00  0.00    -0.346 OA
ATOM     10  C   UNL     1       3.530 -10.036  15.594  1.00  0.00     0.037 C 
ATOM     11  C   UNL     1       4.001 -10.707  14.295  1.00  0.00     0.002 C 
ATOM     12  C   UNL     1       5.253  -9.905  13.849  1.00  0.00    -0.024 C 
ATOM     13  C   UNL     1       4.843  -8.638  13.043  1.00  0.00     0.008 C 
ATOM     14  C   UNL     1       3.817  -8.911  11.933  1.00  0.00     0.005 C 
ATOM     15  C   UNL     1       2.516  -9.514  12.521  1.00  0.00     0.003 C 
ATOM     16  C   UNL     1       2.840 -10.839  13.260  1.00  0.00     0.000 C 
ATOM     17  C   UNL     1       3.099 -11.970  12.254  1.00  0.00     0.031 C 
ATOM     18  C   UNL     1       1.958 -12.123  11.302  1.00  0.00    -0.027 C 
ATOM     19  C   UNL     1       1.183 -11.094  10.906  1.00  0.00    -0.065 C 
ATOM     20  C   UNL     1       1.295  -9.682  11.510  1.00  0.00    -0.008 C 
ATOM     21  C   UNL     1      -0.030  -9.431  12.302  1.00  0.00     0.014 C 
ATOM     22  C   UNL     1      -1.316  -9.744  11.505  1.00  0.00     0.033 C 
ATOM     23  C   UNL     1      -1.308 -11.164  10.908  1.00  0.00     0.118 C 
ATOM     24  C   UNL     1      -0.044 -11.401  10.072  1.00  0.00     0.063 C 
ATOM     25  C   UNL     1       1.388  -8.643  10.360  1.00  0.00     0.016 C 
ATOM     26  C   UNL     1       6.253 -10.733  13.002  1.00  0.00     0.012 C 
ATOM     27  C   UNL     1       8.276 -10.293  15.658  1.00  0.00     0.014 C 
ATOM     28  O   UNL     1       7.224  -9.112  17.917  1.00  0.00    -0.349 OA
ATOM     29  C   UNL     1       6.889  -8.771  19.252  1.00  0.00     0.167 C 
ENDROOT
BRANCH  23  30
ATOM     30  O   UNL     1      -1.377 -12.125  11.931  1.00  0.00    -0.393 OA
ATOM     31  H   UNL     1      -0.785 -11.809  12.662  1.00  0.00     0.210 HD
ENDBRANCH  23  30
TORSDOF 1
ENDMDL
MODEL 6
REMARK VINA RESULT:    -5.885      1.835      2.117
REMARK INTER + INTRA:          -6.057
REMARK INTER:                  -6.057
REMARK INTRA:                   0.000
REMARK UNBOUND:                 0.000
REMARK SMILES C[C@@H]1CC[C@]2(OC1)O[C@@H]1C[C@H]3[C@@H]4CC=C5C[C@@H](O)CC[C@@]5(C)[C@@H]4CC[C@@]3(C)[C@@H]1[C@H]2C
REMARK SMILES IDX 1 1 2 2 3 3 4 4 5 5 29 6 28 7 9 8 8 9 10 10 11 11 26 12
REMARK SMILES IDX 25 13 24 14 23 15 12 16 13 17 14 18 15 19 21 20 20 21 19 22
REMARK SMILES IDX 17 23 16 24 22 25 27 26 30 27 6 28 7 29 18 30
REMARK H PARENT 18 31
REMARK Flexibility Score: inf
ROOT
ATOM      1  C   UNL     1      -2.540 -10.518   9.580  1.00  0.00     0.010 C 
ATOM      2  C   UNL     1      -2.171 -11.379  10.798  1.00  0.00     0.012 C 
ATOM      3  C   UNL     1      -2.130 -10.554  12.093  1.00  0.00     0.011 C 
ATOM      4  C   UNL     1      -0.885  -9.664  12.149  1.00  0.00     0.066 C 
ATOM      5  C   UNL     1       0.394 -10.470  11.813  1.00  0.00     0.171 C 
ATOM      6  C   UNL     1       1.612  -9.532  11.748  1.00  0.00     0.052 C 
ATOM      7  C   UNL     1       2.762 -10.458  12.147  1.00  0.00     0.033 C 
ATOM      8  C   UNL     1       2.047 -11.487  13.015  1.00  0.00     0.126 C 
ATOM      9  O   UNL     1       0.650 -11.397  12.846  1.00  0.00    -0.346 OA
ATOM     10  C   UNL     1       2.413 -11.187  14.471  1.00  0.00     0.037 C 
ATOM     11  C   UNL     1       3.314  -9.943  14.468  1.00  0.00     0.002 C 
ATOM     12  C   UNL     1       3.903  -9.865  13.034  1.00  0.00    -0.024 C 
ATOM     13  C   UNL     1       5.159 -10.775  12.899  1.00  0.00     0.008 C 
ATOM     14  C   UNL     1       6.181 -10.596  14.031  1.00  0.00     0.005 C 
ATOM     15  C   UNL     1       5.541 -10.910  15.407  1.00  0.00     0.003 C 
ATOM     16  C   UNL     1       4.334  -9.967  15.650  1.00  0.00     0.000 C 
ATOM     17  C   UNL     1       4.814  -8.555  16.018  1.00  0.00     0.031 C 
ATOM     18  C   UNL     1       5.746  -8.585  17.185  1.00  0.00    -0.027 C 
ATOM     19  C   UNL     1       6.572  -9.619  17.444  1.00  0.00    -0.065 C 
ATOM     20  C   UNL     1       6.531 -10.941  16.657  1.00  0.00    -0.008 C 
ATOM     21  C   UNL     1       6.023 -12.036  17.652  1.00  0.00     0.014 C 
ATOM     22  C   UNL     1       6.767 -12.058  19.006  1.00  0.00     0.033 C 
ATOM     23  C   UNL     1       6.787 -10.678  19.690  1.00  0.00     0.118 C 
ATOM     24  C   UNL     1       7.347  -9.605  18.747  1.00  0.00     0.063 C 
ATOM     25  C   UNL     1       7.971 -11.311  16.208  1.00  0.00     0.016 C 
ATOM     26  C   UNL     1       4.277  -8.427  12.592  1.00  0.00     0.012 C 
ATOM     27  C   UNL     1       1.793  -8.876  10.363  1.00  0.00     0.014 C 
ATOM     28  O   UNL     1       0.253 -11.154  10.568  1.00  0.00    -0.349 OA
ATOM     29  C   UNL     1      -0.819 -12.082  10.595  1.00  0.00     0.167 C 
ENDROOT
BRANCH  23  30
ATOM     30  O   UNL     1       5.491 -10.314  20.094  1.00  0.00    -0.393 OA
ATOM     31  H   UNL     1       5.444  -9.324  20.050  1.00  0.00     0.210 HD
ENDBRANCH  23  30
TORSDOF 1
ENDMDL
MODEL 7
REMARK VINA RESULT:    -5.655      2.961      4.751
REMARK INTER + INTRA:          -5.820
REMARK INTER:                  -5.820
REMARK INTRA:                   0.000
REMARK UNBOUND:                 0.000
REMARK SMILES C[C@@H]1CC[C@]2(OC1)O[C@@H]1C[C@H]3[C@@H]4CC=C5C[C@@H](O)CC[C@@]5(C)[C@@H]4CC[C@@]3(C)[C@@H]1[C@H]2C
REMARK SMILES IDX 1 1 2 2 3 3 4 4 5 5 29 6 28 7 9 8 8 9 10 10 11 11 26 12
REMARK SMILES IDX 25 13 24 14 23 15 12 16 13 17 14 18 15 19 21 20 20 21 19 22
REMARK SMILES IDX 17 23 16 24 22 25 27 26 30 27 6 28 7 29 18 30
REMARK H PARENT 18 31
REMARK Flexibility Score: inf
ROOT
ATOM      1  C   UNL     1      -6.547 -10.995  15.413  1.00  0.00     0.010 C 
ATOM      2  C   UNL     1      -5.518 -10.135  14.663  1.00  0.00     0.012 C 
ATOM      3  C   UNL     1      -4.509 -10.992  13.886  1.00  0.00     0.011 C 
ATOM      4  C   UNL     1      -3.499 -11.658  14.826  1.00  0.00     0.066 C 
ATOM      5  C   UNL     1      -2.900 -10.630  15.819  1.00  0.00     0.171 C 
ATOM      6  C   UNL     1      -1.990 -11.342  16.835  1.00  0.00     0.052 C 
ATOM      7  C   UNL     1      -0.982 -10.250  17.195  1.00  0.00     0.033 C 
ATOM      8  C   UNL     1      -0.984  -9.395  15.932  1.00  0.00     0.126 C 
ATOM      9  O   UNL     1      -2.087  -9.716  15.115  1.00  0.00    -0.346 OA
ATOM     10  C   UNL     1       0.319  -9.688  15.183  1.00  0.00     0.037 C 
ATOM     11  C   UNL     1       1.076 -10.757  15.984  1.00  0.00     0.002 C 
ATOM     12  C   UNL     1       0.504 -10.674  17.424  1.00  0.00    -0.024 C 
ATOM     13  C   UNL     1       1.217  -9.557  18.242  1.00  0.00     0.008 C 
ATOM     14  C   UNL     1       2.750  -9.605  18.154  1.00  0.00     0.005 C 
ATOM     15  C   UNL     1       3.222  -9.462  16.685  1.00  0.00     0.003 C 
ATOM     16  C   UNL     1       2.622 -10.607  15.828  1.00  0.00     0.000 C 
ATOM     17  C   UNL     1       3.354 -11.930  16.103  1.00  0.00     0.031 C 
ATOM     18  C   UNL     1       4.827 -11.788  15.897  1.00  0.00    -0.027 C 
ATOM     19  C   UNL     1       5.497 -10.640  16.120  1.00  0.00    -0.065 C 
ATOM     20  C   UNL     1       4.794  -9.314  16.460  1.00  0.00    -0.008 C 
ATOM     21  C   UNL     1       5.022  -8.364  15.237  1.00  0.00     0.014 C 
ATOM     22  C   UNL     1       6.491  -8.270  14.771  1.00  0.00     0.033 C 
ATOM     23  C   UNL     1       7.113  -9.653  14.500  1.00  0.00     0.118 C 
ATOM     24  C   UNL     1       6.956 -10.574  15.717  1.00  0.00     0.063 C 
ATOM     25  C   UNL     1       5.471  -8.684  17.707  1.00  0.00     0.016 C 
ATOM     26  C   UNL     1       0.599 -12.007  18.210  1.00  0.00     0.012 C 
ATOM     27  C   UNL     1      -2.763 -11.900  18.048  1.00  0.00     0.014 C 
ATOM     28  O   UNL     1      -3.932  -9.931  16.512  1.00  0.00    -0.349 OA
ATOM     29  C   UNL     1      -4.764  -9.202  15.625  1.00  0.00     0.167 C 
ENDROOT
BRANCH  23  30
ATOM     30  O   UNL     1       6.507 -10.250  13.381  1.00  0.00    -0.393 OA
ATOM     31  H   UNL     1       5.653  -9.769  13.227  1.00  0.00     0.210 HD
ENDBRANCH  23  30
TORSDOF 1
ENDMDL
MODEL 8
REMARK VINA RESULT:    -5.557      2.582      8.915
REMARK INTER + INTRA:          -5.719
REMARK INTER:                  -5.719
REMARK INTRA:                   0.000
REMARK UNBOUND:                 0.000
REMARK SMILES C[C@@H]1CC[C@]2(OC1)O[C@@H]1C[C@H]3[C@@H]4CC=C5C[C@@H](O)CC[C@@]5(C)[C@@H]4CC[C@@]3(C)[C@@H]1[C@H]2C
REMARK SMILES IDX 1 1 2 2 3 3 4 4 5 5 29 6 28 7 9 8 8 9 10 10 11 11 26 12
REMARK SMILES IDX 25 13 24 14 23 15 12 16 13 17 14 18 15 19 21 20 20 21 19 22
REMARK SMILES IDX 17 23 16 24 22 25 27 26 30 27 6 28 7 29 18 30
REMARK H PARENT 18 31
REMARK Flexibility Score: inf
ROOT
ATOM      1  C   UNL     1       8.392 -10.587  14.410  1.00  0.00     0.010 C 
ATOM      2  C   UNL     1       7.236 -11.444  13.869  1.00  0.00     0.012 C 
ATOM      3  C   UNL     1       6.264 -10.622  13.011  1.00  0.00     0.011 C 
ATOM      4  C   UNL     1       5.389  -9.709  13.876  1.00  0.00     0.066 C 
ATOM      5  C   UNL     1       4.763 -10.491  15.058  1.00  0.00     0.171 C 
ATOM      6  C   UNL     1       3.997  -9.531  15.984  1.00  0.00     0.052 C 
ATOM      7  C   UNL     1       2.915 -10.437  16.574  1.00  0.00     0.033 C 
ATOM      8  C   UNL     1       2.749 -11.481  15.476  1.00  0.00     0.126 C 
ATOM      9  O   UNL     1       3.820 -11.416  14.561  1.00  0.00    -0.346 OA
ATOM     10  C   UNL     1       1.433 -11.178  14.755  1.00  0.00     0.037 C 
ATOM     11  C   UNL     1       0.838  -9.918  15.402  1.00  0.00     0.002 C 
ATOM     12  C   UNL     1       1.496  -9.826  16.804  1.00  0.00    -0.024 C 
ATOM     13  C   UNL     1       0.736 -10.712  17.835  1.00  0.00     0.008 C 
ATOM     14  C   UNL     1      -0.787 -10.517  17.818  1.00  0.00     0.005 C 
ATOM     15  C   UNL     1      -1.370 -10.846  16.421  1.00  0.00     0.003 C 
ATOM     16  C   UNL     1      -0.722  -9.927  15.353  1.00  0.00     0.000 C 
ATOM     17  C   UNL     1      -1.304  -8.507  15.437  1.00  0.00     0.031 C 
ATOM     18  C   UNL     1      -2.794  -8.523  15.334  1.00  0.00    -0.027 C 
ATOM     19  C   UNL     1      -3.554  -9.542  15.781  1.00  0.00    -0.065 C 
ATOM     20  C   UNL     1      -2.961 -10.862  16.304  1.00  0.00    -0.008 C 
ATOM     21  C   UNL     1      -3.361 -11.969  15.273  1.00  0.00     0.014 C 
ATOM     22  C   UNL     1      -4.861 -11.981  14.905  1.00  0.00     0.033 C 
ATOM     23  C   UNL     1      -5.364 -10.603  14.437  1.00  0.00     0.118 C 
ATOM     24  C   UNL     1      -5.037  -9.518  15.470  1.00  0.00     0.063 C 
ATOM     25  C   UNL     1      -3.608 -11.205  17.673  1.00  0.00     0.016 C 
ATOM     26  C   UNL     1       1.583  -8.380  17.358  1.00  0.00     0.012 C 
ATOM     27  C   UNL     1       4.901  -8.868  17.044  1.00  0.00     0.014 C 
ATOM     28  O   UNL     1       5.768 -11.174  15.806  1.00  0.00    -0.349 OA
ATOM     29  C   UNL     1       6.463 -12.122  15.013  1.00  0.00     0.167 C 
ENDROOT
BRANCH  23  30
ATOM     30  O   UNL     1      -4.781 -10.264  13.204  1.00  0.00    -0.393 OA
ATOM     31  H   UNL     1      -5.148 -10.893  12.530  1.00  0.00     0.210 HD
ENDBRANCH  23  30
TORSDOF 1
ENDMDL
MODEL 9
REMARK VINA RESULT:    -5.255      2.128      2.738
REMARK INTER + INTRA:          -5.408
REMARK INTER:                  -5.408
REMARK INTRA:                   0.000
REMARK UNBOUND:                 0.000
REMARK SMILES C[C@@H]1CC[C@]2(OC1)O[C@@H]1C[C@H]3[C@@H]4CC=C5C[C@@H](O)CC[C@@]5(C)[C@@H]4CC[C@@]3(C)[C@@H]1[C@H]2C
REMARK SMILES IDX 1 1 2 2 3 3 4 4 5 5 29 6 28 7 9 8 8 9 10 10 11 11 26 12
REMARK SMILES IDX 25 13 24 14 23 15 12 16 13 17 14 18 15 19 21 20 20 21 19 22
REMARK SMILES IDX 17 23 16 24 22 25 27 26 30 27 6 28 7 29 18 30
REMARK H PARENT 18 31
REMARK Flexibility Score: inf
ROOT
ATOM      1  C   UNL     1      -5.255 -10.244  13.914  1.00  0.00     0.010 C 
ATOM      2  C   UNL     1      -4.562 -10.335  15.282  1.00  0.00     0.012 C 
ATOM      3  C   UNL     1      -3.764  -9.065  15.608  1.00  0.00     0.011 C 
ATOM      4  C   UNL     1      -2.475  -8.987  14.785  1.00  0.00     0.066 C 
ATOM      5  C   UNL     1      -1.690 -10.322  14.850  1.00  0.00     0.171 C 
ATOM      6  C   UNL     1      -0.470 -10.266  13.914  1.00  0.00     0.052 C 
ATOM      7  C   UNL     1       0.514 -11.216  14.600  1.00  0.00     0.033 C 
ATOM      8  C   UNL     1       0.075 -11.121  16.057  1.00  0.00     0.126 C 
ATOM      9  O   UNL     1      -1.192 -10.510  16.157  1.00  0.00    -0.346 OA
ATOM     10  C   UNL     1       1.118 -10.273  16.791  1.00  0.00     0.037 C 
ATOM     11  C   UNL     1       2.157  -9.826  15.752  1.00  0.00     0.002 C 
ATOM     12  C   UNL     1       2.029 -10.837  14.582  1.00  0.00    -0.024 C 
ATOM     13  C   UNL     1       2.864 -12.121  14.863  1.00  0.00     0.008 C 
ATOM     14  C   UNL     1       4.302 -11.839  15.324  1.00  0.00     0.005 C 
ATOM     15  C   UNL     1       4.309 -11.000  16.626  1.00  0.00     0.003 C 
ATOM     16  C   UNL     1       3.572  -9.656  16.388  1.00  0.00     0.000 C 
ATOM     17  C   UNL     1       4.451  -8.694  15.575  1.00  0.00     0.031 C 
ATOM     18  C   UNL     1       5.783  -8.496  16.222  1.00  0.00    -0.027 C 
ATOM     19  C   UNL     1       6.399  -9.449  16.950  1.00  0.00    -0.065 C 
ATOM     20  C   UNL     1       5.728 -10.784  17.320  1.00  0.00    -0.008 C 
ATOM     21  C   UNL     1       5.514 -10.759  18.870  1.00  0.00     0.014 C 
ATOM     22  C   UNL     1       6.769 -10.366  19.679  1.00  0.00     0.033 C 
ATOM     23  C   UNL     1       7.387  -9.038  19.200  1.00  0.00     0.118 C 
ATOM     24  C   UNL     1       7.666  -9.074  17.692  1.00  0.00     0.063 C 
ATOM     25  C   UNL     1       6.692 -11.951  16.974  1.00  0.00     0.016 C 
ATOM     26  C   UNL     1       2.453 -10.257  13.208  1.00  0.00     0.012 C 
ATOM     27  C   UNL     1      -0.806 -10.662  12.462  1.00  0.00     0.014 C 
ATOM     28  O   UNL     1      -2.522 -11.421  14.482  1.00  0.00    -0.349 OA
ATOM     29  C   UNL     1      -3.631 -11.557  15.355  1.00  0.00     0.167 C 
ENDROOT
BRANCH  23  30
ATOM     30  O   UNL     1       6.526  -7.966  19.491  1.00  0.00    -0.393 OA
ATOM     31  H   UNL     1       5.608  -8.265  19.260  1.00  0.00     0.210 HD
ENDBRANCH  23  30
TORSDOF 1
ENDMDL
