MODEL 1
REMARK VINA RESULT:    -5.042      0.000      0.000
REMARK INTER + INTRA:          -5.554
REMARK INTER:                  -5.336
REMARK INTRA:                  -0.218
REMARK UNBOUND:                -0.218
REMARK SMILES C=C(C)[C@H]1CC=C(C)C(=O)C1
REMARK SMILES IDX 8 1 7 2 6 3 5 4 4 5 11 6 9 7 10 8 2 9 1 10 3 11
REMARK H PARENT
REMARK Flexibility Score: inf
ROOT
ATOM      1  C   UNL     1     101.781 111.740 123.004  1.00  0.00     0.048 C 
ATOM      2  C   UNL     1     101.445 112.129 124.418  1.00  0.00    -0.012 C 
ATOM      3  C   UNL     1     100.293 112.766 124.676  1.00  0.00    -0.019 C 
ATOM      4  C   UNL     1      99.878 113.155 126.069  1.00  0.00     0.036 C 
ATOM      5  C   UNL     1     101.069 113.433 127.013  1.00  0.00     0.025 C 
ATOM      6  C   UNL     1     102.149 112.335 126.910  1.00  0.00     0.089 C 
ATOM      7  C   UNL     1     102.450 111.944 125.491  1.00  0.00     0.158 C 
ATOM      8  O   UNL     1     103.565 111.418 125.228  1.00  0.00    -0.295 OA
ENDROOT
BRANCH   5   9
ATOM      9  C   UNL     1     101.633 114.845 126.855  1.00  0.00    -0.077 C 
ATOM     10  C   UNL     1     102.904 115.152 127.171  1.00  0.00     0.008 C 
ATOM     11  C   UNL     1     100.750 115.950 126.331  1.00  0.00     0.039 C 
ENDBRANCH   5   9
TORSDOF 1
ENDMDL
MODEL 2
REMARK VINA RESULT:    -4.774      2.085      3.769
REMARK INTER + INTRA:          -5.271
REMARK INTER:                  -5.141
REMARK INTRA:                  -0.130
REMARK UNBOUND:                -0.218
REMARK SMILES C=C(C)[C@H]1CC=C(C)C(=O)C1
REMARK SMILES IDX 8 1 7 2 6 3 5 4 4 5 11 6 9 7 10 8 2 9 1 10 3 11
REMARK H PARENT
REMARK Flexibility Score: inf
ROOT
ATOM      1  C   UNL     1     100.543 116.794 126.075  1.00  0.00     0.048 C 
ATOM      2  C   UNL     1     100.429 115.355 125.652  1.00  0.00    -0.012 C 
ATOM      3  C   UNL     1     100.006 114.435 126.532  1.00  0.00    -0.019 C 
ATOM      4  C   UNL     1      99.838 112.985 126.168  1.00  0.00     0.036 C 
ATOM      5  C   UNL     1     100.799 112.512 125.056  1.00  0.00     0.025 C 
ATOM      6  C   UNL     1     100.840 113.505 123.875  1.00  0.00     0.089 C 
ATOM      7  C   UNL     1     100.928 114.937 124.321  1.00  0.00     0.158 C 
ATOM      8  O   UNL     1     101.400 115.795 123.526  1.00  0.00    -0.295 OA
ENDROOT
BRANCH   5   9
ATOM      9  C   UNL     1     102.188 112.152 125.585  1.00  0.00    -0.077 C 
ATOM     10  C   UNL     1     103.220 111.877 124.768  1.00  0.00     0.008 C 
ATOM     11  C   UNL     1     102.431 112.094 127.072  1.00  0.00     0.039 C 
ENDBRANCH   5   9
TORSDOF 1
ENDMDL
MODEL 3
REMARK VINA RESULT:    -4.698      3.020      4.668
REMARK INTER + INTRA:          -5.191
REMARK INTER:                  -4.969
REMARK INTRA:                  -0.222
REMARK UNBOUND:                -0.218
REMARK SMILES C=C(C)[C@H]1CC=C(C)C(=O)C1
REMARK SMILES IDX 8 1 7 2 6 3 5 4 4 5 11 6 9 7 10 8 2 9 1 10 3 11
REMARK H PARENT
REMARK Flexibility Score: inf
ROOT
ATOM      1  C   UNL     1     100.111 119.155 124.748  1.00  0.00     0.048 C 
ATOM      2  C   UNL     1     100.097 117.682 125.055  1.00  0.00    -0.012 C 
ATOM      3  C   UNL     1     100.089 117.269 126.331  1.00  0.00    -0.019 C 
ATOM      4  C   UNL     1     100.043 115.813 126.710  1.00  0.00     0.036 C 
ATOM      5  C   UNL     1     100.703 114.883 125.668  1.00  0.00     0.025 C 
ATOM      6  C   UNL     1     100.252 115.223 124.232  1.00  0.00     0.089 C 
ATOM      7  C   UNL     1     100.248 116.700 123.956  1.00  0.00     0.158 C 
ATOM      8  O   UNL     1     100.337 117.097 122.763  1.00  0.00    -0.295 OA
ENDROOT
BRANCH   5   9
ATOM      9  C   UNL     1     102.222 114.808 125.818  1.00  0.00    -0.077 C 
ATOM     10  C   UNL     1     103.035 114.541 124.780  1.00  0.00     0.008 C 
ATOM     11  C   UNL     1     102.854 115.036 127.169  1.00  0.00     0.039 C 
ENDBRANCH   5   9
TORSDOF 1
ENDMDL
MODEL 4
REMARK VINA RESULT:    -4.697      2.098      4.119
REMARK INTER + INTRA:          -5.189
REMARK INTER:                  -5.047
REMARK INTRA:                  -0.142
REMARK UNBOUND:                -0.218
REMARK SMILES C=C(C)[C@H]1CC=C(C)C(=O)C1
REMARK SMILES IDX 8 1 7 2 6 3 5 4 4 5 11 6 9 7 10 8 2 9 1 10 3 11
REMARK H PARENT
REMARK Flexibility Score: inf
ROOT
ATOM      1  C   UNL     1     103.293 115.506 127.583  1.00  0.00     0.048 C 
ATOM      2  C   UNL     1     102.136 114.728 127.021  1.00  0.00    -0.012 C 
ATOM      3  C   UNL     1     102.195 113.388 126.973  1.00  0.00    -0.019 C 
ATOM      4  C   UNL     1     101.061 112.546 126.454  1.00  0.00     0.036 C 
ATOM      5  C   UNL     1     100.206 113.256 125.382  1.00  0.00     0.025 C 
ATOM      6  C   UNL     1      99.842 114.696 125.802  1.00  0.00     0.089 C 
ATOM      7  C   UNL     1     101.006 115.446 126.385  1.00  0.00     0.158 C 
ATOM      8  O   UNL     1     100.992 116.706 126.360  1.00  0.00    -0.295 OA
ENDROOT
BRANCH   5   9
ATOM      9  C   UNL     1     100.820 113.177 123.984  1.00  0.00    -0.077 C 
ATOM     10  C   UNL     1     100.973 114.260 123.203  1.00  0.00     0.008 C 
ATOM     11  C   UNL     1     101.275 111.845 123.441  1.00  0.00     0.039 C 
ENDBRANCH   5   9
TORSDOF 1
ENDMDL
MODEL 5
REMARK VINA RESULT:    -4.656      2.735      4.387
REMARK INTER + INTRA:          -5.146
REMARK INTER:                  -4.932
REMARK INTRA:                  -0.215
REMARK UNBOUND:                -0.218
REMARK SMILES C=C(C)[C@H]1CC=C(C)C(=O)C1
REMARK SMILES IDX 8 1 7 2 6 3 5 4 4 5 11 6 9 7 10 8 2 9 1 10 3 11
REMARK H PARENT
REMARK Flexibility Score: inf
ROOT
ATOM      1  C   UNL     1      99.374 117.684 124.051  1.00  0.00     0.048 C 
ATOM      2  C   UNL     1     100.368 116.658 124.522  1.00  0.00    -0.012 C 
ATOM      3  C   UNL     1     101.039 115.921 123.625  1.00  0.00    -0.019 C 
ATOM      4  C   UNL     1     102.070 114.900 124.024  1.00  0.00     0.036 C 
ATOM      5  C   UNL     1     101.805 114.265 125.407  1.00  0.00     0.025 C 
ATOM      6  C   UNL     1     101.460 115.330 126.469  1.00  0.00     0.089 C 
ATOM      7  C   UNL     1     100.487 116.359 125.969  1.00  0.00     0.158 C 
ATOM      8  O   UNL     1      99.794 116.999 126.805  1.00  0.00    -0.295 OA
ENDROOT
BRANCH   5   9
ATOM      9  C   UNL     1     100.789 113.123 125.350  1.00  0.00    -0.077 C 
ATOM     10  C   UNL     1      99.930 112.875 126.354  1.00  0.00     0.008 C 
ATOM     11  C   UNL     1     100.734 112.230 124.136  1.00  0.00     0.039 C 
ENDBRANCH   5   9
TORSDOF 1
ENDMDL
MODEL 6
REMARK VINA RESULT:    -4.622      1.444      2.206
REMARK INTER + INTRA:          -5.110
REMARK INTER:                  -4.899
REMARK INTRA:                  -0.211
REMARK UNBOUND:                -0.218
REMARK SMILES C=C(C)[C@H]1CC=C(C)C(=O)C1
REMARK SMILES IDX 8 1 7 2 6 3 5 4 4 5 11 6 9 7 10 8 2 9 1 10 3 11
REMARK H PARENT
REMARK Flexibility Score: inf
ROOT
ATOM      1  C   UNL     1     103.791 110.774 125.443  1.00  0.00     0.048 C 
ATOM      2  C   UNL     1     102.491 111.532 125.432  1.00  0.00    -0.012 C 
ATOM      3  C   UNL     1     101.894 111.812 124.264  1.00  0.00    -0.019 C 
ATOM      4  C   UNL     1     100.579 112.537 124.182  1.00  0.00     0.036 C 
ATOM      5  C   UNL     1     100.338 113.515 125.353  1.00  0.00     0.025 C 
ATOM      6  C   UNL     1     100.670 112.868 126.714  1.00  0.00     0.089 C 
ATOM      7  C   UNL     1     101.958 112.095 126.695  1.00  0.00     0.158 C 
ATOM      8  O   UNL     1     102.566 111.898 127.781  1.00  0.00    -0.295 OA
ENDROOT
BRANCH   5   9
ATOM      9  C   UNL     1     101.022 114.866 125.148  1.00  0.00    -0.077 C 
ATOM     10  C   UNL     1     101.327 115.340 123.927  1.00  0.00     0.008 C 
ATOM     11  C   UNL     1     101.381 115.714 126.344  1.00  0.00     0.039 C 
ENDBRANCH   5   9
TORSDOF 1
ENDMDL
MODEL 7
REMARK VINA RESULT:    -4.502      1.395      1.955
REMARK INTER + INTRA:          -4.983
REMARK INTER:                  -5.108
REMARK INTRA:                   0.125
REMARK UNBOUND:                -0.218
REMARK SMILES C=C(C)[C@H]1CC=C(C)C(=O)C1
REMARK SMILES IDX 8 1 7 2 6 3 5 4 4 5 11 6 9 7 10 8 2 9 1 10 3 11
REMARK H PARENT
REMARK Flexibility Score: inf
ROOT
ATOM      1  C   UNL     1     100.984 111.830 123.497  1.00  0.00     0.048 C 
ATOM      2  C   UNL     1     101.169 112.782 124.647  1.00  0.00    -0.012 C 
ATOM      3  C   UNL     1     100.151 113.013 125.490  1.00  0.00    -0.019 C 
ATOM      4  C   UNL     1     100.276 113.927 126.678  1.00  0.00     0.036 C 
ATOM      5  C   UNL     1     101.301 115.065 126.476  1.00  0.00     0.025 C 
ATOM      6  C   UNL     1     102.625 114.543 125.882  1.00  0.00     0.089 C 
ATOM      7  C   UNL     1     102.417 113.573 124.753  1.00  0.00     0.158 C 
ATOM      8  O   UNL     1     103.341 113.412 123.911  1.00  0.00    -0.295 OA
ENDROOT
BRANCH   5   9
ATOM      9  C   UNL     1     100.724 116.252 125.704  1.00  0.00    -0.077 C 
ATOM     10  C   UNL     1     100.735 116.310 124.361  1.00  0.00     0.008 C 
ATOM     11  C   UNL     1     100.120 117.412 126.456  1.00  0.00     0.039 C 
ENDBRANCH   5   9
TORSDOF 1
ENDMDL
MODEL 8
REMARK VINA RESULT:    -4.461      2.484      3.957
REMARK INTER + INTRA:          -4.940
REMARK INTER:                  -4.812
REMARK INTRA:                  -0.128
REMARK UNBOUND:                -0.218
REMARK SMILES C=C(C)[C@H]1CC=C(C)C(=O)C1
REMARK SMILES IDX 8 1 7 2 6 3 5 4 4 5 11 6 9 7 10 8 2 9 1 10 3 11
REMARK H PARENT
REMARK Flexibility Score: inf
ROOT
ATOM      1  C   UNL     1      99.394 112.868 126.188  1.00  0.00     0.048 C 
ATOM      2  C   UNL     1     100.060 114.140 125.739  1.00  0.00    -0.012 C 
ATOM      3  C   UNL     1      99.852 115.276 126.421  1.00  0.00    -0.019 C 
ATOM      4  C   UNL     1     100.511 116.576 126.047  1.00  0.00     0.036 C 
ATOM      5  C   UNL     1     100.818 116.701 124.539  1.00  0.00     0.025 C 
ATOM      6  C   UNL     1     101.479 115.423 123.982  1.00  0.00     0.089 C 
ATOM      7  C   UNL     1     100.815 114.165 124.464  1.00  0.00     0.158 C 
ATOM      8  O   UNL     1     100.939 113.111 123.783  1.00  0.00    -0.295 OA
ENDROOT
BRANCH   5   9
ATOM      9  C   UNL     1      99.607 117.154 123.723  1.00  0.00    -0.077 C 
ATOM     10  C   UNL     1      99.172 116.479 122.645  1.00  0.00     0.008 C 
ATOM     11  C   UNL     1      98.859 118.402 124.122  1.00  0.00     0.039 C 
ENDBRANCH   5   9
TORSDOF 1
ENDMDL
MODEL 9
REMARK VINA RESULT:    -4.401      2.694      3.700
REMARK INTER + INTRA:          -4.876
REMARK INTER:                  -4.714
REMARK INTRA:                  -0.162
REMARK UNBOUND:                -0.218
REMARK SMILES C=C(C)[C@H]1CC=C(C)C(=O)C1
REMARK SMILES IDX 8 1 7 2 6 3 5 4 4 5 11 6 9 7 10 8 2 9 1 10 3 11
REMARK H PARENT
REMARK Flexibility Score: inf
ROOT
ATOM      1  C   UNL     1     101.090 115.527 122.202  1.00  0.00     0.048 C 
ATOM      2  C   UNL     1     101.368 115.413 123.675  1.00  0.00    -0.012 C 
ATOM      3  C   UNL     1     102.536 114.903 124.094  1.00  0.00    -0.019 C 
ATOM      4  C   UNL     1     102.894 114.789 125.551  1.00  0.00     0.036 C 
ATOM      5  C   UNL     1     101.670 114.607 126.474  1.00  0.00     0.025 C 
ATOM      6  C   UNL     1     100.541 115.602 126.130  1.00  0.00     0.089 C 
ATOM      7  C   UNL     1     100.297 115.720 124.653  1.00  0.00     0.158 C 
ATOM      8  O   UNL     1      99.173 116.122 124.251  1.00  0.00    -0.295 OA
ENDROOT
BRANCH   5   9
ATOM      9  C   UNL     1     101.190 113.157 126.545  1.00  0.00    -0.077 C 
ATOM     10  C   UNL     1     102.038 112.127 126.715  1.00  0.00     0.008 C 
ATOM     11  C   UNL     1      99.719 112.847 126.419  1.00  0.00     0.039 C 
ENDBRANCH   5   9
TORSDOF 1
ENDMDL
