MODEL 1
REMARK VINA RESULT:    -3.749      0.000      0.000
REMARK INTER + INTRA:          -4.078
REMARK INTER:                  -4.078
REMARK INTRA:                   0.000
REMARK UNBOUND:                 0.000
REMARK SMILES Oc1cccc(O)c1O
REMARK SMILES IDX 4 1 5 2 6 3 8 4 2 5 3 6 7 7 1 9 9 11
REMARK H PARENT 7 8 1 10 9 12
REMARK Flexibility Score: inf
ROOT
ATOM      1  C   UNL     1       4.047 -15.763  17.376  1.00  0.00     0.008 A 
ATOM      2  C   UNL     1       3.313 -14.591  17.200  1.00  0.00     0.050 A 
ATOM      3  C   UNL     1       2.797 -14.263  15.942  1.00  0.00     0.161 A 
ATOM      4  C   UNL     1       3.016 -15.117  14.843  1.00  0.00     0.200 A 
ATOM      5  C   UNL     1       3.762 -16.308  15.027  1.00  0.00     0.161 A 
ATOM      6  C   UNL     1       4.270 -16.616  16.294  1.00  0.00     0.050 A 
ENDROOT
BRANCH   3   7
ATOM      7  O   UNL     1       2.067 -13.082  15.804  1.00  0.00    -0.504 OA
ATOM      8  H   UNL     1       1.899 -12.653  14.902  1.00  0.00     0.293 HD
ENDBRANCH   3   7
BRANCH   5   9
ATOM      9  O   UNL     1       4.022 -17.205  13.987  1.00  0.00    -0.504 OA
ATOM     10  H   UNL     1       4.363 -16.934  13.077  1.00  0.00     0.293 HD
ENDBRANCH   5   9
BRANCH   4  11
ATOM     11  O   UNL     1       2.483 -14.754  13.603  1.00  0.00    -0.502 OA
ATOM     12  H   UNL     1       1.627 -15.130  13.223  1.00  0.00     0.293 HD
ENDBRANCH   4  11
TORSDOF 3
ENDMDL
MODEL 2
REMARK VINA RESULT:    -3.661      2.108      2.841
REMARK INTER + INTRA:          -3.982
REMARK INTER:                  -3.982
REMARK INTRA:                   0.000
REMARK UNBOUND:                 0.000
REMARK SMILES Oc1cccc(O)c1O
REMARK SMILES IDX 4 1 5 2 6 3 8 4 2 5 3 6 7 7 1 9 9 11
REMARK H PARENT 7 8 1 10 9 12
REMARK Flexibility Score: inf
ROOT
ATOM      1  C   UNL     1       4.102 -15.765  14.967  1.00  0.00     0.008 A 
ATOM      2  C   UNL     1       4.880 -14.723  15.472  1.00  0.00     0.050 A 
ATOM      3  C   UNL     1       4.310 -13.468  15.712  1.00  0.00     0.161 A 
ATOM      4  C   UNL     1       2.944 -13.249  15.443  1.00  0.00     0.200 A 
ATOM      5  C   UNL     1       2.157 -14.311  14.931  1.00  0.00     0.161 A 
ATOM      6  C   UNL     1       2.749 -15.558  14.698  1.00  0.00     0.050 A 
ENDROOT
BRANCH   3   7
ATOM      7  O   UNL     1       5.119 -12.450  16.217  1.00  0.00    -0.504 OA
ATOM      8  H   UNL     1       5.496 -12.476  17.157  1.00  0.00     0.293 HD
ENDBRANCH   3   7
BRANCH   5   9
ATOM      9  O   UNL     1       0.797 -14.172  14.640  1.00  0.00    -0.504 OA
ATOM     10  H   UNL     1       0.334 -13.285  14.510  1.00  0.00     0.293 HD
ENDBRANCH   5   9
BRANCH   4  11
ATOM     11  O   UNL     1       2.412 -11.982  15.697  1.00  0.00    -0.502 OA
ATOM     12  H   UNL     1       1.576 -11.621  15.263  1.00  0.00     0.293 HD
ENDBRANCH   4  11
TORSDOF 3
ENDMDL
MODEL 3
REMARK VINA RESULT:    -3.661      2.091      2.866
REMARK INTER + INTRA:          -3.982
REMARK INTER:                  -3.982
REMARK INTRA:                   0.000
REMARK UNBOUND:                 0.000
REMARK SMILES Oc1cccc(O)c1O
REMARK SMILES IDX 4 1 5 2 6 3 8 4 2 5 3 6 7 7 1 9 9 11
REMARK H PARENT 7 8 1 10 9 12
REMARK Flexibility Score: inf
ROOT
ATOM      1  C   UNL     1       4.026 -15.869  14.972  1.00  0.00     0.008 A 
ATOM      2  C   UNL     1       2.681 -15.613  14.706  1.00  0.00     0.050 A 
ATOM      3  C   UNL     1       2.143 -14.344  14.945  1.00  0.00     0.161 A 
ATOM      4  C   UNL     1       2.959 -13.315  15.456  1.00  0.00     0.200 A 
ATOM      5  C   UNL     1       4.325 -13.580  15.724  1.00  0.00     0.161 A 
ATOM      6  C   UNL     1       4.842 -14.857  15.478  1.00  0.00     0.050 A 
ENDROOT
BRANCH   3   7
ATOM      7  O   UNL     1       0.794 -14.126  14.667  1.00  0.00    -0.504 OA
ATOM      8  H   UNL     1       0.090 -14.097  15.395  1.00  0.00     0.293 HD
ENDBRANCH   3   7
BRANCH   5   9
ATOM      9  O   UNL     1       5.197 -12.612  16.231  1.00  0.00    -0.504 OA
ATOM     10  H   UNL     1       4.966 -11.634  16.322  1.00  0.00     0.293 HD
ENDBRANCH   5   9
BRANCH   4  11
ATOM     11  O   UNL     1       2.383 -12.061  15.680  1.00  0.00    -0.502 OA
ATOM     12  H   UNL     1       1.569 -11.906  16.256  1.00  0.00     0.293 HD
ENDBRANCH   4  11
TORSDOF 3
ENDMDL
MODEL 4
REMARK VINA RESULT:    -3.661      0.103      2.826
REMARK INTER + INTRA:          -3.982
REMARK INTER:                  -3.982
REMARK INTRA:                   0.000
REMARK UNBOUND:                 0.000
REMARK SMILES Oc1cccc(O)c1O
REMARK SMILES IDX 4 1 5 2 6 3 8 4 2 5 3 6 7 7 1 9 9 11
REMARK H PARENT 7 8 1 10 9 12
REMARK Flexibility Score: inf
ROOT
ATOM      1  C   UNL     1       4.144 -15.698  17.371  1.00  0.00     0.008 A 
ATOM      2  C   UNL     1       4.314 -16.552  16.283  1.00  0.00     0.050 A 
ATOM      3  C   UNL     1       3.750 -16.237  15.042  1.00  0.00     0.161 A 
ATOM      4  C   UNL     1       3.005 -15.052  14.885  1.00  0.00     0.200 A 
ATOM      5  C   UNL     1       2.835 -14.186  15.994  1.00  0.00     0.161 A 
ATOM      6  C   UNL     1       3.407 -14.521  17.227  1.00  0.00     0.050 A 
ENDROOT
BRANCH   3   7
ATOM      7  O   UNL     1       3.942 -17.116  13.976  1.00  0.00    -0.504 OA
ATOM      8  H   UNL     1       4.782 -17.105  13.411  1.00  0.00     0.293 HD
ENDBRANCH   3   7
BRANCH   5   9
ATOM      9  O   UNL     1       2.110 -12.993  15.918  1.00  0.00    -0.504 OA
ATOM     10  H   UNL     1       1.550 -12.721  15.124  1.00  0.00     0.293 HD
ENDBRANCH   5   9
BRANCH   4  11
ATOM     11  O   UNL     1       2.458 -14.772  13.629  1.00  0.00    -0.502 OA
ATOM     12  H   UNL     1       2.965 -14.852  12.761  1.00  0.00     0.293 HD
ENDBRANCH   4  11
TORSDOF 3
ENDMDL
MODEL 5
REMARK VINA RESULT:    -3.544      0.927      2.811
REMARK INTER + INTRA:          -3.855
REMARK INTER:                  -3.855
REMARK INTRA:                   0.000
REMARK UNBOUND:                 0.000
REMARK SMILES Oc1cccc(O)c1O
REMARK SMILES IDX 4 1 5 2 6 3 8 4 2 5 3 6 7 7 1 9 9 11
REMARK H PARENT 7 8 1 10 9 12
REMARK Flexibility Score: inf
ROOT
ATOM      1  C   UNL     1       3.185 -14.595  17.223  1.00  0.00     0.008 A 
ATOM      2  C   UNL     1       4.027 -15.698  17.364  1.00  0.00     0.050 A 
ATOM      3  C   UNL     1       4.286 -16.532  16.272  1.00  0.00     0.161 A 
ATOM      4  C   UNL     1       3.697 -16.263  15.021  1.00  0.00     0.200 A 
ATOM      5  C   UNL     1       2.842 -15.141  14.882  1.00  0.00     0.161 A 
ATOM      6  C   UNL     1       2.596 -14.320  15.989  1.00  0.00     0.050 A 
ENDROOT
BRANCH   3   7
ATOM      7  O   UNL     1       5.134 -17.626  16.451  1.00  0.00    -0.504 OA
ATOM      8  H   UNL     1       6.097 -17.620  16.137  1.00  0.00     0.293 HD
ENDBRANCH   3   7
BRANCH   5   9
ATOM      9  O   UNL     1       2.221 -14.808  13.675  1.00  0.00    -0.504 OA
ATOM     10  H   UNL     1       2.625 -14.974  12.766  1.00  0.00     0.293 HD
ENDBRANCH   5   9
BRANCH   4  11
ATOM     11  O   UNL     1       3.982 -17.121  13.954  1.00  0.00    -0.502 OA
ATOM     12  H   UNL     1       4.250 -18.087  14.061  1.00  0.00     0.293 HD
ENDBRANCH   4  11
TORSDOF 3
ENDMDL
MODEL 6
REMARK VINA RESULT:    -3.496      0.931      1.960
REMARK INTER + INTRA:          -3.803
REMARK INTER:                  -3.803
REMARK INTRA:                   0.000
REMARK UNBOUND:                 0.000
REMARK SMILES Oc1cccc(O)c1O
REMARK SMILES IDX 4 1 5 2 6 3 8 4 2 5 3 6 7 7 1 9 9 11
REMARK H PARENT 7 8 1 10 9 12
REMARK Flexibility Score: inf
ROOT
ATOM      1  C   UNL     1       3.191 -14.580  17.215  1.00  0.00     0.008 A 
ATOM      2  C   UNL     1       2.652 -14.274  15.966  1.00  0.00     0.050 A 
ATOM      3  C   UNL     1       2.916 -15.094  14.863  1.00  0.00     0.161 A 
ATOM      4  C   UNL     1       3.730 -16.235  15.009  1.00  0.00     0.200 A 
ATOM      5  C   UNL     1       4.275 -16.542  16.281  1.00  0.00     0.161 A 
ATOM      6  C   UNL     1       3.998 -15.708  17.370  1.00  0.00     0.050 A 
ENDROOT
BRANCH   3   7
ATOM      7  O   UNL     1       2.360 -14.756  13.629  1.00  0.00    -0.504 OA
ATOM      8  H   UNL     1       2.043 -15.456  12.969  1.00  0.00     0.293 HD
ENDBRANCH   3   7
BRANCH   5   9
ATOM      9  O   UNL     1       5.090 -17.655  16.505  1.00  0.00    -0.504 OA
ATOM     10  H   UNL     1       4.746 -18.599  16.597  1.00  0.00     0.293 HD
ENDBRANCH   5   9
BRANCH   4  11
ATOM     11  O   UNL     1       3.969 -17.028  13.883  1.00  0.00    -0.502 OA
ATOM     12  H   UNL     1       3.500 -16.911  12.997  1.00  0.00     0.293 HD
ENDBRANCH   4  11
TORSDOF 3
ENDMDL
MODEL 7
REMARK VINA RESULT:    -3.449     12.870     14.362
REMARK INTER + INTRA:          -3.751
REMARK INTER:                  -3.751
REMARK INTRA:                   0.000
REMARK UNBOUND:                 0.000
REMARK SMILES Oc1cccc(O)c1O
REMARK SMILES IDX 4 1 5 2 6 3 8 4 2 5 3 6 7 7 1 9 9 11
REMARK H PARENT 7 8 1 10 9 12
REMARK Flexibility Score: inf
ROOT
ATOM      1  C   UNL     1       2.849 -23.796   3.190  1.00  0.00     0.008 A 
ATOM      2  C   UNL     1       1.567 -24.315   3.012  1.00  0.00     0.050 A 
ATOM      3  C   UNL     1       0.736 -24.537   4.115  1.00  0.00     0.161 A 
ATOM      4  C   UNL     1       1.191 -24.237   5.415  1.00  0.00     0.200 A 
ATOM      5  C   UNL     1       2.495 -23.710   5.590  1.00  0.00     0.161 A 
ATOM      6  C   UNL     1       3.309 -23.496   4.472  1.00  0.00     0.050 A 
ENDROOT
BRANCH   3   7
ATOM      7  O   UNL     1      -0.540 -25.057   3.899  1.00  0.00    -0.504 OA
ATOM      8  H   UNL     1      -0.825 -25.958   4.262  1.00  0.00     0.293 HD
ENDBRANCH   3   7
BRANCH   5   9
ATOM      9  O   UNL     1       3.017 -23.388   6.846  1.00  0.00    -0.504 OA
ATOM     10  H   UNL     1       2.454 -23.179   7.657  1.00  0.00     0.293 HD
ENDBRANCH   5   9
BRANCH   4  11
ATOM     11  O   UNL     1       0.330 -24.473   6.490  1.00  0.00    -0.502 OA
ATOM     12  H   UNL     1       0.226 -25.366   6.948  1.00  0.00     0.293 HD
ENDBRANCH   4  11
TORSDOF 3
ENDMDL
MODEL 8
REMARK VINA RESULT:    -2.263     17.596     18.791
REMARK INTER + INTRA:          -2.461
REMARK INTER:                  -2.461
REMARK INTRA:                   0.000
REMARK UNBOUND:                 0.000
REMARK SMILES Oc1cccc(O)c1O
REMARK SMILES IDX 4 1 5 2 6 3 8 4 2 5 3 6 7 7 1 9 9 11
REMARK H PARENT 7 8 1 10 9 12
REMARK Flexibility Score: inf
ROOT
ATOM      1  C   UNL     1     -10.129  -6.107   4.295  1.00  0.00     0.008 A 
ATOM      2  C   UNL     1     -11.063  -7.142   4.299  1.00  0.00     0.050 A 
ATOM      3  C   UNL     1     -11.179  -7.983   5.411  1.00  0.00     0.161 A 
ATOM      4  C   UNL     1     -10.352  -7.789   6.535  1.00  0.00     0.200 A 
ATOM      5  C   UNL     1      -9.404  -6.735   6.526  1.00  0.00     0.161 A 
ATOM      6  C   UNL     1      -9.304  -5.906   5.402  1.00  0.00     0.050 A 
ENDROOT
BRANCH   3   7
ATOM      7  O   UNL     1     -12.125  -9.008   5.379  1.00  0.00    -0.504 OA
ATOM      8  H   UNL     1     -12.984  -8.968   5.915  1.00  0.00     0.293 HD
ENDBRANCH   3   7
BRANCH   5   9
ATOM      9  O   UNL     1      -8.548  -6.478   7.601  1.00  0.00    -0.504 OA
ATOM     10  H   UNL     1      -8.587  -5.645   8.168  1.00  0.00     0.293 HD
ENDBRANCH   5   9
BRANCH   4  11
ATOM     11  O   UNL     1     -10.500  -8.650   7.625  1.00  0.00    -0.502 OA
ATOM     12  H   UNL     1     -11.386  -9.011   7.946  1.00  0.00     0.293 HD
ENDBRANCH   4  11
TORSDOF 3
ENDMDL
