MODEL 1
REMARK VINA RESULT:    -3.284      0.000      0.000
REMARK INTER + INTRA:          -3.284
REMARK INTER:                  -3.284
REMARK INTRA:                   0.000
REMARK UNBOUND:                 0.000
REMARK SMILES CC1(C)[C@@H]2CC[C@@]1(C)C(=O)C2
REMARK SMILES IDX 1 1 2 2 4 3 5 4 6 5 7 6 9 7 10 8 11 9 8 10 3 11
REMARK H PARENT
REMARK Flexibility Score: inf
ROOT
ATOM      1  C   UNL     1     148.011 145.950 146.786  1.00  0.00     0.012 C 
ATOM      2  C   UNL     1     148.413 144.642 146.036  1.00  0.00    -0.020 C 
ATOM      3  C   UNL     1     147.260 144.021 145.212  1.00  0.00     0.003 C 
ATOM      4  C   UNL     1     147.967 142.864 144.454  1.00  0.00     0.005 C 
ATOM      5  C   UNL     1     149.368 143.451 144.151  1.00  0.00     0.015 C 
ATOM      6  C   UNL     1     149.288 144.861 144.782  1.00  0.00     0.032 C 
ATOM      7  C   UNL     1     148.329 145.623 143.902  1.00  0.00     0.139 C 
ATOM      8  O   UNL     1     148.632 146.457 143.063  1.00  0.00    -0.299 OA
ATOM      9  C   UNL     1     146.943 145.111 144.150  1.00  0.00     0.080 C 
ATOM     10  C   UNL     1     150.643 145.542 145.005  1.00  0.00     0.020 C 
ATOM     11  C   UNL     1     149.008 143.682 147.110  1.00  0.00     0.012 C 
ENDROOT
TORSDOF 0
ENDMDL
MODEL 2
REMARK VINA RESULT:    -3.280     16.213     17.562
REMARK INTER + INTRA:          -3.280
REMARK INTER:                  -3.280
REMARK INTRA:                   0.000
REMARK UNBOUND:                 0.000
REMARK SMILES CC1(C)[C@@H]2CC[C@@]1(C)C(=O)C2
REMARK SMILES IDX 1 1 2 2 4 3 5 4 6 5 7 6 9 7 10 8 11 9 8 10 3 11
REMARK H PARENT
REMARK Flexibility Score: inf
ROOT
ATOM      1  C   UNL     1     133.624 135.666 146.745  1.00  0.00     0.012 C 
ATOM      2  C   UNL     1     133.278 136.954 145.934  1.00  0.00    -0.020 C 
ATOM      3  C   UNL     1     134.453 137.479 145.075  1.00  0.00     0.003 C 
ATOM      4  C   UNL     1     133.796 138.631 144.265  1.00  0.00     0.005 C 
ATOM      5  C   UNL     1     132.368 138.096 143.997  1.00  0.00     0.015 C 
ATOM      6  C   UNL     1     132.385 136.716 144.696  1.00  0.00     0.032 C 
ATOM      7  C   UNL     1     133.302 135.868 143.850  1.00  0.00     0.139 C 
ATOM      8  O   UNL     1     132.954 135.009 143.053  1.00  0.00    -0.299 OA
ATOM      9  C   UNL     1     134.712 136.326 144.066  1.00  0.00     0.080 C 
ATOM     10  C   UNL     1     131.002 136.110 144.958  1.00  0.00     0.020 C 
ATOM     11  C   UNL     1     132.736 137.990 146.963  1.00  0.00     0.012 C 
ENDROOT
TORSDOF 0
ENDMDL
MODEL 3
REMARK VINA RESULT:    -3.271     10.968     12.443
REMARK INTER + INTRA:          -3.271
REMARK INTER:                  -3.271
REMARK INTRA:                   0.000
REMARK UNBOUND:                 0.000
REMARK SMILES CC1(C)[C@@H]2CC[C@@]1(C)C(=O)C2
REMARK SMILES IDX 1 1 2 2 4 3 5 4 6 5 7 6 9 7 10 8 11 9 8 10 3 11
REMARK H PARENT
REMARK Flexibility Score: inf
ROOT
ATOM      1  C   UNL     1     145.919 133.575 146.812  1.00  0.00     0.012 C 
ATOM      2  C   UNL     1     144.622 133.188 146.035  1.00  0.00    -0.020 C 
ATOM      3  C   UNL     1     144.023 134.352 145.210  1.00  0.00     0.003 C 
ATOM      4  C   UNL     1     142.875 133.659 144.425  1.00  0.00     0.005 C 
ATOM      5  C   UNL     1     143.459 132.257 144.120  1.00  0.00     0.015 C 
ATOM      6  C   UNL     1     144.858 132.323 144.778  1.00  0.00     0.032 C 
ATOM      7  C   UNL     1     145.642 133.285 143.920  1.00  0.00     0.139 C 
ATOM      8  O   UNL     1     146.489 132.983 143.094  1.00  0.00    -0.299 OA
ATOM      9  C   UNL     1     145.134 134.671 144.171  1.00  0.00     0.080 C 
ATOM     10  C   UNL     1     145.528 130.962 145.001  1.00  0.00     0.020 C 
ATOM     11  C   UNL     1     143.640 132.591 147.087  1.00  0.00     0.012 C 
ENDROOT
TORSDOF 0
ENDMDL
MODEL 4
REMARK VINA RESULT:    -3.259     10.965     12.426
REMARK INTER + INTRA:          -3.259
REMARK INTER:                  -3.259
REMARK INTRA:                   0.000
REMARK UNBOUND:                 0.000
REMARK SMILES CC1(C)[C@@H]2CC[C@@]1(C)C(=O)C2
REMARK SMILES IDX 1 1 2 2 4 3 5 4 6 5 7 6 9 7 10 8 11 9 8 10 3 11
REMARK H PARENT
REMARK Flexibility Score: inf
ROOT
ATOM      1  C   UNL     1     135.717 147.889 146.777  1.00  0.00     0.012 C 
ATOM      2  C   UNL     1     136.990 148.255 145.952  1.00  0.00    -0.020 C 
ATOM      3  C   UNL     1     137.531 147.086 145.095  1.00  0.00     0.003 C 
ATOM      4  C   UNL     1     138.662 147.760 144.271  1.00  0.00     0.005 C 
ATOM      5  C   UNL     1     138.097 149.177 144.001  1.00  0.00     0.015 C 
ATOM      6  C   UNL     1     136.724 149.136 144.712  1.00  0.00     0.032 C 
ATOM      7  C   UNL     1     135.886 148.199 143.879  1.00  0.00     0.139 C 
ATOM      8  O   UNL     1     135.014 148.526 143.089  1.00  0.00    -0.299 OA
ATOM      9  C   UNL     1     136.373 146.799 144.098  1.00  0.00     0.080 C 
ATOM     10  C   UNL     1     136.093 150.509 144.973  1.00  0.00     0.020 C 
ATOM     11  C   UNL     1     138.025 148.822 146.969  1.00  0.00     0.012 C 
ENDROOT
TORSDOF 0
ENDMDL
MODEL 5
REMARK VINA RESULT:    -3.225     10.487     11.681
REMARK INTER + INTRA:          -3.225
REMARK INTER:                  -3.225
REMARK INTRA:                   0.000
REMARK UNBOUND:                 0.000
REMARK SMILES CC1(C)[C@@H]2CC[C@@]1(C)C(=O)C2
REMARK SMILES IDX 1 1 2 2 4 3 5 4 6 5 7 6 9 7 10 8 11 9 8 10 3 11
REMARK H PARENT
REMARK Flexibility Score: inf
ROOT
ATOM      1  C   UNL     1     143.307 134.808 146.981  1.00  0.00     0.012 C 
ATOM      2  C   UNL     1     143.748 133.661 146.019  1.00  0.00    -0.020 C 
ATOM      3  C   UNL     1     142.696 133.319 144.938  1.00  0.00     0.003 C 
ATOM      4  C   UNL     1     143.447 132.297 144.041  1.00  0.00     0.005 C 
ATOM      5  C   UNL     1     144.903 132.826 144.056  1.00  0.00     0.015 C 
ATOM      6  C   UNL     1     144.802 134.072 144.966  1.00  0.00     0.032 C 
ATOM      7  C   UNL     1     144.014 135.075 144.161  1.00  0.00     0.139 C 
ATOM      8  O   UNL     1     144.472 136.042 143.572  1.00  0.00    -0.299 OA
ATOM      9  C   UNL     1     142.584 134.630 144.110  1.00  0.00     0.080 C 
ATOM     10  C   UNL     1     146.142 134.585 145.506  1.00  0.00     0.020 C 
ATOM     11  C   UNL     1     144.139 132.454 146.923  1.00  0.00     0.012 C 
ENDROOT
TORSDOF 0
ENDMDL
MODEL 6
REMARK VINA RESULT:    -3.225      9.567     11.193
REMARK INTER + INTRA:          -3.225
REMARK INTER:                  -3.225
REMARK INTRA:                   0.000
REMARK UNBOUND:                 0.000
REMARK SMILES CC1(C)[C@@H]2CC[C@@]1(C)C(=O)C2
REMARK SMILES IDX 1 1 2 2 4 3 5 4 6 5 7 6 9 7 10 8 11 9 8 10 3 11
REMARK H PARENT
REMARK Flexibility Score: inf
ROOT
ATOM      1  C   UNL     1     136.601 146.037 146.122  1.00  0.00     0.012 C 
ATOM      2  C   UNL     1     136.979 147.110 145.054  1.00  0.00    -0.020 C 
ATOM      3  C   UNL     1     137.630 148.379 145.653  1.00  0.00     0.003 C 
ATOM      4  C   UNL     1     138.051 149.177 144.389  1.00  0.00     0.005 C 
ATOM      5  C   UNL     1     138.476 148.063 143.400  1.00  0.00     0.015 C 
ATOM      6  C   UNL     1     138.234 146.773 144.218  1.00  0.00     0.032 C 
ATOM      7  C   UNL     1     139.296 146.792 145.290  1.00  0.00     0.139 C 
ATOM      8  O   UNL     1     140.318 146.124 145.299  1.00  0.00    -0.299 OA
ATOM      9  C   UNL     1     138.944 147.848 146.293  1.00  0.00     0.080 C 
ATOM     10  C   UNL     1     138.176 145.486 143.387  1.00  0.00     0.020 C 
ATOM     11  C   UNL     1     135.684 147.393 144.236  1.00  0.00     0.012 C 
ENDROOT
TORSDOF 0
ENDMDL
MODEL 7
REMARK VINA RESULT:    -3.214     14.536     15.816
REMARK INTER + INTRA:          -3.214
REMARK INTER:                  -3.214
REMARK INTRA:                   0.000
REMARK UNBOUND:                 0.000
REMARK SMILES CC1(C)[C@@H]2CC[C@@]1(C)C(=O)C2
REMARK SMILES IDX 1 1 2 2 4 3 5 4 6 5 7 6 9 7 10 8 11 9 8 10 3 11
REMARK H PARENT
REMARK Flexibility Score: inf
ROOT
ATOM      1  C   UNL     1     135.493 136.722 146.152  1.00  0.00     0.012 C 
ATOM      2  C   UNL     1     134.438 137.053 145.051  1.00  0.00    -0.020 C 
ATOM      3  C   UNL     1     133.151 137.712 145.603  1.00  0.00     0.003 C 
ATOM      4  C   UNL     1     132.374 138.081 144.310  1.00  0.00     0.005 C 
ATOM      5  C   UNL     1     133.504 138.484 143.329  1.00  0.00     0.015 C 
ATOM      6  C   UNL     1     134.780 138.282 144.180  1.00  0.00     0.032 C 
ATOM      7  C   UNL     1     134.730 139.379 145.214  1.00  0.00     0.139 C 
ATOM      8  O   UNL     1     135.388 140.408 145.202  1.00  0.00    -0.299 OA
ATOM      9  C   UNL     1     133.658 139.051 146.208  1.00  0.00     0.080 C 
ATOM     10  C   UNL     1     136.083 138.209 143.377  1.00  0.00     0.020 C 
ATOM     11  C   UNL     1     134.183 135.728 144.272  1.00  0.00     0.012 C 
ENDROOT
TORSDOF 0
ENDMDL
MODEL 8
REMARK VINA RESULT:    -3.209     15.156     16.433
REMARK INTER + INTRA:          -3.209
REMARK INTER:                  -3.209
REMARK INTRA:                   0.000
REMARK UNBOUND:                 0.000
REMARK SMILES CC1(C)[C@@H]2CC[C@@]1(C)C(=O)C2
REMARK SMILES IDX 1 1 2 2 4 3 5 4 6 5 7 6 9 7 10 8 11 9 8 10 3 11
REMARK H PARENT
REMARK Flexibility Score: inf
ROOT
ATOM      1  C   UNL     1     134.942 138.369 146.842  1.00  0.00     0.012 C 
ATOM      2  C   UNL     1     133.707 137.945 145.987  1.00  0.00    -0.020 C 
ATOM      3  C   UNL     1     133.403 138.909 144.817  1.00  0.00     0.003 C 
ATOM      4  C   UNL     1     132.267 138.174 144.054  1.00  0.00     0.005 C 
ATOM      5  C   UNL     1     132.660 136.682 144.200  1.00  0.00     0.015 C 
ATOM      6  C   UNL     1     133.960 136.754 145.036  1.00  0.00     0.032 C 
ATOM      7  C   UNL     1     134.983 137.354 144.104  1.00  0.00     0.139 C 
ATOM      8  O   UNL     1     135.869 136.746 143.523  1.00  0.00    -0.299 OA
ATOM      9  C   UNL     1     134.670 138.808 143.922  1.00  0.00     0.080 C 
ATOM     10  C   UNL     1     134.377 135.433 145.691  1.00  0.00     0.020 C 
ATOM     11  C   UNL     1     132.522 137.768 146.983  1.00  0.00     0.012 C 
ENDROOT
TORSDOF 0
ENDMDL
MODEL 9
REMARK VINA RESULT:    -3.193     10.353     11.766
REMARK INTER + INTRA:          -3.193
REMARK INTER:                  -3.193
REMARK INTRA:                   0.000
REMARK UNBOUND:                 0.000
REMARK SMILES CC1(C)[C@@H]2CC[C@@]1(C)C(=O)C2
REMARK SMILES IDX 1 1 2 2 4 3 5 4 6 5 7 6 9 7 10 8 11 9 8 10 3 11
REMARK H PARENT
REMARK Flexibility Score: inf
ROOT
ATOM      1  C   UNL     1     138.351 146.702 146.907  1.00  0.00     0.012 C 
ATOM      2  C   UNL     1     137.898 147.916 146.038  1.00  0.00    -0.020 C 
ATOM      3  C   UNL     1     138.875 148.252 144.885  1.00  0.00     0.003 C 
ATOM      4  C   UNL     1     138.112 149.355 144.101  1.00  0.00     0.005 C 
ATOM      5  C   UNL     1     136.634 148.907 144.219  1.00  0.00     0.015 C 
ATOM      6  C   UNL     1     136.738 147.614 145.063  1.00  0.00     0.032 C 
ATOM      7  C   UNL     1     137.396 146.610 144.149  1.00  0.00     0.139 C 
ATOM      8  O   UNL     1     136.835 145.699 143.561  1.00  0.00    -0.299 OA
ATOM      9  C   UNL     1     138.840 146.978 143.995  1.00  0.00     0.080 C 
ATOM     10  C   UNL     1     135.420 147.150 145.693  1.00  0.00     0.020 C 
ATOM     11  C   UNL     1     137.656 149.099 147.023  1.00  0.00     0.012 C 
ENDROOT
TORSDOF 0
ENDMDL
