MODEL 1
REMARK VINA RESULT:    -4.872      0.000      0.000
REMARK INTER + INTRA:          -5.547
REMARK INTER:                  -5.299
REMARK INTRA:                  -0.248
REMARK UNBOUND:                -0.248
REMARK SMILES O=C([O-])c1ccccc1O
REMARK SMILES IDX 4 1 9 2 5 3 8 4 6 5 7 6 2 7 1 8 3 9 10 10
REMARK H PARENT 10 11
REMARK Flexibility Score: inf
ROOT
ATOM      1  C   UNL     1     -24.656 -11.997  -7.154  1.00  0.00     0.039 A 
ATOM      2  C   UNL     1     -26.073 -11.954  -7.161  1.00  0.00     0.124 A 
ATOM      3  C   UNL     1     -23.939 -10.849  -7.540  1.00  0.00     0.014 A 
ATOM      4  C   UNL     1     -26.730 -10.801  -7.609  1.00  0.00     0.047 A 
ATOM      5  C   UNL     1     -24.608  -9.699  -7.964  1.00  0.00     0.001 A 
ATOM      6  C   UNL     1     -26.002  -9.679  -8.007  1.00  0.00     0.004 A 
ENDROOT
BRANCH   1   7
ATOM      7  C   UNL     1     -23.900 -13.216  -6.791  1.00  0.00     0.075 C 
ATOM      8  O   UNL     1     -24.262 -13.917  -5.810  1.00  0.00    -0.545 OA
ATOM      9  O   UNL     1     -22.745 -13.567  -7.480  1.00  0.00    -0.545 OA
ENDBRANCH   1   7
BRANCH   2  10
ATOM     10  O   UNL     1     -26.859 -13.013  -6.701  1.00  0.00    -0.507 OA
ATOM     11  H   UNL     1     -27.424 -12.963  -5.865  1.00  0.00     0.293 HD
ENDBRANCH   2  10
TORSDOF 2
ENDMDL
MODEL 2
REMARK VINA RESULT:    -4.811      9.341     10.434
REMARK INTER + INTRA:          -5.481
REMARK INTER:                  -5.236
REMARK INTRA:                  -0.245
REMARK UNBOUND:                -0.248
REMARK SMILES O=C([O-])c1ccccc1O
REMARK SMILES IDX 4 1 9 2 5 3 8 4 6 5 7 6 2 7 1 8 3 9 10 10
REMARK H PARENT 10 11
REMARK Flexibility Score: inf
ROOT
ATOM      1  C   UNL     1     -28.962  -5.642  -0.469  1.00  0.00     0.039 A 
ATOM      2  C   UNL     1     -28.208  -6.324  -1.456  1.00  0.00     0.124 A 
ATOM      3  C   UNL     1     -29.457  -6.367   0.632  1.00  0.00     0.014 A 
ATOM      4  C   UNL     1     -28.022  -7.709  -1.353  1.00  0.00     0.047 A 
ATOM      5  C   UNL     1     -29.245  -7.743   0.731  1.00  0.00     0.001 A 
ATOM      6  C   UNL     1     -28.537  -8.415  -0.265  1.00  0.00     0.004 A 
ENDROOT
BRANCH   1   7
ATOM      7  C   UNL     1     -29.283  -4.201  -0.570  1.00  0.00     0.075 C 
ATOM      8  O   UNL     1     -29.748  -3.729  -1.641  1.00  0.00    -0.545 OA
ATOM      9  O   UNL     1     -29.014  -3.337   0.486  1.00  0.00    -0.545 OA
ENDBRANCH   1   7
BRANCH   2  10
ATOM     10  O   UNL     1     -27.599  -5.665  -2.526  1.00  0.00    -0.507 OA
ATOM     11  H   UNL     1     -26.621  -5.764  -2.757  1.00  0.00     0.293 HD
ENDBRANCH   2  10
TORSDOF 2
ENDMDL
MODEL 3
REMARK VINA RESULT:    -4.775     14.597     15.741
REMARK INTER + INTRA:          -5.442
REMARK INTER:                  -5.206
REMARK INTRA:                  -0.236
REMARK UNBOUND:                -0.248
REMARK SMILES O=C([O-])c1ccccc1O
REMARK SMILES IDX 4 1 9 2 5 3 8 4 6 5 7 6 2 7 1 8 3 9 10 10
REMARK H PARENT 10 11
REMARK Flexibility Score: inf
ROOT
ATOM      1  C   UNL     1     -34.336 -15.869   4.532  1.00  0.00     0.039 A 
ATOM      2  C   UNL     1     -33.325 -16.068   5.505  1.00  0.00     0.124 A 
ATOM      3  C   UNL     1     -34.106 -14.949   3.491  1.00  0.00     0.014 A 
ATOM      4  C   UNL     1     -32.151 -15.306   5.452  1.00  0.00     0.047 A 
ATOM      5  C   UNL     1     -32.921 -14.213   3.439  1.00  0.00     0.001 A 
ATOM      6  C   UNL     1     -31.949 -14.384   4.424  1.00  0.00     0.004 A 
ENDROOT
BRANCH   1   7
ATOM      7  C   UNL     1     -35.641 -16.564   4.587  1.00  0.00     0.075 C 
ATOM      8  O   UNL     1     -36.333 -16.528   5.639  1.00  0.00    -0.545 OA
ATOM      9  O   UNL     1     -36.090 -17.321   3.511  1.00  0.00    -0.545 OA
ENDBRANCH   1   7
BRANCH   2  10
ATOM     10  O   UNL     1     -33.431 -17.030   6.512  1.00  0.00    -0.507 OA
ATOM     11  H   UNL     1     -33.661 -17.997   6.335  1.00  0.00     0.293 HD
ENDBRANCH   2  10
TORSDOF 2
ENDMDL
MODEL 4
REMARK VINA RESULT:    -4.683      8.661      9.429
REMARK INTER + INTRA:          -5.342
REMARK INTER:                  -5.111
REMARK INTRA:                  -0.231
REMARK UNBOUND:                -0.248
REMARK SMILES O=C([O-])c1ccccc1O
REMARK SMILES IDX 4 1 9 2 5 3 8 4 6 5 7 6 2 7 1 8 3 9 10 10
REMARK H PARENT 10 11
REMARK Flexibility Score: inf
ROOT
ATOM      1  C   UNL     1     -28.536  -6.540  -0.797  1.00  0.00     0.039 A 
ATOM      2  C   UNL     1     -28.253  -5.456  -1.664  1.00  0.00     0.124 A 
ATOM      3  C   UNL     1     -29.384  -6.326   0.307  1.00  0.00     0.014 A 
ATOM      4  C   UNL     1     -28.766  -4.185  -1.375  1.00  0.00     0.047 A 
ATOM      5  C   UNL     1     -29.905  -5.058   0.569  1.00  0.00     0.001 A 
ATOM      6  C   UNL     1     -29.589  -3.986  -0.266  1.00  0.00     0.004 A 
ENDROOT
BRANCH   1   7
ATOM      7  C   UNL     1     -27.944  -7.883  -0.984  1.00  0.00     0.075 C 
ATOM      8  O   UNL     1     -28.432  -8.879  -0.388  1.00  0.00    -0.545 OA
ATOM      9  O   UNL     1     -26.805  -8.056  -1.763  1.00  0.00    -0.545 OA
ENDBRANCH   1   7
BRANCH   2  10
ATOM     10  O   UNL     1     -27.503  -5.604  -2.833  1.00  0.00    -0.507 OA
ATOM     11  H   UNL     1     -27.909  -5.602  -3.758  1.00  0.00     0.293 HD
ENDBRANCH   2  10
TORSDOF 2
ENDMDL
MODEL 5
REMARK VINA RESULT:    -4.639      7.414      8.299
REMARK INTER + INTRA:          -5.293
REMARK INTER:                  -5.044
REMARK INTRA:                  -0.249
REMARK UNBOUND:                -0.248
REMARK SMILES O=C([O-])c1ccccc1O
REMARK SMILES IDX 4 1 9 2 5 3 8 4 6 5 7 6 2 7 1 8 3 9 10 10
REMARK H PARENT 10 11
REMARK Flexibility Score: inf
ROOT
ATOM      1  C   UNL     1     -25.403 -11.472  -0.038  1.00  0.00     0.039 A 
ATOM      2  C   UNL     1     -24.330 -10.662   0.412  1.00  0.00     0.124 A 
ATOM      3  C   UNL     1     -25.845 -12.531   0.779  1.00  0.00     0.014 A 
ATOM      4  C   UNL     1     -23.693 -10.964   1.622  1.00  0.00     0.047 A 
ATOM      5  C   UNL     1     -25.213 -12.806   1.992  1.00  0.00     0.001 A 
ATOM      6  C   UNL     1     -24.132 -12.029   2.409  1.00  0.00     0.004 A 
ENDROOT
BRANCH   1   7
ATOM      7  C   UNL     1     -26.052 -11.273  -1.352  1.00  0.00     0.075 C 
ATOM      8  O   UNL     1     -26.392 -10.118  -1.722  1.00  0.00    -0.545 OA
ATOM      9  O   UNL     1     -26.360 -12.358  -2.166  1.00  0.00    -0.545 OA
ENDBRANCH   1   7
BRANCH   2  10
ATOM     10  O   UNL     1     -23.895  -9.535  -0.289  1.00  0.00    -0.507 OA
ATOM     11  H   UNL     1     -24.443  -8.692  -0.382  1.00  0.00     0.293 HD
ENDBRANCH   2  10
TORSDOF 2
ENDMDL
MODEL 6
REMARK VINA RESULT:    -4.607     11.780     12.824
REMARK INTER + INTRA:          -5.259
REMARK INTER:                  -5.011
REMARK INTRA:                  -0.247
REMARK UNBOUND:                -0.248
REMARK SMILES O=C([O-])c1ccccc1O
REMARK SMILES IDX 4 1 9 2 5 3 8 4 6 5 7 6 2 7 1 8 3 9 10 10
REMARK H PARENT 10 11
REMARK Flexibility Score: inf
ROOT
ATOM      1  C   UNL     1     -31.096  -3.875   0.132  1.00  0.00     0.039 A 
ATOM      2  C   UNL     1     -31.434  -2.965  -0.901  1.00  0.00     0.124 A 
ATOM      3  C   UNL     1     -32.122  -4.387   0.949  1.00  0.00     0.014 A 
ATOM      4  C   UNL     1     -32.762  -2.546  -1.050  1.00  0.00     0.047 A 
ATOM      5  C   UNL     1     -33.445  -3.976   0.775  1.00  0.00     0.001 A 
ATOM      6  C   UNL     1     -33.763  -3.049  -0.218  1.00  0.00     0.004 A 
ENDROOT
BRANCH   1   7
ATOM      7  C   UNL     1     -29.701  -4.279   0.410  1.00  0.00     0.075 C 
ATOM      8  O   UNL     1     -28.791  -3.411   0.473  1.00  0.00    -0.545 OA
ATOM      9  O   UNL     1     -29.361  -5.621   0.538  1.00  0.00    -0.545 OA
ENDBRANCH   1   7
BRANCH   2  10
ATOM     10  O   UNL     1     -30.495  -2.485  -1.817  1.00  0.00    -0.507 OA
ATOM     11  H   UNL     1     -29.512  -2.388  -1.606  1.00  0.00     0.293 HD
ENDBRANCH   2  10
TORSDOF 2
ENDMDL
MODEL 7
REMARK VINA RESULT:    -4.605     13.298     14.494
REMARK INTER + INTRA:          -5.256
REMARK INTER:                  -5.004
REMARK INTRA:                  -0.252
REMARK UNBOUND:                -0.248
REMARK SMILES O=C([O-])c1ccccc1O
REMARK SMILES IDX 4 1 9 2 5 3 8 4 6 5 7 6 2 7 1 8 3 9 10 10
REMARK H PARENT 10 11
REMARK Flexibility Score: inf
ROOT
ATOM      1  C   UNL     1     -33.109 -14.492   3.679  1.00  0.00     0.039 A 
ATOM      2  C   UNL     1     -32.241 -14.868   4.735  1.00  0.00     0.124 A 
ATOM      3  C   UNL     1     -34.372 -15.107   3.585  1.00  0.00     0.014 A 
ATOM      4  C   UNL     1     -32.627 -15.881   5.622  1.00  0.00     0.047 A 
ATOM      5  C   UNL     1     -34.750 -16.100   4.489  1.00  0.00     0.001 A 
ATOM      6  C   UNL     1     -33.874 -16.493   5.501  1.00  0.00     0.004 A 
ENDROOT
BRANCH   1   7
ATOM      7  C   UNL     1     -32.723 -13.504   2.647  1.00  0.00     0.075 C 
ATOM      8  O   UNL     1     -33.575 -12.692   2.198  1.00  0.00    -0.545 OA
ATOM      9  O   UNL     1     -31.441 -13.500   2.110  1.00  0.00    -0.545 OA
ENDBRANCH   1   7
BRANCH   2  10
ATOM     10  O   UNL     1     -31.013 -14.240   4.958  1.00  0.00    -0.507 OA
ATOM     11  H   UNL     1     -30.144 -14.742   5.069  1.00  0.00     0.293 HD
ENDBRANCH   2  10
TORSDOF 2
ENDMDL
MODEL 8
REMARK VINA RESULT:    -4.590     11.496     12.527
REMARK INTER + INTRA:          -5.240
REMARK INTER:                  -4.992
REMARK INTRA:                  -0.249
REMARK UNBOUND:                -0.248
REMARK SMILES O=C([O-])c1ccccc1O
REMARK SMILES IDX 4 1 9 2 5 3 8 4 6 5 7 6 2 7 1 8 3 9 10 10
REMARK H PARENT 10 11
REMARK Flexibility Score: inf
ROOT
ATOM      1  C   UNL     1     -27.446 -15.712   4.223  1.00  0.00     0.039 A 
ATOM      2  C   UNL     1     -27.529 -17.061   3.794  1.00  0.00     0.124 A 
ATOM      3  C   UNL     1     -26.809 -14.772   3.391  1.00  0.00     0.014 A 
ATOM      4  C   UNL     1     -26.924 -17.444   2.590  1.00  0.00     0.047 A 
ATOM      5  C   UNL     1     -26.230 -15.166   2.184  1.00  0.00     0.001 A 
ATOM      6  C   UNL     1     -26.279 -16.502   1.788  1.00  0.00     0.004 A 
ENDROOT
BRANCH   1   7
ATOM      7  C   UNL     1     -27.972 -15.260   5.530  1.00  0.00     0.075 C 
ATOM      8  O   UNL     1     -29.129 -15.597   5.898  1.00  0.00    -0.545 OA
ATOM      9  O   UNL     1     -27.230 -14.407   6.338  1.00  0.00    -0.545 OA
ENDBRANCH   1   7
BRANCH   2  10
ATOM     10  O   UNL     1     -28.227 -18.036   4.510  1.00  0.00    -0.507 OA
ATOM     11  H   UNL     1     -27.778 -18.808   4.983  1.00  0.00     0.293 HD
ENDBRANCH   2  10
TORSDOF 2
ENDMDL
MODEL 9
REMARK VINA RESULT:    -4.554     14.559     15.482
REMARK INTER + INTRA:          -5.201
REMARK INTER:                  -5.019
REMARK INTRA:                  -0.182
REMARK UNBOUND:                -0.248
REMARK SMILES O=C([O-])c1ccccc1O
REMARK SMILES IDX 4 1 9 2 5 3 8 4 6 5 7 6 2 7 1 8 3 9 10 10
REMARK H PARENT 10 11
REMARK Flexibility Score: inf
ROOT
ATOM      1  C   UNL     1     -33.073 -15.664   4.895  1.00  0.00     0.039 A 
ATOM      2  C   UNL     1     -33.922 -16.467   5.697  1.00  0.00     0.124 A 
ATOM      3  C   UNL     1     -33.617 -15.007   3.774  1.00  0.00     0.014 A 
ATOM      4  C   UNL     1     -35.262 -16.642   5.329  1.00  0.00     0.047 A 
ATOM      5  C   UNL     1     -34.960 -15.175   3.433  1.00  0.00     0.001 A 
ATOM      6  C   UNL     1     -35.779 -15.999   4.204  1.00  0.00     0.004 A 
ENDROOT
BRANCH   1   7
ATOM      7  C   UNL     1     -31.626 -15.519   5.167  1.00  0.00     0.075 C 
ATOM      8  O   UNL     1     -31.093 -16.156   6.114  1.00  0.00    -0.545 OA
ATOM      9  O   UNL     1     -30.849 -14.631   4.431  1.00  0.00    -0.545 OA
ENDBRANCH   1   7
BRANCH   2  10
ATOM     10  O   UNL     1     -33.487 -17.073   6.878  1.00  0.00    -0.507 OA
ATOM     11  H   UNL     1     -33.121 -16.557   7.666  1.00  0.00     0.293 HD
ENDBRANCH   2  10
TORSDOF 2
ENDMDL
