MODEL 1
REMARK VINA RESULT:    -5.338      0.000      0.000
REMARK INTER + INTRA:          -6.169
REMARK INTER:                  -6.119
REMARK INTRA:                  -0.050
REMARK UNBOUND:                -0.050
REMARK SMILES O=C([O-])c1cc(O)c(O)c(O)c1
REMARK SMILES IDX 4 1 5 2 12 3 6 4 10 5 8 6 2 7 1 8 3 9 7 10 11 12 9 14
REMARK H PARENT 7 11 11 13 9 15
REMARK Flexibility Score: inf
ROOT
ATOM      1  C   UNL     1     -28.415  -6.898  -0.973  1.00  0.00     0.005 A 
ATOM      2  C   UNL     1     -29.062  -6.137   0.017  1.00  0.00     0.060 A 
ATOM      3  C   UNL     1     -28.149  -6.310  -2.220  1.00  0.00     0.060 A 
ATOM      4  C   UNL     1     -29.439  -4.813  -0.235  1.00  0.00     0.162 A 
ATOM      5  C   UNL     1     -28.522  -4.985  -2.478  1.00  0.00     0.162 A 
ATOM      6  C   UNL     1     -29.169  -4.232  -1.485  1.00  0.00     0.200 A 
ENDROOT
BRANCH   1   7
ATOM      7  C   UNL     1     -28.018  -8.300  -0.706  1.00  0.00     0.072 C 
ATOM      8  O   UNL     1     -28.728  -9.038   0.027  1.00  0.00    -0.545 OA
ATOM      9  O   UNL     1     -26.855  -8.820  -1.262  1.00  0.00    -0.545 OA
ENDBRANCH   1   7
BRANCH   4  10
ATOM     10  O   UNL     1     -30.079  -4.091   0.772  1.00  0.00    -0.504 OA
ATOM     11  H   UNL     1     -29.676  -3.975   1.693  1.00  0.00     0.293 HD
ENDBRANCH   4  10
BRANCH   5  12
ATOM     12  O   UNL     1     -28.252  -4.413  -3.722  1.00  0.00    -0.504 OA
ATOM     13  H   UNL     1     -28.987  -4.229  -4.393  1.00  0.00     0.293 HD
ENDBRANCH   5  12
BRANCH   6  14
ATOM     14  O   UNL     1     -29.547  -2.910  -1.725  1.00  0.00    -0.502 OA
ATOM     15  H   UNL     1     -28.870  -2.183  -1.926  1.00  0.00     0.293 HD
ENDBRANCH   6  14
TORSDOF 4
ENDMDL
MODEL 2
REMARK VINA RESULT:    -5.333      0.095      2.429
REMARK INTER + INTRA:          -6.162
REMARK INTER:                  -6.112
REMARK INTRA:                  -0.050
REMARK UNBOUND:                -0.050
REMARK SMILES O=C([O-])c1cc(O)c(O)c(O)c1
REMARK SMILES IDX 4 1 5 2 12 3 6 4 10 5 8 6 2 7 1 8 3 9 7 10 11 12 9 14
REMARK H PARENT 7 11 11 13 9 15
REMARK Flexibility Score: inf
ROOT
ATOM      1  C   UNL     1     -28.390  -6.947  -1.007  1.00  0.00     0.005 A 
ATOM      2  C   UNL     1     -28.197  -6.354  -2.267  1.00  0.00     0.060 A 
ATOM      3  C   UNL     1     -28.989  -6.193   0.016  1.00  0.00     0.060 A 
ATOM      4  C   UNL     1     -28.592  -5.033  -2.502  1.00  0.00     0.162 A 
ATOM      5  C   UNL     1     -29.389  -4.871  -0.213  1.00  0.00     0.162 A 
ATOM      6  C   UNL     1     -29.191  -4.285  -1.474  1.00  0.00     0.200 A 
ENDROOT
BRANCH   1   7
ATOM      7  C   UNL     1     -27.971  -8.345  -0.759  1.00  0.00     0.072 C 
ATOM      8  O   UNL     1     -28.640  -9.088   0.005  1.00  0.00    -0.545 OA
ATOM      9  O   UNL     1     -26.830  -8.856  -1.367  1.00  0.00    -0.545 OA
ENDBRANCH   1   7
BRANCH   4  10
ATOM     10  O   UNL     1     -28.382  -4.480  -3.766  1.00  0.00    -0.504 OA
ATOM     11  H   UNL     1     -28.881  -3.660  -4.086  1.00  0.00     0.293 HD
ENDBRANCH   4  10
BRANCH   5  12
ATOM     12  O   UNL     1     -29.983  -4.133   0.812  1.00  0.00    -0.504 OA
ATOM     13  H   UNL     1     -29.980  -3.121   0.808  1.00  0.00     0.293 HD
ENDBRANCH   5  12
BRANCH   6  14
ATOM     14  O   UNL     1     -29.583  -2.969  -1.719  1.00  0.00    -0.502 OA
ATOM     15  H   UNL     1     -29.874  -2.655  -2.637  1.00  0.00     0.293 HD
ENDBRANCH   6  14
TORSDOF 4
ENDMDL
MODEL 3
REMARK VINA RESULT:    -5.316      6.089      7.030
REMARK INTER + INTRA:          -6.143
REMARK INTER:                  -6.098
REMARK INTRA:                  -0.045
REMARK UNBOUND:                -0.050
REMARK SMILES O=C([O-])c1cc(O)c(O)c(O)c1
REMARK SMILES IDX 4 1 5 2 12 3 6 4 10 5 8 6 2 7 1 8 3 9 7 10 11 12 9 14
REMARK H PARENT 7 11 11 13 9 15
REMARK Flexibility Score: inf
ROOT
ATOM      1  C   UNL     1     -31.786 -10.396   2.050  1.00  0.00     0.005 A 
ATOM      2  C   UNL     1     -32.040  -9.226   2.787  1.00  0.00     0.060 A 
ATOM      3  C   UNL     1     -32.848 -11.020   1.374  1.00  0.00     0.060 A 
ATOM      4  C   UNL     1     -33.330  -8.689   2.851  1.00  0.00     0.162 A 
ATOM      5  C   UNL     1     -34.142 -10.487   1.432  1.00  0.00     0.162 A 
ATOM      6  C   UNL     1     -34.388  -9.319   2.172  1.00  0.00     0.200 A 
ENDROOT
BRANCH   1   7
ATOM      7  C   UNL     1     -30.421 -10.964   1.984  1.00  0.00     0.072 C 
ATOM      8  O   UNL     1     -29.521 -10.394   1.313  1.00  0.00    -0.545 OA
ATOM      9  O   UNL     1     -30.113 -12.138   2.663  1.00  0.00    -0.545 OA
ENDBRANCH   1   7
BRANCH   4  10
ATOM     10  O   UNL     1     -33.542  -7.528   3.593  1.00  0.00    -0.504 OA
ATOM     11  H   UNL     1     -34.388  -7.375   4.127  1.00  0.00     0.293 HD
ENDBRANCH   4  10
BRANCH   5  12
ATOM     12  O   UNL     1     -35.187 -11.116   0.756  1.00  0.00    -0.504 OA
ATOM     13  H   UNL     1     -36.099 -10.685   0.667  1.00  0.00     0.293 HD
ENDBRANCH   5  12
BRANCH   6  14
ATOM     14  O   UNL     1     -35.670  -8.774   2.240  1.00  0.00    -0.502 OA
ATOM     15  H   UNL     1     -36.018  -8.125   1.545  1.00  0.00     0.293 HD
ENDBRANCH   6  14
TORSDOF 4
ENDMDL
MODEL 4
REMARK VINA RESULT:    -5.314      6.094      7.221
REMARK INTER + INTRA:          -6.141
REMARK INTER:                  -6.095
REMARK INTRA:                  -0.045
REMARK UNBOUND:                -0.050
REMARK SMILES O=C([O-])c1cc(O)c(O)c(O)c1
REMARK SMILES IDX 4 1 5 2 12 3 6 4 10 5 8 6 2 7 1 8 3 9 7 10 11 12 9 14
REMARK H PARENT 7 11 11 13 9 15
REMARK Flexibility Score: inf
ROOT
ATOM      1  C   UNL     1     -31.802 -10.390   2.042  1.00  0.00     0.005 A 
ATOM      2  C   UNL     1     -32.869 -10.998   1.358  1.00  0.00     0.060 A 
ATOM      3  C   UNL     1     -32.047  -9.229   2.794  1.00  0.00     0.060 A 
ATOM      4  C   UNL     1     -34.158 -10.456   1.421  1.00  0.00     0.162 A 
ATOM      5  C   UNL     1     -33.335  -8.682   2.863  1.00  0.00     0.162 A 
ATOM      6  C   UNL     1     -34.395  -9.295   2.175  1.00  0.00     0.200 A 
ENDROOT
BRANCH   1   7
ATOM      7  C   UNL     1     -30.439 -10.964   1.975  1.00  0.00     0.072 C 
ATOM      8  O   UNL     1     -29.533 -10.387   1.316  1.00  0.00    -0.545 OA
ATOM      9  O   UNL     1     -30.139 -12.148   2.638  1.00  0.00    -0.545 OA
ENDBRANCH   1   7
BRANCH   4  10
ATOM     10  O   UNL     1     -35.190 -11.088   0.728  1.00  0.00    -0.504 OA
ATOM     11  H   UNL     1     -36.164 -10.875   0.898  1.00  0.00     0.293 HD
ENDBRANCH   4  10
BRANCH   5  12
ATOM     12  O   UNL     1     -33.564  -7.529   3.612  1.00  0.00    -0.504 OA
ATOM     13  H   UNL     1     -33.727  -6.632   3.171  1.00  0.00     0.293 HD
ENDBRANCH   5  12
BRANCH   6  14
ATOM     14  O   UNL     1     -35.684  -8.763   2.232  1.00  0.00    -0.502 OA
ATOM     15  H   UNL     1     -35.918  -7.869   1.818  1.00  0.00     0.293 HD
ENDBRANCH   6  14
TORSDOF 4
ENDMDL
MODEL 5
REMARK VINA RESULT:    -5.071      9.762     12.011
REMARK INTER + INTRA:          -5.862
REMARK INTER:                  -5.811
REMARK INTRA:                  -0.051
REMARK UNBOUND:                -0.050
REMARK SMILES O=C([O-])c1cc(O)c(O)c(O)c1
REMARK SMILES IDX 4 1 5 2 12 3 6 4 10 5 8 6 2 7 1 8 3 9 7 10 11 12 9 14
REMARK H PARENT 7 11 11 13 9 15
REMARK Flexibility Score: inf
ROOT
ATOM      1  C   UNL     1     -33.928 -15.387   4.074  1.00  0.00     0.005 A 
ATOM      2  C   UNL     1     -33.202 -16.181   4.979  1.00  0.00     0.060 A 
ATOM      3  C   UNL     1     -33.315 -14.253   3.518  1.00  0.00     0.060 A 
ATOM      4  C   UNL     1     -31.887 -15.849   5.323  1.00  0.00     0.162 A 
ATOM      5  C   UNL     1     -31.998 -13.915   3.856  1.00  0.00     0.162 A 
ATOM      6  C   UNL     1     -31.279 -14.713   4.762  1.00  0.00     0.200 A 
ENDROOT
BRANCH   1   7
ATOM      7  C   UNL     1     -35.320 -15.738   3.711  1.00  0.00     0.072 C 
ATOM      8  O   UNL     1     -35.703 -16.938   3.729  1.00  0.00    -0.545 OA
ATOM      9  O   UNL     1     -36.224 -14.747   3.345  1.00  0.00    -0.545 OA
ENDBRANCH   1   7
BRANCH   4  10
ATOM     10  O   UNL     1     -31.200 -16.662   6.224  1.00  0.00    -0.504 OA
ATOM     11  H   UNL     1     -31.676 -17.204   6.933  1.00  0.00     0.293 HD
ENDBRANCH   4  10
BRANCH   5  12
ATOM     12  O   UNL     1     -31.400 -12.786   3.296  1.00  0.00    -0.504 OA
ATOM     13  H   UNL     1     -31.827 -11.870   3.364  1.00  0.00     0.293 HD
ENDBRANCH   5  12
BRANCH   6  14
ATOM     14  O   UNL     1     -29.967 -14.391   5.111  1.00  0.00    -0.502 OA
ATOM     15  H   UNL     1     -29.331 -15.075   5.504  1.00  0.00     0.293 HD
ENDBRANCH   6  14
TORSDOF 4
ENDMDL
MODEL 6
REMARK VINA RESULT:    -5.050      9.700     12.092
REMARK INTER + INTRA:          -5.838
REMARK INTER:                  -5.787
REMARK INTRA:                  -0.051
REMARK UNBOUND:                -0.050
REMARK SMILES O=C([O-])c1cc(O)c(O)c(O)c1
REMARK SMILES IDX 4 1 5 2 12 3 6 4 10 5 8 6 2 7 1 8 3 9 7 10 11 12 9 14
REMARK H PARENT 7 11 11 13 9 15
REMARK Flexibility Score: inf
ROOT
ATOM      1  C   UNL     1     -34.023 -15.404   4.000  1.00  0.00     0.005 A 
ATOM      2  C   UNL     1     -33.437 -14.304   3.350  1.00  0.00     0.060 A 
ATOM      3  C   UNL     1     -33.267 -16.123   4.940  1.00  0.00     0.060 A 
ATOM      4  C   UNL     1     -32.120 -13.928   3.632  1.00  0.00     0.162 A 
ATOM      5  C   UNL     1     -31.948 -15.751   5.229  1.00  0.00     0.162 A 
ATOM      6  C   UNL     1     -31.369 -14.652   4.574  1.00  0.00     0.200 A 
ENDROOT
BRANCH   1   7
ATOM      7  C   UNL     1     -35.418 -15.802   3.700  1.00  0.00     0.072 C 
ATOM      8  O   UNL     1     -35.785 -16.999   3.834  1.00  0.00    -0.545 OA
ATOM      9  O   UNL     1     -36.342 -14.858   3.267  1.00  0.00    -0.545 OA
ENDBRANCH   1   7
BRANCH   4  10
ATOM     10  O   UNL     1     -31.574 -12.831   2.966  1.00  0.00    -0.504 OA
ATOM     11  H   UNL     1     -30.829 -12.927   2.288  1.00  0.00     0.293 HD
ENDBRANCH   4  10
BRANCH   5  12
ATOM     12  O   UNL     1     -31.207 -16.474   6.164  1.00  0.00    -0.504 OA
ATOM     13  H   UNL     1     -30.204 -16.366   6.245  1.00  0.00     0.293 HD
ENDBRANCH   5  12
BRANCH   6  14
ATOM     14  O   UNL     1     -30.056 -14.268   4.849  1.00  0.00    -0.502 OA
ATOM     15  H   UNL     1     -29.538 -13.644   4.242  1.00  0.00     0.293 HD
ENDBRANCH   6  14
TORSDOF 4
ENDMDL
MODEL 7
REMARK VINA RESULT:    -4.971      6.529      7.530
REMARK INTER + INTRA:          -5.748
REMARK INTER:                  -5.695
REMARK INTRA:                  -0.053
REMARK UNBOUND:                -0.050
REMARK SMILES O=C([O-])c1cc(O)c(O)c(O)c1
REMARK SMILES IDX 4 1 5 2 12 3 6 4 10 5 8 6 2 7 1 8 3 9 7 10 11 12 9 14
REMARK H PARENT 7 11 11 13 9 15
REMARK Flexibility Score: inf
ROOT
ATOM      1  C   UNL     1     -25.432 -12.184   1.749  1.00  0.00     0.005 A 
ATOM      2  C   UNL     1     -26.281 -12.731   0.771  1.00  0.00     0.060 A 
ATOM      3  C   UNL     1     -24.571 -11.132   1.394  1.00  0.00     0.060 A 
ATOM      4  C   UNL     1     -26.271 -12.238  -0.538  1.00  0.00     0.162 A 
ATOM      5  C   UNL     1     -24.556 -10.633   0.086  1.00  0.00     0.162 A 
ATOM      6  C   UNL     1     -25.407 -11.186  -0.886  1.00  0.00     0.200 A 
ENDROOT
BRANCH   1   7
ATOM      7  C   UNL     1     -25.442 -12.706   3.134  1.00  0.00     0.072 C 
ATOM      8  O   UNL     1     -26.092 -13.746   3.422  1.00  0.00    -0.545 OA
ATOM      9  O   UNL     1     -24.734 -12.055   4.138  1.00  0.00    -0.545 OA
ENDBRANCH   1   7
BRANCH   4  10
ATOM     10  O   UNL     1     -27.128 -12.807  -1.480  1.00  0.00    -0.504 OA
ATOM     11  H   UNL     1     -27.912 -13.388  -1.214  1.00  0.00     0.293 HD
ENDBRANCH   4  10
BRANCH   5  12
ATOM     12  O   UNL     1     -23.697  -9.589  -0.254  1.00  0.00    -0.504 OA
ATOM     13  H   UNL     1     -23.229  -9.034   0.453  1.00  0.00     0.293 HD
ENDBRANCH   5  12
BRANCH   6  14
ATOM     14  O   UNL     1     -25.406 -10.701  -2.194  1.00  0.00    -0.502 OA
ATOM     15  H   UNL     1     -25.145  -9.747  -2.416  1.00  0.00     0.293 HD
ENDBRANCH   6  14
TORSDOF 4
ENDMDL
MODEL 8
REMARK VINA RESULT:    -4.902      6.582      7.458
REMARK INTER + INTRA:          -5.669
REMARK INTER:                  -5.622
REMARK INTRA:                  -0.046
REMARK UNBOUND:                -0.050
REMARK SMILES O=C([O-])c1cc(O)c(O)c(O)c1
REMARK SMILES IDX 4 1 5 2 12 3 6 4 10 5 8 6 2 7 1 8 3 9 7 10 11 12 9 14
REMARK H PARENT 7 11 11 13 9 15
REMARK Flexibility Score: inf
ROOT
ATOM      1  C   UNL     1     -25.791 -12.743   1.229  1.00  0.00     0.005 A 
ATOM      2  C   UNL     1     -24.897 -12.004   2.023  1.00  0.00     0.060 A 
ATOM      3  C   UNL     1     -25.995 -12.359  -0.107  1.00  0.00     0.060 A 
ATOM      4  C   UNL     1     -24.221 -10.899   1.495  1.00  0.00     0.162 A 
ATOM      5  C   UNL     1     -25.320 -11.255  -0.642  1.00  0.00     0.162 A 
ATOM      6  C   UNL     1     -24.430 -10.520   0.158  1.00  0.00     0.200 A 
ENDROOT
BRANCH   1   7
ATOM      7  C   UNL     1     -26.508 -13.912   1.789  1.00  0.00     0.072 C 
ATOM      8  O   UNL     1     -27.766 -13.938   1.818  1.00  0.00    -0.545 OA
ATOM      9  O   UNL     1     -25.800 -14.998   2.291  1.00  0.00    -0.545 OA
ENDBRANCH   1   7
BRANCH   4  10
ATOM     10  O   UNL     1     -23.343 -10.190   2.315  1.00  0.00    -0.504 OA
ATOM     11  H   UNL     1     -23.069 -10.525   3.230  1.00  0.00     0.293 HD
ENDBRANCH   4  10
BRANCH   5  12
ATOM     12  O   UNL     1     -25.531 -10.884  -1.970  1.00  0.00    -0.504 OA
ATOM     13  H   UNL     1     -25.761  -9.932  -2.226  1.00  0.00     0.293 HD
ENDBRANCH   5  12
BRANCH   6  14
ATOM     14  O   UNL     1     -23.749  -9.418  -0.359  1.00  0.00    -0.502 OA
ATOM     15  H   UNL     1     -23.175  -8.818   0.221  1.00  0.00     0.293 HD
ENDBRANCH   6  14
TORSDOF 4
ENDMDL
MODEL 9
REMARK VINA RESULT:    -4.866      6.609      7.700
REMARK INTER + INTRA:          -5.628
REMARK INTER:                  -5.582
REMARK INTRA:                  -0.046
REMARK UNBOUND:                -0.050
REMARK SMILES O=C([O-])c1cc(O)c(O)c(O)c1
REMARK SMILES IDX 4 1 5 2 12 3 6 4 10 5 8 6 2 7 1 8 3 9 7 10 11 12 9 14
REMARK H PARENT 7 11 11 13 9 15
REMARK Flexibility Score: inf
ROOT
ATOM      1  C   UNL     1     -25.854 -12.742   1.217  1.00  0.00     0.005 A 
ATOM      2  C   UNL     1     -25.987 -12.396  -0.140  1.00  0.00     0.060 A 
ATOM      3  C   UNL     1     -25.018 -11.969   2.038  1.00  0.00     0.060 A 
ATOM      4  C   UNL     1     -25.298 -11.299  -0.667  1.00  0.00     0.162 A 
ATOM      5  C   UNL     1     -24.326 -10.868   1.518  1.00  0.00     0.162 A 
ATOM      6  C   UNL     1     -24.464 -10.529   0.162  1.00  0.00     0.200 A 
ENDROOT
BRANCH   1   7
ATOM      7  C   UNL     1     -26.582 -13.904   1.773  1.00  0.00     0.072 C 
ATOM      8  O   UNL     1     -27.842 -13.923   1.791  1.00  0.00    -0.545 OA
ATOM      9  O   UNL     1     -25.886 -14.993   2.286  1.00  0.00    -0.545 OA
ENDBRANCH   1   7
BRANCH   4  10
ATOM     10  O   UNL     1     -25.457 -10.988  -2.017  1.00  0.00    -0.504 OA
ATOM     11  H   UNL     1     -25.204 -11.635  -2.753  1.00  0.00     0.293 HD
ENDBRANCH   4  10
BRANCH   5  12
ATOM     12  O   UNL     1     -23.499 -10.108   2.345  1.00  0.00    -0.504 OA
ATOM     13  H   UNL     1     -23.761  -9.884   3.297  1.00  0.00     0.293 HD
ENDBRANCH   5  12
BRANCH   6  14
ATOM     14  O   UNL     1     -23.782  -9.436  -0.374  1.00  0.00    -0.502 OA
ATOM     15  H   UNL     1     -22.969  -9.034   0.077  1.00  0.00     0.293 HD
ENDBRANCH   6  14
TORSDOF 4
ENDMDL
