MODEL 1
REMARK VINA RESULT:    -4.862      0.000      0.000
REMARK INTER + INTRA:          -7.092
REMARK INTER:                  -7.420
REMARK INTRA:                   0.328
REMARK UNBOUND:                 0.328
REMARK SMILES CC1=CCC[C@H](C)C(=O)C[C@@H](C(C)C)C(=O)C1
REMARK SMILES IDX 8 1 9 2 6 3 7 4 5 5 4 6 3 7 2 8 1 9 10 11 11 12 15 13 16 14
REMARK SMILES IDX 17 15 12 17 13 18 14 19
REMARK H PARENT
REMARK Flexibility Score: 70.00
ROOT
ATOM      1  C   UNL     1      28.013 -22.320  19.159  1.00  0.00     0.136 C 
ATOM      2  O   UNL     1      29.050 -22.150  19.785  1.00  0.00    -0.299 OA
ENDROOT
BRANCH   1   3
ATOM      3  C   UNL     1      27.445 -23.718  19.013  1.00  0.00     0.053 C 
ATOM      4  C   UNL     1      28.489 -24.768  19.418  1.00  0.00     0.016 C 
BRANCH   3   5
ATOM      5  C   UNL     1      26.157 -23.862  19.855  1.00  0.00     0.015 C 
BRANCH   5   6
ATOM      6  C   UNL     1      24.895 -23.972  18.977  1.00  0.00     0.028 C 
BRANCH   6   7
ATOM      7  C   UNL     1      23.744 -23.201  19.569  1.00  0.00    -0.028 C 
ATOM      8  C   UNL     1      23.527 -21.876  19.403  1.00  0.00    -0.070 CG0
ATOM      9  C   UNL     1      22.354 -21.258  20.122  1.00  0.00     0.039 C 
ATOM     10  G   UNL     1      24.410 -20.985  18.545  1.00  0.00     0.000 G0
ENDBRANCH   6   7
ENDBRANCH   5   6
ENDBRANCH   3   5
ENDBRANCH   1   3
BRANCH   1  11
ATOM     11  C   UNL     1      27.322 -21.126  18.541  1.00  0.00     0.087 C 
BRANCH  11  12
ATOM     12  C   UNL     1      26.683 -20.195  19.604  1.00  0.00     0.066 C 
BRANCH  12  13
ATOM     13  C   UNL     1      25.202 -19.978  19.317  1.00  0.00     0.140 C 
ATOM     14  O   UNL     1      24.676 -18.939  19.692  1.00  0.00    -0.299 OA
BRANCH  13  15
ATOM     15  C   UNL     1      24.385 -20.973  18.523  1.00  0.00     0.106 CG0
ATOM     16  G   UNL     1      23.545 -21.871  19.416  1.00  0.00     0.000 G0
ENDBRANCH  13  15
ENDBRANCH  12  13
BRANCH  12  17
ATOM     17  C   UNL     1      27.442 -18.837  19.762  1.00  0.00    -0.006 C 
ATOM     18  C   UNL     1      27.279 -18.276  21.188  1.00  0.00     0.008 C 
ATOM     19  C   UNL     1      28.944 -18.964  19.451  1.00  0.00     0.008 C 
ENDBRANCH  12  17
ENDBRANCH  11  12
ENDBRANCH   1  11
TORSDOF 1
ENDMDL
MODEL 2
REMARK VINA RESULT:    -4.765      1.960      4.218
REMARK INTER + INTRA:          -6.944
REMARK INTER:                  -7.047
REMARK INTRA:                   0.103
REMARK UNBOUND:                 0.328
REMARK SMILES CC1=CCC[C@H](C)C(=O)C[C@@H](C(C)C)C(=O)C1
REMARK SMILES IDX 8 1 9 2 6 3 7 4 5 5 4 6 3 7 2 8 1 9 10 11 11 12 15 13 16 14
REMARK SMILES IDX 17 15 12 17 13 18 14 19
REMARK H PARENT
REMARK Flexibility Score: 70.00
ROOT
ATOM      1  C   UNL     1      26.303 -24.213  19.014  1.00  0.00     0.136 C 
ATOM      2  O   UNL     1      26.671 -25.088  18.242  1.00  0.00    -0.299 OA
ENDROOT
BRANCH   1   3
ATOM      3  C   UNL     1      27.326 -23.283  19.634  1.00  0.00     0.053 C 
ATOM      4  C   UNL     1      28.584 -24.061  20.045  1.00  0.00     0.016 C 
BRANCH   3   5
ATOM      5  C   UNL     1      27.677 -22.142  18.651  1.00  0.00     0.015 C 
BRANCH   5   6
ATOM      6  C   UNL     1      27.154 -20.775  19.135  1.00  0.00     0.028 C 
BRANCH   6   7
ATOM      7  C   UNL     1      26.211 -20.161  18.133  1.00  0.00    -0.028 C 
ATOM      8  C   UNL     1      24.863 -20.127  18.251  1.00  0.00    -0.070 CG0
ATOM      9  C   UNL     1      24.071 -19.524  17.118  1.00  0.00     0.039 C 
ATOM     10  G   UNL     1      24.116 -20.675  19.456  1.00  0.00     0.000 G0
ENDBRANCH   6   7
ENDBRANCH   5   6
ENDBRANCH   3   5
ENDBRANCH   1   3
BRANCH   1  11
ATOM     11  C   UNL     1      24.832 -24.084  19.334  1.00  0.00     0.087 C 
BRANCH  11  12
ATOM     12  C   UNL     1      24.098 -23.117  18.368  1.00  0.00     0.066 C 
BRANCH  12  13
ATOM     13  C   UNL     1      23.418 -21.992  19.139  1.00  0.00     0.140 C 
ATOM     14  O   UNL     1      22.287 -22.173  19.569  1.00  0.00    -0.299 OA
BRANCH  13  15
ATOM     15  C   UNL     1      24.124 -20.691  19.448  1.00  0.00     0.106 CG0
ATOM     16  G   UNL     1      24.853 -20.129  18.238  1.00  0.00     0.000 G0
ENDBRANCH  13  15
ENDBRANCH  12  13
BRANCH  12  17
ATOM     17  C   UNL     1      23.095 -23.848  17.417  1.00  0.00    -0.006 C 
ATOM     18  C   UNL     1      22.589 -22.899  16.314  1.00  0.00     0.008 C 
ATOM     19  C   UNL     1      23.716 -25.090  16.752  1.00  0.00     0.008 C 
ENDBRANCH  12  17
ENDBRANCH  11  12
ENDBRANCH   1  11
TORSDOF 1
ENDMDL
MODEL 3
REMARK VINA RESULT:    -4.649      2.866      5.052
REMARK INTER + INTRA:          -6.766
REMARK INTER:                  -6.880
REMARK INTRA:                   0.114
REMARK UNBOUND:                 0.328
REMARK SMILES CC1=CCC[C@H](C)C(=O)C[C@@H](C(C)C)C(=O)C1
REMARK SMILES IDX 8 1 9 2 6 3 7 4 5 5 4 6 3 7 2 8 1 9 10 11 11 12 15 13 16 14
REMARK SMILES IDX 17 15 12 17 13 18 14 19
REMARK H PARENT
REMARK Flexibility Score: 70.00
ROOT
ATOM      1  C   UNL     1      24.728 -19.799  18.964  1.00  0.00     0.136 C 
ATOM      2  O   UNL     1      24.771 -19.007  18.033  1.00  0.00    -0.299 OA
ENDROOT
BRANCH   1   3
ATOM      3  C   UNL     1      24.818 -19.288  20.388  1.00  0.00     0.053 C 
ATOM      4  C   UNL     1      25.929 -18.236  20.514  1.00  0.00     0.016 C 
BRANCH   3   5
ATOM      5  C   UNL     1      23.456 -18.711  20.836  1.00  0.00     0.015 C 
BRANCH   5   6
ATOM      6  C   UNL     1      22.713 -19.653  21.803  1.00  0.00     0.028 C 
BRANCH   6   7
ATOM      7  C   UNL     1      21.391 -20.097  21.233  1.00  0.00    -0.028 C 
ATOM      8  C   UNL     1      21.116 -21.343  20.781  1.00  0.00    -0.070 CG0
ATOM      9  C   UNL     1      19.754 -21.593  20.185  1.00  0.00     0.039 C 
ATOM     10  G   UNL     1      22.112 -22.490  20.835  1.00  0.00     0.000 G0
ENDBRANCH   6   7
ENDBRANCH   5   6
ENDBRANCH   3   5
ENDBRANCH   1   3
BRANCH   1  11
ATOM     11  C   UNL     1      24.589 -21.275  18.669  1.00  0.00     0.087 C 
BRANCH  11  12
ATOM     12  C   UNL     1      23.109 -21.710  18.507  1.00  0.00     0.066 C 
BRANCH  12  13
ATOM     13  C   UNL     1      22.753 -22.807  19.504  1.00  0.00     0.140 C 
ATOM     14  O   UNL     1      23.052 -23.962  19.239  1.00  0.00    -0.299 OA
BRANCH  13  15
ATOM     15  C   UNL     1      22.107 -22.500  20.837  1.00  0.00     0.106 CG0
ATOM     16  G   UNL     1      21.127 -21.342  20.750  1.00  0.00     0.000 G0
ENDBRANCH  13  15
ENDBRANCH  12  13
BRANCH  12  17
ATOM     17  C   UNL     1      22.752 -22.127  17.044  1.00  0.00    -0.006 C 
ATOM     18  C   UNL     1      21.226 -22.197  16.846  1.00  0.00     0.008 C 
ATOM     19  C   UNL     1      23.341 -21.163  15.998  1.00  0.00     0.008 C 
ENDBRANCH  12  17
ENDBRANCH  11  12
ENDBRANCH   1  11
TORSDOF 1
ENDMDL
MODEL 4
REMARK VINA RESULT:    -4.641      2.848      4.818
REMARK INTER + INTRA:          -6.755
REMARK INTER:                  -6.806
REMARK INTRA:                   0.051
REMARK UNBOUND:                 0.328
REMARK SMILES CC1=CCC[C@H](C)C(=O)C[C@@H](C(C)C)C(=O)C1
REMARK SMILES IDX 8 1 9 2 6 3 7 4 5 5 4 6 3 7 2 8 1 9 10 11 11 12 15 13 16 14
REMARK SMILES IDX 17 15 12 17 13 18 14 19
REMARK H PARENT
REMARK Flexibility Score: 70.00
ROOT
ATOM      1  C   UNL     1      22.367 -22.766  16.217  1.00  0.00     0.136 C 
ATOM      2  O   UNL     1      22.651 -22.131  15.211  1.00  0.00    -0.299 OA
ENDROOT
BRANCH   1   3
ATOM      3  C   UNL     1      22.146 -24.262  16.122  1.00  0.00     0.053 C 
ATOM      4  C   UNL     1      21.213 -24.595  14.948  1.00  0.00     0.016 C 
BRANCH   3   5
ATOM      5  C   UNL     1      23.499 -24.995  15.978  1.00  0.00     0.015 C 
BRANCH   5   6
ATOM      6  C   UNL     1      23.878 -25.774  17.253  1.00  0.00     0.028 C 
BRANCH   6   7
ATOM      7  C   UNL     1      25.136 -25.230  17.878  1.00  0.00    -0.028 C 
ATOM      8  C   UNL     1      25.183 -24.458  18.989  1.00  0.00    -0.070 CG0
ATOM      9  C   UNL     1      26.531 -23.950  19.438  1.00  0.00     0.039 C 
ATOM     10  G   UNL     1      23.952 -24.072  19.792  1.00  0.00     0.000 G0
ENDBRANCH   6   7
ENDBRANCH   5   6
ENDBRANCH   3   5
ENDBRANCH   1   3
BRANCH   1  11
ATOM     11  C   UNL     1      22.241 -22.039  17.536  1.00  0.00     0.087 C 
BRANCH  11  12
ATOM     12  C   UNL     1      23.598 -21.919  18.279  1.00  0.00     0.066 C 
BRANCH  12  13
ATOM     13  C   UNL     1      23.544 -22.625  19.628  1.00  0.00     0.140 C 
ATOM     14  O   UNL     1      23.109 -22.014  20.594  1.00  0.00    -0.299 OA
BRANCH  13  15
ATOM     15  C   UNL     1      23.941 -24.075  19.791  1.00  0.00     0.106 CG0
ATOM     16  G   UNL     1      25.182 -24.427  18.987  1.00  0.00     0.000 G0
ENDBRANCH  13  15
ENDBRANCH  12  13
BRANCH  12  17
ATOM     17  C   UNL     1      24.087 -20.441  18.424  1.00  0.00    -0.006 C 
ATOM     18  C   UNL     1      25.515 -20.385  18.999  1.00  0.00     0.008 C 
ATOM     19  C   UNL     1      24.064 -19.681  17.086  1.00  0.00     0.008 C 
ENDBRANCH  12  17
ENDBRANCH  11  12
ENDBRANCH   1  11
TORSDOF 1
ENDMDL
MODEL 5
REMARK VINA RESULT:    -4.595      3.130      5.347
REMARK INTER + INTRA:          -6.685
REMARK INTER:                  -7.311
REMARK INTRA:                   0.626
REMARK UNBOUND:                 0.328
REMARK SMILES CC1=CCC[C@H](C)C(=O)C[C@@H](C(C)C)C(=O)C1
REMARK SMILES IDX 8 1 9 2 6 3 7 4 5 5 4 6 3 7 2 8 1 9 10 11 11 12 15 13 16 14
REMARK SMILES IDX 17 15 12 17 13 18 14 19
REMARK H PARENT
REMARK Flexibility Score: 70.00
ROOT
ATOM      1  C   UNL     1      23.932 -20.480  19.279  1.00  0.00     0.136 C 
ATOM      2  O   UNL     1      23.974 -19.505  18.542  1.00  0.00    -0.299 OA
ENDROOT
BRANCH   1   3
ATOM      3  C   UNL     1      23.225 -20.379  20.616  1.00  0.00     0.053 C 
ATOM      4  C   UNL     1      23.440 -18.992  21.237  1.00  0.00     0.016 C 
BRANCH   3   5
ATOM      5  C   UNL     1      21.718 -20.683  20.449  1.00  0.00     0.015 C 
BRANCH   5   6
ATOM      6  C   UNL     1      21.400 -22.178  20.644  1.00  0.00     0.028 C 
BRANCH   6   7
ATOM      7  C   UNL     1      22.289 -22.798  21.692  1.00  0.00    -0.028 C 
ATOM      8  C   UNL     1      22.980 -23.952  21.543  1.00  0.00    -0.070 CG0
ATOM      9  C   UNL     1      23.773 -24.456  22.723  1.00  0.00     0.039 C 
ATOM     10  G   UNL     1      22.986 -24.763  20.258  1.00  0.00     0.000 G0
ENDBRANCH   6   7
ENDBRANCH   5   6
ENDBRANCH   3   5
ENDBRANCH   1   3
BRANCH   1  11
ATOM     11  C   UNL     1      24.590 -21.766  18.836  1.00  0.00     0.087 C 
BRANCH  11  12
ATOM     12  C   UNL     1      23.559 -22.870  18.485  1.00  0.00     0.066 C 
BRANCH  12  13
ATOM     13  C   UNL     1      23.894 -24.174  19.199  1.00  0.00     0.140 C 
ATOM     14  O   UNL     1      24.959 -24.723  18.952  1.00  0.00    -0.299 OA
BRANCH  13  15
ATOM     15  C   UNL     1      22.985 -24.769  20.252  1.00  0.00     0.106 CG0
ATOM     16  G   UNL     1      23.001 -23.969  21.545  1.00  0.00     0.000 G0
ENDBRANCH  13  15
ENDBRANCH  12  13
BRANCH  12  17
ATOM     17  C   UNL     1      23.394 -23.085  16.945  1.00  0.00    -0.006 C 
ATOM     18  C   UNL     1      23.042 -24.550  16.626  1.00  0.00     0.008 C 
ATOM     19  C   UNL     1      22.313 -22.174  16.337  1.00  0.00     0.008 C 
ENDBRANCH  12  17
ENDBRANCH  11  12
ENDBRANCH   1  11
TORSDOF 1
ENDMDL
MODEL 6
REMARK VINA RESULT:    -4.582      3.195      4.265
REMARK INTER + INTRA:          -6.664
REMARK INTER:                  -7.492
REMARK INTRA:                   0.827
REMARK UNBOUND:                 0.328
REMARK SMILES CC1=CCC[C@H](C)C(=O)C[C@@H](C(C)C)C(=O)C1
REMARK SMILES IDX 8 1 9 2 6 3 7 4 5 5 4 6 3 7 2 8 1 9 10 11 11 12 15 13 16 14
REMARK SMILES IDX 17 15 12 17 13 18 14 19
REMARK H PARENT
REMARK Flexibility Score: 70.00
ROOT
ATOM      1  C   UNL     1      22.885 -22.928  17.131  1.00  0.00     0.136 C 
ATOM      2  O   UNL     1      23.058 -22.603  15.964  1.00  0.00    -0.299 OA
ENDROOT
BRANCH   1   3
ATOM      3  C   UNL     1      23.438 -24.248  17.630  1.00  0.00     0.053 C 
ATOM      4  C   UNL     1      23.472 -25.282  16.496  1.00  0.00     0.016 C 
BRANCH   3   5
ATOM      5  C   UNL     1      24.846 -24.043  18.235  1.00  0.00     0.015 C 
BRANCH   5   6
ATOM      6  C   UNL     1      24.809 -23.933  19.772  1.00  0.00     0.028 C 
BRANCH   6   7
ATOM      7  C   UNL     1      23.689 -24.754  20.357  1.00  0.00    -0.028 C 
ATOM      8  C   UNL     1      22.748 -24.291  21.212  1.00  0.00    -0.070 CG0
ATOM      9  C   UNL     1      21.735 -25.273  21.746  1.00  0.00     0.039 C 
ATOM     10  G   UNL     1      22.671 -22.842  21.666  1.00  0.00     0.000 G0
ENDBRANCH   6   7
ENDBRANCH   5   6
ENDBRANCH   3   5
ENDBRANCH   1   3
BRANCH   1  11
ATOM     11  C   UNL     1      22.118 -22.003  18.047  1.00  0.00     0.087 C 
BRANCH  11  12
ATOM     12  C   UNL     1      22.927 -21.622  19.316  1.00  0.00     0.066 C 
BRANCH  12  13
ATOM     13  C   UNL     1      22.130 -21.926  20.579  1.00  0.00     0.140 C 
ATOM     14  O   UNL     1      21.002 -21.467  20.687  1.00  0.00    -0.299 OA
BRANCH  13  15
ATOM     15  C   UNL     1      22.664 -22.832  21.666  1.00  0.00     0.106 CG0
ATOM     16  G   UNL     1      22.741 -24.283  21.220  1.00  0.00     0.000 G0
ENDBRANCH  13  15
ENDBRANCH  12  13
BRANCH  12  17
ATOM     17  C   UNL     1      23.431 -20.143  19.297  1.00  0.00    -0.006 C 
ATOM     18  C   UNL     1      23.583 -19.592  20.727  1.00  0.00     0.008 C 
ATOM     19  C   UNL     1      24.776 -19.990  18.564  1.00  0.00     0.008 C 
ENDBRANCH  12  17
ENDBRANCH  11  12
ENDBRANCH   1  11
TORSDOF 1
ENDMDL
MODEL 7
REMARK VINA RESULT:    -4.452      1.773      4.238
REMARK INTER + INTRA:          -6.467
REMARK INTER:                  -6.249
REMARK INTRA:                  -0.218
REMARK UNBOUND:                 0.328
REMARK SMILES CC1=CCC[C@H](C)C(=O)C[C@@H](C(C)C)C(=O)C1
REMARK SMILES IDX 8 1 9 2 6 3 7 4 5 5 4 6 3 7 2 8 1 9 10 11 11 12 15 13 16 14
REMARK SMILES IDX 17 15 12 17 13 18 14 19
REMARK H PARENT
REMARK Flexibility Score: 70.00
ROOT
ATOM      1  C   UNL     1      27.015 -22.008  19.110  1.00  0.00     0.136 C 
ATOM      2  O   UNL     1      28.068 -22.124  18.497  1.00  0.00    -0.299 OA
ENDROOT
BRANCH   1   3
ATOM      3  C   UNL     1      26.362 -20.646  19.227  1.00  0.00     0.053 C 
ATOM      4  C   UNL     1      27.352 -19.622  19.802  1.00  0.00     0.016 C 
BRANCH   3   5
ATOM      5  C   UNL     1      25.830 -20.188  17.850  1.00  0.00     0.015 C 
BRANCH   5   6
ATOM      6  C   UNL     1      24.294 -20.287  17.757  1.00  0.00     0.028 C 
BRANCH   6   7
ATOM      7  C   UNL     1      23.660 -20.307  19.124  1.00  0.00    -0.028 C 
ATOM      8  C   UNL     1      23.025 -21.368  19.673  1.00  0.00    -0.070 CG0
ATOM      9  C   UNL     1      22.394 -21.188  21.031  1.00  0.00     0.039 C 
ATOM     10  G   UNL     1      22.909 -22.720  18.986  1.00  0.00     0.000 G0
ENDBRANCH   6   7
ENDBRANCH   5   6
ENDBRANCH   3   5
ENDBRANCH   1   3
BRANCH   1  11
ATOM     11  C   UNL     1      26.392 -23.232  19.740  1.00  0.00     0.087 C 
BRANCH  11  12
ATOM     12  C   UNL     1      25.299 -23.869  18.842  1.00  0.00     0.066 C 
BRANCH  12  13
ATOM     13  C   UNL     1      23.920 -23.721  19.475  1.00  0.00     0.140 C 
ATOM     14  O   UNL     1      23.651 -24.393  20.461  1.00  0.00    -0.299 OA
BRANCH  13  15
ATOM     15  C   UNL     1      22.907 -22.720  18.967  1.00  0.00     0.106 CG0
ATOM     16  G   UNL     1      23.026 -21.375  19.665  1.00  0.00     0.000 G0
ENDBRANCH  13  15
ENDBRANCH  12  13
BRANCH  12  17
ATOM     17  C   UNL     1      25.603 -25.357  18.471  1.00  0.00    -0.006 C 
ATOM     18  C   UNL     1      24.865 -25.768  17.183  1.00  0.00     0.008 C 
ATOM     19  C   UNL     1      27.108 -25.619  18.282  1.00  0.00     0.008 C 
ENDBRANCH  12  17
ENDBRANCH  11  12
ENDBRANCH   1  11
TORSDOF 1
ENDMDL
MODEL 8
REMARK VINA RESULT:    -4.434      3.146      4.873
REMARK INTER + INTRA:          -6.439
REMARK INTER:                  -7.100
REMARK INTRA:                   0.661
REMARK UNBOUND:                 0.328
REMARK SMILES CC1=CCC[C@H](C)C(=O)C[C@@H](C(C)C)C(=O)C1
REMARK SMILES IDX 8 1 9 2 6 3 7 4 5 5 4 6 3 7 2 8 1 9 10 11 11 12 15 13 16 14
REMARK SMILES IDX 17 15 12 17 13 18 14 19
REMARK H PARENT
REMARK Flexibility Score: 70.00
ROOT
ATOM      1  C   UNL     1      24.011 -24.544  18.794  1.00  0.00     0.136 C 
ATOM      2  O   UNL     1      24.156 -25.729  19.061  1.00  0.00    -0.299 OA
ENDROOT
BRANCH   1   3
ATOM      3  C   UNL     1      23.837 -24.117  17.350  1.00  0.00     0.053 C 
ATOM      4  C   UNL     1      23.698 -25.344  16.438  1.00  0.00     0.016 C 
BRANCH   3   5
ATOM      5  C   UNL     1      22.613 -23.183  17.212  1.00  0.00     0.015 C 
BRANCH   5   6
ATOM      6  C   UNL     1      22.992 -21.810  16.622  1.00  0.00     0.028 C 
BRANCH   6   7
ATOM      7  C   UNL     1      23.760 -20.976  17.615  1.00  0.00    -0.028 C 
ATOM      8  C   UNL     1      23.324 -20.640  18.851  1.00  0.00    -0.070 CG0
ATOM      9  C   UNL     1      24.202 -19.745  19.689  1.00  0.00     0.039 C 
ATOM     10  G   UNL     1      21.997 -21.108  19.426  1.00  0.00     0.000 G0
ENDBRANCH   6   7
ENDBRANCH   5   6
ENDBRANCH   3   5
ENDBRANCH   1   3
BRANCH   1  11
ATOM     11  C   UNL     1      24.010 -23.532  19.916  1.00  0.00     0.087 C 
BRANCH  11  12
ATOM     12  C   UNL     1      22.626 -23.414  20.607  1.00  0.00     0.066 C 
BRANCH  12  13
ATOM     13  C   UNL     1      22.177 -21.959  20.679  1.00  0.00     0.140 C 
ATOM     14  O   UNL     1      22.014 -21.448  21.778  1.00  0.00    -0.299 OA
BRANCH  13  15
ATOM     15  C   UNL     1      21.996 -21.113  19.438  1.00  0.00     0.106 CG0
ATOM     16  G   UNL     1      23.322 -20.644  18.863  1.00  0.00     0.000 G0
ENDBRANCH  13  15
ENDBRANCH  12  13
BRANCH  12  17
ATOM     17  C   UNL     1      22.585 -24.097  22.012  1.00  0.00    -0.006 C 
ATOM     18  C   UNL     1      21.924 -25.485  21.933  1.00  0.00     0.008 C 
ATOM     19  C   UNL     1      23.987 -24.253  22.630  1.00  0.00     0.008 C 
ENDBRANCH  12  17
ENDBRANCH  11  12
ENDBRANCH   1  11
TORSDOF 1
ENDMDL
MODEL 9
REMARK VINA RESULT:    -4.286      4.360      7.480
REMARK INTER + INTRA:          -6.213
REMARK INTER:                  -6.477
REMARK INTRA:                   0.264
REMARK UNBOUND:                 0.328
REMARK SMILES CC1=CCC[C@H](C)C(=O)C[C@@H](C(C)C)C(=O)C1
REMARK SMILES IDX 8 1 9 2 6 3 7 4 5 5 4 6 3 7 2 8 1 9 10 11 11 12 15 13 16 14
REMARK SMILES IDX 17 15 12 17 13 18 14 19
REMARK H PARENT
REMARK Flexibility Score: 70.00
ROOT
ATOM      1  C   UNL     1      18.867 -21.665  18.524  1.00  0.00     0.136 C 
ATOM      2  O   UNL     1      17.836 -22.320  18.464  1.00  0.00    -0.299 OA
ENDROOT
BRANCH   1   3
ATOM      3  C   UNL     1      19.349 -21.149  19.865  1.00  0.00     0.053 C 
ATOM      4  C   UNL     1      18.162 -20.897  20.805  1.00  0.00     0.016 C 
BRANCH   3   5
ATOM      5  C   UNL     1      20.350 -22.146  20.492  1.00  0.00     0.015 C 
BRANCH   5   6
ATOM      6  C   UNL     1      21.795 -21.610  20.474  1.00  0.00     0.028 C 
BRANCH   6   7
ATOM      7  C   UNL     1      22.757 -22.637  19.933  1.00  0.00    -0.028 C 
ATOM      8  C   UNL     1      23.086 -22.784  18.629  1.00  0.00    -0.070 CG0
ATOM      9  C   UNL     1      24.020 -23.909  18.260  1.00  0.00     0.039 C 
ATOM     10  G   UNL     1      22.552 -21.885  17.525  1.00  0.00     0.000 G0
ENDBRANCH   6   7
ENDBRANCH   5   6
ENDBRANCH   3   5
ENDBRANCH   1   3
BRANCH   1  11
ATOM     11  C   UNL     1      19.635 -21.383  17.254  1.00  0.00     0.087 C 
BRANCH  11  12
ATOM     12  C   UNL     1      20.201 -22.673  16.604  1.00  0.00     0.066 C 
BRANCH  12  13
ATOM     13  C   UNL     1      21.721 -22.612  16.509  1.00  0.00     0.140 C 
ATOM     14  O   UNL     1      22.271 -23.129  15.547  1.00  0.00    -0.299 OA
BRANCH  13  15
ATOM     15  C   UNL     1      22.559 -21.871  17.526  1.00  0.00     0.106 CG0
ATOM     16  G   UNL     1      23.073 -22.787  18.625  1.00  0.00     0.000 G0
ENDBRANCH  13  15
ENDBRANCH  12  13
BRANCH  12  17
ATOM     17  C   UNL     1      19.552 -22.995  15.219  1.00  0.00    -0.006 C 
ATOM     18  C   UNL     1      19.669 -24.495  14.889  1.00  0.00     0.008 C 
ATOM     19  C   UNL     1      18.067 -22.591  15.158  1.00  0.00     0.008 C 
ENDBRANCH  12  17
ENDBRANCH  11  12
ENDBRANCH   1  11
TORSDOF 1
ENDMDL
