MODEL 1
REMARK VINA RESULT:     0.667      0.000      0.000
REMARK INTER + INTRA:           7.639
REMARK INTER:                   1.018
REMARK INTRA:                   6.621
REMARK UNBOUND:                 6.621
REMARK SMILES CC1=CCC[C@H](C)C(=O)C[C@@H](C(C)C)C(=O)C1
REMARK SMILES IDX 8 1 9 2 6 3 7 4 5 5 4 6 3 7 2 8 1 9 10 11 11 12 15 13 16 14
REMARK SMILES IDX 17 15 12 17 13 18 14 19
REMARK H PARENT
REMARK Flexibility Score: 70.00
ROOT
ATOM      1  C   UNL     1     -29.216 -10.027  25.352  1.00  0.00     0.136 C 
ATOM      2  O   UNL     1     -29.906  -9.023  25.446  1.00  0.00    -0.299 OA
ENDROOT
BRANCH   1   3
ATOM      3  C   UNL     1     -27.740  -9.848  25.030  1.00  0.00     0.053 C 
ATOM      4  C   UNL     1     -27.404  -8.354  25.033  1.00  0.00     0.016 C 
BRANCH   3   5
ATOM      5  C   UNL     1     -26.764 -10.618  25.951  1.00  0.00     0.015 C 
BRANCH   5   6
ATOM      6  C   UNL     1     -26.686 -12.135  25.662  1.00  0.00     0.028 C 
BRANCH   6   7
ATOM      7  C   UNL     1     -26.640 -12.393  24.174  1.00  0.00    -0.028 C 
ATOM      8  C   UNL     1     -27.309 -13.368  23.519  1.00  0.00    -0.070 CG0
ATOM      9  C   UNL     1     -27.103 -13.491  22.031  1.00  0.00     0.039 C 
ATOM     10  G   UNL     1     -28.269 -14.321  24.208  1.00  0.00     0.000 G0
ENDBRANCH   6   7
ENDBRANCH   5   6
ENDBRANCH   3   5
ENDBRANCH   1   3
BRANCH   1  11
ATOM     11  C   UNL     1     -29.835 -11.371  25.689  1.00  0.00     0.087 C 
BRANCH  11  12
ATOM     12  C   UNL     1     -29.987 -12.358  24.488  1.00  0.00     0.066 C 
BRANCH  12  13
ATOM     13  C   UNL     1     -29.518 -13.775  24.805  1.00  0.00     0.140 C 
ATOM     14  O   UNL     1     -30.108 -14.440  25.643  1.00  0.00    -0.299 OA
BRANCH  13  15
ATOM     15  C   UNL     1     -28.295 -14.373  24.155  1.00  0.00     0.106 CG0
ATOM     16  G   UNL     1     -27.357 -13.330  23.576  1.00  0.00     0.000 G0
ENDBRANCH  13  15
ENDBRANCH  12  13
BRANCH  12  17
ATOM     17  C   UNL     1     -29.424 -11.796  23.144  1.00  0.00    -0.006 C 
ATOM     18  C   UNL     1     -29.693 -12.679  21.915  1.00  0.00     0.008 C 
ATOM     19  C   UNL     1     -29.916 -10.362  22.885  1.00  0.00     0.008 C 
ENDBRANCH  12  17
ENDBRANCH  11  12
ENDBRANCH   1  11
TORSDOF 1
ENDMDL
MODEL 2
REMARK VINA RESULT:     1.550      2.012      3.372
REMARK INTER + INTRA:           8.986
REMARK INTER:                  -2.863
REMARK INTRA:                  11.849
REMARK UNBOUND:                 6.621
REMARK SMILES CC1=CCC[C@H](C)C(=O)C[C@@H](C(C)C)C(=O)C1
REMARK SMILES IDX 8 1 9 2 6 3 7 4 5 5 4 6 3 7 2 8 1 9 10 11 11 12 15 13 16 14
REMARK SMILES IDX 17 15 12 17 13 18 14 19
REMARK H PARENT
REMARK Flexibility Score: 70.00
ROOT
ATOM      1  C   UNL     1     -27.421 -10.607  24.788  1.00  0.00     0.136 C 
ATOM      2  O   UNL     1     -26.868  -9.936  23.930  1.00  0.00    -0.299 OA
ENDROOT
BRANCH   1   3
ATOM      3  C   UNL     1     -28.745 -10.101  25.343  1.00  0.00     0.053 C 
ATOM      4  C   UNL     1     -28.705  -8.572  25.418  1.00  0.00     0.016 C 
BRANCH   3   5
ATOM      5  C   UNL     1     -30.004 -10.566  24.574  1.00  0.00     0.015 C 
BRANCH   5   6
ATOM      6  C   UNL     1     -29.926 -12.018  24.051  1.00  0.00     0.028 C 
BRANCH   6   7
ATOM      7  C   UNL     1     -30.102 -12.055  22.551  1.00  0.00    -0.028 C 
ATOM      8  C   UNL     1     -29.154 -11.749  21.635  1.00  0.00    -0.070 CG0
ATOM      9  C   UNL     1     -29.535 -11.807  20.177  1.00  0.00     0.039 C 
ATOM     10  G   UNL     1     -27.731 -11.377  22.008  1.00  0.00     0.000 G0
ENDBRANCH   6   7
ENDBRANCH   5   6
ENDBRANCH   3   5
ENDBRANCH   1   3
BRANCH   1  11
ATOM     11  C   UNL     1     -26.830 -11.956  25.152  1.00  0.00     0.087 C 
BRANCH  11  12
ATOM     12  C   UNL     1     -27.118 -13.108  24.139  1.00  0.00     0.066 C 
BRANCH  12  13
ATOM     13  C   UNL     1     -27.104 -12.653  22.683  1.00  0.00     0.140 C 
ATOM     14  O   UNL     1     -26.433 -13.257  21.860  1.00  0.00    -0.299 OA
BRANCH  13  15
ATOM     15  C   UNL     1     -27.853 -11.426  22.225  1.00  0.00     0.106 CG0
ATOM     16  G   UNL     1     -29.164 -11.750  21.534  1.00  0.00     0.000 G0
ENDBRANCH  13  15
ENDBRANCH  12  13
BRANCH  12  17
ATOM     17  C   UNL     1     -28.364 -13.973  24.514  1.00  0.00    -0.006 C 
ATOM     18  C   UNL     1     -29.466 -13.217  25.274  1.00  0.00     0.008 C 
ATOM     19  C   UNL     1     -28.954 -14.674  23.279  1.00  0.00     0.008 C 
ENDBRANCH  12  17
ENDBRANCH  11  12
ENDBRANCH   1  11
TORSDOF 1
ENDMDL
MODEL 3
REMARK VINA RESULT:     2.378      1.768      3.604
REMARK INTER + INTRA:          10.250
REMARK INTER:                   4.177
REMARK INTRA:                   6.073
REMARK UNBOUND:                 6.621
REMARK SMILES CC1=CCC[C@H](C)C(=O)C[C@@H](C(C)C)C(=O)C1
REMARK SMILES IDX 8 1 9 2 6 3 7 4 5 5 4 6 3 7 2 8 1 9 10 11 11 12 15 13 16 14
REMARK SMILES IDX 17 15 12 17 13 18 14 19
REMARK H PARENT
REMARK Flexibility Score: 70.00
ROOT
ATOM      1  C   UNL     1     -28.020 -10.492  24.881  1.00  0.00     0.136 C 
ATOM      2  O   UNL     1     -28.196  -9.358  24.461  1.00  0.00    -0.299 OA
ENDROOT
BRANCH   1   3
ATOM      3  C   UNL     1     -29.238 -11.392  25.029  1.00  0.00     0.053 C 
ATOM      4  C   UNL     1     -30.074 -11.320  23.748  1.00  0.00     0.016 C 
BRANCH   3   5
ATOM      5  C   UNL     1     -28.931 -12.866  25.386  1.00  0.00     0.015 C 
BRANCH   5   6
ATOM      6  C   UNL     1     -30.061 -13.854  25.018  1.00  0.00     0.028 C 
BRANCH   6   7
ATOM      7  C   UNL     1     -30.125 -14.058  23.522  1.00  0.00    -0.028 C 
ATOM      8  C   UNL     1     -29.063 -14.118  22.685  1.00  0.00    -0.070 CG0
ATOM      9  C   UNL     1     -29.332 -14.288  21.212  1.00  0.00     0.039 C 
ATOM     10  G   UNL     1     -27.625 -14.045  23.165  1.00  0.00     0.000 G0
ENDBRANCH   6   7
ENDBRANCH   5   6
ENDBRANCH   3   5
ENDBRANCH   1   3
BRANCH   1  11
ATOM     11  C   UNL     1     -26.599 -10.975  25.102  1.00  0.00     0.087 C 
BRANCH  11  12
ATOM     12  C   UNL     1     -26.046 -11.947  24.012  1.00  0.00     0.066 C 
BRANCH  12  13
ATOM     13  C   UNL     1     -27.128 -12.509  23.096  1.00  0.00     0.140 C 
ATOM     14  O   UNL     1     -27.600 -11.814  22.209  1.00  0.00    -0.299 OA
BRANCH  13  15
ATOM     15  C   UNL     1     -27.691 -13.896  23.286  1.00  0.00     0.106 CG0
ATOM     16  G   UNL     1     -29.047 -14.085  22.631  1.00  0.00     0.000 G0
ENDBRANCH  13  15
ENDBRANCH  12  13
BRANCH  12  17
ATOM     17  C   UNL     1     -25.076 -13.032  24.579  1.00  0.00    -0.006 C 
ATOM     18  C   UNL     1     -25.366 -13.461  26.026  1.00  0.00     0.008 C 
ATOM     19  C   UNL     1     -25.015 -14.265  23.662  1.00  0.00     0.008 C 
ENDBRANCH  12  17
ENDBRANCH  11  12
ENDBRANCH   1  11
TORSDOF 1
ENDMDL
MODEL 4
REMARK VINA RESULT:     2.531      1.913      4.381
REMARK INTER + INTRA:          10.484
REMARK INTER:                  -1.930
REMARK INTRA:                  12.414
REMARK UNBOUND:                 6.621
REMARK SMILES CC1=CCC[C@H](C)C(=O)C[C@@H](C(C)C)C(=O)C1
REMARK SMILES IDX 8 1 9 2 6 3 7 4 5 5 4 6 3 7 2 8 1 9 10 11 11 12 15 13 16 14
REMARK SMILES IDX 17 15 12 17 13 18 14 19
REMARK H PARENT
REMARK Flexibility Score: 70.00
ROOT
ATOM      1  C   UNL     1     -27.760 -13.895  23.246  1.00  0.00     0.136 C 
ATOM      2  O   UNL     1     -27.424 -13.877  22.071  1.00  0.00    -0.299 OA
ENDROOT
BRANCH   1   3
ATOM      3  C   UNL     1     -28.617 -15.058  23.722  1.00  0.00     0.053 C 
ATOM      4  C   UNL     1     -29.837 -14.509  24.468  1.00  0.00     0.016 C 
BRANCH   3   5
ATOM      5  C   UNL     1     -29.065 -16.044  22.617  1.00  0.00     0.015 C 
BRANCH   5   6
ATOM      6  C   UNL     1     -30.097 -15.459  21.626  1.00  0.00     0.028 C 
BRANCH   6   7
ATOM      7  C   UNL     1     -29.620 -14.131  21.083  1.00  0.00    -0.028 C 
ATOM      8  C   UNL     1     -29.647 -12.951  21.743  1.00  0.00    -0.070 CG0
ATOM      9  C   UNL     1     -29.161 -11.723  21.016  1.00  0.00     0.039 C 
ATOM     10  G   UNL     1     -30.118 -12.815  23.179  1.00  0.00     0.000 G0
ENDBRANCH   6   7
ENDBRANCH   5   6
ENDBRANCH   3   5
ENDBRANCH   1   3
BRANCH   1  11
ATOM     11  C   UNL     1     -27.199 -12.840  24.181  1.00  0.00     0.087 C 
BRANCH  11  12
ATOM     12  C   UNL     1     -28.255 -11.893  24.832  1.00  0.00     0.066 C 
BRANCH  12  13
ATOM     13  C   UNL     1     -29.485 -11.665  23.959  1.00  0.00     0.140 C 
ATOM     14  O   UNL     1     -30.011 -10.562  23.919  1.00  0.00    -0.299 OA
BRANCH  13  15
ATOM     15  C   UNL     1     -30.125 -12.785  23.176  1.00  0.00     0.106 CG0
ATOM     16  G   UNL     1     -29.581 -12.914  21.766  1.00  0.00     0.000 G0
ENDBRANCH  13  15
ENDBRANCH  12  13
BRANCH  12  17
ATOM     17  C   UNL     1     -27.642 -10.578  25.410  1.00  0.00    -0.006 C 
ATOM     18  C   UNL     1     -26.868  -9.727  24.390  1.00  0.00     0.008 C 
ATOM     19  C   UNL     1     -28.709  -9.723  26.114  1.00  0.00     0.008 C 
ENDBRANCH  12  17
ENDBRANCH  11  12
ENDBRANCH   1  11
TORSDOF 1
ENDMDL
MODEL 5
REMARK VINA RESULT:     2.933      1.674      4.153
REMARK INTER + INTRA:          11.097
REMARK INTER:                   9.889
REMARK INTRA:                   1.208
REMARK UNBOUND:                 6.621
REMARK SMILES CC1=CCC[C@H](C)C(=O)C[C@@H](C(C)C)C(=O)C1
REMARK SMILES IDX 8 1 9 2 6 3 7 4 5 5 4 6 3 7 2 8 1 9 10 11 11 12 15 13 16 14
REMARK SMILES IDX 17 15 12 17 13 18 14 19
REMARK H PARENT
REMARK Flexibility Score: 70.00
ROOT
ATOM      1  C   UNL     1     -28.676 -13.573  25.078  1.00  0.00     0.136 C 
ATOM      2  O   UNL     1     -29.392 -13.659  26.064  1.00  0.00    -0.299 OA
ENDROOT
BRANCH   1   3
ATOM      3  C   UNL     1     -28.875 -14.589  23.964  1.00  0.00     0.053 C 
ATOM      4  C   UNL     1     -29.315 -15.923  24.574  1.00  0.00     0.016 C 
BRANCH   3   5
ATOM      5  C   UNL     1     -29.856 -14.162  22.847  1.00  0.00     0.015 C 
BRANCH   5   6
ATOM      6  C   UNL     1     -29.242 -14.167  21.429  1.00  0.00     0.028 C 
BRANCH   6   7
ATOM      7  C   UNL     1     -27.782 -13.781  21.479  1.00  0.00    -0.028 C 
ATOM      8  C   UNL     1     -27.300 -12.534  21.688  1.00  0.00    -0.070 CG0
ATOM      9  C   UNL     1     -25.806 -12.340  21.664  1.00  0.00     0.039 C 
ATOM     10  G   UNL     1     -28.191 -11.338  21.967  1.00  0.00     0.000 G0
ENDBRANCH   6   7
ENDBRANCH   5   6
ENDBRANCH   3   5
ENDBRANCH   1   3
BRANCH   1  11
ATOM     11  C   UNL     1     -27.731 -12.391  24.965  1.00  0.00     0.087 C 
BRANCH  11  12
ATOM     12  C   UNL     1     -28.388 -11.051  24.504  1.00  0.00     0.066 C 
BRANCH  12  13
ATOM     13  C   UNL     1     -28.915 -11.095  23.073  1.00  0.00     0.140 C 
ATOM     14  O   UNL     1     -30.118 -11.135  22.866  1.00  0.00    -0.299 OA
BRANCH  13  15
ATOM     15  C   UNL     1     -27.988 -11.154  21.884  1.00  0.00     0.106 CG0
ATOM     16  G   UNL     1     -27.374 -12.526  21.674  1.00  0.00     0.000 G0
ENDBRANCH  13  15
ENDBRANCH  12  13
BRANCH  12  17
ATOM     17  C   UNL     1     -27.519  -9.791  24.815  1.00  0.00    -0.006 C 
ATOM     18  C   UNL     1     -26.483  -9.985  25.934  1.00  0.00     0.008 C 
ATOM     19  C   UNL     1     -26.836  -9.253  23.547  1.00  0.00     0.008 C 
ENDBRANCH  12  17
ENDBRANCH  11  12
ENDBRANCH   1  11
TORSDOF 1
ENDMDL
