MODEL 1
REMARK VINA RESULT:    -5.251      0.000      0.000
REMARK INTER + INTRA:          -5.743
REMARK INTER:                  -5.711
REMARK INTRA:                  -0.032
REMARK UNBOUND:                -0.032
REMARK SMILES CC(=O)[C@@H]1CC[C@H]2[C@@H]3CC=C4C[C@H](O)CC[C@]4(C)[C@H]3CC[C@@]12C
REMARK SMILES IDX 4 1 5 2 6 3 7 4 22 5 21 6 20 7 19 8 8 9 9 10 10 11 11 12
REMARK SMILES IDX 17 13 16 14 15 15 13 16 12 17 18 18 23 19 2 20 1 21 3 22
REMARK SMILES IDX 14 23
REMARK H PARENT 14 24
REMARK Flexibility Score: inf
ROOT
ATOM      1  C   UNL     1       2.160 -12.262   9.945  1.00  0.00     0.062 C 
ATOM      2  C   UNL     1       3.578 -12.070  10.500  1.00  0.00     0.012 C 
ATOM      3  C   UNL     1       3.937 -13.352  11.255  1.00  0.00     0.005 C 
ATOM      4  C   UNL     1       2.736 -14.308  11.131  1.00  0.00    -0.001 C 
ATOM      5  C   UNL     1       1.526 -13.386  10.826  1.00  0.00    -0.020 C 
ATOM      6  C   UNL     1       0.916 -12.741  12.131  1.00  0.00     0.008 C 
ATOM      7  C   UNL     1       1.298 -13.424  13.457  1.00  0.00     0.005 C 
ATOM      8  C   UNL     1       1.403 -14.945  13.284  1.00  0.00     0.003 C 
ATOM      9  C   UNL     1       2.600 -15.270  12.362  1.00  0.00     0.000 C 
ATOM     10  C   UNL     1       2.491 -16.739  11.936  1.00  0.00     0.031 C 
ATOM     11  C   UNL     1       2.322 -17.649  13.125  1.00  0.00    -0.027 C 
ATOM     12  C   UNL     1       1.792 -17.251  14.306  1.00  0.00    -0.065 C 
ATOM     13  C   UNL     1       1.467 -15.777  14.619  1.00  0.00    -0.008 C 
ATOM     14  C   UNL     1       0.072 -15.719  15.322  1.00  0.00     0.014 C 
ATOM     15  C   UNL     1      -0.093 -16.734  16.468  1.00  0.00     0.033 C 
ATOM     16  C   UNL     1       0.190 -18.171  16.002  1.00  0.00     0.118 C 
ATOM     17  C   UNL     1       1.594 -18.280  15.403  1.00  0.00     0.063 C 
ATOM     18  C   UNL     1       2.549 -15.217  15.582  1.00  0.00     0.016 C 
ATOM     19  C   UNL     1       0.414 -14.157  10.061  1.00  0.00     0.012 C 
ENDROOT
BRANCH   1  20
ATOM     20  C   UNL     1       2.160 -12.537   8.441  1.00  0.00     0.133 C 
ATOM     21  C   UNL     1       1.044 -12.127   7.518  1.00  0.00     0.088 C 
ATOM     22  O   UNL     1       3.135 -13.086   7.950  1.00  0.00    -0.300 OA
ENDBRANCH   1  20
BRANCH  16  23
ATOM     23  O   UNL     1      -0.760 -18.576  15.049  1.00  0.00    -0.393 OA
ATOM     24  H   UNL     1      -0.308 -19.231  14.455  1.00  0.00     0.210 HD
ENDBRANCH  16  23
TORSDOF 2
ENDMDL
MODEL 2
REMARK VINA RESULT:    -4.940      1.760      7.030
REMARK INTER + INTRA:          -5.405
REMARK INTER:                  -5.370
REMARK INTRA:                  -0.035
REMARK UNBOUND:                -0.032
REMARK SMILES CC(=O)[C@@H]1CC[C@H]2[C@@H]3CC=C4C[C@H](O)CC[C@]4(C)[C@H]3CC[C@@]12C
REMARK SMILES IDX 4 1 5 2 6 3 7 4 22 5 21 6 20 7 19 8 8 9 9 10 10 11 11 12
REMARK SMILES IDX 17 13 16 14 15 15 13 16 12 17 18 18 23 19 2 20 1 21 3 22
REMARK SMILES IDX 14 23
REMARK H PARENT 14 24
REMARK Flexibility Score: inf
ROOT
ATOM      1  C   UNL     1       1.471 -18.366  17.089  1.00  0.00     0.062 C 
ATOM      2  C   UNL     1       2.868 -17.833  17.436  1.00  0.00     0.012 C 
ATOM      3  C   UNL     1       3.066 -16.547  16.632  1.00  0.00     0.005 C 
ATOM      4  C   UNL     1       1.778 -16.311  15.821  1.00  0.00    -0.001 C 
ATOM      5  C   UNL     1       1.114 -17.709  15.717  1.00  0.00    -0.020 C 
ATOM      6  C   UNL     1       1.724 -18.581  14.551  1.00  0.00     0.008 C 
ATOM      7  C   UNL     1       2.515 -17.807  13.481  1.00  0.00     0.005 C 
ATOM      8  C   UNL     1       1.886 -16.433  13.215  1.00  0.00     0.003 C 
ATOM      9  C   UNL     1       2.042 -15.551  14.475  1.00  0.00     0.000 C 
ATOM     10  C   UNL     1       1.133 -14.327  14.317  1.00  0.00     0.031 C 
ATOM     11  C   UNL     1       1.368 -13.627  13.003  1.00  0.00    -0.027 C 
ATOM     12  C   UNL     1       1.863 -14.244  11.902  1.00  0.00    -0.065 C 
ATOM     13  C   UNL     1       2.403 -15.687  11.928  1.00  0.00    -0.008 C 
ATOM     14  C   UNL     1       1.874 -16.433  10.661  1.00  0.00     0.014 C 
ATOM     15  C   UNL     1       2.046 -15.641   9.352  1.00  0.00     0.033 C 
ATOM     16  C   UNL     1       1.398 -14.250   9.438  1.00  0.00     0.118 C 
ATOM     17  C   UNL     1       1.977 -13.455  10.613  1.00  0.00     0.063 C 
ATOM     18  C   UNL     1       3.955 -15.644  11.885  1.00  0.00     0.016 C 
ATOM     19  C   UNL     1      -0.423 -17.586  15.522  1.00  0.00     0.012 C 
ENDROOT
BRANCH   1  20
ATOM     20  C   UNL     1       0.463 -18.117  18.211  1.00  0.00     0.133 C 
ATOM     21  C   UNL     1       0.211 -16.764  18.821  1.00  0.00     0.088 C 
ATOM     22  O   UNL     1      -0.205 -19.058  18.613  1.00  0.00    -0.300 OA
ENDBRANCH   1  20
BRANCH  16  23
ATOM     23  O   UNL     1       0.006 -14.362   9.588  1.00  0.00    -0.393 OA
ATOM     24  H   UNL     1      -0.155 -15.129  10.198  1.00  0.00     0.210 HD
ENDBRANCH  16  23
TORSDOF 2
ENDMDL
MODEL 3
REMARK VINA RESULT:    -4.834     13.307     16.555
REMARK INTER + INTRA:          -5.289
REMARK INTER:                  -5.220
REMARK INTRA:                  -0.069
REMARK UNBOUND:                -0.032
REMARK SMILES CC(=O)[C@@H]1CC[C@H]2[C@@H]3CC=C4C[C@H](O)CC[C@]4(C)[C@H]3CC[C@@]12C
REMARK SMILES IDX 4 1 5 2 6 3 7 4 22 5 21 6 20 7 19 8 8 9 9 10 10 11 11 12
REMARK SMILES IDX 17 13 16 14 15 15 13 16 12 17 18 18 23 19 2 20 1 21 3 22
REMARK SMILES IDX 14 23
REMARK H PARENT 14 24
REMARK Flexibility Score: inf
ROOT
ATOM      1  C   UNL     1      -6.270 -31.026  11.451  1.00  0.00     0.062 C 
ATOM      2  C   UNL     1      -5.748 -32.049  12.470  1.00  0.00     0.012 C 
ATOM      3  C   UNL     1      -4.441 -31.487  13.035  1.00  0.00     0.005 C 
ATOM      4  C   UNL     1      -4.200 -30.123  12.360  1.00  0.00    -0.001 C 
ATOM      5  C   UNL     1      -5.020 -30.182  11.045  1.00  0.00    -0.020 C 
ATOM      6  C   UNL     1      -4.247 -30.924   9.886  1.00  0.00     0.008 C 
ATOM      7  C   UNL     1      -2.728 -31.073  10.083  1.00  0.00     0.005 C 
ATOM      8  C   UNL     1      -2.139 -29.841  10.783  1.00  0.00     0.003 C 
ATOM      9  C   UNL     1      -2.678 -29.774  12.230  1.00  0.00     0.000 C 
ATOM     10  C   UNL     1      -2.354 -28.386  12.797  1.00  0.00     0.031 C 
ATOM     11  C   UNL     1      -0.895 -28.046  12.631  1.00  0.00    -0.027 C 
ATOM     12  C   UNL     1      -0.104 -28.581  11.670  1.00  0.00    -0.065 C 
ATOM     13  C   UNL     1      -0.569 -29.728  10.751  1.00  0.00    -0.008 C 
ATOM     14  C   UNL     1      -0.111 -29.406   9.292  1.00  0.00     0.014 C 
ATOM     15  C   UNL     1       1.361 -28.968   9.181  1.00  0.00     0.033 C 
ATOM     16  C   UNL     1       1.670 -27.771  10.093  1.00  0.00     0.118 C 
ATOM     17  C   UNL     1       1.328 -28.097  11.550  1.00  0.00     0.063 C 
ATOM     18  C   UNL     1       0.102 -31.049  11.218  1.00  0.00     0.016 C 
ATOM     19  C   UNL     1      -5.420 -28.757  10.570  1.00  0.00     0.012 C 
ENDROOT
BRANCH   1  20
ATOM     20  C   UNL     1      -7.450 -30.221  11.995  1.00  0.00     0.133 C 
ATOM     21  C   UNL     1      -8.629 -29.800  11.159  1.00  0.00     0.088 C 
ATOM     22  O   UNL     1      -7.460 -29.932  13.182  1.00  0.00    -0.300 OA
ENDBRANCH   1  20
BRANCH  16  23
ATOM     23  O   UNL     1       0.945 -26.639   9.684  1.00  0.00    -0.393 OA
ATOM     24  H   UNL     1       1.598 -26.016   9.269  1.00  0.00     0.210 HD
ENDBRANCH  16  23
TORSDOF 2
ENDMDL
MODEL 4
REMARK VINA RESULT:    -4.714     11.529     14.901
REMARK INTER + INTRA:          -5.159
REMARK INTER:                  -5.081
REMARK INTRA:                  -0.078
REMARK UNBOUND:                -0.032
REMARK SMILES CC(=O)[C@@H]1CC[C@H]2[C@@H]3CC=C4C[C@H](O)CC[C@]4(C)[C@H]3CC[C@@]12C
REMARK SMILES IDX 4 1 5 2 6 3 7 4 22 5 21 6 20 7 19 8 8 9 9 10 10 11 11 12
REMARK SMILES IDX 17 13 16 14 15 15 13 16 12 17 18 18 23 19 2 20 1 21 3 22
REMARK SMILES IDX 14 23
REMARK H PARENT 14 24
REMARK Flexibility Score: inf
ROOT
ATOM      1  C   UNL     1      -3.658 -25.709  17.423  1.00  0.00     0.062 C 
ATOM      2  C   UNL     1      -3.308 -27.032  18.116  1.00  0.00     0.012 C 
ATOM      3  C   UNL     1      -2.780 -27.976  17.034  1.00  0.00     0.005 C 
ATOM      4  C   UNL     1      -2.802 -27.202  15.702  1.00  0.00    -0.001 C 
ATOM      5  C   UNL     1      -3.846 -26.075  15.916  1.00  0.00    -0.020 C 
ATOM      6  C   UNL     1      -5.326 -26.574  15.685  1.00  0.00     0.008 C 
ATOM      7  C   UNL     1      -5.474 -27.890  14.900  1.00  0.00     0.005 C 
ATOM      8  C   UNL     1      -4.406 -28.002  13.804  1.00  0.00     0.003 C 
ATOM      9  C   UNL     1      -3.015 -28.139  14.463  1.00  0.00     0.000 C 
ATOM     10  C   UNL     1      -1.950 -27.917  13.383  1.00  0.00     0.031 C 
ATOM     11  C   UNL     1      -2.187 -28.794  12.181  1.00  0.00    -0.027 C 
ATOM     12  C   UNL     1      -3.404 -29.281  11.835  1.00  0.00    -0.065 C 
ATOM     13  C   UNL     1      -4.647 -29.133  12.736  1.00  0.00    -0.008 C 
ATOM     14  C   UNL     1      -5.860 -28.734  11.836  1.00  0.00     0.014 C 
ATOM     15  C   UNL     1      -6.009 -29.594  10.568  1.00  0.00     0.033 C 
ATOM     16  C   UNL     1      -4.723 -29.595   9.726  1.00  0.00     0.118 C 
ATOM     17  C   UNL     1      -3.533 -30.084  10.556  1.00  0.00     0.063 C 
ATOM     18  C   UNL     1      -4.941 -30.499  13.415  1.00  0.00     0.016 C 
ATOM     19  C   UNL     1      -3.557 -24.862  14.989  1.00  0.00     0.012 C 
ENDROOT
BRANCH   1  20
ATOM     20  C   UNL     1      -2.621 -24.620  17.702  1.00  0.00     0.133 C 
ATOM     21  C   UNL     1      -2.973 -23.177  17.952  1.00  0.00     0.088 C 
ATOM     22  O   UNL     1      -1.444 -24.939  17.764  1.00  0.00    -0.300 OA
ENDBRANCH   1  20
BRANCH  16  23
ATOM     23  O   UNL     1      -4.454 -28.307   9.234  1.00  0.00    -0.393 OA
ATOM     24  H   UNL     1      -4.591 -27.678   9.990  1.00  0.00     0.210 HD
ENDBRANCH  16  23
TORSDOF 2
ENDMDL
MODEL 5
REMARK VINA RESULT:    -4.686      1.867      2.348
REMARK INTER + INTRA:          -5.129
REMARK INTER:                  -5.082
REMARK INTRA:                  -0.047
REMARK UNBOUND:                -0.032
REMARK SMILES CC(=O)[C@@H]1CC[C@H]2[C@@H]3CC=C4C[C@H](O)CC[C@]4(C)[C@H]3CC[C@@]12C
REMARK SMILES IDX 4 1 5 2 6 3 7 4 22 5 21 6 20 7 19 8 8 9 9 10 10 11 11 12
REMARK SMILES IDX 17 13 16 14 15 15 13 16 12 17 18 18 23 19 2 20 1 21 3 22
REMARK SMILES IDX 14 23
REMARK H PARENT 14 24
REMARK Flexibility Score: inf
ROOT
ATOM      1  C   UNL     1       3.217 -13.302  10.213  1.00  0.00     0.062 C 
ATOM      2  C   UNL     1       3.540 -12.309  11.338  1.00  0.00     0.012 C 
ATOM      3  C   UNL     1       4.088 -13.127  12.510  1.00  0.00     0.005 C 
ATOM      4  C   UNL     1       4.105 -14.603  12.069  1.00  0.00    -0.001 C 
ATOM      5  C   UNL     1       3.064 -14.685  10.922  1.00  0.00    -0.020 C 
ATOM      6  C   UNL     1       1.586 -14.832  11.459  1.00  0.00     0.008 C 
ATOM      7  C   UNL     1       1.449 -15.291  12.922  1.00  0.00     0.005 C 
ATOM      8  C   UNL     1       2.542 -16.302  13.288  1.00  0.00     0.003 C 
ATOM      9  C   UNL     1       3.916 -15.594  13.269  1.00  0.00     0.000 C 
ATOM     10  C   UNL     1       5.009 -16.669  13.306  1.00  0.00     0.031 C 
ATOM     11  C   UNL     1       4.795 -17.638  14.440  1.00  0.00    -0.027 C 
ATOM     12  C   UNL     1       3.584 -17.891  14.993  1.00  0.00    -0.065 C 
ATOM     13  C   UNL     1       2.320 -17.083  14.637  1.00  0.00    -0.008 C 
ATOM     14  C   UNL     1       1.132 -18.082  14.458  1.00  0.00     0.014 C 
ATOM     15  C   UNL     1       1.009 -19.117  15.591  1.00  0.00     0.033 C 
ATOM     16  C   UNL     1       2.315 -19.902  15.790  1.00  0.00     0.118 C 
ATOM     17  C   UNL     1       3.481 -18.950  16.073  1.00  0.00     0.063 C 
ATOM     18  C   UNL     1       2.000 -16.111  15.806  1.00  0.00     0.016 C 
ATOM     19  C   UNL     1       3.384 -15.862   9.959  1.00  0.00     0.012 C 
ENDROOT
BRANCH   1  20
ATOM     20  C   UNL     1       4.254 -13.258   9.090  1.00  0.00     0.133 C 
ATOM     21  C   UNL     1       3.902 -13.091   7.635  1.00  0.00     0.088 C 
ATOM     22  O   UNL     1       5.437 -13.324   9.387  1.00  0.00    -0.300 OA
ENDBRANCH   1  20
BRANCH  16  23
ATOM     23  O   UNL     1       2.605 -20.674  14.653  1.00  0.00    -0.393 OA
ATOM     24  H   UNL     1       3.062 -20.073  14.007  1.00  0.00     0.210 HD
ENDBRANCH  16  23
TORSDOF 2
ENDMDL
MODEL 6
REMARK VINA RESULT:    -4.585     14.285     16.032
REMARK INTER + INTRA:          -5.019
REMARK INTER:                  -4.956
REMARK INTRA:                  -0.063
REMARK UNBOUND:                -0.032
REMARK SMILES CC(=O)[C@@H]1CC[C@H]2[C@@H]3CC=C4C[C@H](O)CC[C@]4(C)[C@H]3CC[C@@]12C
REMARK SMILES IDX 4 1 5 2 6 3 7 4 22 5 21 6 20 7 19 8 8 9 9 10 10 11 11 12
REMARK SMILES IDX 17 13 16 14 15 15 13 16 12 17 18 18 23 19 2 20 1 21 3 22
REMARK SMILES IDX 14 23
REMARK H PARENT 14 24
REMARK Flexibility Score: inf
ROOT
ATOM      1  C   UNL     1       3.717 -30.167  10.204  1.00  0.00     0.062 C 
ATOM      2  C   UNL     1       3.618 -31.676  10.467  1.00  0.00     0.012 C 
ATOM      3  C   UNL     1       2.241 -32.125   9.975  1.00  0.00     0.005 C 
ATOM      4  C   UNL     1       1.531 -30.881   9.406  1.00  0.00    -0.001 C 
ATOM      5  C   UNL     1       2.238 -29.678  10.082  1.00  0.00    -0.020 C 
ATOM      6  C   UNL     1       1.671 -29.378  11.524  1.00  0.00     0.008 C 
ATOM      7  C   UNL     1       0.295 -29.992  11.843  1.00  0.00     0.005 C 
ATOM      8  C   UNL     1      -0.610 -29.990  10.605  1.00  0.00     0.003 C 
ATOM      9  C   UNL     1      -0.028 -30.957   9.549  1.00  0.00     0.000 C 
ATOM     10  C   UNL     1      -0.742 -30.697   8.217  1.00  0.00     0.031 C 
ATOM     11  C   UNL     1      -2.240 -30.734   8.375  1.00  0.00    -0.027 C 
ATOM     12  C   UNL     1      -2.879 -30.476   9.541  1.00  0.00    -0.065 C 
ATOM     13  C   UNL     1      -2.132 -30.289  10.877  1.00  0.00    -0.008 C 
ATOM     14  C   UNL     1      -2.763 -29.072  11.627  1.00  0.00     0.014 C 
ATOM     15  C   UNL     1      -4.302 -29.100  11.680  1.00  0.00     0.033 C 
ATOM     16  C   UNL     1      -4.918 -29.216  10.277  1.00  0.00     0.118 C 
ATOM     17  C   UNL     1      -4.395 -30.461   9.556  1.00  0.00     0.063 C 
ATOM     18  C   UNL     1      -2.311 -31.570  11.737  1.00  0.00     0.016 C 
ATOM     19  C   UNL     1       2.128 -28.399   9.206  1.00  0.00     0.012 C 
ENDROOT
BRANCH   1  20
ATOM     20  C   UNL     1       4.609 -29.847   9.005  1.00  0.00     0.133 C 
ATOM     21  C   UNL     1       4.484 -30.527   7.667  1.00  0.00     0.088 C 
ATOM     22  O   UNL     1       5.447 -28.966   9.121  1.00  0.00    -0.300 OA
ENDBRANCH   1  20
BRANCH  16  23
ATOM     23  O   UNL     1      -4.624 -28.074   9.514  1.00  0.00    -0.393 OA
ATOM     24  H   UNL     1      -4.862 -27.287  10.071  1.00  0.00     0.210 HD
ENDBRANCH  16  23
TORSDOF 2
ENDMDL
MODEL 7
REMARK VINA RESULT:    -4.554      1.938      2.797
REMARK INTER + INTRA:          -4.985
REMARK INTER:                  -4.986
REMARK INTRA:                   0.001
REMARK UNBOUND:                -0.032
REMARK SMILES CC(=O)[C@@H]1CC[C@H]2[C@@H]3CC=C4C[C@H](O)CC[C@]4(C)[C@H]3CC[C@@]12C
REMARK SMILES IDX 4 1 5 2 6 3 7 4 22 5 21 6 20 7 19 8 8 9 9 10 10 11 11 12
REMARK SMILES IDX 17 13 16 14 15 15 13 16 12 17 18 18 23 19 2 20 1 21 3 22
REMARK SMILES IDX 14 23
REMARK H PARENT 14 24
REMARK Flexibility Score: inf
ROOT
ATOM      1  C   UNL     1       2.550 -13.070   8.675  1.00  0.00     0.062 C 
ATOM      2  C   UNL     1       1.945 -11.987   9.579  1.00  0.00     0.012 C 
ATOM      3  C   UNL     1       2.445 -12.261  10.999  1.00  0.00     0.005 C 
ATOM      4  C   UNL     1       3.361 -13.498  10.930  1.00  0.00    -0.001 C 
ATOM      5  C   UNL     1       2.927 -14.240   9.638  1.00  0.00    -0.020 C 
ATOM      6  C   UNL     1       1.660 -15.154   9.865  1.00  0.00     0.008 C 
ATOM      7  C   UNL     1       1.337 -15.499  11.330  1.00  0.00     0.005 C 
ATOM      8  C   UNL     1       2.621 -15.686  12.149  1.00  0.00     0.003 C 
ATOM      9  C   UNL     1       3.354 -14.329  12.259  1.00  0.00     0.000 C 
ATOM     10  C   UNL     1       4.771 -14.593  12.782  1.00  0.00     0.031 C 
ATOM     11  C   UNL     1       4.754 -15.425  14.038  1.00  0.00    -0.027 C 
ATOM     12  C   UNL     1       3.750 -16.275  14.361  1.00  0.00    -0.065 C 
ATOM     13  C   UNL     1       2.433 -16.351  13.564  1.00  0.00    -0.008 C 
ATOM     14  C   UNL     1       2.060 -17.856  13.372  1.00  0.00     0.014 C 
ATOM     15  C   UNL     1       2.149 -18.692  14.663  1.00  0.00     0.033 C 
ATOM     16  C   UNL     1       3.536 -18.584  15.316  1.00  0.00     0.118 C 
ATOM     17  C   UNL     1       3.884 -17.122  15.611  1.00  0.00     0.063 C 
ATOM     18  C   UNL     1       1.312 -15.645  14.375  1.00  0.00     0.016 C 
ATOM     19  C   UNL     1       4.091 -15.100   9.070  1.00  0.00     0.012 C 
ENDROOT
BRANCH   1  20
ATOM     20  C   UNL     1       3.701 -12.533   7.823  1.00  0.00     0.133 C 
ATOM     21  C   UNL     1       4.928 -11.875   8.396  1.00  0.00     0.088 C 
ATOM     22  O   UNL     1       3.644 -12.677   6.611  1.00  0.00    -0.300 OA
ENDBRANCH   1  20
BRANCH  16  23
ATOM     23  O   UNL     1       4.519 -19.140  14.481  1.00  0.00    -0.393 OA
ATOM     24  H   UNL     1       4.278 -18.892  13.550  1.00  0.00     0.210 HD
ENDBRANCH  16  23
TORSDOF 2
ENDMDL
MODEL 8
REMARK VINA RESULT:    -4.531      3.405      4.581
REMARK INTER + INTRA:          -4.960
REMARK INTER:                  -5.206
REMARK INTRA:                   0.246
REMARK UNBOUND:                -0.032
REMARK SMILES CC(=O)[C@@H]1CC[C@H]2[C@@H]3CC=C4C[C@H](O)CC[C@]4(C)[C@H]3CC[C@@]12C
REMARK SMILES IDX 4 1 5 2 6 3 7 4 22 5 21 6 20 7 19 8 8 9 9 10 10 11 11 12
REMARK SMILES IDX 17 13 16 14 15 15 13 16 12 17 18 18 23 19 2 20 1 21 3 22
REMARK SMILES IDX 14 23
REMARK H PARENT 14 24
REMARK Flexibility Score: inf
ROOT
ATOM      1  C   UNL     1       0.709 -14.369  10.157  1.00  0.00     0.062 C 
ATOM      2  C   UNL     1       1.207 -12.948  10.453  1.00  0.00     0.012 C 
ATOM      3  C   UNL     1       2.735 -13.015  10.512  1.00  0.00     0.005 C 
ATOM      4  C   UNL     1       3.140 -14.475  10.234  1.00  0.00    -0.001 C 
ATOM      5  C   UNL     1       1.880 -15.309  10.587  1.00  0.00    -0.020 C 
ATOM      6  C   UNL     1       1.767 -15.604  12.134  1.00  0.00     0.008 C 
ATOM      7  C   UNL     1       3.062 -15.421  12.946  1.00  0.00     0.005 C 
ATOM      8  C   UNL     1       4.290 -15.850  12.132  1.00  0.00     0.003 C 
ATOM      9  C   UNL     1       4.477 -14.877  10.946  1.00  0.00     0.000 C 
ATOM     10  C   UNL     1       5.484 -15.500   9.971  1.00  0.00     0.031 C 
ATOM     11  C   UNL     1       6.750 -15.917  10.673  1.00  0.00    -0.027 C 
ATOM     12  C   UNL     1       6.810 -16.228  11.991  1.00  0.00    -0.065 C 
ATOM     13  C   UNL     1       5.624 -16.015  12.952  1.00  0.00    -0.008 C 
ATOM     14  C   UNL     1       5.504 -17.274  13.870  1.00  0.00     0.014 C 
ATOM     15  C   UNL     1       6.839 -17.726  14.491  1.00  0.00     0.033 C 
ATOM     16  C   UNL     1       7.911 -17.972  13.418  1.00  0.00     0.118 C 
ATOM     17  C   UNL     1       8.125 -16.716  12.567  1.00  0.00     0.063 C 
ATOM     18  C   UNL     1       5.906 -14.766  13.831  1.00  0.00     0.016 C 
ATOM     19  C   UNL     1       1.858 -16.650   9.801  1.00  0.00     0.012 C 
ENDROOT
BRANCH   1  20
ATOM     20  C   UNL     1       0.246 -14.528   8.709  1.00  0.00     0.133 C 
ATOM     21  C   UNL     1      -0.514 -15.726   8.202  1.00  0.00     0.088 C 
ATOM     22  O   UNL     1       0.469 -13.619   7.923  1.00  0.00    -0.300 OA
ENDBRANCH   1  20
BRANCH  16  23
ATOM     23  O   UNL     1       7.542 -19.043  12.588  1.00  0.00    -0.393 OA
ATOM     24  H   UNL     1       8.171 -19.041  11.820  1.00  0.00     0.210 HD
ENDBRANCH  16  23
TORSDOF 2
ENDMDL
MODEL 9
REMARK VINA RESULT:    -4.412      2.195      3.960
REMARK INTER + INTRA:          -4.830
REMARK INTER:                  -4.756
REMARK INTRA:                  -0.074
REMARK UNBOUND:                -0.032
REMARK SMILES CC(=O)[C@@H]1CC[C@H]2[C@@H]3CC=C4C[C@H](O)CC[C@]4(C)[C@H]3CC[C@@]12C
REMARK SMILES IDX 4 1 5 2 6 3 7 4 22 5 21 6 20 7 19 8 8 9 9 10 10 11 11 12
REMARK SMILES IDX 17 13 16 14 15 15 13 16 12 17 18 18 23 19 2 20 1 21 3 22
REMARK SMILES IDX 14 23
REMARK H PARENT 14 24
REMARK Flexibility Score: inf
ROOT
ATOM      1  C   UNL     1       3.275 -14.607  11.738  1.00  0.00     0.062 C 
ATOM      2  C   UNL     1       2.958 -15.650  10.658  1.00  0.00     0.012 C 
ATOM      3  C   UNL     1       2.093 -16.725  11.318  1.00  0.00     0.005 C 
ATOM      4  C   UNL     1       1.884 -16.307  12.786  1.00  0.00    -0.001 C 
ATOM      5  C   UNL     1       3.064 -15.349  13.097  1.00  0.00    -0.020 C 
ATOM      6  C   UNL     1       4.386 -16.124  13.475  1.00  0.00     0.008 C 
ATOM      7  C   UNL     1       4.203 -17.596  13.889  1.00  0.00     0.005 C 
ATOM      8  C   UNL     1       2.902 -17.790  14.678  1.00  0.00     0.003 C 
ATOM      9  C   UNL     1       1.698 -17.535  13.743  1.00  0.00     0.000 C 
ATOM     10  C   UNL     1       0.439 -17.406  14.609  1.00  0.00     0.031 C 
ATOM     11  C   UNL     1       0.293 -18.572  15.552  1.00  0.00    -0.027 C 
ATOM     12  C   UNL     1       1.335 -19.320  15.988  1.00  0.00    -0.065 C 
ATOM     13  C   UNL     1       2.763 -19.168  15.428  1.00  0.00    -0.008 C 
ATOM     14  C   UNL     1       3.767 -19.200  16.625  1.00  0.00     0.014 C 
ATOM     15  C   UNL     1       3.520 -20.351  17.617  1.00  0.00     0.033 C 
ATOM     16  C   UNL     1       2.080 -20.342  18.154  1.00  0.00     0.118 C 
ATOM     17  C   UNL     1       1.073 -20.416  17.003  1.00  0.00     0.063 C 
ATOM     18  C   UNL     1       3.060 -20.360  14.478  1.00  0.00     0.016 C 
ATOM     19  C   UNL     1       2.697 -14.362  14.240  1.00  0.00     0.012 C 
ENDROOT
BRANCH   1  20
ATOM     20  C   UNL     1       2.456 -13.327  11.562  1.00  0.00     0.133 C 
ATOM     21  C   UNL     1       1.016 -13.313  11.122  1.00  0.00     0.088 C 
ATOM     22  O   UNL     1       2.982 -12.258  11.829  1.00  0.00    -0.300 OA
ENDBRANCH   1  20
BRANCH  16  23
ATOM     23  O   UNL     1       1.843 -19.183  18.911  1.00  0.00    -0.393 OA
ATOM     24  H   UNL     1       2.639 -19.051  19.490  1.00  0.00     0.210 HD
ENDBRANCH  16  23
TORSDOF 2
ENDMDL
