MODEL 1
REMARK VINA RESULT:    -4.287      0.000      0.000
REMARK INTER + INTRA:          -8.449
REMARK INTER:                  -7.294
REMARK INTRA:                  -1.155
REMARK UNBOUND:                -1.155
REMARK SMILES CCCCCCCCCCCCCC(=O)[O-]
REMARK SMILES IDX 8 1 9 2 10 3 11 4 12 5 13 6 14 7 15 8 16 9 7 10 6 11 5 12
REMARK SMILES IDX 4 13 3 14 2 15 1 16
REMARK H PARENT
REMARK Flexibility Score: inf
ROOT
ATOM      1  C   UNL     1      -3.762  -3.564  -2.728  1.00  0.00     0.000 C 
ENDROOT
BRANCH   1   2
ATOM      2  C   UNL     1      -5.084  -4.042  -3.345  1.00  0.00     0.000 C 
BRANCH   2   3
ATOM      3  C   UNL     1      -5.395  -3.373  -4.696  1.00  0.00     0.000 C 
BRANCH   3   4
ATOM      4  C   UNL     1      -4.270  -3.467  -5.744  1.00  0.00     0.000 C 
BRANCH   4   5
ATOM      5  C   UNL     1      -3.998  -2.129  -6.452  1.00  0.00     0.006 C 
BRANCH   5   6
ATOM      6  C   UNL     1      -5.054  -1.069  -6.114  1.00  0.00     0.053 C 
BRANCH   6   7
ATOM      7  C   UNL     1      -4.430   0.194  -5.603  1.00  0.00     0.041 C 
ATOM      8  O   UNL     1      -3.808   0.198  -4.508  1.00  0.00    -0.550 OA
ATOM      9  O   UNL     1      -4.559   1.374  -6.325  1.00  0.00    -0.550 OA
ENDBRANCH   6   7
ENDBRANCH   5   6
ENDBRANCH   4   5
ENDBRANCH   3   4
ENDBRANCH   2   3
ENDBRANCH   1   2
BRANCH   1  10
ATOM     10  C   UNL     1      -3.994  -2.366  -1.795  1.00  0.00     0.000 C 
BRANCH  10  11
ATOM     11  C   UNL     1      -3.836  -2.726  -0.306  1.00  0.00    -0.000 C 
BRANCH  11  12
ATOM     12  C   UNL     1      -5.053  -3.428   0.324  1.00  0.00    -0.000 C 
BRANCH  12  13
ATOM     13  C   UNL     1      -6.340  -2.588   0.238  1.00  0.00    -0.000 C 
BRANCH  13  14
ATOM     14  C   UNL     1      -7.516  -3.384  -0.364  1.00  0.00    -0.000 C 
BRANCH  14  15
ATOM     15  C   UNL     1      -7.769  -4.730   0.334  1.00  0.00    -0.003 C 
ATOM     16  C   UNL     1      -9.135  -4.802   1.016  1.00  0.00     0.004 C 
ENDBRANCH  14  15
ENDBRANCH  13  14
ENDBRANCH  12  13
ENDBRANCH  11  12
ENDBRANCH  10  11
ENDBRANCH   1  10
TORSDOF 12
ENDMDL
MODEL 2
REMARK VINA RESULT:    -4.249      3.444      6.964
REMARK INTER + INTRA:          -8.385
REMARK INTER:                  -7.296
REMARK INTRA:                  -1.090
REMARK UNBOUND:                -1.155
REMARK SMILES CCCCCCCCCCCCCC(=O)[O-]
REMARK SMILES IDX 8 1 9 2 10 3 11 4 12 5 13 6 14 7 15 8 16 9 7 10 6 11 5 12
REMARK SMILES IDX 4 13 3 14 2 15 1 16
REMARK H PARENT
REMARK Flexibility Score: inf
ROOT
ATOM      1  C   UNL     1      -3.752  -2.756  -2.719  1.00  0.00     0.000 C 
ENDROOT
BRANCH   1   2
ATOM      2  C   UNL     1      -4.185  -2.640  -1.251  1.00  0.00     0.000 C 
BRANCH   2   3
ATOM      3  C   UNL     1      -5.020  -3.843  -0.774  1.00  0.00     0.000 C 
BRANCH   3   4
ATOM      4  C   UNL     1      -5.702  -3.661   0.594  1.00  0.00     0.000 C 
BRANCH   4   5
ATOM      5  C   UNL     1      -6.987  -2.819   0.516  1.00  0.00     0.006 C 
BRANCH   5   6
ATOM      6  C   UNL     1      -8.086  -3.515  -0.297  1.00  0.00     0.053 C 
BRANCH   6   7
ATOM      7  C   UNL     1      -8.581  -4.755   0.382  1.00  0.00     0.041 C 
ATOM      8  O   UNL     1      -9.422  -4.676   1.316  1.00  0.00    -0.550 OA
ATOM      9  O   UNL     1      -8.091  -5.999   0.002  1.00  0.00    -0.550 OA
ENDBRANCH   6   7
ENDBRANCH   5   6
ENDBRANCH   4   5
ENDBRANCH   3   4
ENDBRANCH   2   3
ENDBRANCH   1   2
BRANCH   1  10
ATOM     10  C   UNL     1      -4.521  -3.879  -3.432  1.00  0.00     0.000 C 
BRANCH  10  11
ATOM     11  C   UNL     1      -5.211  -3.406  -4.725  1.00  0.00    -0.000 C 
BRANCH  11  12
ATOM     12  C   UNL     1      -4.306  -3.379  -5.970  1.00  0.00    -0.000 C 
BRANCH  12  13
ATOM     13  C   UNL     1      -4.000  -1.953  -6.459  1.00  0.00    -0.000 C 
BRANCH  13  14
ATOM     14  C   UNL     1      -5.231  -1.028  -6.365  1.00  0.00    -0.000 C 
BRANCH  14  15
ATOM     15  C   UNL     1      -4.909   0.371  -5.815  1.00  0.00    -0.003 C 
ATOM     16  C   UNL     1      -3.649   0.399  -4.952  1.00  0.00     0.004 C 
ENDBRANCH  14  15
ENDBRANCH  13  14
ENDBRANCH  12  13
ENDBRANCH  11  12
ENDBRANCH  10  11
ENDBRANCH   1  10
TORSDOF 12
ENDMDL
MODEL 3
REMARK VINA RESULT:    -4.220      1.240      1.878
REMARK INTER + INTRA:          -8.336
REMARK INTER:                  -7.110
REMARK INTRA:                  -1.225
REMARK UNBOUND:                -1.155
REMARK SMILES CCCCCCCCCCCCCC(=O)[O-]
REMARK SMILES IDX 8 1 9 2 10 3 11 4 12 5 13 6 14 7 15 8 16 9 7 10 6 11 5 12
REMARK SMILES IDX 4 13 3 14 2 15 1 16
REMARK H PARENT
REMARK Flexibility Score: inf
ROOT
ATOM      1  C   UNL     1      -2.693  -1.831  -2.519  1.00  0.00     0.000 C 
ENDROOT
BRANCH   1   2
ATOM      2  C   UNL     1      -2.330  -3.318  -2.650  1.00  0.00     0.000 C 
BRANCH   2   3
ATOM      3  C   UNL     1      -2.908  -3.968  -3.921  1.00  0.00     0.000 C 
BRANCH   3   4
ATOM      4  C   UNL     1      -4.428  -4.207  -3.896  1.00  0.00     0.000 C 
BRANCH   4   5
ATOM      5  C   UNL     1      -5.191  -3.322  -4.897  1.00  0.00     0.006 C 
BRANCH   5   6
ATOM      6  C   UNL     1      -4.281  -2.798  -6.016  1.00  0.00     0.053 C 
BRANCH   6   7
ATOM      7  C   UNL     1      -4.618  -1.386  -6.391  1.00  0.00     0.041 C 
ATOM      8  O   UNL     1      -5.817  -1.005  -6.415  1.00  0.00    -0.550 OA
ATOM      9  O   UNL     1      -3.607  -0.500  -6.741  1.00  0.00    -0.550 OA
ENDBRANCH   6   7
ENDBRANCH   5   6
ENDBRANCH   4   5
ENDBRANCH   3   4
ENDBRANCH   2   3
ENDBRANCH   1   2
BRANCH   1  10
ATOM     10  C   UNL     1      -3.616  -1.596  -1.314  1.00  0.00     0.000 C 
BRANCH  10  11
ATOM     11  C   UNL     1      -3.251  -2.469  -0.100  1.00  0.00    -0.000 C 
BRANCH  11  12
ATOM     12  C   UNL     1      -4.339  -3.468   0.332  1.00  0.00    -0.000 C 
BRANCH  12  13
ATOM     13  C   UNL     1      -5.632  -3.341  -0.495  1.00  0.00    -0.000 C 
BRANCH  13  14
ATOM     14  C   UNL     1      -6.842  -2.943   0.374  1.00  0.00    -0.000 C 
BRANCH  14  15
ATOM     15  C   UNL     1      -8.175  -3.525  -0.125  1.00  0.00    -0.003 C 
ATOM     16  C   UNL     1      -8.810  -4.500   0.866  1.00  0.00     0.004 C 
ENDBRANCH  14  15
ENDBRANCH  13  14
ENDBRANCH  12  13
ENDBRANCH  11  12
ENDBRANCH  10  11
ENDBRANCH   1  10
TORSDOF 12
ENDMDL
MODEL 4
REMARK VINA RESULT:    -4.208      1.175      1.794
REMARK INTER + INTRA:          -8.315
REMARK INTER:                  -7.536
REMARK INTRA:                  -0.779
REMARK UNBOUND:                -1.155
REMARK SMILES CCCCCCCCCCCCCC(=O)[O-]
REMARK SMILES IDX 8 1 9 2 10 3 11 4 12 5 13 6 14 7 15 8 16 9 7 10 6 11 5 12
REMARK SMILES IDX 4 13 3 14 2 15 1 16
REMARK H PARENT
REMARK Flexibility Score: inf
ROOT
ATOM      1  C   UNL     1      -5.272  -4.156  -2.266  1.00  0.00     0.000 C 
ENDROOT
BRANCH   1   2
ATOM      2  C   UNL     1      -4.370  -3.996  -3.498  1.00  0.00     0.000 C 
BRANCH   2   3
ATOM      3  C   UNL     1      -5.138  -3.529  -4.749  1.00  0.00     0.000 C 
BRANCH   3   4
ATOM      4  C   UNL     1      -4.254  -3.039  -5.910  1.00  0.00     0.000 C 
BRANCH   4   5
ATOM      5  C   UNL     1      -4.749  -1.719  -6.525  1.00  0.00     0.006 C 
BRANCH   5   6
ATOM      6  C   UNL     1      -3.754  -0.571  -6.308  1.00  0.00     0.053 C 
BRANCH   6   7
ATOM      7  C   UNL     1      -4.423   0.648  -5.749  1.00  0.00     0.041 C 
ATOM      8  O   UNL     1      -5.532   1.029  -6.206  1.00  0.00    -0.550 OA
ATOM      9  O   UNL     1      -3.807   1.378  -4.740  1.00  0.00    -0.550 OA
ENDBRANCH   6   7
ENDBRANCH   5   6
ENDBRANCH   4   5
ENDBRANCH   3   4
ENDBRANCH   2   3
ENDBRANCH   1   2
BRANCH   1  10
ATOM     10  C   UNL     1      -4.932  -3.106  -1.197  1.00  0.00     0.000 C 
BRANCH  10  11
ATOM     11  C   UNL     1      -5.681  -3.336   0.128  1.00  0.00    -0.000 C 
BRANCH  11  12
ATOM     12  C   UNL     1      -7.095  -2.731   0.188  1.00  0.00    -0.000 C 
BRANCH  12  13
ATOM     13  C   UNL     1      -8.206  -3.793   0.101  1.00  0.00    -0.000 C 
BRANCH  13  14
ATOM     14  C   UNL     1      -7.795  -5.122   0.767  1.00  0.00    -0.000 C 
BRANCH  14  15
ATOM     15  C   UNL     1      -7.756  -6.311  -0.206  1.00  0.00    -0.003 C 
ATOM     16  C   UNL     1      -6.878  -7.460   0.287  1.00  0.00     0.004 C 
ENDBRANCH  14  15
ENDBRANCH  13  14
ENDBRANCH  12  13
ENDBRANCH  11  12
ENDBRANCH  10  11
ENDBRANCH   1  10
TORSDOF 12
ENDMDL
MODEL 5
REMARK VINA RESULT:    -4.187      1.568      2.968
REMARK INTER + INTRA:          -8.279
REMARK INTER:                  -7.162
REMARK INTRA:                  -1.117
REMARK UNBOUND:                -1.155
REMARK SMILES CCCCCCCCCCCCCC(=O)[O-]
REMARK SMILES IDX 8 1 9 2 10 3 11 4 12 5 13 6 14 7 15 8 16 9 7 10 6 11 5 12
REMARK SMILES IDX 4 13 3 14 2 15 1 16
REMARK H PARENT
REMARK Flexibility Score: inf
ROOT
ATOM      1  C   UNL     1      -4.062  -3.383  -5.576  1.00  0.00     0.000 C 
ENDROOT
BRANCH   1   2
ATOM      2  C   UNL     1      -4.022  -2.145  -6.482  1.00  0.00     0.000 C 
BRANCH   2   3
ATOM      3  C   UNL     1      -5.307  -1.300  -6.403  1.00  0.00     0.000 C 
BRANCH   3   4
ATOM      4  C   UNL     1      -5.090   0.186  -6.067  1.00  0.00     0.000 C 
BRANCH   4   5
ATOM      5  C   UNL     1      -3.603   0.570  -5.977  1.00  0.00     0.006 C 
BRANCH   5   6
ATOM      6  C   UNL     1      -3.199   0.990  -4.558  1.00  0.00     0.053 C 
BRANCH   6   7
ATOM      7  C   UNL     1      -2.674  -0.167  -3.763  1.00  0.00     0.041 C 
ATOM      8  O   UNL     1      -3.200  -0.471  -2.661  1.00  0.00    -0.550 OA
ATOM      9  O   UNL     1      -1.584  -0.892  -4.229  1.00  0.00    -0.550 OA
ENDBRANCH   6   7
ENDBRANCH   5   6
ENDBRANCH   4   5
ENDBRANCH   3   4
ENDBRANCH   2   3
ENDBRANCH   1   2
BRANCH   1  10
ATOM     10  C   UNL     1      -5.318  -3.375  -4.691  1.00  0.00     0.000 C 
BRANCH  10  11
ATOM     11  C   UNL     1      -4.991  -3.399  -3.186  1.00  0.00    -0.000 C 
BRANCH  11  12
ATOM     12  C   UNL     1      -5.525  -4.627  -2.426  1.00  0.00    -0.000 C 
BRANCH  12  13
ATOM     13  C   UNL     1      -5.424  -4.477  -0.898  1.00  0.00    -0.000 C 
BRANCH  13  14
ATOM     14  C   UNL     1      -5.475  -3.002  -0.452  1.00  0.00    -0.000 C 
BRANCH  14  15
ATOM     15  C   UNL     1      -6.761  -2.633   0.306  1.00  0.00    -0.003 C 
ATOM     16  C   UNL     1      -7.912  -3.600   0.038  1.00  0.00     0.004 C 
ENDBRANCH  14  15
ENDBRANCH  13  14
ENDBRANCH  12  13
ENDBRANCH  11  12
ENDBRANCH  10  11
ENDBRANCH   1  10
TORSDOF 12
ENDMDL
MODEL 6
REMARK VINA RESULT:    -4.125      9.498     14.170
REMARK INTER + INTRA:          -8.174
REMARK INTER:                  -6.830
REMARK INTRA:                  -1.345
REMARK UNBOUND:                -1.155
REMARK SMILES CCCCCCCCCCCCCC(=O)[O-]
REMARK SMILES IDX 8 1 9 2 10 3 11 4 12 5 13 6 14 7 15 8 16 9 7 10 6 11 5 12
REMARK SMILES IDX 4 13 3 14 2 15 1 16
REMARK H PARENT
REMARK Flexibility Score: inf
ROOT
ATOM      1  C   UNL     1      -4.234   5.333 -13.714  1.00  0.00     0.000 C 
ENDROOT
BRANCH   1   2
ATOM      2  C   UNL     1      -4.047   3.827 -13.484  1.00  0.00     0.000 C 
BRANCH   2   3
ATOM      3  C   UNL     1      -3.440   3.499 -12.108  1.00  0.00     0.000 C 
BRANCH   3   4
ATOM      4  C   UNL     1      -2.156   2.652 -12.148  1.00  0.00     0.000 C 
BRANCH   4   5
ATOM      5  C   UNL     1      -1.375   2.684 -10.822  1.00  0.00     0.006 C 
BRANCH   5   6
ATOM      6  C   UNL     1      -2.131   3.442  -9.724  1.00  0.00     0.053 C 
BRANCH   6   7
ATOM      7  C   UNL     1      -1.785   2.934  -8.357  1.00  0.00     0.041 C 
ATOM      8  O   UNL     1      -1.679   3.733  -7.390  1.00  0.00    -0.550 OA
ATOM      9  O   UNL     1      -1.553   1.579  -8.158  1.00  0.00    -0.550 OA
ENDBRANCH   6   7
ENDBRANCH   5   6
ENDBRANCH   4   5
ENDBRANCH   3   4
ENDBRANCH   2   3
ENDBRANCH   1   2
BRANCH   1  10
ATOM     10  C   UNL     1      -2.888   6.014 -14.007  1.00  0.00     0.000 C 
BRANCH  10  11
ATOM     11  C   UNL     1      -2.022   5.225 -15.005  1.00  0.00    -0.000 C 
BRANCH  11  12
ATOM     12  C   UNL     1      -1.899   5.862 -16.402  1.00  0.00    -0.000 C 
BRANCH  12  13
ATOM     13  C   UNL     1      -2.908   5.291 -17.413  1.00  0.00    -0.000 C 
BRANCH  13  14
ATOM     14  C   UNL     1      -4.153   6.189 -17.566  1.00  0.00    -0.000 C 
BRANCH  14  15
ATOM     15  C   UNL     1      -5.476   5.460 -17.283  1.00  0.00    -0.003 C 
ATOM     16  C   UNL     1      -5.324   3.941 -17.231  1.00  0.00     0.004 C 
ENDBRANCH  14  15
ENDBRANCH  13  14
ENDBRANCH  12  13
ENDBRANCH  11  12
ENDBRANCH  10  11
ENDBRANCH   1  10
TORSDOF 12
ENDMDL
MODEL 7
REMARK VINA RESULT:    -4.119      3.465      6.856
REMARK INTER + INTRA:          -8.163
REMARK INTER:                  -7.023
REMARK INTRA:                  -1.140
REMARK UNBOUND:                -1.155
REMARK SMILES CCCCCCCCCCCCCC(=O)[O-]
REMARK SMILES IDX 8 1 9 2 10 3 11 4 12 5 13 6 14 7 15 8 16 9 7 10 6 11 5 12
REMARK SMILES IDX 4 13 3 14 2 15 1 16
REMARK H PARENT
REMARK Flexibility Score: inf
ROOT
ATOM      1  C   UNL     1      -5.100  -3.656  -4.432  1.00  0.00     0.000 C 
ENDROOT
BRANCH   1   2
ATOM      2  C   UNL     1      -4.518  -3.764  -3.016  1.00  0.00     0.000 C 
BRANCH   2   3
ATOM      3  C   UNL     1      -5.601  -3.883  -1.928  1.00  0.00     0.000 C 
BRANCH   3   4
ATOM      4  C   UNL     1      -5.381  -2.994  -0.690  1.00  0.00     0.000 C 
BRANCH   4   5
ATOM      5  C   UNL     1      -6.320  -3.348   0.476  1.00  0.00     0.006 C 
BRANCH   5   6
ATOM      6  C   UNL     1      -7.792  -3.382   0.045  1.00  0.00     0.053 C 
BRANCH   6   7
ATOM      7  C   UNL     1      -8.471  -4.643   0.486  1.00  0.00     0.041 C 
ATOM      8  O   UNL     1      -8.067  -5.761   0.071  1.00  0.00    -0.550 OA
ATOM      9  O   UNL     1      -9.569  -4.581   1.334  1.00  0.00    -0.550 OA
ENDBRANCH   6   7
ENDBRANCH   5   6
ENDBRANCH   4   5
ENDBRANCH   3   4
ENDBRANCH   2   3
ENDBRANCH   1   2
BRANCH   1  10
ATOM     10  C   UNL     1      -4.010  -3.276  -5.446  1.00  0.00     0.000 C 
BRANCH  10  11
ATOM     11  C   UNL     1      -4.487  -2.237  -6.477  1.00  0.00    -0.000 C 
BRANCH  11  12
ATOM     12  C   UNL     1      -3.711  -0.907  -6.464  1.00  0.00    -0.000 C 
BRANCH  12  13
ATOM     13  C   UNL     1      -4.425   0.196  -5.663  1.00  0.00    -0.000 C 
BRANCH  13  14
ATOM     14  C   UNL     1      -3.532   0.775  -4.546  1.00  0.00    -0.000 C 
BRANCH  14  15
ATOM     15  C   UNL     1      -2.639  -0.275  -3.866  1.00  0.00    -0.003 C 
ATOM     16  C   UNL     1      -2.997  -0.504  -2.398  1.00  0.00     0.004 C 
ENDBRANCH  14  15
ENDBRANCH  13  14
ENDBRANCH  12  13
ENDBRANCH  11  12
ENDBRANCH  10  11
ENDBRANCH   1  10
TORSDOF 12
ENDMDL
MODEL 8
REMARK VINA RESULT:    -4.101      3.350      7.319
REMARK INTER + INTRA:          -8.132
REMARK INTER:                  -7.455
REMARK INTRA:                  -0.677
REMARK UNBOUND:                -1.155
REMARK SMILES CCCCCCCCCCCCCC(=O)[O-]
REMARK SMILES IDX 8 1 9 2 10 3 11 4 12 5 13 6 14 7 15 8 16 9 7 10 6 11 5 12
REMARK SMILES IDX 4 13 3 14 2 15 1 16
REMARK H PARENT
REMARK Flexibility Score: inf
ROOT
ATOM      1  C   UNL     1      -5.239  -3.385  -4.807  1.00  0.00     0.000 C 
ENDROOT
BRANCH   1   2
ATOM      2  C   UNL     1      -4.407  -3.515  -3.523  1.00  0.00     0.000 C 
BRANCH   2   3
ATOM      3  C   UNL     1      -5.262  -3.819  -2.280  1.00  0.00     0.000 C 
BRANCH   3   4
ATOM      4  C   UNL     1      -4.945  -2.956  -1.044  1.00  0.00     0.000 C 
BRANCH   4   5
ATOM      5  C   UNL     1      -5.986  -3.112   0.078  1.00  0.00     0.006 C 
BRANCH   5   6
ATOM      6  C   UNL     1      -7.409  -3.277  -0.471  1.00  0.00     0.053 C 
BRANCH   6   7
ATOM      7  C   UNL     1      -8.106  -4.457   0.134  1.00  0.00     0.041 C 
ATOM      8  O   UNL     1      -9.113  -4.290   0.872  1.00  0.00    -0.550 OA
ATOM      9  O   UNL     1      -7.626  -5.740  -0.095  1.00  0.00    -0.550 OA
ENDBRANCH   6   7
ENDBRANCH   5   6
ENDBRANCH   4   5
ENDBRANCH   3   4
ENDBRANCH   2   3
ENDBRANCH   1   2
BRANCH   1  10
ATOM     10  C   UNL     1      -4.355  -2.983  -5.996  1.00  0.00     0.000 C 
BRANCH  10  11
ATOM     11  C   UNL     1      -4.650  -1.562  -6.509  1.00  0.00    -0.000 C 
BRANCH  11  12
ATOM     12  C   UNL     1      -3.530  -0.535  -6.254  1.00  0.00    -0.000 C 
BRANCH  12  13
ATOM     13  C   UNL     1      -3.860   0.440  -5.111  1.00  0.00    -0.000 C 
BRANCH  13  14
ATOM     14  C   UNL     1      -4.782   1.587  -5.571  1.00  0.00    -0.000 C 
BRANCH  14  15
ATOM     15  C   UNL     1      -4.034   2.897  -5.867  1.00  0.00    -0.003 C 
ATOM     16  C   UNL     1      -4.159   3.341  -7.323  1.00  0.00     0.004 C 
ENDBRANCH  14  15
ENDBRANCH  13  14
ENDBRANCH  12  13
ENDBRANCH  11  12
ENDBRANCH  10  11
ENDBRANCH   1  10
TORSDOF 12
ENDMDL
MODEL 9
REMARK VINA RESULT:    -4.097      1.641      2.986
REMARK INTER + INTRA:          -8.125
REMARK INTER:                  -7.201
REMARK INTRA:                  -0.925
REMARK UNBOUND:                -1.155
REMARK SMILES CCCCCCCCCCCCCC(=O)[O-]
REMARK SMILES IDX 8 1 9 2 10 3 11 4 12 5 13 6 14 7 15 8 16 9 7 10 6 11 5 12
REMARK SMILES IDX 4 13 3 14 2 15 1 16
REMARK H PARENT
REMARK Flexibility Score: inf
ROOT
ATOM      1  C   UNL     1      -5.144  -3.122  -0.112  1.00  0.00     0.000 C 
ENDROOT
BRANCH   1   2
ATOM      2  C   UNL     1      -5.253  -3.531  -1.587  1.00  0.00     0.000 C 
BRANCH   2   3
ATOM      3  C   UNL     1      -4.068  -3.040  -2.437  1.00  0.00     0.000 C 
BRANCH   3   4
ATOM      4  C   UNL     1      -3.792  -3.864  -3.708  1.00  0.00     0.000 C 
BRANCH   4   5
ATOM      5  C   UNL     1      -4.913  -3.746  -4.754  1.00  0.00     0.006 C 
BRANCH   5   6
ATOM      6  C   UNL     1      -4.373  -3.390  -6.145  1.00  0.00     0.053 C 
BRANCH   6   7
ATOM      7  C   UNL     1      -4.187  -1.912  -6.309  1.00  0.00     0.041 C 
ATOM      8  O   UNL     1      -5.147  -1.190  -6.684  1.00  0.00    -0.550 OA
ATOM      9  O   UNL     1      -2.945  -1.337  -6.072  1.00  0.00    -0.550 OA
ENDBRANCH   6   7
ENDBRANCH   5   6
ENDBRANCH   4   5
ENDBRANCH   3   4
ENDBRANCH   2   3
ENDBRANCH   1   2
BRANCH   1  10
ATOM     10  C   UNL     1      -6.509  -2.679   0.438  1.00  0.00     0.000 C 
BRANCH  10  11
ATOM     11  C   UNL     1      -7.691  -3.214  -0.391  1.00  0.00    -0.000 C 
BRANCH  11  12
ATOM     12  C   UNL     1      -8.584  -4.234   0.337  1.00  0.00    -0.000 C 
BRANCH  12  13
ATOM     13  C   UNL     1      -7.922  -4.820   1.597  1.00  0.00    -0.000 C 
BRANCH  13  14
ATOM     14  C   UNL     1      -7.767  -6.352   1.516  1.00  0.00    -0.000 C 
BRANCH  14  15
ATOM     15  C   UNL     1      -7.360  -6.856   0.121  1.00  0.00    -0.003 C 
ATOM     16  C   UNL     1      -7.314  -8.380   0.025  1.00  0.00     0.004 C 
ENDBRANCH  14  15
ENDBRANCH  13  14
ENDBRANCH  12  13
ENDBRANCH  11  12
ENDBRANCH  10  11
ENDBRANCH   1  10
TORSDOF 12
ENDMDL
