MODEL 1
REMARK VINA RESULT:    94.150      0.000      0.000
REMARK INTER + INTRA:         148.940
REMARK INTER:                 149.190
REMARK INTRA:                  -0.249
REMARK UNBOUND:                -0.249
REMARK SMILES C[C@@H]1O[C@@H](O[C@H]2[C@H](Oc3cc(O)c4c(c3)O[C@H](c3ccc(O)cc3)CC4=O)O[C@@H](CO)[C@@H](O)[C@@H]2O)[C@H](O)[C@H](O)[C@H]1O
REMARK SMILES IDX 6 1 34 2 32 3 29 4 28 5 7 6 5 7 4 8 1 9 2 10 40 11 3 12
REMARK SMILES IDX 38 13 36 14 41 15 39 17 37 19 35 21 8 23 9 24 10 25 15 26
REMARK SMILES IDX 11 27 14 28 13 29 16 30 26 31 17 32 27 33 25 34 12 35 18 37
REMARK SMILES IDX 19 38 24 39 20 40 23 41 21 42 22 43 33 45 30 47 31 48
REMARK H PARENT 41 16 39 18 37 20 35 22 12 36 22 44 33 46 31 49
REMARK Flexibility Score: inf
ROOT
ATOM      1  C   UNL     1     -32.798  29.311 -18.675  1.00  0.00     0.221 C 
ATOM      2  C   UNL     1     -31.752  30.260 -19.316  1.00  0.00     0.181 C 
ATOM      3  C   UNL     1     -32.293  31.697 -19.438  1.00  0.00     0.177 C 
ATOM      4  C   UNL     1     -32.782  32.216 -18.043  1.00  0.00     0.179 C 
ATOM      5  O   UNL     1     -33.159  31.174 -17.146  1.00  0.00    -0.332 OA
ATOM      6  C   UNL     1     -33.804  30.093 -17.801  1.00  0.00     0.339 C 
ENDROOT
BRANCH   1   7
ATOM      7  O   UNL     1     -32.123  28.368 -17.855  1.00  0.00    -0.337 OA
BRANCH   7   8
ATOM      8  C   UNL     1     -30.937  28.916 -17.298  1.00  0.00     0.282 C 
ATOM      9  C   UNL     1     -29.235  25.805 -16.299  1.00  0.00     0.041 C 
ATOM     10  C   UNL     1     -30.335  26.868 -16.305  1.00  0.00     0.150 C 
ATOM     11  C   UNL     1     -30.601  27.390 -14.872  1.00  0.00     0.174 C 
ATOM     12  O   UNL     1     -29.925  27.925 -17.162  1.00  0.00    -0.344 OA
ATOM     13  C   UNL     1     -31.653  28.516 -14.909  1.00  0.00     0.179 C 
ATOM     14  C   UNL     1     -31.249  29.580 -15.940  1.00  0.00     0.202 C 
BRANCH  11  15
ATOM     15  O   UNL     1     -31.023  26.351 -14.022  1.00  0.00    -0.388 OA
ATOM     16  H   UNL     1     -31.962  26.536 -13.758  1.00  0.00     0.211 HD
ENDBRANCH  11  15
BRANCH  13  17
ATOM     17  O   UNL     1     -31.777  29.114 -13.643  1.00  0.00    -0.387 OA
ATOM     18  H   UNL     1     -31.916  28.380 -12.989  1.00  0.00     0.211 HD
ENDBRANCH  13  17
BRANCH  14  19
ATOM     19  O   UNL     1     -30.122  30.280 -15.481  1.00  0.00    -0.385 OA
ATOM     20  H   UNL     1     -30.173  31.194 -15.866  1.00  0.00     0.211 HD
ENDBRANCH  14  19
ENDBRANCH   7   8
ENDBRANCH   1   7
BRANCH   2  21
ATOM     21  O   UNL     1     -31.333  29.773 -20.568  1.00  0.00    -0.387 OA
ATOM     22  H   UNL     1     -30.802  28.950 -20.410  1.00  0.00     0.211 HD
ENDBRANCH   2  21
BRANCH   6  23
ATOM     23  O   UNL     1     -34.904  30.543 -18.601  1.00  0.00    -0.462 OA
BRANCH  23  24
ATOM     24  C   UNL     1     -35.728  29.725 -19.389  1.00  0.00     0.130 A 
ATOM     25  C   UNL     1     -35.363  28.425 -19.771  1.00  0.00     0.093 A 
ATOM     26  C   UNL     1     -36.952  30.240 -19.809  1.00  0.00     0.094 A 
ATOM     27  C   UNL     1     -36.218  27.639 -20.555  1.00  0.00     0.133 A 
ATOM     28  C   UNL     1     -37.824  29.471 -20.578  1.00  0.00     0.138 A 
ATOM     29  C   UNL     1     -37.495  28.143 -20.927  1.00  0.00     0.102 A 
ATOM     30  O   UNL     1     -39.034  30.037 -20.995  1.00  0.00    -0.484 OA
ATOM     31  C   UNL     1     -38.564  27.336 -21.588  1.00  0.00     0.174 C 
ATOM     32  C   UNL     1     -39.825  29.447 -22.025  1.00  0.00     0.211 C 
ATOM     33  O   UNL     1     -38.398  26.120 -21.866  1.00  0.00    -0.294 OA
ATOM     34  C   UNL     1     -39.928  27.933 -21.809  1.00  0.00     0.131 C 
BRANCH  27  35
ATOM     35  O   UNL     1     -35.740  26.387 -20.947  1.00  0.00    -0.507 OA
ATOM     36  H   UNL     1     -35.014  25.878 -20.465  1.00  0.00     0.293 HD
ENDBRANCH  27  35
BRANCH  32  37
ATOM     37  C   UNL     1     -41.195  30.078 -22.056  1.00  0.00    -0.007 A 
ATOM     38  C   UNL     1     -41.737  30.645 -20.889  1.00  0.00     0.011 A 
ATOM     39  C   UNL     1     -41.923  30.155 -23.258  1.00  0.00     0.011 A 
ATOM     40  C   UNL     1     -42.993  31.256 -20.920  1.00  0.00     0.046 A 
ATOM     41  C   UNL     1     -43.179  30.765 -23.284  1.00  0.00     0.046 A 
ATOM     42  C   UNL     1     -43.718  31.316 -22.114  1.00  0.00     0.115 A 
BRANCH  42  43
ATOM     43  O   UNL     1     -44.971  31.928 -22.127  1.00  0.00    -0.508 OA
ATOM     44  H   UNL     1     -45.686  31.687 -21.451  1.00  0.00     0.293 HD
ENDBRANCH  42  43
ENDBRANCH  32  37
ENDBRANCH  23  24
ENDBRANCH   6  23
BRANCH   3  45
ATOM     45  O   UNL     1     -31.314  32.530 -20.001  1.00  0.00    -0.387 OA
ATOM     46  H   UNL     1     -30.470  32.344 -19.517  1.00  0.00     0.211 HD
ENDBRANCH   3  45
BRANCH   4  47
ATOM     47  C   UNL     1     -31.742  33.093 -17.325  1.00  0.00     0.191 C 
BRANCH  47  48
ATOM     48  O   UNL     1     -31.741  34.389 -17.858  1.00  0.00    -0.394 OA
ATOM     49  H   UNL     1     -32.178  34.325 -18.746  1.00  0.00     0.210 HD
ENDBRANCH  47  48
ENDBRANCH   4  47
TORSDOF 14
ENDMDL
MODEL 2
REMARK VINA RESULT:    96.872      2.290      3.782
REMARK INTER + INTRA:         153.255
REMARK INTER:                 154.652
REMARK INTRA:                  -1.397
REMARK UNBOUND:                -0.249
REMARK SMILES C[C@@H]1O[C@@H](O[C@H]2[C@H](Oc3cc(O)c4c(c3)O[C@H](c3ccc(O)cc3)CC4=O)O[C@@H](CO)[C@@H](O)[C@@H]2O)[C@H](O)[C@H](O)[C@H]1O
REMARK SMILES IDX 6 1 34 2 32 3 29 4 28 5 7 6 5 7 4 8 1 9 2 10 40 11 3 12
REMARK SMILES IDX 38 13 36 14 41 15 39 17 37 19 35 21 8 23 9 24 10 25 15 26
REMARK SMILES IDX 11 27 14 28 13 29 16 30 26 31 17 32 27 33 25 34 12 35 18 37
REMARK SMILES IDX 19 38 24 39 20 40 23 41 21 42 22 43 33 45 30 47 31 48
REMARK H PARENT 41 16 39 18 37 20 35 22 12 36 22 44 33 46 31 49
REMARK Flexibility Score: inf
ROOT
ATOM      1  C   UNL     1     -34.691  29.604 -16.165  1.00  0.00     0.221 C 
ATOM      2  C   UNL     1     -35.652  30.055 -15.033  1.00  0.00     0.181 C 
ATOM      3  C   UNL     1     -37.118  30.054 -15.502  1.00  0.00     0.177 C 
ATOM      4  C   UNL     1     -37.505  28.648 -16.078  1.00  0.00     0.179 C 
ATOM      5  O   UNL     1     -36.392  27.905 -16.568  1.00  0.00    -0.332 OA
ATOM      6  C   UNL     1     -35.423  28.724 -17.203  1.00  0.00     0.339 C 
ENDROOT
BRANCH   1   7
ATOM      7  O   UNL     1     -33.632  28.847 -15.597  1.00  0.00    -0.337 OA
BRANCH   7   8
ATOM      8  C   UNL     1     -32.408  29.567 -15.619  1.00  0.00     0.282 C 
ATOM      9  C   UNL     1     -31.419  28.986 -19.120  1.00  0.00     0.041 C 
ATOM     10  C   UNL     1     -31.770  28.619 -17.677  1.00  0.00     0.150 C 
ATOM     11  C   UNL     1     -30.638  27.781 -17.034  1.00  0.00     0.174 C 
ATOM     12  O   UNL     1     -31.983  29.822 -16.953  1.00  0.00    -0.344 OA
ATOM     13  C   UNL     1     -30.972  27.490 -15.558  1.00  0.00     0.179 C 
ATOM     14  C   UNL     1     -31.328  28.795 -14.832  1.00  0.00     0.202 C 
BRANCH  11  15
ATOM     15  O   UNL     1     -30.431  26.579 -17.738  1.00  0.00    -0.388 OA
ATOM     16  H   UNL     1     -29.486  26.563 -18.040  1.00  0.00     0.211 HD
ENDBRANCH  11  15
BRANCH  13  17
ATOM     17  O   UNL     1     -29.879  26.880 -14.918  1.00  0.00    -0.387 OA
ATOM     18  H   UNL     1     -30.246  26.349 -14.163  1.00  0.00     0.211 HD
ENDBRANCH  13  17
BRANCH  14  19
ATOM     19  O   UNL     1     -30.178  29.590 -14.696  1.00  0.00    -0.385 OA
ATOM     20  H   UNL     1     -29.406  29.029 -14.970  1.00  0.00     0.211 HD
ENDBRANCH  14  19
ENDBRANCH   7   8
ENDBRANCH   1   7
BRANCH   2  21
ATOM     21  O   UNL     1     -35.284  31.320 -14.538  1.00  0.00    -0.387 OA
ATOM     22  H   UNL     1     -36.045  31.937 -14.691  1.00  0.00     0.211 HD
ENDBRANCH   2  21
BRANCH   6  23
ATOM     23  O   UNL     1     -36.013  29.547 -18.217  1.00  0.00    -0.462 OA
BRANCH  23  24
ATOM     24  C   UNL     1     -36.796  29.088 -19.287  1.00  0.00     0.130 A 
ATOM     25  C   UNL     1     -36.444  27.972 -20.061  1.00  0.00     0.093 A 
ATOM     26  C   UNL     1     -37.965  29.783 -19.588  1.00  0.00     0.094 A 
ATOM     27  C   UNL     1     -37.257  27.543 -21.118  1.00  0.00     0.133 A 
ATOM     28  C   UNL     1     -38.796  29.367 -20.628  1.00  0.00     0.138 A 
ATOM     29  C   UNL     1     -38.482  28.215 -21.382  1.00  0.00     0.102 A 
ATOM     30  O   UNL     1     -39.949  30.108 -20.907  1.00  0.00    -0.484 OA
ATOM     31  C   UNL     1     -39.519  27.738 -22.345  1.00  0.00     0.174 C 
ATOM     32  C   UNL     1     -40.672  29.942 -22.126  1.00  0.00     0.211 C 
ATOM     33  O   UNL     1     -39.371  26.678 -23.005  1.00  0.00    -0.294 OA
ATOM     34  C   UNL     1     -40.841  28.451 -22.441  1.00  0.00     0.131 C 
BRANCH  27  35
ATOM     35  O   UNL     1     -36.789  26.468 -21.878  1.00  0.00    -0.507 OA
ATOM     36  H   UNL     1     -36.971  25.498 -21.666  1.00  0.00     0.293 HD
ENDBRANCH  27  35
BRANCH  32  37
ATOM     37  C   UNL     1     -42.015  30.625 -22.032  1.00  0.00    -0.007 A 
ATOM     38  C   UNL     1     -42.832  30.421 -20.907  1.00  0.00     0.011 A 
ATOM     39  C   UNL     1     -42.440  31.512 -23.038  1.00  0.00     0.011 A 
ATOM     40  C   UNL     1     -44.063  31.074 -20.803  1.00  0.00     0.046 A 
ATOM     41  C   UNL     1     -43.672  32.162 -22.931  1.00  0.00     0.046 A 
ATOM     42  C   UNL     1     -44.488  31.943 -21.813  1.00  0.00     0.115 A 
BRANCH  42  43
ATOM     43  O   UNL     1     -45.719  32.586 -21.694  1.00  0.00    -0.508 OA
ATOM     44  H   UNL     1     -46.505  32.144 -21.232  1.00  0.00     0.293 HD
ENDBRANCH  42  43
ENDBRANCH  32  37
ENDBRANCH  23  24
ENDBRANCH   6  23
BRANCH   3  45
ATOM     45  O   UNL     1     -37.958  30.445 -14.447  1.00  0.00    -0.387 OA
ATOM     46  H   UNL     1     -38.263  31.365 -14.654  1.00  0.00     0.211 HD
ENDBRANCH   3  45
BRANCH   4  47
ATOM     47  C   UNL     1     -38.245  27.762 -15.062  1.00  0.00     0.191 C 
BRANCH  47  48
ATOM     48  O   UNL     1     -39.629  27.823 -15.272  1.00  0.00    -0.394 OA
ATOM     49  H   UNL     1     -39.796  27.395 -16.151  1.00  0.00     0.210 HD
ENDBRANCH  47  48
ENDBRANCH   4  47
TORSDOF 14
ENDMDL
MODEL 3
REMARK VINA RESULT:    97.019      5.725      9.993
REMARK INTER + INTRA:         153.487
REMARK INTER:                 153.337
REMARK INTRA:                   0.150
REMARK UNBOUND:                -0.249
REMARK SMILES C[C@@H]1O[C@@H](O[C@H]2[C@H](Oc3cc(O)c4c(c3)O[C@H](c3ccc(O)cc3)CC4=O)O[C@@H](CO)[C@@H](O)[C@@H]2O)[C@H](O)[C@H](O)[C@H]1O
REMARK SMILES IDX 6 1 34 2 32 3 29 4 28 5 7 6 5 7 4 8 1 9 2 10 40 11 3 12
REMARK SMILES IDX 38 13 36 14 41 15 39 17 37 19 35 21 8 23 9 24 10 25 15 26
REMARK SMILES IDX 11 27 14 28 13 29 16 30 26 31 17 32 27 33 25 34 12 35 18 37
REMARK SMILES IDX 19 38 24 39 20 40 23 41 21 42 22 43 33 45 30 47 31 48
REMARK H PARENT 41 16 39 18 37 20 35 22 12 36 22 44 33 46 31 49
REMARK Flexibility Score: inf
ROOT
ATOM      1  C   UNL     1     -41.088  28.989 -21.421  1.00  0.00     0.221 C 
ATOM      2  C   UNL     1     -41.841  29.589 -22.638  1.00  0.00     0.181 C 
ATOM      3  C   UNL     1     -43.293  29.957 -22.279  1.00  0.00     0.177 C 
ATOM      4  C   UNL     1     -43.322  30.913 -21.038  1.00  0.00     0.179 C 
ATOM      5  O   UNL     1     -42.178  30.791 -20.195  1.00  0.00    -0.332 OA
ATOM      6  C   UNL     1     -41.717  29.454 -20.088  1.00  0.00     0.339 C 
ENDROOT
BRANCH   1   7
ATOM      7  O   UNL     1     -39.735  29.418 -21.458  1.00  0.00    -0.337 OA
BRANCH   7   8
ATOM      8  C   UNL     1     -39.070  28.947 -22.621  1.00  0.00     0.282 C 
ATOM      9  C   UNL     1     -40.457  25.537 -22.778  1.00  0.00     0.041 C 
ATOM     10  C   UNL     1     -39.679  26.714 -22.188  1.00  0.00     0.150 C 
ATOM     11  C   UNL     1     -38.227  26.297 -21.849  1.00  0.00     0.174 C 
ATOM     12  O   UNL     1     -39.694  27.775 -23.133  1.00  0.00    -0.344 OA
ATOM     13  C   UNL     1     -37.437  27.516 -21.332  1.00  0.00     0.179 C 
ATOM     14  C   UNL     1     -37.581  28.690 -22.310  1.00  0.00     0.202 C 
BRANCH  11  15
ATOM     15  O   UNL     1     -38.204  25.257 -20.901  1.00  0.00    -0.388 OA
ATOM     16  H   UNL     1     -38.683  25.574 -20.091  1.00  0.00     0.211 HD
ENDBRANCH  11  15
BRANCH  13  17
ATOM     17  O   UNL     1     -36.077  27.192 -21.183  1.00  0.00    -0.387 OA
ATOM     18  H   UNL     1     -35.848  27.335 -20.228  1.00  0.00     0.211 HD
ENDBRANCH  13  17
BRANCH  14  19
ATOM     19  O   UNL     1     -36.887  28.405 -23.497  1.00  0.00    -0.385 OA
ATOM     20  H   UNL     1     -36.781  27.419 -23.539  1.00  0.00     0.211 HD
ENDBRANCH  14  19
ENDBRANCH   7   8
ENDBRANCH   1   7
BRANCH   2  21
ATOM     21  O   UNL     1     -41.803  28.709 -23.736  1.00  0.00    -0.387 OA
ATOM     22  H   UNL     1     -42.257  27.869 -23.465  1.00  0.00     0.211 HD
ENDBRANCH   2  21
BRANCH   6  23
ATOM     23  O   UNL     1     -42.771  28.562 -19.704  1.00  0.00    -0.462 OA
BRANCH  23  24
ATOM     24  C   UNL     1     -42.598  27.251 -19.233  1.00  0.00     0.130 A 
ATOM     25  C   UNL     1     -42.566  26.137 -20.085  1.00  0.00     0.093 A 
ATOM     26  C   UNL     1     -42.463  27.062 -17.859  1.00  0.00     0.094 A 
ATOM     27  C   UNL     1     -42.387  24.845 -19.573  1.00  0.00     0.133 A 
ATOM     28  C   UNL     1     -42.271  25.787 -17.330  1.00  0.00     0.138 A 
ATOM     29  C   UNL     1     -42.184  24.661 -18.178  1.00  0.00     0.102 A 
ATOM     30  O   UNL     1     -42.161  25.642 -15.943  1.00  0.00    -0.484 OA
ATOM     31  C   UNL     1     -41.791  23.368 -17.542  1.00  0.00     0.174 C 
ATOM     32  C   UNL     1     -42.278  24.370 -15.307  1.00  0.00     0.211 C 
ATOM     33  O   UNL     1     -41.608  22.326 -18.222  1.00  0.00    -0.294 OA
ATOM     34  C   UNL     1     -41.464  23.321 -16.074  1.00  0.00     0.131 C 
BRANCH  27  35
ATOM     35  O   UNL     1     -42.442  23.792 -20.489  1.00  0.00    -0.507 OA
ATOM     36  H   UNL     1     -41.720  23.584 -21.163  1.00  0.00     0.293 HD
ENDBRANCH  27  35
BRANCH  32  37
ATOM     37  C   UNL     1     -41.820  24.460 -13.872  1.00  0.00    -0.007 A 
ATOM     38  C   UNL     1     -42.761  24.437 -12.829  1.00  0.00     0.011 A 
ATOM     39  C   UNL     1     -40.449  24.515 -13.559  1.00  0.00     0.011 A 
ATOM     40  C   UNL     1     -42.339  24.491 -11.497  1.00  0.00     0.046 A 
ATOM     41  C   UNL     1     -40.032  24.570 -12.227  1.00  0.00     0.046 A 
ATOM     42  C   UNL     1     -40.977  24.560 -11.193  1.00  0.00     0.115 A 
BRANCH  42  43
ATOM     43  O   UNL     1     -40.572  24.615  -9.860  1.00  0.00    -0.508 OA
ATOM     44  H   UNL     1     -40.806  23.879  -9.204  1.00  0.00     0.293 HD
ENDBRANCH  42  43
ENDBRANCH  32  37
ENDBRANCH  23  24
ENDBRANCH   6  23
BRANCH   3  45
ATOM     45  O   UNL     1     -43.934  30.516 -23.395  1.00  0.00    -0.387 OA
ATOM     46  H   UNL     1     -44.905  30.362 -23.272  1.00  0.00     0.211 HD
ENDBRANCH   3  45
BRANCH   4  47
ATOM     47  C   UNL     1     -43.460  32.397 -21.420  1.00  0.00     0.191 C 
BRANCH  47  48
ATOM     48  O   UNL     1     -44.735  32.652 -21.944  1.00  0.00    -0.394 OA
ATOM     49  H   UNL     1     -44.662  32.529 -22.925  1.00  0.00     0.210 HD
ENDBRANCH  47  48
ENDBRANCH   4  47
TORSDOF 14
ENDMDL
