MODEL 1
REMARK VINA RESULT:    -4.237      0.000      0.000
REMARK INTER + INTRA:          -5.360
REMARK INTER:                  -5.104
REMARK INTRA:                  -0.256
REMARK UNBOUND:                -0.256
REMARK SMILES C=CCc1ccc(O)c(OC)c1
REMARK SMILES IDX 9 1 7 2 6 3 5 4 4 5 12 6 10 7 11 8 8 9 3 11 2 12 1 13
REMARK H PARENT 8 10
REMARK Flexibility Score: inf
ROOT
ATOM      1  C   UNL     1     -18.127  20.026  42.544  1.00  0.00     0.160 A 
ATOM      2  C   UNL     1     -17.713  19.798  43.870  1.00  0.00     0.157 A 
ATOM      3  C   UNL     1     -17.021  18.629  44.197  1.00  0.00     0.050 A 
ATOM      4  C   UNL     1     -16.735  17.679  43.215  1.00  0.00     0.008 A 
ATOM      5  C   UNL     1     -17.149  17.884  41.891  1.00  0.00    -0.040 A 
ATOM      6  C   UNL     1     -17.836  19.062  41.558  1.00  0.00     0.054 A 
ENDROOT
BRANCH   1   7
ATOM      7  O   UNL     1     -18.816  21.212  42.244  1.00  0.00    -0.493 OA
ATOM      8  C   UNL     1     -18.638  21.971  41.052  1.00  0.00     0.278 C 
ENDBRANCH   1   7
BRANCH   2   9
ATOM      9  O   UNL     1     -17.980  20.725  44.877  1.00  0.00    -0.504 OA
ATOM     10  H   UNL     1     -17.333  21.469  45.112  1.00  0.00     0.293 HD
ENDBRANCH   2   9
BRANCH   5  11
ATOM     11  C   UNL     1     -16.818  16.874  40.824  1.00  0.00     0.062 C 
BRANCH  11  12
ATOM     12  C   UNL     1     -15.332  16.797  40.606  1.00  0.00    -0.030 C 
ATOM     13  C   UNL     1     -14.713  17.567  39.708  1.00  0.00     0.004 C 
ENDBRANCH  11  12
ENDBRANCH   5  11
TORSDOF 4
ENDMDL
MODEL 2
REMARK VINA RESULT:    -4.104      2.651      4.210
REMARK INTER + INTRA:          -5.199
REMARK INTER:                  -4.947
REMARK INTRA:                  -0.252
REMARK UNBOUND:                -0.256
REMARK SMILES C=CCc1ccc(O)c(OC)c1
REMARK SMILES IDX 9 1 7 2 6 3 5 4 4 5 12 6 10 7 11 8 8 9 3 11 2 12 1 13
REMARK H PARENT 8 10
REMARK Flexibility Score: inf
ROOT
ATOM      1  C   UNL     1     -20.103  22.882  40.703  1.00  0.00     0.160 A 
ATOM      2  C   UNL     1     -21.233  22.241  41.244  1.00  0.00     0.157 A 
ATOM      3  C   UNL     1     -21.095  21.014  41.900  1.00  0.00     0.050 A 
ATOM      4  C   UNL     1     -19.841  20.415  42.023  1.00  0.00     0.008 A 
ATOM      5  C   UNL     1     -18.706  21.035  41.481  1.00  0.00    -0.040 A 
ATOM      6  C   UNL     1     -18.839  22.272  40.831  1.00  0.00     0.054 A 
ENDROOT
BRANCH   1   7
ATOM      7  O   UNL     1     -20.271  24.116  40.054  1.00  0.00    -0.493 OA
ATOM      8  C   UNL     1     -20.354  24.281  38.642  1.00  0.00     0.278 C 
ENDBRANCH   1   7
BRANCH   2   9
ATOM      9  O   UNL     1     -22.502  22.809  41.141  1.00  0.00    -0.504 OA
ATOM     10  H   UNL     1     -23.223  22.415  40.548  1.00  0.00     0.293 HD
ENDBRANCH   2   9
BRANCH   5  11
ATOM     11  C   UNL     1     -17.346  20.405  41.637  1.00  0.00     0.062 C 
BRANCH  11  12
ATOM     12  C   UNL     1     -17.470  18.966  42.051  1.00  0.00    -0.030 C 
ATOM     13  C   UNL     1     -17.176  17.966  41.215  1.00  0.00     0.004 C 
ENDBRANCH  11  12
ENDBRANCH   5  11
TORSDOF 4
ENDMDL
MODEL 3
REMARK VINA RESULT:    -4.101      5.867      8.170
REMARK INTER + INTRA:          -5.197
REMARK INTER:                  -4.961
REMARK INTRA:                  -0.236
REMARK UNBOUND:                -0.256
REMARK SMILES C=CCc1ccc(O)c(OC)c1
REMARK SMILES IDX 9 1 7 2 6 3 5 4 4 5 12 6 10 7 11 8 8 9 3 11 2 12 1 13
REMARK H PARENT 8 10
REMARK Flexibility Score: inf
ROOT
ATOM      1  C   UNL     1     -21.829  21.961  36.162  1.00  0.00     0.160 A 
ATOM      2  C   UNL     1     -23.036  21.242  36.244  1.00  0.00     0.157 A 
ATOM      3  C   UNL     1     -23.581  20.929  37.493  1.00  0.00     0.050 A 
ATOM      4  C   UNL     1     -22.934  21.323  38.665  1.00  0.00     0.008 A 
ATOM      5  C   UNL     1     -21.725  22.031  38.602  1.00  0.00    -0.040 A 
ATOM      6  C   UNL     1     -21.180  22.356  37.349  1.00  0.00     0.054 A 
ENDROOT
BRANCH   1   7
ATOM      7  O   UNL     1     -21.308  22.265  34.893  1.00  0.00    -0.493 OA
ATOM      8  C   UNL     1     -20.637  23.478  34.566  1.00  0.00     0.278 C 
ENDBRANCH   1   7
BRANCH   2   9
ATOM      9  O   UNL     1     -23.711  20.832  35.095  1.00  0.00    -0.504 OA
ATOM     10  H   UNL     1     -24.082  21.492  34.422  1.00  0.00     0.293 HD
ENDBRANCH   2   9
BRANCH   5  11
ATOM     11  C   UNL     1     -21.039  22.483  39.865  1.00  0.00     0.062 C 
BRANCH  11  12
ATOM     12  C   UNL     1     -21.480  21.652  41.037  1.00  0.00    -0.030 C 
ATOM     13  C   UNL     1     -20.627  20.870  41.705  1.00  0.00     0.004 C 
ENDBRANCH  11  12
ENDBRANCH   5  11
TORSDOF 4
ENDMDL
MODEL 4
REMARK VINA RESULT:    -4.043     14.704     15.440
REMARK INTER + INTRA:          -5.126
REMARK INTER:                  -4.892
REMARK INTRA:                  -0.234
REMARK UNBOUND:                -0.256
REMARK SMILES C=CCc1ccc(O)c(OC)c1
REMARK SMILES IDX 9 1 7 2 6 3 5 4 4 5 12 6 10 7 11 8 8 9 3 11 2 12 1 13
REMARK H PARENT 8 10
REMARK Flexibility Score: inf
ROOT
ATOM      1  C   UNL     1      -7.379  31.054  46.618  1.00  0.00     0.160 A 
ATOM      2  C   UNL     1      -8.384  30.832  45.658  1.00  0.00     0.157 A 
ATOM      3  C   UNL     1      -8.458  29.604  44.993  1.00  0.00     0.050 A 
ATOM      4  C   UNL     1      -7.538  28.593  45.272  1.00  0.00     0.008 A 
ATOM      5  C   UNL     1      -6.524  28.801  46.217  1.00  0.00    -0.040 A 
ATOM      6  C   UNL     1      -6.453  30.028  46.894  1.00  0.00     0.054 A 
ENDROOT
BRANCH   1   7
ATOM      7  O   UNL     1      -7.333  32.295  47.274  1.00  0.00    -0.493 OA
ATOM      8  C   UNL     1      -6.236  32.753  48.058  1.00  0.00     0.278 C 
ENDBRANCH   1   7
BRANCH   2   9
ATOM      9  O   UNL     1      -9.321  31.819  45.354  1.00  0.00    -0.504 OA
ATOM     10  H   UNL     1     -10.317  31.671  45.469  1.00  0.00     0.293 HD
ENDBRANCH   2   9
BRANCH   5  11
ATOM     11  C   UNL     1      -5.547  27.701  46.541  1.00  0.00     0.062 C 
BRANCH  11  12
ATOM     12  C   UNL     1      -6.037  26.381  46.015  1.00  0.00    -0.030 C 
ATOM     13  C   UNL     1      -6.324  25.363  46.831  1.00  0.00     0.004 C 
ENDBRANCH  11  12
ENDBRANCH   5  11
TORSDOF 4
ENDMDL
MODEL 5
REMARK VINA RESULT:    -3.998     16.140     16.850
REMARK INTER + INTRA:          -5.072
REMARK INTER:                  -4.848
REMARK INTRA:                  -0.224
REMARK UNBOUND:                -0.256
REMARK SMILES C=CCc1ccc(O)c(OC)c1
REMARK SMILES IDX 9 1 7 2 6 3 5 4 4 5 12 6 10 7 11 8 8 9 3 11 2 12 1 13
REMARK H PARENT 8 10
REMARK Flexibility Score: inf
ROOT
ATOM      1  C   UNL     1      -5.597  31.892  46.948  1.00  0.00     0.160 A 
ATOM      2  C   UNL     1      -6.992  32.051  46.853  1.00  0.00     0.157 A 
ATOM      3  C   UNL     1      -7.815  30.934  46.681  1.00  0.00     0.050 A 
ATOM      4  C   UNL     1      -7.262  29.656  46.598  1.00  0.00     0.008 A 
ATOM      5  C   UNL     1      -5.873  29.479  46.680  1.00  0.00    -0.040 A 
ATOM      6  C   UNL     1      -5.045  30.598  46.863  1.00  0.00     0.054 A 
ENDROOT
BRANCH   1   7
ATOM      7  O   UNL     1      -4.796  33.032  47.126  1.00  0.00    -0.493 OA
ATOM      8  C   UNL     1      -4.374  33.532  48.390  1.00  0.00     0.278 C 
ENDBRANCH   1   7
BRANCH   2   9
ATOM      9  O   UNL     1      -7.581  33.314  46.932  1.00  0.00    -0.504 OA
ATOM     10  H   UNL     1      -7.198  34.119  46.450  1.00  0.00     0.293 HD
ENDBRANCH   2   9
BRANCH   5  11
ATOM     11  C   UNL     1      -5.276  28.098  46.620  1.00  0.00     0.062 C 
BRANCH  11  12
ATOM     12  C   UNL     1      -6.299  27.093  46.170  1.00  0.00    -0.030 C 
ATOM     13  C   UNL     1      -6.202  25.800  46.490  1.00  0.00     0.004 C 
ENDBRANCH  11  12
ENDBRANCH   5  11
TORSDOF 4
ENDMDL
MODEL 6
REMARK VINA RESULT:    -3.995     13.780     14.597
REMARK INTER + INTRA:          -5.069
REMARK INTER:                  -4.861
REMARK INTRA:                  -0.208
REMARK UNBOUND:                -0.256
REMARK SMILES C=CCc1ccc(O)c(OC)c1
REMARK SMILES IDX 9 1 7 2 6 3 5 4 4 5 12 6 10 7 11 8 8 9 3 11 2 12 1 13
REMARK H PARENT 8 10
REMARK Flexibility Score: inf
ROOT
ATOM      1  C   UNL     1      -6.520  29.535  46.554  1.00  0.00     0.160 A 
ATOM      2  C   UNL     1      -5.849  28.299  46.516  1.00  0.00     0.157 A 
ATOM      3  C   UNL     1      -6.353  27.251  45.741  1.00  0.00     0.050 A 
ATOM      4  C   UNL     1      -7.525  27.419  45.002  1.00  0.00     0.008 A 
ATOM      5  C   UNL     1      -8.213  28.640  45.037  1.00  0.00    -0.040 A 
ATOM      6  C   UNL     1      -7.703  29.698  45.806  1.00  0.00     0.054 A 
ENDROOT
BRANCH   1   7
ATOM      7  O   UNL     1      -5.987  30.572  47.338  1.00  0.00    -0.493 OA
ATOM      8  C   UNL     1      -6.550  31.875  47.443  1.00  0.00     0.278 C 
ENDBRANCH   1   7
BRANCH   2   9
ATOM      9  O   UNL     1      -4.675  28.094  47.242  1.00  0.00    -0.504 OA
ATOM     10  H   UNL     1      -3.925  27.504  46.900  1.00  0.00     0.293 HD
ENDBRANCH   2   9
BRANCH   5  11
ATOM     11  C   UNL     1      -9.462  28.834  44.217  1.00  0.00     0.062 C 
BRANCH  11  12
ATOM     12  C   UNL     1     -10.306  27.590  44.228  1.00  0.00    -0.030 C 
ATOM     13  C   UNL     1     -11.070  27.250  43.187  1.00  0.00     0.004 C 
ENDBRANCH  11  12
ENDBRANCH   5  11
TORSDOF 4
ENDMDL
MODEL 7
REMARK VINA RESULT:    -3.995     16.822     17.902
REMARK INTER + INTRA:          -5.069
REMARK INTER:                  -4.795
REMARK INTRA:                  -0.274
REMARK UNBOUND:                -0.256
REMARK SMILES C=CCc1ccc(O)c(OC)c1
REMARK SMILES IDX 9 1 7 2 6 3 5 4 4 5 12 6 10 7 11 8 8 9 3 11 2 12 1 13
REMARK H PARENT 8 10
REMARK Flexibility Score: inf
ROOT
ATOM      1  C   UNL     1      -5.969  29.508  46.801  1.00  0.00     0.160 A 
ATOM      2  C   UNL     1      -4.579  29.556  46.586  1.00  0.00     0.157 A 
ATOM      3  C   UNL     1      -3.876  30.742  46.816  1.00  0.00     0.050 A 
ATOM      4  C   UNL     1      -4.543  31.886  47.257  1.00  0.00     0.008 A 
ATOM      5  C   UNL     1      -5.930  31.858  47.465  1.00  0.00    -0.040 A 
ATOM      6  C   UNL     1      -6.637  30.666  47.245  1.00  0.00     0.054 A 
ENDROOT
BRANCH   1   7
ATOM      7  O   UNL     1      -6.649  28.301  46.566  1.00  0.00    -0.493 OA
ATOM      8  C   UNL     1      -7.378  28.002  45.380  1.00  0.00     0.278 C 
ENDBRANCH   1   7
BRANCH   2   9
ATOM      9  O   UNL     1      -3.878  28.433  46.147  1.00  0.00    -0.504 OA
ATOM     10  H   UNL     1      -4.002  27.520  46.568  1.00  0.00     0.293 HD
ENDBRANCH   2   9
BRANCH   5  11
ATOM     11  C   UNL     1      -6.649  33.083  47.968  1.00  0.00     0.062 C 
BRANCH  11  12
ATOM     12  C   UNL     1      -5.781  33.857  48.920  1.00  0.00    -0.030 C 
ATOM     13  C   UNL     1      -5.885  33.712  50.244  1.00  0.00     0.004 C 
ENDBRANCH  11  12
ENDBRANCH   5  11
TORSDOF 4
ENDMDL
MODEL 8
REMARK VINA RESULT:    -3.978     16.347     17.502
REMARK INTER + INTRA:          -5.048
REMARK INTER:                  -4.810
REMARK INTRA:                  -0.238
REMARK UNBOUND:                -0.256
REMARK SMILES C=CCc1ccc(O)c(OC)c1
REMARK SMILES IDX 9 1 7 2 6 3 5 4 4 5 12 6 10 7 11 8 8 9 3 11 2 12 1 13
REMARK H PARENT 8 10
REMARK Flexibility Score: inf
ROOT
ATOM      1  C   UNL     1      -5.779  29.418  46.672  1.00  0.00     0.160 A 
ATOM      2  C   UNL     1      -7.137  29.394  46.304  1.00  0.00     0.157 A 
ATOM      3  C   UNL     1      -7.936  30.525  46.500  1.00  0.00     0.050 A 
ATOM      4  C   UNL     1      -7.395  31.683  47.062  1.00  0.00     0.008 A 
ATOM      5  C   UNL     1      -6.047  31.720  47.444  1.00  0.00    -0.040 A 
ATOM      6  C   UNL     1      -5.240  30.590  47.239  1.00  0.00     0.054 A 
ENDROOT
BRANCH   1   7
ATOM      7  O   UNL     1      -5.000  28.268  46.458  1.00  0.00    -0.493 OA
ATOM      8  C   UNL     1      -4.171  28.055  45.320  1.00  0.00     0.278 C 
ENDBRANCH   1   7
BRANCH   2   9
ATOM      9  O   UNL     1      -7.712  28.256  45.739  1.00  0.00    -0.504 OA
ATOM     10  H   UNL     1      -8.057  27.489  46.304  1.00  0.00     0.293 HD
ENDBRANCH   2   9
BRANCH   5  11
ATOM     11  C   UNL     1      -5.453  32.977  48.024  1.00  0.00     0.062 C 
BRANCH  11  12
ATOM     12  C   UNL     1      -6.376  33.580  49.046  1.00  0.00    -0.030 C 
ATOM     13  C   UNL     1      -5.981  33.810  50.301  1.00  0.00     0.004 C 
ENDBRANCH  11  12
ENDBRANCH   5  11
TORSDOF 4
ENDMDL
MODEL 9
REMARK VINA RESULT:    -3.953      3.351      5.761
REMARK INTER + INTRA:          -5.018
REMARK INTER:                  -4.864
REMARK INTRA:                  -0.154
REMARK UNBOUND:                -0.256
REMARK SMILES C=CCc1ccc(O)c(OC)c1
REMARK SMILES IDX 9 1 7 2 6 3 5 4 4 5 12 6 10 7 11 8 8 9 3 11 2 12 1 13
REMARK H PARENT 8 10
REMARK Flexibility Score: inf
ROOT
ATOM      1  C   UNL     1     -19.293  20.811  41.941  1.00  0.00     0.160 A 
ATOM      2  C   UNL     1     -18.335  21.694  41.407  1.00  0.00     0.157 A 
ATOM      3  C   UNL     1     -18.721  22.673  40.485  1.00  0.00     0.050 A 
ATOM      4  C   UNL     1     -20.054  22.780  40.086  1.00  0.00     0.008 A 
ATOM      5  C   UNL     1     -21.019  21.902  40.599  1.00  0.00    -0.040 A 
ATOM      6  C   UNL     1     -20.637  20.925  41.532  1.00  0.00     0.054 A 
ENDROOT
BRANCH   1   7
ATOM      7  O   UNL     1     -18.876  19.843  42.868  1.00  0.00    -0.493 OA
ATOM      8  C   UNL     1     -18.669  20.089  44.255  1.00  0.00     0.278 C 
ENDBRANCH   1   7
BRANCH   2   9
ATOM      9  O   UNL     1     -16.994  21.617  41.783  1.00  0.00    -0.504 OA
ATOM     10  H   UNL     1     -16.351  20.962  41.355  1.00  0.00     0.293 HD
ENDBRANCH   2   9
BRANCH   5  11
ATOM     11  C   UNL     1     -22.463  22.034  40.191  1.00  0.00     0.062 C 
BRANCH  11  12
ATOM     12  C   UNL     1     -22.647  21.653  38.749  1.00  0.00    -0.030 C 
ATOM     13  C   UNL     1     -23.732  20.998  38.328  1.00  0.00     0.004 C 
ENDBRANCH  11  12
ENDBRANCH   5  11
TORSDOF 4
ENDMDL
