MODEL 1
REMARK VINA RESULT:    -4.490      0.000      0.000
REMARK INTER + INTRA:          -7.463
REMARK INTER:                  -6.853
REMARK INTRA:                  -0.610
REMARK UNBOUND:                -0.610
REMARK SMILES O=C([O-])CCCCCCCCC(=O)[O-]
REMARK SMILES IDX 7 1 6 2 5 3 4 4 2 5 1 6 3 7 8 8 9 9 10 10 11 11 12 12 13 13
REMARK SMILES IDX 14 14
REMARK H PARENT
REMARK Flexibility Score: inf
ROOT
ATOM      1  C   UNL     1       7.464  27.238 -12.762  1.00  0.00     0.000 C 
ENDROOT
BRANCH   1   2
ATOM      2  C   UNL     1       7.342  25.709 -12.846  1.00  0.00     0.000 C 
BRANCH   2   3
ATOM      3  C   UNL     1       8.726  25.054 -12.968  1.00  0.00     0.006 C 
BRANCH   3   4
ATOM      4  C   UNL     1       8.825  23.750 -12.166  1.00  0.00     0.053 C 
BRANCH   4   5
ATOM      5  C   UNL     1       8.513  23.965 -10.718  1.00  0.00     0.041 C 
ATOM      6  O   UNL     1       9.241  24.717 -10.016  1.00  0.00    -0.550 OA
ATOM      7  O   UNL     1       7.400  23.360 -10.148  1.00  0.00    -0.550 OA
ENDBRANCH   4   5
ENDBRANCH   3   4
ENDBRANCH   2   3
ENDBRANCH   1   2
BRANCH   1   8
ATOM      8  C   UNL     1       8.923  27.718 -12.767  1.00  0.00     0.000 C 
BRANCH   8   9
ATOM      9  C   UNL     1       9.044  29.245 -12.648  1.00  0.00     0.000 C 
BRANCH   9  10
ATOM     10  C   UNL     1       7.677  29.919 -12.814  1.00  0.00     0.006 C 
BRANCH  10  11
ATOM     11  C   UNL     1       7.561  30.599 -14.182  1.00  0.00     0.053 C 
BRANCH  11  12
ATOM     12  C   UNL     1       6.252  30.266 -14.824  1.00  0.00     0.041 C 
ATOM     13  O   UNL     1       6.040  29.106 -15.266  1.00  0.00    -0.550 OA
ATOM     14  O   UNL     1       5.283  31.249 -14.979  1.00  0.00    -0.550 OA
ENDBRANCH  11  12
ENDBRANCH  10  11
ENDBRANCH   9  10
ENDBRANCH   8   9
ENDBRANCH   1   8
TORSDOF 9
ENDMDL
MODEL 2
REMARK VINA RESULT:    -4.413      1.030      6.420
REMARK INTER + INTRA:          -7.344
REMARK INTER:                  -6.772
REMARK INTRA:                  -0.572
REMARK UNBOUND:                -0.610
REMARK SMILES O=C([O-])CCCCCCCCC(=O)[O-]
REMARK SMILES IDX 7 1 6 2 5 3 4 4 2 5 1 6 3 7 8 8 9 9 10 10 11 11 12 12 13 13
REMARK SMILES IDX 14 14
REMARK H PARENT
REMARK Flexibility Score: inf
ROOT
ATOM      1  C   UNL     1       7.909  27.621 -12.728  1.00  0.00     0.000 C 
ENDROOT
BRANCH   1   2
ATOM      2  C   UNL     1       8.638  28.973 -12.752  1.00  0.00     0.000 C 
BRANCH   2   3
ATOM      3  C   UNL     1       7.635  30.137 -12.769  1.00  0.00     0.006 C 
BRANCH   3   4
ATOM      4  C   UNL     1       7.539  30.800 -14.149  1.00  0.00     0.053 C 
BRANCH   4   5
ATOM      5  C   UNL     1       6.397  30.253 -14.948  1.00  0.00     0.041 C 
ATOM      6  O   UNL     1       5.255  30.779 -14.867  1.00  0.00    -0.550 OA
ATOM      7  O   UNL     1       6.601  29.182 -15.809  1.00  0.00    -0.550 OA
ENDBRANCH   4   5
ENDBRANCH   3   4
ENDBRANCH   2   3
ENDBRANCH   1   2
BRANCH   1   8
ATOM      8  C   UNL     1       8.774  26.471 -13.267  1.00  0.00     0.000 C 
BRANCH   8   9
ATOM      9  C   UNL     1      10.013  26.205 -12.399  1.00  0.00     0.000 C 
BRANCH   9  10
ATOM     10  C   UNL     1       9.670  25.284 -11.221  1.00  0.00     0.006 C 
BRANCH  10  11
ATOM     11  C   UNL     1       8.904  24.046 -11.695  1.00  0.00     0.053 C 
BRANCH  11  12
ATOM     12  C   UNL     1       7.644  23.876 -10.906  1.00  0.00     0.041 C 
ATOM     13  O   UNL     1       7.661  23.254  -9.811  1.00  0.00    -0.550 OA
ATOM     14  O   UNL     1       6.441  24.360 -11.403  1.00  0.00    -0.550 OA
ENDBRANCH  11  12
ENDBRANCH  10  11
ENDBRANCH   9  10
ENDBRANCH   8   9
ENDBRANCH   1   8
TORSDOF 9
ENDMDL
MODEL 3
REMARK VINA RESULT:    -4.363      1.372      1.988
REMARK INTER + INTRA:          -7.268
REMARK INTER:                  -6.706
REMARK INTRA:                  -0.562
REMARK UNBOUND:                -0.610
REMARK SMILES O=C([O-])CCCCCCCCC(=O)[O-]
REMARK SMILES IDX 7 1 6 2 5 3 4 4 2 5 1 6 3 7 8 8 9 9 10 10 11 11 12 12 13 13
REMARK SMILES IDX 14 14
REMARK H PARENT
REMARK Flexibility Score: inf
ROOT
ATOM      1  C   UNL     1       9.229  28.208 -12.627  1.00  0.00     0.000 C 
ENDROOT
BRANCH   1   2
ATOM      2  C   UNL     1       9.316  26.770 -13.160  1.00  0.00     0.000 C 
BRANCH   2   3
ATOM      3  C   UNL     1       9.584  25.777 -12.019  1.00  0.00     0.006 C 
BRANCH   3   4
ATOM      4  C   UNL     1       8.973  24.397 -12.294  1.00  0.00     0.053 C 
BRANCH   4   5
ATOM      5  C   UNL     1       7.575  24.295 -11.766  1.00  0.00     0.041 C 
ATOM      6  O   UNL     1       7.366  23.862 -10.602  1.00  0.00    -0.550 OA
ATOM      7  O   UNL     1       6.504  24.708 -12.548  1.00  0.00    -0.550 OA
ENDBRANCH   4   5
ENDBRANCH   3   4
ENDBRANCH   2   3
ENDBRANCH   1   2
BRANCH   1   8
ATOM      8  C   UNL     1       7.851  28.846 -12.864  1.00  0.00     0.000 C 
BRANCH   8   9
ATOM      9  C   UNL     1       6.952  27.992 -13.771  1.00  0.00     0.000 C 
BRANCH   9  10
ATOM     10  C   UNL     1       6.357  28.836 -14.905  1.00  0.00     0.006 C 
BRANCH  10  11
ATOM     11  C   UNL     1       6.875  30.276 -14.849  1.00  0.00     0.053 C 
BRANCH  11  12
ATOM     12  C   UNL     1       5.839  31.226 -15.362  1.00  0.00     0.041 C 
ATOM     13  O   UNL     1       5.981  31.771 -16.488  1.00  0.00    -0.550 OA
ATOM     14  O   UNL     1       4.741  31.548 -14.574  1.00  0.00    -0.550 OA
ENDBRANCH  11  12
ENDBRANCH  10  11
ENDBRANCH   9  10
ENDBRANCH   8   9
ENDBRANCH   1   8
TORSDOF 9
ENDMDL
MODEL 4
REMARK VINA RESULT:    -4.351      1.474      2.024
REMARK INTER + INTRA:          -7.250
REMARK INTER:                  -6.632
REMARK INTRA:                  -0.618
REMARK UNBOUND:                -0.610
REMARK SMILES O=C([O-])CCCCCCCCC(=O)[O-]
REMARK SMILES IDX 7 1 6 2 5 3 4 4 2 5 1 6 3 7 8 8 9 9 10 10 11 11 12 12 13 13
REMARK SMILES IDX 14 14
REMARK H PARENT
REMARK Flexibility Score: inf
ROOT
ATOM      1  C   UNL     1       8.854  28.058 -13.040  1.00  0.00     0.000 C 
ENDROOT
BRANCH   1   2
ATOM      2  C   UNL     1       7.386  27.608 -13.000  1.00  0.00     0.000 C 
BRANCH   2   3
ATOM      3  C   UNL     1       7.283  26.091 -12.779  1.00  0.00     0.006 C 
BRANCH   3   4
ATOM      4  C   UNL     1       8.492  25.532 -12.018  1.00  0.00     0.053 C 
BRANCH   4   5
ATOM      5  C   UNL     1       8.893  24.183 -12.528  1.00  0.00     0.041 C 
ATOM      6  O   UNL     1       8.872  23.182 -11.764  1.00  0.00    -0.550 OA
ATOM      7  O   UNL     1       9.261  24.024 -13.859  1.00  0.00    -0.550 OA
ENDBRANCH   4   5
ENDBRANCH   3   4
ENDBRANCH   2   3
ENDBRANCH   1   2
BRANCH   1   8
ATOM      8  C   UNL     1       9.016  29.573 -12.841  1.00  0.00     0.000 C 
BRANCH   8   9
ATOM      9  C   UNL     1       7.672  30.292 -12.650  1.00  0.00     0.000 C 
BRANCH   9  10
ATOM     10  C   UNL     1       7.489  31.400 -13.695  1.00  0.00     0.006 C 
BRANCH  10  11
ATOM     11  C   UNL     1       6.104  31.320 -14.345  1.00  0.00     0.053 C 
BRANCH  11  12
ATOM     12  C   UNL     1       6.192  30.666 -15.687  1.00  0.00     0.041 C 
ATOM     13  O   UNL     1       6.264  29.411 -15.777  1.00  0.00    -0.550 OA
ATOM     14  O   UNL     1       6.245  31.443 -16.837  1.00  0.00    -0.550 OA
ENDBRANCH  11  12
ENDBRANCH  10  11
ENDBRANCH   9  10
ENDBRANCH   8   9
ENDBRANCH   1   8
TORSDOF 9
ENDMDL
MODEL 5
REMARK VINA RESULT:    -4.350     13.163     15.848
REMARK INTER + INTRA:          -7.248
REMARK INTER:                  -6.340
REMARK INTRA:                  -0.908
REMARK UNBOUND:                -0.610
REMARK SMILES O=C([O-])CCCCCCCCC(=O)[O-]
REMARK SMILES IDX 7 1 6 2 5 3 4 4 2 5 1 6 3 7 8 8 9 9 10 10 11 11 12 12 13 13
REMARK SMILES IDX 14 14
REMARK H PARENT
REMARK Flexibility Score: inf
ROOT
ATOM      1  C   UNL     1      -4.963  31.883 -16.893  1.00  0.00     0.000 C 
ENDROOT
BRANCH   1   2
ATOM      2  C   UNL     1      -6.435  31.611 -16.551  1.00  0.00     0.000 C 
BRANCH   2   3
ATOM      3  C   UNL     1      -7.043  32.785 -15.769  1.00  0.00     0.006 C 
BRANCH   3   4
ATOM      4  C   UNL     1      -8.341  33.299 -16.407  1.00  0.00     0.053 C 
BRANCH   4   5
ATOM      5  C   UNL     1      -8.071  34.096 -17.646  1.00  0.00     0.041 C 
ATOM      6  O   UNL     1      -7.692  35.294 -17.560  1.00  0.00    -0.550 OA
ATOM      7  O   UNL     1      -8.207  33.506 -18.896  1.00  0.00    -0.550 OA
ENDBRANCH   4   5
ENDBRANCH   3   4
ENDBRANCH   2   3
ENDBRANCH   1   2
BRANCH   1   8
ATOM      8  C   UNL     1      -4.625  31.559 -18.357  1.00  0.00     0.000 C 
BRANCH   8   9
ATOM      9  C   UNL     1      -4.617  32.807 -19.253  1.00  0.00     0.000 C 
BRANCH   9  10
ATOM     10  C   UNL     1      -4.458  34.082 -18.417  1.00  0.00     0.006 C 
BRANCH  10  11
ATOM     11  C   UNL     1      -3.101  34.744 -18.676  1.00  0.00     0.053 C 
BRANCH  11  12
ATOM     12  C   UNL     1      -2.022  34.041 -17.915  1.00  0.00     0.041 C 
ATOM     13  O   UNL     1      -1.984  34.111 -16.658  1.00  0.00    -0.550 OA
ATOM     14  O   UNL     1      -1.028  33.350 -18.596  1.00  0.00    -0.550 OA
ENDBRANCH  11  12
ENDBRANCH  10  11
ENDBRANCH   9  10
ENDBRANCH   8   9
ENDBRANCH   1   8
TORSDOF 9
ENDMDL
MODEL 6
REMARK VINA RESULT:    -4.327      1.400      6.691
REMARK INTER + INTRA:          -7.213
REMARK INTER:                  -6.829
REMARK INTRA:                  -0.384
REMARK UNBOUND:                -0.610
REMARK SMILES O=C([O-])CCCCCCCCC(=O)[O-]
REMARK SMILES IDX 7 1 6 2 5 3 4 4 2 5 1 6 3 7 8 8 9 9 10 10 11 11 12 12 13 13
REMARK SMILES IDX 14 14
REMARK H PARENT
REMARK Flexibility Score: inf
ROOT
ATOM      1  C   UNL     1       8.306  27.723 -12.777  1.00  0.00     0.000 C 
ENDROOT
BRANCH   1   2
ATOM      2  C   UNL     1       7.763  29.159 -12.733  1.00  0.00     0.000 C 
BRANCH   2   3
ATOM      3  C   UNL     1       7.764  29.789 -14.133  1.00  0.00     0.006 C 
BRANCH   3   4
ATOM      4  C   UNL     1       6.454  29.528 -14.889  1.00  0.00     0.053 C 
BRANCH   4   5
ATOM      5  C   UNL     1       5.790  30.804 -15.304  1.00  0.00     0.041 C 
ATOM      6  O   UNL     1       6.129  31.379 -16.373  1.00  0.00    -0.550 OA
ATOM      7  O   UNL     1       4.773  31.344 -14.526  1.00  0.00    -0.550 OA
ENDBRANCH   4   5
ENDBRANCH   3   4
ENDBRANCH   2   3
ENDBRANCH   1   2
BRANCH   1   8
ATOM      8  C   UNL     1       9.842  27.669 -12.770  1.00  0.00     0.000 C 
BRANCH   8   9
ATOM      9  C   UNL     1      10.389  26.474 -11.975  1.00  0.00     0.000 C 
BRANCH   9  10
ATOM     10  C   UNL     1       9.469  25.255 -12.114  1.00  0.00     0.006 C 
BRANCH  10  11
ATOM     11  C   UNL     1       9.170  24.632 -10.747  1.00  0.00     0.053 C 
BRANCH  11  12
ATOM     12  C   UNL     1       7.840  23.948 -10.762  1.00  0.00     0.041 C 
ATOM     13  O   UNL     1       6.952  24.306 -11.581  1.00  0.00    -0.550 OA
ATOM     14  O   UNL     1       7.562  22.947  -9.840  1.00  0.00    -0.550 OA
ENDBRANCH  11  12
ENDBRANCH  10  11
ENDBRANCH   9  10
ENDBRANCH   8   9
ENDBRANCH   1   8
TORSDOF 9
ENDMDL
MODEL 7
REMARK VINA RESULT:    -4.317      1.210      1.821
REMARK INTER + INTRA:          -7.198
REMARK INTER:                  -6.697
REMARK INTRA:                  -0.500
REMARK UNBOUND:                -0.610
REMARK SMILES O=C([O-])CCCCCCCCC(=O)[O-]
REMARK SMILES IDX 7 1 6 2 5 3 4 4 2 5 1 6 3 7 8 8 9 9 10 10 11 11 12 12 13 13
REMARK SMILES IDX 14 14
REMARK H PARENT
REMARK Flexibility Score: inf
ROOT
ATOM      1  C   UNL     1       9.111  27.194 -13.370  1.00  0.00     0.000 C 
ENDROOT
BRANCH   1   2
ATOM      2  C   UNL     1      10.161  26.673 -12.377  1.00  0.00     0.000 C 
BRANCH   2   3
ATOM      3  C   UNL     1       9.645  25.432 -11.634  1.00  0.00     0.006 C 
BRANCH   3   4
ATOM      4  C   UNL     1       8.704  24.585 -12.500  1.00  0.00     0.053 C 
BRANCH   4   5
ATOM      5  C   UNL     1       7.375  24.385 -11.841  1.00  0.00     0.041 C 
ATOM      6  O   UNL     1       6.314  24.707 -12.440  1.00  0.00    -0.550 OA
ATOM      7  O   UNL     1       7.303  23.813 -10.577  1.00  0.00    -0.550 OA
ENDBRANCH   4   5
ENDBRANCH   3   4
ENDBRANCH   2   3
ENDBRANCH   1   2
BRANCH   1   8
ATOM      8  C   UNL     1       8.119  28.174 -12.724  1.00  0.00     0.000 C 
BRANCH   8   9
ATOM      9  C   UNL     1       8.644  29.618 -12.701  1.00  0.00     0.000 C 
BRANCH   9  10
ATOM     10  C   UNL     1       7.486  30.623 -12.735  1.00  0.00     0.006 C 
BRANCH  10  11
ATOM     11  C   UNL     1       7.299  31.200 -14.142  1.00  0.00     0.053 C 
BRANCH  11  12
ATOM     12  C   UNL     1       6.028  30.698 -14.750  1.00  0.00     0.041 C 
ATOM     13  O   UNL     1       5.030  31.460 -14.852  1.00  0.00    -0.550 OA
ATOM     14  O   UNL     1       5.928  29.374 -15.157  1.00  0.00    -0.550 OA
ENDBRANCH  11  12
ENDBRANCH  10  11
ENDBRANCH   9  10
ENDBRANCH   8   9
ENDBRANCH   1   8
TORSDOF 9
ENDMDL
MODEL 8
REMARK VINA RESULT:    -4.286      1.290      1.845
REMARK INTER + INTRA:          -7.152
REMARK INTER:                  -6.635
REMARK INTRA:                  -0.517
REMARK UNBOUND:                -0.610
REMARK SMILES O=C([O-])CCCCCCCCC(=O)[O-]
REMARK SMILES IDX 7 1 6 2 5 3 4 4 2 5 1 6 3 7 8 8 9 9 10 10 11 11 12 12 13 13
REMARK SMILES IDX 14 14
REMARK H PARENT
REMARK Flexibility Score: inf
ROOT
ATOM      1  C   UNL     1       9.611  27.439 -12.443  1.00  0.00     0.000 C 
ENDROOT
BRANCH   1   2
ATOM      2  C   UNL     1      10.325  26.187 -11.912  1.00  0.00     0.000 C 
BRANCH   2   3
ATOM      3  C   UNL     1       9.369  24.986 -11.869  1.00  0.00     0.006 C 
BRANCH   3   4
ATOM      4  C   UNL     1       9.210  24.421 -10.451  1.00  0.00     0.053 C 
BRANCH   4   5
ATOM      5  C   UNL     1       7.902  23.713 -10.280  1.00  0.00     0.041 C 
ATOM      6  O   UNL     1       7.749  22.875  -9.352  1.00  0.00    -0.550 OA
ATOM      7  O   UNL     1       6.839  24.001 -11.127  1.00  0.00    -0.550 OA
ENDBRANCH   4   5
ENDBRANCH   3   4
ENDBRANCH   2   3
ENDBRANCH   1   2
BRANCH   1   8
ATOM      8  C   UNL     1       8.126  27.189 -12.751  1.00  0.00     0.000 C 
BRANCH   8   9
ATOM      9  C   UNL     1       7.375  28.474 -13.129  1.00  0.00     0.000 C 
BRANCH   9  10
ATOM     10  C   UNL     1       8.191  29.717 -12.752  1.00  0.00     0.006 C 
BRANCH  10  11
ATOM     11  C   UNL     1       8.253  30.709 -13.917  1.00  0.00     0.053 C 
BRANCH  11  12
ATOM     12  C   UNL     1       6.881  31.190 -14.269  1.00  0.00     0.041 C 
ATOM     13  O   UNL     1       6.204  31.843 -13.431  1.00  0.00    -0.550 OA
ATOM     14  O   UNL     1       6.330  30.876 -15.504  1.00  0.00    -0.550 OA
ENDBRANCH  11  12
ENDBRANCH  10  11
ENDBRANCH   9  10
ENDBRANCH   8   9
ENDBRANCH   1   8
TORSDOF 9
ENDMDL
MODEL 9
REMARK VINA RESULT:    -4.223      1.748      6.428
REMARK INTER + INTRA:          -7.055
REMARK INTER:                  -6.402
REMARK INTRA:                  -0.653
REMARK UNBOUND:                -0.610
REMARK SMILES O=C([O-])CCCCCCCCC(=O)[O-]
REMARK SMILES IDX 7 1 6 2 5 3 4 4 2 5 1 6 3 7 8 8 9 9 10 10 11 11 12 12 13 13
REMARK SMILES IDX 14 14
REMARK H PARENT
REMARK Flexibility Score: inf
ROOT
ATOM      1  C   UNL     1       7.860  29.094 -12.741  1.00  0.00     0.000 C 
ENDROOT
BRANCH   1   2
ATOM      2  C   UNL     1       7.024  28.231 -13.698  1.00  0.00     0.000 C 
BRANCH   2   3
ATOM      3  C   UNL     1       6.713  28.993 -14.995  1.00  0.00     0.006 C 
BRANCH   3   4
ATOM      4  C   UNL     1       6.946  30.503 -14.851  1.00  0.00     0.053 C 
BRANCH   4   5
ATOM      5  C   UNL     1       5.790  31.294 -15.380  1.00  0.00     0.041 C 
ATOM      6  O   UNL     1       4.764  31.473 -14.670  1.00  0.00    -0.550 OA
ATOM      7  O   UNL     1       5.857  31.863 -16.646  1.00  0.00    -0.550 OA
ENDBRANCH   4   5
ENDBRANCH   3   4
ENDBRANCH   2   3
ENDBRANCH   1   2
BRANCH   1   8
ATOM      8  C   UNL     1       9.334  28.661 -12.686  1.00  0.00     0.000 C 
BRANCH   8   9
ATOM      9  C   UNL     1       9.581  27.313 -13.379  1.00  0.00     0.000 C 
BRANCH   9  10
ATOM     10  C   UNL     1      10.368  26.364 -12.467  1.00  0.00     0.006 C 
BRANCH  10  11
ATOM     11  C   UNL     1       9.425  25.442 -11.688  1.00  0.00     0.053 C 
BRANCH  11  12
ATOM     12  C   UNL     1       8.673  24.549 -12.624  1.00  0.00     0.041 C 
ATOM     13  O   UNL     1       9.276  23.637 -13.251  1.00  0.00    -0.550 OA
ATOM     14  O   UNL     1       7.318  24.755 -12.843  1.00  0.00    -0.550 OA
ENDBRANCH  11  12
ENDBRANCH  10  11
ENDBRANCH   9  10
ENDBRANCH   8   9
ENDBRANCH   1   8
TORSDOF 9
ENDMDL
