MODEL 1
REMARK VINA RESULT:    -2.813      0.000      0.000
REMARK INTER + INTRA:          -3.580
REMARK INTER:                  -3.389
REMARK INTRA:                  -0.191
REMARK UNBOUND:                -0.191
REMARK SMILES O=c1c(O)c(-c2ccc(O)cc2O)oc2cc(O)cc(O)c12
REMARK SMILES IDX 5 1 3 2 2 3 1 4 22 5 20 6 19 7 17 8 16 9 15 10 14 11 6 12
REMARK SMILES IDX 8 13 7 14 9 15 11 16 12 17 10 18 13 20 4 22 21 24 18 26
REMARK H PARENT 10 19 13 21 4 23 21 25 18 27
REMARK Flexibility Score: inf
ROOT
ATOM      1  C   UNL     1      45.146  73.360 156.021  1.00  0.00     0.184 A 
ATOM      2  C   UNL     1      44.791  74.104 157.162  1.00  0.00     0.208 A 
ATOM      3  C   UNL     1      43.578  73.820 157.806  1.00  0.00     0.238 A 
ATOM      4  O   UNL     1      43.252  74.475 158.834  1.00  0.00    -0.285 OA
ATOM      5  C   UNL     1      42.735  72.812 157.294  1.00  0.00     0.111 A 
ATOM      6  C   UNL     1      41.495  72.466 157.881  1.00  0.00     0.134 A 
ATOM      7  C   UNL     1      40.710  71.456 157.305  1.00  0.00     0.093 A 
ATOM      8  C   UNL     1      41.143  70.786 156.155  1.00  0.00     0.123 A 
ATOM      9  C   UNL     1      42.365  71.123 155.573  1.00  0.00     0.094 A 
ATOM     10  C   UNL     1      43.162  72.127 156.131  1.00  0.00     0.146 A 
ATOM     11  O   UNL     1      44.323  72.424 155.559  1.00  0.00    -0.451 OA
ENDROOT
BRANCH   1  12
ATOM     12  C   UNL     1      46.420  73.594 155.303  1.00  0.00     0.063 A 
ATOM     13  C   UNL     1      48.027  75.123 154.300  1.00  0.00     0.047 A 
ATOM     14  C   UNL     1      46.814  74.898 154.954  1.00  0.00     0.020 A 
ATOM     15  C   UNL     1      48.872  74.048 153.995  1.00  0.00     0.119 A 
ATOM     16  C   UNL     1      48.496  72.750 154.350  1.00  0.00     0.093 A 
ATOM     17  C   UNL     1      47.278  72.515 155.004  1.00  0.00     0.130 A 
BRANCH  15  18
ATOM     18  O   UNL     1      50.084  74.260 153.344  1.00  0.00    -0.508 OA
ATOM     19  H   UNL     1      50.320  73.767 152.490  1.00  0.00     0.293 HD
ENDBRANCH  15  18
BRANCH  17  20
ATOM     20  O   UNL     1      46.913  71.213 155.346  1.00  0.00    -0.507 OA
ATOM     21  H   UNL     1      46.664  70.963 156.296  1.00  0.00     0.293 HD
ENDBRANCH  17  20
ENDBRANCH   1  12
BRANCH   2  22
ATOM     22  O   UNL     1      45.626  75.125 157.624  1.00  0.00    -0.502 OA
ATOM     23  H   UNL     1      45.934  75.179 158.588  1.00  0.00     0.293 HD
ENDBRANCH   2  22
BRANCH   6  24
ATOM     24  O   UNL     1      41.037  73.117 159.027  1.00  0.00    -0.507 OA
ATOM     25  H   UNL     1      40.447  73.940 158.974  1.00  0.00     0.293 HD
ENDBRANCH   6  24
BRANCH   8  26
ATOM     26  O   UNL     1      40.363  69.783 155.582  1.00  0.00    -0.508 OA
ATOM     27  H   UNL     1      40.783  68.992 155.108  1.00  0.00     0.293 HD
ENDBRANCH   8  26
TORSDOF 6
ENDMDL
MODEL 2
REMARK VINA RESULT:    -2.432      2.168      7.226
REMARK INTER + INTRA:          -3.121
REMARK INTER:                  -3.166
REMARK INTRA:                   0.045
REMARK UNBOUND:                -0.191
REMARK SMILES O=c1c(O)c(-c2ccc(O)cc2O)oc2cc(O)cc(O)c12
REMARK SMILES IDX 5 1 3 2 2 3 1 4 22 5 20 6 19 7 17 8 16 9 15 10 14 11 6 12
REMARK SMILES IDX 8 13 7 14 9 15 11 16 12 17 10 18 13 20 4 22 21 24 18 26
REMARK H PARENT 10 19 13 21 4 23 21 25 18 27
REMARK Flexibility Score: inf
ROOT
ATOM      1  C   UNL     1      40.854  72.541 157.453  1.00  0.00     0.184 A 
ATOM      2  C   UNL     1      41.211  73.639 158.258  1.00  0.00     0.208 A 
ATOM      3  C   UNL     1      42.524  74.129 158.195  1.00  0.00     0.238 A 
ATOM      4  O   UNL     1      42.854  75.117 158.906  1.00  0.00    -0.285 OA
ATOM      5  C   UNL     1      43.460  73.506 157.342  1.00  0.00     0.111 A 
ATOM      6  C   UNL     1      44.803  73.935 157.221  1.00  0.00     0.134 A 
ATOM      7  C   UNL     1      45.675  73.258 156.357  1.00  0.00     0.093 A 
ATOM      8  C   UNL     1      45.228  72.160 155.611  1.00  0.00     0.123 A 
ATOM      9  C   UNL     1      43.905  71.734 155.726  1.00  0.00     0.094 A 
ATOM     10  C   UNL     1      43.020  72.397 156.582  1.00  0.00     0.146 A 
ATOM     11  O   UNL     1      41.765  71.972 156.668  1.00  0.00    -0.451 OA
ENDROOT
BRANCH   1  12
ATOM     12  C   UNL     1      39.482  71.985 157.456  1.00  0.00     0.063 A 
ATOM     13  C   UNL     1      37.416  71.470 158.638  1.00  0.00     0.047 A 
ATOM     14  C   UNL     1      38.721  71.970 158.639  1.00  0.00     0.020 A 
ATOM     15  C   UNL     1      36.849  70.988 157.451  1.00  0.00     0.119 A 
ATOM     16  C   UNL     1      37.592  71.011 156.269  1.00  0.00     0.093 A 
ATOM     17  C   UNL     1      38.903  71.509 156.261  1.00  0.00     0.130 A 
BRANCH  15  18
ATOM     18  O   UNL     1      35.549  70.487 157.438  1.00  0.00    -0.508 OA
ATOM     19  H   UNL     1      34.858  70.827 156.779  1.00  0.00     0.293 HD
ENDBRANCH  15  18
BRANCH  17  20
ATOM     20  O   UNL     1      39.636  71.520 155.074  1.00  0.00    -0.507 OA
ATOM     21  H   UNL     1      39.368  72.104 154.290  1.00  0.00     0.293 HD
ENDBRANCH  17  20
ENDBRANCH   1  12
BRANCH   2  22
ATOM     22  O   UNL     1      40.275  74.211 159.124  1.00  0.00    -0.502 OA
ATOM     23  H   UNL     1      40.311  74.076 160.128  1.00  0.00     0.293 HD
ENDBRANCH   2  22
BRANCH   6  24
ATOM     24  O   UNL     1      45.277  75.025 157.952  1.00  0.00    -0.507 OA
ATOM     25  H   UNL     1      45.238  75.046 158.965  1.00  0.00     0.293 HD
ENDBRANCH   6  24
BRANCH   8  26
ATOM     26  O   UNL     1      46.094  71.487 154.752  1.00  0.00    -0.508 OA
ATOM     27  H   UNL     1      45.797  71.184 153.831  1.00  0.00     0.293 HD
ENDBRANCH   8  26
TORSDOF 6
ENDMDL
MODEL 3
REMARK VINA RESULT:    -2.287      1.978      2.526
REMARK INTER + INTRA:          -2.946
REMARK INTER:                  -2.906
REMARK INTRA:                  -0.040
REMARK UNBOUND:                -0.191
REMARK SMILES O=c1c(O)c(-c2ccc(O)cc2O)oc2cc(O)cc(O)c12
REMARK SMILES IDX 5 1 3 2 2 3 1 4 22 5 20 6 19 7 17 8 16 9 15 10 14 11 6 12
REMARK SMILES IDX 8 13 7 14 9 15 11 16 12 17 10 18 13 20 4 22 21 24 18 26
REMARK H PARENT 10 19 13 21 4 23 21 25 18 27
REMARK Flexibility Score: inf
ROOT
ATOM      1  C   UNL     1      46.032  72.747 154.533  1.00  0.00     0.184 A 
ATOM      2  C   UNL     1      46.304  73.860 155.349  1.00  0.00     0.208 A 
ATOM      3  C   UNL     1      45.453  74.133 156.430  1.00  0.00     0.238 A 
ATOM      4  O   UNL     1      45.691  75.124 157.174  1.00  0.00    -0.285 OA
ATOM      5  C   UNL     1      44.340  73.301 156.668  1.00  0.00     0.111 A 
ATOM      6  C   UNL     1      43.431  73.508 157.734  1.00  0.00     0.134 A 
ATOM      7  C   UNL     1      42.342  72.639 157.898  1.00  0.00     0.093 A 
ATOM      8  C   UNL     1      42.146  71.568 157.018  1.00  0.00     0.123 A 
ATOM      9  C   UNL     1      43.039  71.360 155.967  1.00  0.00     0.094 A 
ATOM     10  C   UNL     1      44.130  72.214 155.786  1.00  0.00     0.146 A 
ATOM     11  O   UNL     1      44.967  71.989 154.780  1.00  0.00    -0.451 OA
ENDROOT
BRANCH   1  12
ATOM     12  C   UNL     1      46.899  72.389 153.386  1.00  0.00     0.063 A 
ATOM     13  C   UNL     1      48.287  73.058 151.501  1.00  0.00     0.047 A 
ATOM     14  C   UNL     1      47.447  73.392 152.566  1.00  0.00     0.020 A 
ATOM     15  C   UNL     1      48.600  71.718 151.246  1.00  0.00     0.119 A 
ATOM     16  C   UNL     1      48.071  70.715 152.062  1.00  0.00     0.093 A 
ATOM     17  C   UNL     1      47.225  71.041 153.133  1.00  0.00     0.130 A 
BRANCH  15  18
ATOM     18  O   UNL     1      49.435  71.373 150.186  1.00  0.00    -0.508 OA
ATOM     19  H   UNL     1      49.408  70.450 149.768  1.00  0.00     0.293 HD
ENDBRANCH  15  18
BRANCH  17  20
ATOM     20  O   UNL     1      46.699  70.029 153.936  1.00  0.00    -0.507 OA
ATOM     21  H   UNL     1      45.783  69.634 153.761  1.00  0.00     0.293 HD
ENDBRANCH  17  20
ENDBRANCH   1  12
BRANCH   2  22
ATOM     22  O   UNL     1      47.391  74.692 155.066  1.00  0.00    -0.502 OA
ATOM     23  H   UNL     1      47.325  75.470 154.420  1.00  0.00     0.293 HD
ENDBRANCH   2  22
BRANCH   6  24
ATOM     24  O   UNL     1      43.600  74.567 158.626  1.00  0.00    -0.507 OA
ATOM     25  H   UNL     1      43.439  75.529 158.349  1.00  0.00     0.293 HD
ENDBRANCH   6  24
BRANCH   8  26
ATOM     26  O   UNL     1      41.064  70.705 157.181  1.00  0.00    -0.508 OA
ATOM     27  H   UNL     1      40.123  71.055 157.319  1.00  0.00     0.293 HD
ENDBRANCH   8  26
TORSDOF 6
ENDMDL
MODEL 4
REMARK VINA RESULT:    -2.123      1.593      6.420
REMARK INTER + INTRA:          -2.748
REMARK INTER:                  -2.627
REMARK INTRA:                  -0.121
REMARK UNBOUND:                -0.191
REMARK SMILES O=c1c(O)c(-c2ccc(O)cc2O)oc2cc(O)cc(O)c12
REMARK SMILES IDX 5 1 3 2 2 3 1 4 22 5 20 6 19 7 17 8 16 9 15 10 14 11 6 12
REMARK SMILES IDX 8 13 7 14 9 15 11 16 12 17 10 18 13 20 4 22 21 24 18 26
REMARK H PARENT 10 19 13 21 4 23 21 25 18 27
REMARK Flexibility Score: inf
ROOT
ATOM      1  C   UNL     1      43.680  72.681 156.525  1.00  0.00     0.184 A 
ATOM      2  C   UNL     1      44.397  73.866 156.771  1.00  0.00     0.208 A 
ATOM      3  C   UNL     1      45.626  74.063 156.124  1.00  0.00     0.238 A 
ATOM      4  O   UNL     1      46.274  75.125 156.330  1.00  0.00    -0.285 OA
ATOM      5  C   UNL     1      46.123  73.068 155.257  1.00  0.00     0.111 A 
ATOM      6  C   UNL     1      47.355  73.186 154.568  1.00  0.00     0.134 A 
ATOM      7  C   UNL     1      47.785  72.148 153.729  1.00  0.00     0.093 A 
ATOM      8  C   UNL     1      47.007  70.996 153.565  1.00  0.00     0.123 A 
ATOM      9  C   UNL     1      45.792  70.875 154.241  1.00  0.00     0.094 A 
ATOM     10  C   UNL     1      45.346  71.899 155.082  1.00  0.00     0.146 A 
ATOM     11  O   UNL     1      44.184  71.759 155.709  1.00  0.00    -0.451 OA
ENDROOT
BRANCH   1  12
ATOM     12  C   UNL     1      42.368  72.416 157.160  1.00  0.00     0.063 A 
ATOM     13  C   UNL     1      40.923  72.466 159.119  1.00  0.00     0.047 A 
ATOM     14  C   UNL     1      42.167  72.690 158.525  1.00  0.00     0.020 A 
ATOM     15  C   UNL     1      39.857  71.976 158.354  1.00  0.00     0.119 A 
ATOM     16  C   UNL     1      40.042  71.714 156.995  1.00  0.00     0.093 A 
ATOM     17  C   UNL     1      41.289  71.934 156.391  1.00  0.00     0.130 A 
BRANCH  15  18
ATOM     18  O   UNL     1      38.612  71.749 158.935  1.00  0.00    -0.508 OA
ATOM     19  H   UNL     1      38.310  72.259 159.758  1.00  0.00     0.293 HD
ENDBRANCH  15  18
BRANCH  17  20
ATOM     20  O   UNL     1      41.461  71.661 155.033  1.00  0.00    -0.507 OA
ATOM     21  H   UNL     1      41.448  70.713 154.676  1.00  0.00     0.293 HD
ENDBRANCH  17  20
ENDBRANCH   1  12
BRANCH   2  22
ATOM     22  O   UNL     1      43.899  74.817 157.667  1.00  0.00    -0.502 OA
ATOM     23  H   UNL     1      43.467  75.680 157.357  1.00  0.00     0.293 HD
ENDBRANCH   2  22
BRANCH   6  24
ATOM     24  O   UNL     1      48.152  74.322 154.712  1.00  0.00    -0.507 OA
ATOM     25  H   UNL     1      49.051  74.405 154.250  1.00  0.00     0.293 HD
ENDBRANCH   6  24
BRANCH   8  26
ATOM     26  O   UNL     1      47.434  69.964 152.731  1.00  0.00    -0.508 OA
ATOM     27  H   UNL     1      47.434  70.064 151.722  1.00  0.00     0.293 HD
ENDBRANCH   8  26
TORSDOF 6
ENDMDL
MODEL 5
REMARK VINA RESULT:    -2.087      1.620      6.379
REMARK INTER + INTRA:          -2.706
REMARK INTER:                  -2.486
REMARK INTRA:                  -0.219
REMARK UNBOUND:                -0.191
REMARK SMILES O=c1c(O)c(-c2ccc(O)cc2O)oc2cc(O)cc(O)c12
REMARK SMILES IDX 5 1 3 2 2 3 1 4 22 5 20 6 19 7 17 8 16 9 15 10 14 11 6 12
REMARK SMILES IDX 8 13 7 14 9 15 11 16 12 17 10 18 13 20 4 22 21 24 18 26
REMARK H PARENT 10 19 13 21 4 23 21 25 18 27
REMARK Flexibility Score: inf
ROOT
ATOM      1  C   UNL     1      44.516  72.743 156.121  1.00  0.00     0.184 A 
ATOM      2  C   UNL     1      45.267  73.929 156.216  1.00  0.00     0.208 A 
ATOM      3  C   UNL     1      46.425  74.063 155.436  1.00  0.00     0.238 A 
ATOM      4  O   UNL     1      47.103  75.125 155.506  1.00  0.00    -0.285 OA
ATOM      5  C   UNL     1      46.820  73.007 154.588  1.00  0.00     0.111 A 
ATOM      6  C   UNL     1      47.976  73.060 153.771  1.00  0.00     0.134 A 
ATOM      7  C   UNL     1      48.306  71.964 152.962  1.00  0.00     0.093 A 
ATOM      8  C   UNL     1      47.503  70.817 152.953  1.00  0.00     0.123 A 
ATOM      9  C   UNL     1      46.363  70.761 153.755  1.00  0.00     0.094 A 
ATOM     10  C   UNL     1      46.017  71.843 154.569  1.00  0.00     0.146 A 
ATOM     11  O   UNL     1      44.924  71.764 155.320  1.00  0.00    -0.451 OA
ENDROOT
BRANCH   1  12
ATOM     12  C   UNL     1      43.273  72.542 156.902  1.00  0.00     0.063 A 
ATOM     13  C   UNL     1      40.874  72.137 156.983  1.00  0.00     0.047 A 
ATOM     14  C   UNL     1      42.042  72.354 156.249  1.00  0.00     0.020 A 
ATOM     15  C   UNL     1      40.921  72.093 158.382  1.00  0.00     0.119 A 
ATOM     16  C   UNL     1      42.141  72.265 159.040  1.00  0.00     0.093 A 
ATOM     17  C   UNL     1      43.319  72.486 158.310  1.00  0.00     0.130 A 
BRANCH  15  18
ATOM     18  O   UNL     1      39.763  71.878 159.125  1.00  0.00    -0.508 OA
ATOM     19  H   UNL     1      39.409  70.943 159.295  1.00  0.00     0.293 HD
ENDBRANCH  15  18
BRANCH  17  20
ATOM     20  O   UNL     1      44.529  72.662 158.982  1.00  0.00    -0.507 OA
ATOM     21  H   UNL     1      45.415  72.660 158.490  1.00  0.00     0.293 HD
ENDBRANCH  17  20
ENDBRANCH   1  12
BRANCH   2  22
ATOM     22  O   UNL     1      44.874  74.943 157.094  1.00  0.00    -0.502 OA
ATOM     23  H   UNL     1      44.611  74.757 158.055  1.00  0.00     0.293 HD
ENDBRANCH   2  22
BRANCH   6  24
ATOM     24  O   UNL     1      48.795  74.189 153.759  1.00  0.00    -0.507 OA
ATOM     25  H   UNL     1      48.803  74.834 152.977  1.00  0.00     0.293 HD
ENDBRANCH   6  24
BRANCH   8  26
ATOM     26  O   UNL     1      47.830  69.727 152.148  1.00  0.00    -0.508 OA
ATOM     27  H   UNL     1      48.267  69.850 151.242  1.00  0.00     0.293 HD
ENDBRANCH   8  26
TORSDOF 6
ENDMDL
MODEL 6
REMARK VINA RESULT:    -0.704      1.856      3.913
REMARK INTER + INTRA:          -1.039
REMARK INTER:                  -1.567
REMARK INTRA:                   0.528
REMARK UNBOUND:                -0.191
REMARK SMILES O=c1c(O)c(-c2ccc(O)cc2O)oc2cc(O)cc(O)c12
REMARK SMILES IDX 5 1 3 2 2 3 1 4 22 5 20 6 19 7 17 8 16 9 15 10 14 11 6 12
REMARK SMILES IDX 8 13 7 14 9 15 11 16 12 17 10 18 13 20 4 22 21 24 18 26
REMARK H PARENT 10 19 13 21 4 23 21 25 18 27
REMARK Flexibility Score: inf
ROOT
ATOM      1  C   UNL     1      42.943  72.454 156.381  1.00  0.00     0.184 A 
ATOM      2  C   UNL     1      42.355  71.215 156.067  1.00  0.00     0.208 A 
ATOM      3  C   UNL     1      41.018  70.988 156.423  1.00  0.00     0.238 A 
ATOM      4  O   UNL     1      40.478  69.884 156.141  1.00  0.00    -0.285 OA
ATOM      5  C   UNL     1      40.296  71.995 157.098  1.00  0.00     0.111 A 
ATOM      6  C   UNL     1      38.945  71.846 157.495  1.00  0.00     0.134 A 
ATOM      7  C   UNL     1      38.299  72.892 158.170  1.00  0.00     0.093 A 
ATOM      8  C   UNL     1      38.978  74.083 158.454  1.00  0.00     0.123 A 
ATOM      9  C   UNL     1      40.308  74.235 158.064  1.00  0.00     0.094 A 
ATOM     10  C   UNL     1      40.970  73.204 157.390  1.00  0.00     0.146 A 
ATOM     11  O   UNL     1      42.236  73.377 157.027  1.00  0.00    -0.451 OA
ENDROOT
BRANCH   1  12
ATOM     12  C   UNL     1      44.344  72.768 156.018  1.00  0.00     0.063 A 
ATOM     13  C   UNL     1      46.519  72.055 155.189  1.00  0.00     0.047 A 
ATOM     14  C   UNL     1      45.205  71.756 155.557  1.00  0.00     0.020 A 
ATOM     15  C   UNL     1      46.989  73.372 155.266  1.00  0.00     0.119 A 
ATOM     16  C   UNL     1      46.137  74.386 155.710  1.00  0.00     0.093 A 
ATOM     17  C   UNL     1      44.817  74.095 156.083  1.00  0.00     0.130 A 
BRANCH  15  18
ATOM     18  O   UNL     1      48.297  73.682 154.902  1.00  0.00    -0.508 OA
ATOM     19  H   UNL     1      48.510  74.115 154.010  1.00  0.00     0.293 HD
ENDBRANCH  15  18
BRANCH  17  20
ATOM     20  O   UNL     1      43.980  75.117 156.531  1.00  0.00    -0.507 OA
ATOM     21  H   UNL     1      43.337  74.978 157.302  1.00  0.00     0.293 HD
ENDBRANCH  17  20
ENDBRANCH   1  12
BRANCH   2  22
ATOM     22  O   UNL     1      43.106  70.220 155.435  1.00  0.00    -0.502 OA
ATOM     23  H   UNL     1      43.054  69.245 155.707  1.00  0.00     0.293 HD
ENDBRANCH   2  22
BRANCH   6  24
ATOM     24  O   UNL     1      38.243  70.671 157.226  1.00  0.00    -0.507 OA
ATOM     25  H   UNL     1      37.403  70.669 156.658  1.00  0.00     0.293 HD
ENDBRANCH   6  24
BRANCH   8  26
ATOM     26  O   UNL     1      38.336  75.123 159.125  1.00  0.00    -0.508 OA
ATOM     27  H   UNL     1      38.842  75.745 159.744  1.00  0.00     0.293 HD
ENDBRANCH   8  26
TORSDOF 6
ENDMDL
MODEL 7
REMARK VINA RESULT:    -0.070      3.304      6.891
REMARK INTER + INTRA:          -0.276
REMARK INTER:                   0.091
REMARK INTRA:                  -0.367
REMARK UNBOUND:                -0.191
REMARK SMILES O=c1c(O)c(-c2ccc(O)cc2O)oc2cc(O)cc(O)c12
REMARK SMILES IDX 5 1 3 2 2 3 1 4 22 5 20 6 19 7 17 8 16 9 15 10 14 11 6 12
REMARK SMILES IDX 8 13 7 14 9 15 11 16 12 17 10 18 13 20 4 22 21 24 18 26
REMARK H PARENT 10 19 13 21 4 23 21 25 18 27
REMARK Flexibility Score: inf
ROOT
ATOM      1  C   UNL     1      46.527  73.301 153.920  1.00  0.00     0.184 A 
ATOM      2  C   UNL     1      47.794  73.906 153.841  1.00  0.00     0.208 A 
ATOM      3  C   UNL     1      48.271  74.322 152.589  1.00  0.00     0.238 A 
ATOM      4  O   UNL     1      49.403  74.872 152.507  1.00  0.00    -0.285 OA
ATOM      5  C   UNL     1      47.483  74.112 151.439  1.00  0.00     0.111 A 
ATOM      6  C   UNL     1      47.891  74.498 150.139  1.00  0.00     0.134 A 
ATOM      7  C   UNL     1      47.052  74.247 149.043  1.00  0.00     0.093 A 
ATOM      8  C   UNL     1      45.814  73.618 149.223  1.00  0.00     0.123 A 
ATOM      9  C   UNL     1      45.407  73.237 150.502  1.00  0.00     0.094 A 
ATOM     10  C   UNL     1      46.229  73.479 151.607  1.00  0.00     0.146 A 
ATOM     11  O   UNL     1      45.815  73.109 152.813  1.00  0.00    -0.451 OA
ENDROOT
BRANCH   1  12
ATOM     12  C   UNL     1      45.954  72.855 155.211  1.00  0.00     0.063 A 
ATOM     13  C   UNL     1      45.553  71.097 156.848  1.00  0.00     0.047 A 
ATOM     14  C   UNL     1      46.070  71.514 155.618  1.00  0.00     0.020 A 
ATOM     15  C   UNL     1      44.924  72.018 157.694  1.00  0.00     0.119 A 
ATOM     16  C   UNL     1      44.816  73.355 157.305  1.00  0.00     0.093 A 
ATOM     17  C   UNL     1      45.329  73.782 156.071  1.00  0.00     0.130 A 
BRANCH  15  18
ATOM     18  O   UNL     1      44.406  71.615 158.922  1.00  0.00    -0.508 OA
ATOM     19  H   UNL     1      43.482  71.901 159.227  1.00  0.00     0.293 HD
ENDBRANCH  15  18
BRANCH  17  20
ATOM     20  O   UNL     1      45.208  75.119 155.693  1.00  0.00    -0.507 OA
ATOM     21  H   UNL     1      45.584  75.460 154.816  1.00  0.00     0.293 HD
ENDBRANCH  17  20
ENDBRANCH   1  12
BRANCH   2  22
ATOM     22  O   UNL     1      48.572  74.064 154.992  1.00  0.00    -0.502 OA
ATOM     23  H   UNL     1      49.434  73.552 155.139  1.00  0.00     0.293 HD
ENDBRANCH   2  22
BRANCH   6  24
ATOM     24  O   UNL     1      49.119  75.125 149.929  1.00  0.00    -0.507 OA
ATOM     25  H   UNL     1      49.897  75.003 150.568  1.00  0.00     0.293 HD
ENDBRANCH   6  24
BRANCH   8  26
ATOM     26  O   UNL     1      44.980  73.369 148.135  1.00  0.00    -0.508 OA
ATOM     27  H   UNL     1      43.972  73.446 148.211  1.00  0.00     0.293 HD
ENDBRANCH   8  26
TORSDOF 6
ENDMDL
MODEL 8
REMARK VINA RESULT:    -0.019      2.807      6.920
REMARK INTER + INTRA:          -0.215
REMARK INTER:                   0.085
REMARK INTRA:                  -0.300
REMARK UNBOUND:                -0.191
REMARK SMILES O=c1c(O)c(-c2ccc(O)cc2O)oc2cc(O)cc(O)c12
REMARK SMILES IDX 5 1 3 2 2 3 1 4 22 5 20 6 19 7 17 8 16 9 15 10 14 11 6 12
REMARK SMILES IDX 8 13 7 14 9 15 11 16 12 17 10 18 13 20 4 22 21 24 18 26
REMARK H PARENT 10 19 13 21 4 23 21 25 18 27
REMARK Flexibility Score: inf
ROOT
ATOM      1  C   UNL     1      46.560  73.545 154.293  1.00  0.00     0.184 A 
ATOM      2  C   UNL     1      47.787  72.860 154.237  1.00  0.00     0.208 A 
ATOM      3  C   UNL     1      48.455  72.763 153.007  1.00  0.00     0.238 A 
ATOM      4  O   UNL     1      49.560  72.158 152.946  1.00  0.00    -0.285 OA
ATOM      5  C   UNL     1      47.880  73.337 151.855  1.00  0.00     0.111 A 
ATOM      6  C   UNL     1      48.485  73.282 150.576  1.00  0.00     0.134 A 
ATOM      7  C   UNL     1      47.844  73.871 149.476  1.00  0.00     0.093 A 
ATOM      8  C   UNL     1      46.611  74.515 149.631  1.00  0.00     0.123 A 
ATOM      9  C   UNL     1      46.010  74.573 150.889  1.00  0.00     0.094 A 
ATOM     10  C   UNL     1      46.633  73.992 151.998  1.00  0.00     0.146 A 
ATOM     11  O   UNL     1      46.041  74.066 153.184  1.00  0.00    -0.451 OA
ENDROOT
BRANCH   1  12
ATOM     12  C   UNL     1      45.810  73.701 155.561  1.00  0.00     0.063 A 
ATOM     13  C   UNL     1      44.922  75.124 157.326  1.00  0.00     0.047 A 
ATOM     14  C   UNL     1      45.652  74.971 156.145  1.00  0.00     0.020 A 
ATOM     15  C   UNL     1      44.330  74.011 157.935  1.00  0.00     0.119 A 
ATOM     16  C   UNL     1      44.469  72.748 157.356  1.00  0.00     0.093 A 
ATOM     17  C   UNL     1      45.202  72.585 156.171  1.00  0.00     0.130 A 
BRANCH  15  18
ATOM     18  O   UNL     1      43.600  74.151 159.113  1.00  0.00    -0.508 OA
ATOM     19  H   UNL     1      43.483  73.378 159.759  1.00  0.00     0.293 HD
ENDBRANCH  15  18
BRANCH  17  20
ATOM     20  O   UNL     1      45.339  71.316 155.607  1.00  0.00    -0.507 OA
ATOM     21  H   UNL     1      44.829  71.047 154.774  1.00  0.00     0.293 HD
ENDBRANCH  17  20
ENDBRANCH   1  12
BRANCH   2  22
ATOM     22  O   UNL     1      48.314  72.265 155.387  1.00  0.00    -0.502 OA
ATOM     23  H   UNL     1      49.062  72.690 155.922  1.00  0.00     0.293 HD
ENDBRANCH   2  22
BRANCH   6  24
ATOM     24  O   UNL     1      49.714  72.647 150.391  1.00  0.00    -0.507 OA
ATOM     25  H   UNL     1      50.037  72.370 149.471  1.00  0.00     0.293 HD
ENDBRANCH   6  24
BRANCH   8  26
ATOM     26  O   UNL     1      45.973  75.100 148.539  1.00  0.00    -0.508 OA
ATOM     27  H   UNL     1      45.000  74.912 148.331  1.00  0.00     0.293 HD
ENDBRANCH   8  26
TORSDOF 6
ENDMDL
