MODEL 1
REMARK VINA RESULT:    -3.416      0.000      0.000
REMARK INTER + INTRA:          -4.533
REMARK INTER:                  -4.214
REMARK INTRA:                  -0.319
REMARK UNBOUND:                -0.319
REMARK SMILES C=CC[C@H](C)C(=O)CC
REMARK SMILES IDX 4 1 5 2 6 3 7 4 8 5 9 6 3 7 2 8 1 9
REMARK H PARENT
REMARK Flexibility Score: inf
ROOT
ATOM      1  C   UNL     1      25.274 -18.281   0.736  1.00  0.00     0.057 C 
ATOM      2  C   UNL     1      25.858 -16.863   0.671  1.00  0.00     0.016 C 
ENDROOT
BRANCH   1   3
ATOM      3  C   UNL     1      23.924 -18.250   1.422  1.00  0.00     0.135 C 
ATOM      4  O   UNL     1      22.977 -17.706   0.871  1.00  0.00    -0.299 OA
BRANCH   3   5
ATOM      5  C   UNL     1      23.725 -18.870   2.781  1.00  0.00     0.072 C 
ATOM      6  C   UNL     1      23.372 -17.806   3.814  1.00  0.00     0.012 C 
ENDBRANCH   3   5
ENDBRANCH   1   3
BRANCH   1   7
ATOM      7  C   UNL     1      26.217 -19.256   1.472  1.00  0.00     0.038 C 
BRANCH   7   8
ATOM      8  C   UNL     1      26.303 -20.596   0.790  1.00  0.00    -0.034 C 
ATOM      9  C   UNL     1      25.524 -21.621   1.151  1.00  0.00     0.004 C 
ENDBRANCH   7   8
ENDBRANCH   1   7
TORSDOF 4
ENDMDL
MODEL 2
REMARK VINA RESULT:    -3.342      1.933      3.995
REMARK INTER + INTRA:          -4.442
REMARK INTER:                  -4.247
REMARK INTRA:                  -0.195
REMARK UNBOUND:                -0.319
REMARK SMILES C=CC[C@H](C)C(=O)CC
REMARK SMILES IDX 4 1 5 2 6 3 7 4 8 5 9 6 3 7 2 8 1 9
REMARK H PARENT
REMARK Flexibility Score: inf
ROOT
ATOM      1  C   UNL     1      24.756 -18.950   0.928  1.00  0.00     0.057 C 
ATOM      2  C   UNL     1      24.040 -18.637   2.249  1.00  0.00     0.016 C 
ENDROOT
BRANCH   1   3
ATOM      3  C   UNL     1      26.207 -19.290   1.198  1.00  0.00     0.135 C 
ATOM      4  O   UNL     1      27.026 -18.391   1.326  1.00  0.00    -0.299 OA
BRANCH   3   5
ATOM      5  C   UNL     1      26.666 -20.721   1.303  1.00  0.00     0.072 C 
ATOM      6  C   UNL     1      25.508 -21.680   1.049  1.00  0.00     0.012 C 
ENDBRANCH   3   5
ENDBRANCH   1   3
BRANCH   1   7
ATOM      7  C   UNL     1      24.667 -17.771  -0.064  1.00  0.00     0.038 C 
BRANCH   7   8
ATOM      8  C   UNL     1      23.486 -16.878   0.211  1.00  0.00    -0.034 C 
ATOM      9  C   UNL     1      22.865 -16.212  -0.767  1.00  0.00     0.004 C 
ENDBRANCH   7   8
ENDBRANCH   1   7
TORSDOF 4
ENDMDL
MODEL 3
REMARK VINA RESULT:    -3.300      1.666      3.684
REMARK INTER + INTRA:          -4.391
REMARK INTER:                  -4.094
REMARK INTRA:                  -0.297
REMARK UNBOUND:                -0.319
REMARK SMILES C=CC[C@H](C)C(=O)CC
REMARK SMILES IDX 4 1 5 2 6 3 7 4 8 5 9 6 3 7 2 8 1 9
REMARK H PARENT
REMARK Flexibility Score: inf
ROOT
ATOM      1  C   UNL     1      24.872 -18.210   1.420  1.00  0.00     0.057 C 
ATOM      2  C   UNL     1      24.549 -17.475   0.112  1.00  0.00     0.016 C 
ENDROOT
BRANCH   1   3
ATOM      3  C   UNL     1      25.945 -19.250   1.174  1.00  0.00     0.135 C 
ATOM      4  O   UNL     1      27.114 -18.985   1.420  1.00  0.00    -0.299 OA
BRANCH   3   5
ATOM      5  C   UNL     1      25.602 -20.609   0.622  1.00  0.00     0.072 C 
ATOM      6  C   UNL     1      25.963 -21.704   1.619  1.00  0.00     0.012 C 
ENDBRANCH   3   5
ENDBRANCH   1   3
BRANCH   1   7
ATOM      7  C   UNL     1      23.620 -18.878   2.025  1.00  0.00     0.038 C 
BRANCH   7   8
ATOM      8  C   UNL     1      23.424 -18.522   3.476  1.00  0.00    -0.034 C 
ATOM      9  C   UNL     1      23.657 -17.288   3.935  1.00  0.00     0.004 C 
ENDBRANCH   7   8
ENDBRANCH   1   7
TORSDOF 4
ENDMDL
MODEL 4
REMARK VINA RESULT:    -3.277      1.524      2.710
REMARK INTER + INTRA:          -4.362
REMARK INTER:                  -4.177
REMARK INTRA:                  -0.185
REMARK UNBOUND:                -0.319
REMARK SMILES C=CC[C@H](C)C(=O)CC
REMARK SMILES IDX 4 1 5 2 6 3 7 4 8 5 9 6 3 7 2 8 1 9
REMARK H PARENT
REMARK Flexibility Score: inf
ROOT
ATOM      1  C   UNL     1      24.102 -18.213   2.411  1.00  0.00     0.057 C 
ATOM      2  C   UNL     1      23.385 -18.191   3.767  1.00  0.00     0.016 C 
ENDROOT
BRANCH   1   3
ATOM      3  C   UNL     1      23.440 -17.234   1.463  1.00  0.00     0.135 C 
ATOM      4  O   UNL     1      22.505 -16.549   1.856  1.00  0.00    -0.299 OA
BRANCH   3   5
ATOM      5  C   UNL     1      23.906 -17.091   0.038  1.00  0.00     0.072 C 
ATOM      6  C   UNL     1      22.925 -16.249  -0.769  1.00  0.00     0.012 C 
ENDBRANCH   3   5
ENDBRANCH   1   3
BRANCH   1   7
ATOM      7  C   UNL     1      24.108 -19.625   1.789  1.00  0.00     0.038 C 
BRANCH   7   8
ATOM      8  C   UNL     1      25.500 -20.182   1.644  1.00  0.00    -0.034 C 
ATOM      9  C   UNL     1      25.716 -21.452   1.289  1.00  0.00     0.004 C 
ENDBRANCH   7   8
ENDBRANCH   1   7
TORSDOF 4
ENDMDL
MODEL 5
REMARK VINA RESULT:    -3.217      1.468      3.545
REMARK INTER + INTRA:          -4.289
REMARK INTER:                  -3.949
REMARK INTRA:                  -0.340
REMARK UNBOUND:                -0.319
REMARK SMILES C=CC[C@H](C)C(=O)CC
REMARK SMILES IDX 4 1 5 2 6 3 7 4 8 5 9 6 3 7 2 8 1 9
REMARK H PARENT
REMARK Flexibility Score: inf
ROOT
ATOM      1  C   UNL     1      23.678 -18.325   0.986  1.00  0.00     0.057 C 
ATOM      2  C   UNL     1      22.933 -17.323   1.879  1.00  0.00     0.016 C 
ENDROOT
BRANCH   1   3
ATOM      3  C   UNL     1      24.546 -19.227   1.839  1.00  0.00     0.135 C 
ATOM      4  O   UNL     1      24.272 -19.392   3.019  1.00  0.00    -0.299 OA
BRANCH   3   5
ATOM      5  C   UNL     1      25.751 -19.923   1.262  1.00  0.00     0.072 C 
ATOM      6  C   UNL     1      25.548 -21.434   1.249  1.00  0.00     0.012 C 
ENDBRANCH   3   5
ENDBRANCH   1   3
BRANCH   1   7
ATOM      7  C   UNL     1      24.542 -17.612  -0.075  1.00  0.00     0.038 C 
BRANCH   7   8
ATOM      8  C   UNL     1      25.159 -16.341   0.448  1.00  0.00    -0.034 C 
ATOM      9  C   UNL     1      26.475 -16.233   0.657  1.00  0.00     0.004 C 
ENDBRANCH   7   8
ENDBRANCH   1   7
TORSDOF 4
ENDMDL
MODEL 6
REMARK VINA RESULT:    -3.183     17.949     18.582
REMARK INTER + INTRA:          -4.246
REMARK INTER:                  -4.001
REMARK INTRA:                  -0.245
REMARK UNBOUND:                -0.319
REMARK SMILES C=CC[C@H](C)C(=O)CC
REMARK SMILES IDX 4 1 5 2 6 3 7 4 8 5 9 6 3 7 2 8 1 9
REMARK H PARENT
REMARK Flexibility Score: inf
ROOT
ATOM      1  C   UNL     1      14.554 -16.990 -14.509  1.00  0.00     0.057 C 
ATOM      2  C   UNL     1      14.521 -15.875 -15.564  1.00  0.00     0.016 C 
ENDROOT
BRANCH   1   3
ATOM      3  C   UNL     1      13.376 -16.844 -13.569  1.00  0.00     0.135 C 
ATOM      4  O   UNL     1      12.289 -16.496 -14.010  1.00  0.00    -0.299 OA
BRANCH   3   5
ATOM      5  C   UNL     1      13.518 -17.110 -12.093  1.00  0.00     0.072 C 
ATOM      6  C   UNL     1      13.097 -15.891 -11.281  1.00  0.00     0.012 C 
ENDBRANCH   3   5
ENDBRANCH   1   3
BRANCH   1   7
ATOM      7  C   UNL     1      15.872 -16.979 -13.707  1.00  0.00     0.038 C 
BRANCH   7   8
ATOM      8  C   UNL     1      17.040 -17.481 -14.516  1.00  0.00    -0.034 C 
ATOM      9  C   UNL     1      16.950 -18.578 -15.274  1.00  0.00     0.004 C 
ENDBRANCH   7   8
ENDBRANCH   1   7
TORSDOF 4
ENDMDL
MODEL 7
REMARK VINA RESULT:    -3.178     18.385     19.396
REMARK INTER + INTRA:          -4.240
REMARK INTER:                  -4.018
REMARK INTRA:                  -0.222
REMARK UNBOUND:                -0.319
REMARK SMILES C=CC[C@H](C)C(=O)CC
REMARK SMILES IDX 4 1 5 2 6 3 7 4 8 5 9 6 3 7 2 8 1 9
REMARK H PARENT
REMARK Flexibility Score: inf
ROOT
ATOM      1  C   UNL     1      12.992 -16.964 -12.082  1.00  0.00     0.057 C 
ATOM      2  C   UNL     1      13.625 -16.250 -10.879  1.00  0.00     0.016 C 
ENDROOT
BRANCH   1   3
ATOM      3  C   UNL     1      13.915 -16.871 -13.279  1.00  0.00     0.135 C 
ATOM      4  O   UNL     1      15.121 -17.000 -13.125  1.00  0.00    -0.299 OA
BRANCH   3   5
ATOM      5  C   UNL     1      13.376 -16.613 -14.662  1.00  0.00     0.072 C 
ATOM      6  C   UNL     1      14.398 -17.004 -15.722  1.00  0.00     0.012 C 
ENDBRANCH   3   5
ENDBRANCH   1   3
BRANCH   1   7
ATOM      7  C   UNL     1      11.611 -16.374 -12.435  1.00  0.00     0.038 C 
BRANCH   7   8
ATOM      8  C   UNL     1      10.514 -17.405 -12.375  1.00  0.00    -0.034 C 
ATOM      9  C   UNL     1       9.472 -17.374 -13.212  1.00  0.00     0.004 C 
ENDBRANCH   7   8
ENDBRANCH   1   7
TORSDOF 4
ENDMDL
MODEL 8
REMARK VINA RESULT:    -3.111     18.080     19.046
REMARK INTER + INTRA:          -4.158
REMARK INTER:                  -3.954
REMARK INTRA:                  -0.204
REMARK UNBOUND:                -0.319
REMARK SMILES C=CC[C@H](C)C(=O)CC
REMARK SMILES IDX 4 1 5 2 6 3 7 4 8 5 9 6 3 7 2 8 1 9
REMARK H PARENT
REMARK Flexibility Score: inf
ROOT
ATOM      1  C   UNL     1      14.646 -16.498 -14.129  1.00  0.00     0.057 C 
ATOM      2  C   UNL     1      13.514 -16.637 -15.156  1.00  0.00     0.016 C 
ENDROOT
BRANCH   1   3
ATOM      3  C   UNL     1      15.866 -17.260 -14.603  1.00  0.00     0.135 C 
ATOM      4  O   UNL     1      16.826 -17.391 -13.857  1.00  0.00    -0.299 OA
BRANCH   3   5
ATOM      5  C   UNL     1      15.925 -17.857 -15.985  1.00  0.00     0.072 C 
ATOM      6  C   UNL     1      16.591 -19.228 -15.954  1.00  0.00     0.012 C 
ENDBRANCH   3   5
ENDBRANCH   1   3
BRANCH   1   7
ATOM      7  C   UNL     1      14.219 -17.002 -12.735  1.00  0.00     0.038 C 
BRANCH   7   8
ATOM      8  C   UNL     1      12.752 -16.785 -12.471  1.00  0.00    -0.034 C 
ATOM      9  C   UNL     1      12.322 -15.875 -11.591  1.00  0.00     0.004 C 
ENDBRANCH   7   8
ENDBRANCH   1   7
TORSDOF 4
ENDMDL
MODEL 9
REMARK VINA RESULT:    -3.028     17.878     18.593
REMARK INTER + INTRA:          -4.055
REMARK INTER:                  -3.831
REMARK INTRA:                  -0.224
REMARK UNBOUND:                -0.319
REMARK SMILES C=CC[C@H](C)C(=O)CC
REMARK SMILES IDX 4 1 5 2 6 3 7 4 8 5 9 6 3 7 2 8 1 9
REMARK H PARENT
REMARK Flexibility Score: inf
ROOT
ATOM      1  C   UNL     1      14.344 -16.994 -13.924  1.00  0.00     0.057 C 
ATOM      2  C   UNL     1      13.677 -16.565 -15.238  1.00  0.00     0.016 C 
ENDROOT
BRANCH   1   3
ATOM      3  C   UNL     1      13.344 -16.913 -12.790  1.00  0.00     0.135 C 
ATOM      4  O   UNL     1      13.624 -17.396 -11.701  1.00  0.00    -0.299 OA
BRANCH   3   5
ATOM      5  C   UNL     1      12.002 -16.256 -12.978  1.00  0.00     0.072 C 
ATOM      6  C   UNL     1      10.877 -17.192 -12.551  1.00  0.00     0.012 C 
ENDBRANCH   3   5
ENDBRANCH   1   3
BRANCH   1   7
ATOM      7  C   UNL     1      15.579 -16.127 -13.601  1.00  0.00     0.038 C 
BRANCH   7   8
ATOM      8  C   UNL     1      16.860 -16.920 -13.632  1.00  0.00    -0.034 C 
ATOM      9  C   UNL     1      17.154 -17.741 -14.645  1.00  0.00     0.004 C 
ENDBRANCH   7   8
ENDBRANCH   1   7
TORSDOF 4
ENDMDL
