MODEL 1
REMARK VINA RESULT:    -1.690      0.000      0.000
REMARK INTER + INTRA:          -1.807
REMARK INTER:                  -1.789
REMARK INTRA:                  -0.018
REMARK UNBOUND:                -0.018
REMARK SMILES O=C([O-])c1cccnc1
REMARK SMILES IDX 4 1 5 2 9 3 6 4 8 5 7 6 2 7 1 8 3 9
REMARK H PARENT
REMARK Flexibility Score: inf
ROOT
ATOM      1  C   UNL     1      29.614 -10.566  16.974  1.00  0.00     0.016 A 
ATOM      2  C   UNL     1      30.817 -11.125  16.513  1.00  0.00     0.013 A 
ATOM      3  C   UNL     1      28.731 -10.010  16.033  1.00  0.00     0.120 A 
ATOM      4  C   UNL     1      31.114 -11.120  15.148  1.00  0.00     0.021 A 
ATOM      5  N   UNL     1      29.044 -10.018  14.710  1.00  0.00    -0.264 NA
ATOM      6  C   UNL     1      30.205 -10.556  14.252  1.00  0.00     0.111 A 
ENDROOT
BRANCH   1   7
ATOM      7  C   UNL     1      29.281 -10.561  18.415  1.00  0.00     0.073 C 
ATOM      8  O   UNL     1      28.220 -11.100  18.830  1.00  0.00    -0.545 OA
ATOM      9  O   UNL     1      30.134  -9.960  19.333  1.00  0.00    -0.545 OA
ENDBRANCH   1   7
TORSDOF 1
ENDMDL
MODEL 2
REMARK VINA RESULT:    -1.634      2.828      3.822
REMARK INTER + INTRA:          -1.748
REMARK INTER:                  -1.729
REMARK INTRA:                  -0.019
REMARK UNBOUND:                -0.018
REMARK SMILES O=C([O-])c1cccnc1
REMARK SMILES IDX 4 1 5 2 9 3 6 4 8 5 7 6 2 7 1 8 3 9
REMARK H PARENT
REMARK Flexibility Score: inf
ROOT
ATOM      1  C   UNL     1      30.080 -10.342  17.090  1.00  0.00     0.016 A 
ATOM      2  C   UNL     1      31.109  -9.599  17.693  1.00  0.00     0.013 A 
ATOM      3  C   UNL     1      29.029 -10.807  17.899  1.00  0.00     0.120 A 
ATOM      4  C   UNL     1      31.074  -9.338  19.065  1.00  0.00     0.021 A 
ATOM      5  N   UNL     1      29.020 -10.539  19.233  1.00  0.00    -0.264 NA
ATOM      6  C   UNL     1      30.010  -9.822  19.826  1.00  0.00     0.111 A 
ENDROOT
BRANCH   1   7
ATOM      7  C   UNL     1      30.098 -10.629  15.640  1.00  0.00     0.073 C 
ATOM      8  O   UNL     1      31.125 -11.118  15.096  1.00  0.00    -0.545 OA
ATOM      9  O   UNL     1      28.982 -10.364  14.855  1.00  0.00    -0.545 OA
ENDBRANCH   1   7
TORSDOF 1
ENDMDL
MODEL 3
REMARK VINA RESULT:    -1.606      2.589      3.259
REMARK INTER + INTRA:          -1.718
REMARK INTER:                  -1.701
REMARK INTRA:                  -0.017
REMARK UNBOUND:                -0.018
REMARK SMILES O=C([O-])c1cccnc1
REMARK SMILES IDX 4 1 5 2 9 3 6 4 8 5 7 6 2 7 1 8 3 9
REMARK H PARENT
REMARK Flexibility Score: inf
ROOT
ATOM      1  C   UNL     1      30.093  -9.782  19.858  1.00  0.00     0.016 A 
ATOM      2  C   UNL     1      31.103  -9.533  18.914  1.00  0.00     0.013 A 
ATOM      3  C   UNL     1      28.976 -10.537  19.459  1.00  0.00     0.120 A 
ATOM      4  C   UNL     1      30.985 -10.030  17.615  1.00  0.00     0.021 A 
ATOM      5  N   UNL     1      28.887 -11.009  18.186  1.00  0.00    -0.264 NA
ATOM      6  C   UNL     1      29.858 -10.774  17.265  1.00  0.00     0.111 A 
ENDROOT
BRANCH   1   7
ATOM      7  C   UNL     1      30.197  -9.265  21.239  1.00  0.00     0.073 C 
ATOM      8  O   UNL     1      29.453  -8.326  21.631  1.00  0.00    -0.545 OA
ATOM      9  O   UNL     1      31.120  -9.806  22.127  1.00  0.00    -0.545 OA
ENDBRANCH   1   7
TORSDOF 1
ENDMDL
MODEL 4
REMARK VINA RESULT:    -1.565      1.578      2.266
REMARK INTER + INTRA:          -1.674
REMARK INTER:                  -1.650
REMARK INTRA:                  -0.024
REMARK UNBOUND:                -0.018
REMARK SMILES O=C([O-])c1cccnc1
REMARK SMILES IDX 4 1 5 2 9 3 6 4 8 5 7 6 2 7 1 8 3 9
REMARK H PARENT
REMARK Flexibility Score: inf
ROOT
ATOM      1  C   UNL     1      29.942 -10.476  15.082  1.00  0.00     0.016 A 
ATOM      2  C   UNL     1      31.125 -10.440  14.325  1.00  0.00     0.013 A 
ATOM      3  C   UNL     1      28.712 -10.448  14.402  1.00  0.00     0.120 A 
ATOM      4  C   UNL     1      31.064 -10.379  12.932  1.00  0.00     0.021 A 
ATOM      5  N   UNL     1      28.681 -10.387  13.043  1.00  0.00    -0.264 NA
ATOM      6  C   UNL     1      29.819 -10.353  12.302  1.00  0.00     0.111 A 
ENDROOT
BRANCH   1   7
ATOM      7  C   UNL     1      29.985 -10.541  16.559  1.00  0.00     0.073 C 
ATOM      8  O   UNL     1      31.079 -10.428  17.174  1.00  0.00    -0.545 OA
ATOM      9  O   UNL     1      28.817 -10.728  17.290  1.00  0.00    -0.545 OA
ENDBRANCH   1   7
TORSDOF 1
ENDMDL
MODEL 5
REMARK VINA RESULT:    -1.557      2.771      3.495
REMARK INTER + INTRA:          -1.666
REMARK INTER:                  -1.647
REMARK INTRA:                  -0.019
REMARK UNBOUND:                -0.018
REMARK SMILES O=C([O-])c1cccnc1
REMARK SMILES IDX 4 1 5 2 9 3 6 4 8 5 7 6 2 7 1 8 3 9
REMARK H PARENT
REMARK Flexibility Score: inf
ROOT
ATOM      1  C   UNL     1      29.144 -10.391  20.032  1.00  0.00     0.016 A 
ATOM      2  C   UNL     1      28.714 -11.050  18.868  1.00  0.00     0.013 A 
ATOM      3  C   UNL     1      30.356  -9.680  19.989  1.00  0.00     0.120 A 
ATOM      4  C   UNL     1      29.483 -10.991  17.704  1.00  0.00     0.021 A 
ATOM      5  N   UNL     1      31.086  -9.639  18.842  1.00  0.00    -0.264 NA
ATOM      6  C   UNL     1      30.679 -10.272  17.711  1.00  0.00     0.111 A 
ENDROOT
BRANCH   1   7
ATOM      7  C   UNL     1      28.344 -10.441  21.275  1.00  0.00     0.073 C 
ATOM      8  O   UNL     1      27.116 -10.162  21.258  1.00  0.00    -0.545 OA
ATOM      9  O   UNL     1      28.938 -10.798  22.480  1.00  0.00    -0.545 OA
ENDBRANCH   1   7
TORSDOF 1
ENDMDL
MODEL 6
REMARK VINA RESULT:    -1.528      3.468      4.155
REMARK INTER + INTRA:          -1.635
REMARK INTER:                  -1.618
REMARK INTRA:                  -0.017
REMARK UNBOUND:                -0.018
REMARK SMILES O=C([O-])c1cccnc1
REMARK SMILES IDX 4 1 5 2 9 3 6 4 8 5 7 6 2 7 1 8 3 9
REMARK H PARENT
REMARK Flexibility Score: inf
ROOT
ATOM      1  C   UNL     1      29.777 -10.210  14.215  1.00  0.00     0.016 A 
ATOM      2  C   UNL     1      30.976 -10.782  14.670  1.00  0.00     0.013 A 
ATOM      3  C   UNL     1      28.744  -9.996  15.144  1.00  0.00     0.120 A 
ATOM      4  C   UNL     1      31.123 -11.125  16.015  1.00  0.00     0.021 A 
ATOM      5  N   UNL     1      28.913 -10.339  16.449  1.00  0.00    -0.264 NA
ATOM      6  C   UNL     1      30.069 -10.893  16.900  1.00  0.00     0.111 A 
ENDROOT
BRANCH   1   7
ATOM      7  C   UNL     1      29.601  -9.840  12.794  1.00  0.00     0.073 C 
ATOM      8  O   UNL     1      29.502 -10.730  11.908  1.00  0.00    -0.545 OA
ATOM      9  O   UNL     1      29.543  -8.503  12.416  1.00  0.00    -0.545 OA
ENDBRANCH   1   7
TORSDOF 1
ENDMDL
MODEL 7
REMARK VINA RESULT:    -1.498      3.159      4.682
REMARK INTER + INTRA:          -1.603
REMARK INTER:                  -1.583
REMARK INTRA:                  -0.020
REMARK UNBOUND:                -0.018
REMARK SMILES O=C([O-])c1cccnc1
REMARK SMILES IDX 4 1 5 2 9 3 6 4 8 5 7 6 2 7 1 8 3 9
REMARK H PARENT
REMARK Flexibility Score: inf
ROOT
ATOM      1  C   UNL     1      30.217  -9.944  18.964  1.00  0.00     0.016 A 
ATOM      2  C   UNL     1      29.006 -10.444  19.471  1.00  0.00     0.013 A 
ATOM      3  C   UNL     1      31.117  -9.338  19.857  1.00  0.00     0.120 A 
ATOM      4  C   UNL     1      28.719 -10.333  20.833  1.00  0.00     0.021 A 
ATOM      5  N   UNL     1      30.812  -9.243  21.179  1.00  0.00    -0.264 NA
ATOM      6  C   UNL     1      29.644  -9.723  21.681  1.00  0.00     0.111 A 
ENDROOT
BRANCH   1   7
ATOM      7  C   UNL     1      30.541 -10.051  17.525  1.00  0.00     0.073 C 
ATOM      8  O   UNL     1      30.323 -11.121  16.896  1.00  0.00    -0.545 OA
ATOM      9  O   UNL     1      31.092  -8.971  16.845  1.00  0.00    -0.545 OA
ENDBRANCH   1   7
TORSDOF 1
ENDMDL
MODEL 8
REMARK VINA RESULT:    -1.485      2.223      3.546
REMARK INTER + INTRA:          -1.589
REMARK INTER:                  -1.572
REMARK INTRA:                  -0.018
REMARK UNBOUND:                -0.018
REMARK SMILES O=C([O-])c1cccnc1
REMARK SMILES IDX 4 1 5 2 9 3 6 4 8 5 7 6 2 7 1 8 3 9
REMARK H PARENT
REMARK Flexibility Score: inf
ROOT
ATOM      1  C   UNL     1      28.876 -10.479  17.679  1.00  0.00     0.016 A 
ATOM      2  C   UNL     1      28.400 -10.993  18.896  1.00  0.00     0.013 A 
ATOM      3  C   UNL     1      27.941 -10.029  16.732  1.00  0.00     0.120 A 
ATOM      4  C   UNL     1      27.026 -11.048  19.144  1.00  0.00     0.021 A 
ATOM      5  N   UNL     1      26.609 -10.094  16.998  1.00  0.00    -0.264 NA
ATOM      6  C   UNL     1      26.137 -10.589  18.172  1.00  0.00     0.111 A 
ENDROOT
BRANCH   1   7
ATOM      7  C   UNL     1      30.326 -10.412  17.397  1.00  0.00     0.073 C 
ATOM      8  O   UNL     1      31.087  -9.708  18.114  1.00  0.00    -0.545 OA
ATOM      9  O   UNL     1      30.871 -11.125  16.335  1.00  0.00    -0.545 OA
ENDBRANCH   1   7
TORSDOF 1
ENDMDL
MODEL 9
REMARK VINA RESULT:    -0.246     15.293     15.955
REMARK INTER + INTRA:          -0.278
REMARK INTER:                  -0.257
REMARK INTRA:                  -0.021
REMARK UNBOUND:                -0.018
REMARK SMILES O=C([O-])c1cccnc1
REMARK SMILES IDX 4 1 5 2 9 3 6 4 8 5 7 6 2 7 1 8 3 9
REMARK H PARENT
REMARK Flexibility Score: inf
ROOT
ATOM      1  C   UNL     1      29.388   4.690  15.001  1.00  0.00     0.016 A 
ATOM      2  C   UNL     1      28.139   5.254  15.307  1.00  0.00     0.013 A 
ATOM      3  C   UNL     1      30.502   5.542  14.909  1.00  0.00     0.120 A 
ATOM      4  C   UNL     1      28.023   6.630  15.513  1.00  0.00     0.021 A 
ATOM      5  N   UNL     1      30.361   6.879  15.114  1.00  0.00    -0.264 NA
ATOM      6  C   UNL     1      29.157   7.435  15.411  1.00  0.00     0.111 A 
ENDROOT
BRANCH   1   7
ATOM      7  C   UNL     1      29.533   3.235  14.779  1.00  0.00     0.073 C 
ATOM      8  O   UNL     1      30.360   2.794  13.937  1.00  0.00    -0.545 OA
ATOM      9  O   UNL     1      28.758   2.332  15.498  1.00  0.00    -0.545 OA
ENDBRANCH   1   7
TORSDOF 1
ENDMDL
