MODEL 1
REMARK VINA RESULT:    -5.681      0.000      0.000
REMARK INTER + INTRA:         -10.719
REMARK INTER:                  -9.999
REMARK INTRA:                  -0.720
REMARK UNBOUND:                -0.720
REMARK SMILES CCCCCCC=CCCCCCCCC(=O)[O-]
REMARK SMILES IDX 10 1 11 2 12 3 13 4 14 5 15 6 16 7 17 8 18 9 9 10 8 11 7 12
REMARK SMILES IDX 6 13 5 14 4 15 3 16 2 17 1 18
REMARK H PARENT
REMARK Flexibility Score: inf
ROOT
ATOM      1  C   UNL     1      22.312 -11.904  21.723  1.00  0.00     0.004 C 
ENDROOT
BRANCH   1   2
ATOM      2  C   UNL     1      21.996 -10.672  22.596  1.00  0.00     0.000 C 
BRANCH   2   3
ATOM      3  C   UNL     1      21.013 -10.927  23.751  1.00  0.00     0.000 C 
BRANCH   3   4
ATOM      4  C   UNL     1      20.704  -9.664  24.568  1.00  0.00     0.000 C 
BRANCH   4   5
ATOM      5  C   UNL     1      21.213  -8.407  23.847  1.00  0.00     0.006 C 
BRANCH   5   6
ATOM      6  C   UNL     1      20.985  -7.133  24.671  1.00  0.00     0.053 C 
BRANCH   6   7
ATOM      7  C   UNL     1      21.784  -7.140  25.938  1.00  0.00     0.041 C 
ATOM      8  O   UNL     1      21.207  -7.033  27.052  1.00  0.00    -0.550 OA
ATOM      9  O   UNL     1      23.169  -7.231  25.886  1.00  0.00    -0.550 OA
ENDBRANCH   6   7
ENDBRANCH   5   6
ENDBRANCH   4   5
ENDBRANCH   3   4
ENDBRANCH   2   3
ENDBRANCH   1   2
BRANCH   1  10
ATOM     10  C   UNL     1      21.081 -12.730  21.322  1.00  0.00     0.027 C 
BRANCH  10  11
ATOM     11  C   UNL     1      21.405 -13.714  20.231  1.00  0.00    -0.031 C 
ATOM     12  C   UNL     1      22.551 -14.412  20.227  1.00  0.00    -0.031 C 
BRANCH  12  13
ATOM     13  C   UNL     1      22.867 -15.405  19.142  1.00  0.00     0.027 C 
BRANCH  13  14
ATOM     14  C   UNL     1      23.096 -16.811  19.711  1.00  0.00     0.004 C 
BRANCH  14  15
ATOM     15  C   UNL     1      23.493 -17.822  18.621  1.00  0.00     0.000 C 
BRANCH  15  16
ATOM     16  C   UNL     1      22.943 -17.428  17.234  1.00  0.00    -0.000 C 
BRANCH  16  17
ATOM     17  C   UNL     1      22.509 -18.632  16.380  1.00  0.00    -0.003 C 
ATOM     18  C   UNL     1      21.807 -19.719  17.191  1.00  0.00     0.004 C 
ENDBRANCH  16  17
ENDBRANCH  15  16
ENDBRANCH  14  15
ENDBRANCH  13  14
ENDBRANCH  12  13
ENDBRANCH  10  11
ENDBRANCH   1  10
TORSDOF 13
ENDMDL
MODEL 2
REMARK VINA RESULT:    -5.474      1.840      3.887
REMARK INTER + INTRA:         -10.354
REMARK INTER:                  -9.743
REMARK INTRA:                  -0.610
REMARK UNBOUND:                -0.720
REMARK SMILES CCCCCCC=CCCCCCCCC(=O)[O-]
REMARK SMILES IDX 10 1 11 2 12 3 13 4 14 5 15 6 16 7 17 8 18 9 9 10 8 11 7 12
REMARK SMILES IDX 6 13 5 14 4 15 3 16 2 17 1 18
REMARK H PARENT
REMARK Flexibility Score: inf
ROOT
ATOM      1  C   UNL     1      22.905 -15.629  19.881  1.00  0.00     0.004 C 
ENDROOT
BRANCH   1   2
ATOM      2  C   UNL     1      23.043 -14.563  20.987  1.00  0.00     0.000 C 
BRANCH   2   3
ATOM      3  C   UNL     1      22.027 -13.409  20.910  1.00  0.00     0.000 C 
BRANCH   3   4
ATOM      4  C   UNL     1      22.430 -12.197  21.762  1.00  0.00     0.000 C 
BRANCH   4   5
ATOM      5  C   UNL     1      21.197 -11.542  22.402  1.00  0.00     0.006 C 
BRANCH   5   6
ATOM      6  C   UNL     1      21.483 -10.113  22.884  1.00  0.00     0.053 C 
BRANCH   6   7
ATOM      7  C   UNL     1      20.979  -9.885  24.276  1.00  0.00     0.041 C 
ATOM      8  O   UNL     1      21.246  -8.813  24.880  1.00  0.00    -0.550 OA
ATOM      9  O   UNL     1      20.243 -10.871  24.919  1.00  0.00    -0.550 OA
ENDBRANCH   6   7
ENDBRANCH   5   6
ENDBRANCH   4   5
ENDBRANCH   3   4
ENDBRANCH   2   3
ENDBRANCH   1   2
BRANCH   1  10
ATOM     10  C   UNL     1      22.620 -15.059  18.483  1.00  0.00     0.027 C 
BRANCH  10  11
ATOM     11  C   UNL     1      22.914 -16.066  17.404  1.00  0.00    -0.031 C 
ATOM     12  C   UNL     1      23.063 -17.371  17.678  1.00  0.00    -0.031 C 
BRANCH  12  13
ATOM     13  C   UNL     1      23.343 -18.378  16.596  1.00  0.00     0.027 C 
BRANCH  13  14
ATOM     14  C   UNL     1      22.113 -19.244  16.297  1.00  0.00     0.004 C 
BRANCH  14  15
ATOM     15  C   UNL     1      21.640 -20.029  17.534  1.00  0.00     0.000 C 
BRANCH  15  16
ATOM     16  C   UNL     1      20.249 -20.662  17.325  1.00  0.00    -0.000 C 
BRANCH  16  17
ATOM     17  C   UNL     1      20.241 -21.801  16.291  1.00  0.00    -0.003 C 
ATOM     18  C   UNL     1      19.397 -21.485  15.058  1.00  0.00     0.004 C 
ENDBRANCH  16  17
ENDBRANCH  15  16
ENDBRANCH  14  15
ENDBRANCH  13  14
ENDBRANCH  12  13
ENDBRANCH  10  11
ENDBRANCH   1  10
TORSDOF 13
ENDMDL
MODEL 3
REMARK VINA RESULT:    -5.437      5.901     10.941
REMARK INTER + INTRA:         -10.289
REMARK INTER:                  -9.567
REMARK INTRA:                  -0.722
REMARK UNBOUND:                -0.720
REMARK SMILES CCCCCCC=CCCCCCCCC(=O)[O-]
REMARK SMILES IDX 10 1 11 2 12 3 13 4 14 5 15 6 16 7 17 8 18 9 9 10 8 11 7 12
REMARK SMILES IDX 6 13 5 14 4 15 3 16 2 17 1 18
REMARK H PARENT
REMARK Flexibility Score: inf
ROOT
ATOM      1  C   UNL     1      22.648 -15.050  18.396  1.00  0.00     0.004 C 
ENDROOT
BRANCH   1   2
ATOM      2  C   UNL     1      22.963 -16.204  17.421  1.00  0.00     0.000 C 
BRANCH   2   3
ATOM      3  C   UNL     1      23.349 -17.534  18.090  1.00  0.00     0.000 C 
BRANCH   3   4
ATOM      4  C   UNL     1      23.780 -18.610  17.083  1.00  0.00     0.000 C 
BRANCH   4   5
ATOM      5  C   UNL     1      22.558 -19.251  16.409  1.00  0.00     0.006 C 
BRANCH   5   6
ATOM      6  C   UNL     1      21.561 -19.818  17.429  1.00  0.00     0.053 C 
BRANCH   6   7
ATOM      7  C   UNL     1      20.770 -20.955  16.860  1.00  0.00     0.041 C 
ATOM      8  O   UNL     1      20.104 -20.799  15.803  1.00  0.00    -0.550 OA
ATOM      9  O   UNL     1      20.742 -22.179  17.517  1.00  0.00    -0.550 OA
ENDBRANCH   6   7
ENDBRANCH   5   6
ENDBRANCH   4   5
ENDBRANCH   3   4
ENDBRANCH   2   3
ENDBRANCH   1   2
BRANCH   1  10
ATOM     10  C   UNL     1      22.999 -15.345  19.862  1.00  0.00     0.027 C 
BRANCH  10  11
ATOM     11  C   UNL     1      22.609 -14.206  20.765  1.00  0.00    -0.031 C 
ATOM     12  C   UNL     1      21.443 -13.557  20.619  1.00  0.00    -0.031 C 
BRANCH  12  13
ATOM     13  C   UNL     1      21.050 -12.427  21.531  1.00  0.00     0.027 C 
BRANCH  13  14
ATOM     14  C   UNL     1      22.250 -11.537  21.879  1.00  0.00     0.004 C 
BRANCH  14  15
ATOM     15  C   UNL     1      21.914 -10.510  22.975  1.00  0.00     0.000 C 
BRANCH  15  16
ATOM     16  C   UNL     1      20.547 -10.789  23.635  1.00  0.00    -0.000 C 
BRANCH  16  17
ATOM     17  C   UNL     1      20.375 -10.110  25.004  1.00  0.00    -0.003 C 
ATOM     18  C   UNL     1      20.856  -8.660  25.018  1.00  0.00     0.004 C 
ENDBRANCH  16  17
ENDBRANCH  15  16
ENDBRANCH  14  15
ENDBRANCH  13  14
ENDBRANCH  12  13
ENDBRANCH  10  11
ENDBRANCH   1  10
TORSDOF 13
ENDMDL
MODEL 4
REMARK VINA RESULT:    -5.361      5.465     10.818
REMARK INTER + INTRA:         -10.154
REMARK INTER:                  -9.528
REMARK INTRA:                  -0.627
REMARK UNBOUND:                -0.720
REMARK SMILES CCCCCCC=CCCCCCCCC(=O)[O-]
REMARK SMILES IDX 10 1 11 2 12 3 13 4 14 5 15 6 16 7 17 8 18 9 9 10 8 11 7 12
REMARK SMILES IDX 6 13 5 14 4 15 3 16 2 17 1 18
REMARK H PARENT
REMARK Flexibility Score: inf
ROOT
ATOM      1  C   UNL     1      22.213 -14.130  20.437  1.00  0.00     0.004 C 
ENDROOT
BRANCH   1   2
ATOM      2  C   UNL     1      22.637 -15.224  19.435  1.00  0.00     0.000 C 
BRANCH   2   3
ATOM      3  C   UNL     1      23.129 -16.535  20.072  1.00  0.00     0.000 C 
BRANCH   3   4
ATOM      4  C   UNL     1      23.443 -17.624  19.037  1.00  0.00     0.000 C 
BRANCH   4   5
ATOM      5  C   UNL     1      23.082 -17.155  17.620  1.00  0.00     0.006 C 
BRANCH   5   6
ATOM      6  C   UNL     1      23.512 -18.164  16.547  1.00  0.00     0.053 C 
BRANCH   6   7
ATOM      7  C   UNL     1      22.803 -19.475  16.699  1.00  0.00     0.041 C 
ATOM      8  O   UNL     1      23.378 -20.446  17.258  1.00  0.00    -0.550 OA
ATOM      9  O   UNL     1      21.520 -19.633  16.194  1.00  0.00    -0.550 OA
ENDBRANCH   6   7
ENDBRANCH   5   6
ENDBRANCH   4   5
ENDBRANCH   3   4
ENDBRANCH   2   3
ENDBRANCH   1   2
BRANCH   1  10
ATOM     10  C   UNL     1      23.383 -13.426  21.140  1.00  0.00     0.027 C 
BRANCH  10  11
ATOM     11  C   UNL     1      22.908 -12.279  21.992  1.00  0.00    -0.031 C 
ATOM     12  C   UNL     1      21.618 -11.914  22.027  1.00  0.00    -0.031 C 
BRANCH  12  13
ATOM     13  C   UNL     1      21.143 -10.776  22.889  1.00  0.00     0.027 C 
BRANCH  13  14
ATOM     14  C   UNL     1      21.843  -9.460  22.524  1.00  0.00     0.004 C 
BRANCH  14  15
ATOM     15  C   UNL     1      21.877  -8.473  23.704  1.00  0.00     0.000 C 
BRANCH  15  16
ATOM     16  C   UNL     1      20.800  -8.793  24.762  1.00  0.00    -0.000 C 
BRANCH  16  17
ATOM     17  C   UNL     1      20.345  -7.564  25.567  1.00  0.00    -0.003 C 
ATOM     18  C   UNL     1      21.162  -7.345  26.839  1.00  0.00     0.004 C 
ENDBRANCH  16  17
ENDBRANCH  15  16
ENDBRANCH  14  15
ENDBRANCH  13  14
ENDBRANCH  12  13
ENDBRANCH  10  11
ENDBRANCH   1  10
TORSDOF 13
ENDMDL
MODEL 5
REMARK VINA RESULT:    -5.344      1.377      2.173
REMARK INTER + INTRA:         -10.124
REMARK INTER:                  -9.681
REMARK INTRA:                  -0.443
REMARK UNBOUND:                -0.720
REMARK SMILES CCCCCCC=CCCCCCCCC(=O)[O-]
REMARK SMILES IDX 10 1 11 2 12 3 13 4 14 5 15 6 16 7 17 8 18 9 9 10 8 11 7 12
REMARK SMILES IDX 6 13 5 14 4 15 3 16 2 17 1 18
REMARK H PARENT
REMARK Flexibility Score: inf
ROOT
ATOM      1  C   UNL     1      21.393 -13.144  20.906  1.00  0.00     0.004 C 
ENDROOT
BRANCH   1   2
ATOM      2  C   UNL     1      21.702 -11.917  21.789  1.00  0.00     0.000 C 
BRANCH   2   3
ATOM      3  C   UNL     1      20.592 -11.534  22.783  1.00  0.00     0.000 C 
BRANCH   3   4
ATOM      4  C   UNL     1      21.068 -10.556  23.867  1.00  0.00     0.000 C 
BRANCH   4   5
ATOM      5  C   UNL     1      21.660  -9.286  23.237  1.00  0.00     0.006 C 
BRANCH   5   6
ATOM      6  C   UNL     1      21.825  -8.154  24.260  1.00  0.00     0.053 C 
BRANCH   6   7
ATOM      7  C   UNL     1      20.565  -7.360  24.418  1.00  0.00     0.041 C 
ATOM      8  O   UNL     1      20.302  -6.422  23.619  1.00  0.00    -0.550 OA
ATOM      9  O   UNL     1      19.699  -7.633  25.468  1.00  0.00    -0.550 OA
ENDBRANCH   6   7
ENDBRANCH   5   6
ENDBRANCH   4   5
ENDBRANCH   3   4
ENDBRANCH   2   3
ENDBRANCH   1   2
BRANCH   1  10
ATOM     10  C   UNL     1      22.535 -14.168  20.821  1.00  0.00     0.027 C 
BRANCH  10  11
ATOM     11  C   UNL     1      22.554 -14.867  19.488  1.00  0.00    -0.031 C 
ATOM     12  C   UNL     1      23.004 -16.124  19.358  1.00  0.00    -0.031 C 
BRANCH  12  13
ATOM     13  C   UNL     1      23.009 -16.826  18.026  1.00  0.00     0.027 C 
BRANCH  13  14
ATOM     14  C   UNL     1      23.524 -18.265  18.149  1.00  0.00     0.004 C 
BRANCH  14  15
ATOM     15  C   UNL     1      23.141 -19.125  16.931  1.00  0.00     0.000 C 
BRANCH  15  16
ATOM     16  C   UNL     1      22.336 -20.379  17.333  1.00  0.00    -0.000 C 
BRANCH  16  17
ATOM     17  C   UNL     1      20.964 -20.475  16.645  1.00  0.00    -0.003 C 
ATOM     18  C   UNL     1      19.818 -20.713  17.625  1.00  0.00     0.004 C 
ENDBRANCH  16  17
ENDBRANCH  15  16
ENDBRANCH  14  15
ENDBRANCH  13  14
ENDBRANCH  12  13
ENDBRANCH  10  11
ENDBRANCH   1  10
TORSDOF 13
ENDMDL
MODEL 6
REMARK VINA RESULT:    -5.263      5.277     11.164
REMARK INTER + INTRA:          -9.982
REMARK INTER:                  -9.655
REMARK INTRA:                  -0.327
REMARK UNBOUND:                -0.720
REMARK SMILES CCCCCCC=CCCCCCCCC(=O)[O-]
REMARK SMILES IDX 10 1 11 2 12 3 13 4 14 5 15 6 16 7 17 8 18 9 9 10 8 11 7 12
REMARK SMILES IDX 6 13 5 14 4 15 3 16 2 17 1 18
REMARK H PARENT
REMARK Flexibility Score: inf
ROOT
ATOM      1  C   UNL     1      21.474 -13.041  20.969  1.00  0.00     0.004 C 
ENDROOT
BRANCH   1   2
ATOM      2  C   UNL     1      22.503 -14.177  20.794  1.00  0.00     0.000 C 
BRANCH   2   3
ATOM      3  C   UNL     1      22.491 -14.860  19.416  1.00  0.00     0.000 C 
BRANCH   3   4
ATOM      4  C   UNL     1      22.989 -16.312  19.461  1.00  0.00     0.000 C 
BRANCH   4   5
ATOM      5  C   UNL     1      23.045 -16.917  18.050  1.00  0.00     0.006 C 
BRANCH   5   6
ATOM      6  C   UNL     1      23.290 -18.431  18.077  1.00  0.00     0.053 C 
BRANCH   6   7
ATOM      7  C   UNL     1      22.278 -19.172  17.259  1.00  0.00     0.041 C 
ATOM      8  O   UNL     1      22.190 -18.967  16.019  1.00  0.00    -0.550 OA
ATOM      9  O   UNL     1      21.408 -20.065  17.870  1.00  0.00    -0.550 OA
ENDBRANCH   6   7
ENDBRANCH   5   6
ENDBRANCH   4   5
ENDBRANCH   3   4
ENDBRANCH   2   3
ENDBRANCH   1   2
BRANCH   1  10
ATOM     10  C   UNL     1      22.021 -11.793  21.678  1.00  0.00     0.027 C 
BRANCH  10  11
ATOM     11  C   UNL     1      21.097 -11.329  22.772  1.00  0.00    -0.031 C 
ATOM     12  C   UNL     1      21.437 -10.334  23.607  1.00  0.00    -0.031 C 
BRANCH  12  13
ATOM     13  C   UNL     1      20.507  -9.862  24.691  1.00  0.00     0.027 C 
BRANCH  13  14
ATOM     14  C   UNL     1      20.986  -8.544  25.312  1.00  0.00     0.004 C 
BRANCH  14  15
ATOM     15  C   UNL     1      19.847  -7.518  25.450  1.00  0.00     0.000 C 
BRANCH  15  16
ATOM     16  C   UNL     1      19.982  -6.359  24.440  1.00  0.00    -0.000 C 
BRANCH  16  17
ATOM     17  C   UNL     1      18.722  -5.482  24.338  1.00  0.00    -0.003 C 
ATOM     18  C   UNL     1      19.002  -4.096  23.763  1.00  0.00     0.004 C 
ENDBRANCH  16  17
ENDBRANCH  15  16
ENDBRANCH  14  15
ENDBRANCH  13  14
ENDBRANCH  12  13
ENDBRANCH  10  11
ENDBRANCH   1  10
TORSDOF 13
ENDMDL
MODEL 7
REMARK VINA RESULT:    -5.138      2.126      3.226
REMARK INTER + INTRA:          -9.762
REMARK INTER:                  -9.213
REMARK INTRA:                  -0.550
REMARK UNBOUND:                -0.720
REMARK SMILES CCCCCCC=CCCCCCCCC(=O)[O-]
REMARK SMILES IDX 10 1 11 2 12 3 13 4 14 5 15 6 16 7 17 8 18 9 9 10 8 11 7 12
REMARK SMILES IDX 6 13 5 14 4 15 3 16 2 17 1 18
REMARK H PARENT
REMARK Flexibility Score: inf
ROOT
ATOM      1  C   UNL     1      20.673 -10.989  23.835  1.00  0.00     0.004 C 
ENDROOT
BRANCH   1   2
ATOM      2  C   UNL     1      20.372 -10.017  24.995  1.00  0.00     0.000 C 
BRANCH   2   3
ATOM      3  C   UNL     1      21.082  -8.655  24.904  1.00  0.00     0.000 C 
BRANCH   3   4
ATOM      4  C   UNL     1      20.231  -7.498  25.445  1.00  0.00     0.000 C 
BRANCH   4   5
ATOM      5  C   UNL     1      20.603  -6.175  24.759  1.00  0.00     0.006 C 
BRANCH   5   6
ATOM      6  C   UNL     1      19.626  -5.810  23.633  1.00  0.00     0.053 C 
BRANCH   6   7
ATOM      7  C   UNL     1      18.574  -4.852  24.100  1.00  0.00     0.041 C 
ATOM      8  O   UNL     1      18.673  -3.624  23.839  1.00  0.00    -0.550 OA
ATOM      9  O   UNL     1      17.500  -5.310  24.852  1.00  0.00    -0.550 OA
ENDBRANCH   6   7
ENDBRANCH   5   6
ENDBRANCH   4   5
ENDBRANCH   3   4
ENDBRANCH   2   3
ENDBRANCH   1   2
BRANCH   1  10
ATOM     10  C   UNL     1      21.492 -10.375  22.690  1.00  0.00     0.027 C 
BRANCH  10  11
ATOM     11  C   UNL     1      22.614 -11.282  22.263  1.00  0.00    -0.031 C 
ATOM     12  C   UNL     1      22.382 -12.447  21.639  1.00  0.00    -0.031 C 
BRANCH  12  13
ATOM     13  C   UNL     1      23.507 -13.346  21.202  1.00  0.00     0.027 C 
BRANCH  13  14
ATOM     14  C   UNL     1      23.011 -14.767  20.906  1.00  0.00     0.004 C 
BRANCH  14  15
ATOM     15  C   UNL     1      22.682 -14.970  19.416  1.00  0.00     0.000 C 
BRANCH  15  16
ATOM     16  C   UNL     1      22.986 -16.407  18.943  1.00  0.00    -0.000 C 
BRANCH  16  17
ATOM     17  C   UNL     1      22.921 -16.578  17.416  1.00  0.00    -0.003 C 
ATOM     18  C   UNL     1      23.219 -18.005  16.960  1.00  0.00     0.004 C 
ENDBRANCH  16  17
ENDBRANCH  15  16
ENDBRANCH  14  15
ENDBRANCH  13  14
ENDBRANCH  12  13
ENDBRANCH  10  11
ENDBRANCH   1  10
TORSDOF 13
ENDMDL
MODEL 8
REMARK VINA RESULT:    -5.125      4.237     10.464
REMARK INTER + INTRA:          -9.739
REMARK INTER:                  -8.948
REMARK INTRA:                  -0.791
REMARK UNBOUND:                -0.720
REMARK SMILES CCCCCCC=CCCCCCCCC(=O)[O-]
REMARK SMILES IDX 10 1 11 2 12 3 13 4 14 5 15 6 16 7 17 8 18 9 9 10 8 11 7 12
REMARK SMILES IDX 6 13 5 14 4 15 3 16 2 17 1 18
REMARK H PARENT
REMARK Flexibility Score: inf
ROOT
ATOM      1  C   UNL     1      22.317 -10.513  22.191  1.00  0.00     0.004 C 
ENDROOT
BRANCH   1   2
ATOM      2  C   UNL     1      22.500 -11.938  21.629  1.00  0.00     0.000 C 
BRANCH   2   3
ATOM      3  C   UNL     1      21.192 -12.688  21.320  1.00  0.00     0.000 C 
BRANCH   3   4
ATOM      4  C   UNL     1      21.355 -13.752  20.226  1.00  0.00     0.000 C 
BRANCH   4   5
ATOM      5  C   UNL     1      22.597 -14.619  20.483  1.00  0.00     0.006 C 
BRANCH   5   6
ATOM      6  C   UNL     1      22.897 -15.567  19.315  1.00  0.00     0.053 C 
BRANCH   6   7
ATOM      7  C   UNL     1      23.099 -16.976  19.780  1.00  0.00     0.041 C 
ATOM      8  O   UNL     1      23.602 -17.205  20.912  1.00  0.00    -0.550 OA
ATOM      9  O   UNL     1      22.764 -18.038  18.950  1.00  0.00    -0.550 OA
ENDBRANCH   6   7
ENDBRANCH   5   6
ENDBRANCH   4   5
ENDBRANCH   3   4
ENDBRANCH   2   3
ENDBRANCH   1   2
BRANCH   1  10
ATOM     10  C   UNL     1      21.257 -10.398  23.297  1.00  0.00     0.027 C 
BRANCH  10  11
ATOM     11  C   UNL     1      21.367  -9.093  24.037  1.00  0.00    -0.031 C 
ATOM     12  C   UNL     1      20.831  -8.925  25.256  1.00  0.00    -0.031 C 
BRANCH  12  13
ATOM     13  C   UNL     1      20.954  -7.623  26.000  1.00  0.00     0.027 C 
BRANCH  13  14
ATOM     14  C   UNL     1      21.720  -6.576  25.183  1.00  0.00     0.004 C 
BRANCH  14  15
ATOM     15  C   UNL     1      21.471  -5.145  25.692  1.00  0.00     0.000 C 
BRANCH  15  16
ATOM     16  C   UNL     1      20.728  -4.279  24.653  1.00  0.00    -0.000 C 
BRANCH  16  17
ATOM     17  C   UNL     1      19.760  -5.079  23.765  1.00  0.00    -0.003 C 
ATOM     18  C   UNL     1      18.384  -5.271  24.400  1.00  0.00     0.004 C 
ENDBRANCH  16  17
ENDBRANCH  15  16
ENDBRANCH  14  15
ENDBRANCH  13  14
ENDBRANCH  12  13
ENDBRANCH  10  11
ENDBRANCH   1  10
TORSDOF 13
ENDMDL
MODEL 9
REMARK VINA RESULT:    -5.050      0.958      2.248
REMARK INTER + INTRA:          -9.608
REMARK INTER:                  -8.911
REMARK INTRA:                  -0.697
REMARK UNBOUND:                -0.720
REMARK SMILES CCCCCCC=CCCCCCCCC(=O)[O-]
REMARK SMILES IDX 10 1 11 2 12 3 13 4 14 5 15 6 16 7 17 8 18 9 9 10 8 11 7 12
REMARK SMILES IDX 6 13 5 14 4 15 3 16 2 17 1 18
REMARK H PARENT
REMARK Flexibility Score: inf
ROOT
ATOM      1  C   UNL     1      21.208 -10.378  22.725  1.00  0.00     0.004 C 
ENDROOT
BRANCH   1   2
ATOM      2  C   UNL     1      20.827 -10.546  24.210  1.00  0.00     0.000 C 
BRANCH   2   3
ATOM      3  C   UNL     1      20.714  -9.233  25.005  1.00  0.00     0.000 C 
BRANCH   3   4
ATOM      4  C   UNL     1      21.060  -7.993  24.169  1.00  0.00     0.000 C 
BRANCH   4   5
ATOM      5  C   UNL     1      21.256  -6.762  25.068  1.00  0.00     0.006 C 
BRANCH   5   6
ATOM      6  C   UNL     1      21.118  -7.103  26.557  1.00  0.00     0.053 C 
BRANCH   6   7
ATOM      7  C   UNL     1      22.016  -6.256  27.406  1.00  0.00     0.041 C 
ATOM      8  O   UNL     1      22.977  -5.631  26.885  1.00  0.00    -0.550 OA
ATOM      9  O   UNL     1      21.812  -6.185  28.778  1.00  0.00    -0.550 OA
ENDBRANCH   6   7
ENDBRANCH   5   6
ENDBRANCH   4   5
ENDBRANCH   3   4
ENDBRANCH   2   3
ENDBRANCH   1   2
BRANCH   1  10
ATOM     10  C   UNL     1      22.617 -10.876  22.370  1.00  0.00     0.027 C 
BRANCH  10  11
ATOM     11  C   UNL     1      22.571 -12.184  21.626  1.00  0.00    -0.031 C 
ATOM     12  C   UNL     1      21.449 -12.620  21.035  1.00  0.00    -0.031 C 
BRANCH  12  13
ATOM     13  C   UNL     1      21.409 -13.921  20.280  1.00  0.00     0.027 C 
BRANCH  13  14
ATOM     14  C   UNL     1      22.765 -14.639  20.319  1.00  0.00     0.004 C 
BRANCH  14  15
ATOM     15  C   UNL     1      22.953 -15.591  19.125  1.00  0.00     0.000 C 
BRANCH  15  16
ATOM     16  C   UNL     1      23.045 -17.067  19.566  1.00  0.00    -0.000 C 
BRANCH  16  17
ATOM     17  C   UNL     1      23.658 -17.990  18.499  1.00  0.00    -0.003 C 
ATOM     18  C   UNL     1      22.607 -18.697  17.645  1.00  0.00     0.004 C 
ENDBRANCH  16  17
ENDBRANCH  15  16
ENDBRANCH  14  15
ENDBRANCH  13  14
ENDBRANCH  12  13
ENDBRANCH  10  11
ENDBRANCH   1  10
TORSDOF 13
ENDMDL
