MODEL 1
REMARK VINA RESULT:    -4.757      0.000      0.000
REMARK INTER + INTRA:          -5.386
REMARK INTER:                  -5.174
REMARK INTRA:                  -0.212
REMARK UNBOUND:                -0.212
REMARK SMILES O=C([O-])c1ccccc1O
REMARK SMILES IDX 4 1 9 2 5 3 8 4 6 5 7 6 2 7 1 8 3 9 10 10
REMARK H PARENT 10 11
REMARK Flexibility Score: inf
ROOT
ATOM      1  C   UNL     1      28.930  -7.538  30.424  1.00  0.00     0.039 A 
ATOM      2  C   UNL     1      28.722  -8.659  31.266  1.00  0.00     0.124 A 
ATOM      3  C   UNL     1      29.011  -7.738  29.032  1.00  0.00     0.014 A 
ATOM      4  C   UNL     1      28.663  -9.943  30.710  1.00  0.00     0.047 A 
ATOM      5  C   UNL     1      28.929  -9.022  28.492  1.00  0.00     0.001 A 
ATOM      6  C   UNL     1      28.766 -10.124  29.329  1.00  0.00     0.004 A 
ENDROOT
BRANCH   1   7
ATOM      7  C   UNL     1      29.105  -6.167  30.954  1.00  0.00     0.075 C 
ATOM      8  O   UNL     1      28.164  -5.603  31.572  1.00  0.00    -0.545 OA
ATOM      9  O   UNL     1      30.278  -5.459  30.720  1.00  0.00    -0.545 OA
ENDBRANCH   1   7
BRANCH   2  10
ATOM     10  O   UNL     1      28.533  -8.539  32.645  1.00  0.00    -0.507 OA
ATOM     11  H   UNL     1      28.014  -9.209  33.195  1.00  0.00     0.293 HD
ENDBRANCH   2  10
TORSDOF 2
ENDMDL
MODEL 2
REMARK VINA RESULT:    -4.741      1.809      2.701
REMARK INTER + INTRA:          -5.369
REMARK INTER:                  -5.142
REMARK INTRA:                  -0.227
REMARK UNBOUND:                -0.212
REMARK SMILES O=C([O-])c1ccccc1O
REMARK SMILES IDX 4 1 9 2 5 3 8 4 6 5 7 6 2 7 1 8 3 9 10 10
REMARK H PARENT 10 11
REMARK Flexibility Score: inf
ROOT
ATOM      1  C   UNL     1      28.757  -7.570  30.057  1.00  0.00     0.039 A 
ATOM      2  C   UNL     1      29.153  -8.609  29.178  1.00  0.00     0.124 A 
ATOM      3  C   UNL     1      28.716  -7.828  31.440  1.00  0.00     0.014 A 
ATOM      4  C   UNL     1      29.435  -9.882  29.690  1.00  0.00     0.047 A 
ATOM      5  C   UNL     1      29.021  -9.096  31.938  1.00  0.00     0.001 A 
ATOM      6  C   UNL     1      29.369 -10.125  31.063  1.00  0.00     0.004 A 
ENDROOT
BRANCH   1   7
ATOM      7  C   UNL     1      28.346  -6.233  29.573  1.00  0.00     0.075 C 
ATOM      8  O   UNL     1      29.154  -5.522  28.919  1.00  0.00    -0.545 OA
ATOM      9  O   UNL     1      27.096  -5.716  29.890  1.00  0.00    -0.545 OA
ENDBRANCH   1   7
BRANCH   2  10
ATOM     10  O   UNL     1      29.314  -8.412  27.804  1.00  0.00    -0.507 OA
ATOM     11  H   UNL     1      29.538  -7.516  27.394  1.00  0.00     0.293 HD
ENDBRANCH   2  10
TORSDOF 2
ENDMDL
MODEL 3
REMARK VINA RESULT:    -4.634      7.522      8.456
REMARK INTER + INTRA:          -5.253
REMARK INTER:                  -5.009
REMARK INTRA:                  -0.244
REMARK UNBOUND:                -0.212
REMARK SMILES O=C([O-])c1ccccc1O
REMARK SMILES IDX 4 1 9 2 5 3 8 4 6 5 7 6 2 7 1 8 3 9 10 10
REMARK H PARENT 10 11
REMARK Flexibility Score: inf
ROOT
ATOM      1  C   UNL     1      28.688  -0.142  30.613  1.00  0.00     0.039 A 
ATOM      2  C   UNL     1      28.241   0.635  29.514  1.00  0.00     0.124 A 
ATOM      3  C   UNL     1      27.801  -1.065  31.198  1.00  0.00     0.014 A 
ATOM      4  C   UNL     1      26.917   0.516  29.073  1.00  0.00     0.047 A 
ATOM      5  C   UNL     1      26.490  -1.187  30.733  1.00  0.00     0.001 A 
ATOM      6  C   UNL     1      26.045  -0.391  29.679  1.00  0.00     0.004 A 
ENDROOT
BRANCH   1   7
ATOM      7  C   UNL     1      30.040   0.008  31.194  1.00  0.00     0.075 C 
ATOM      8  O   UNL     1      31.058  -0.070  30.457  1.00  0.00    -0.545 OA
ATOM      9  O   UNL     1      30.211   0.167  32.564  1.00  0.00    -0.545 OA
ENDBRANCH   1   7
BRANCH   2  10
ATOM     10  O   UNL     1      29.083   1.503  28.815  1.00  0.00    -0.507 OA
ATOM     11  H   UNL     1      30.091   1.474  28.883  1.00  0.00     0.293 HD
ENDBRANCH   2  10
TORSDOF 2
ENDMDL
MODEL 4
REMARK VINA RESULT:    -4.596      7.596      8.499
REMARK INTER + INTRA:          -5.211
REMARK INTER:                  -4.961
REMARK INTRA:                  -0.250
REMARK UNBOUND:                -0.212
REMARK SMILES O=C([O-])c1ccccc1O
REMARK SMILES IDX 4 1 9 2 5 3 8 4 6 5 7 6 2 7 1 8 3 9 10 10
REMARK H PARENT 10 11
REMARK Flexibility Score: inf
ROOT
ATOM      1  C   UNL     1      27.827  -0.227  30.073  1.00  0.00     0.039 A 
ATOM      2  C   UNL     1      28.056   0.640  31.171  1.00  0.00     0.124 A 
ATOM      3  C   UNL     1      28.917  -0.925  29.518  1.00  0.00     0.014 A 
ATOM      4  C   UNL     1      29.361   0.835  31.641  1.00  0.00     0.047 A 
ATOM      5  C   UNL     1      30.209  -0.737  30.013  1.00  0.00     0.001 A 
ATOM      6  C   UNL     1      30.433   0.149  31.066  1.00  0.00     0.004 A 
ENDROOT
BRANCH   1   7
ATOM      7  C   UNL     1      26.491  -0.398  29.461  1.00  0.00     0.075 C 
ATOM      8  O   UNL     1      26.340  -0.249  28.220  1.00  0.00    -0.545 OA
ATOM      9  O   UNL     1      25.376  -0.656  30.249  1.00  0.00    -0.545 OA
ENDBRANCH   1   7
BRANCH   2  10
ATOM     10  O   UNL     1      27.020   1.295  31.841  1.00  0.00    -0.507 OA
ATOM     11  H   UNL     1      26.276   0.810  32.323  1.00  0.00     0.293 HD
ENDBRANCH   2  10
TORSDOF 2
ENDMDL
MODEL 5
REMARK VINA RESULT:    -4.561      7.147      8.314
REMARK INTER + INTRA:          -5.173
REMARK INTER:                  -4.949
REMARK INTRA:                  -0.225
REMARK UNBOUND:                -0.212
REMARK SMILES O=C([O-])c1ccccc1O
REMARK SMILES IDX 4 1 9 2 5 3 8 4 6 5 7 6 2 7 1 8 3 9 10 10
REMARK H PARENT 10 11
REMARK Flexibility Score: inf
ROOT
ATOM      1  C   UNL     1      27.874  -0.213  29.898  1.00  0.00     0.039 A 
ATOM      2  C   UNL     1      28.962  -1.025  29.491  1.00  0.00     0.124 A 
ATOM      3  C   UNL     1      28.095   0.784  30.868  1.00  0.00     0.014 A 
ATOM      4  C   UNL     1      30.213  -0.867  30.101  1.00  0.00     0.047 A 
ATOM      5  C   UNL     1      29.353   0.944  31.450  1.00  0.00     0.001 A 
ATOM      6  C   UNL     1      30.408   0.113  31.076  1.00  0.00     0.004 A 
ENDROOT
BRANCH   1   7
ATOM      7  C   UNL     1      26.504  -0.396  29.370  1.00  0.00     0.075 C 
ATOM      8  O   UNL     1      26.277  -0.259  28.139  1.00  0.00    -0.545 OA
ATOM      9  O   UNL     1      25.440  -0.653  30.227  1.00  0.00    -0.545 OA
ENDBRANCH   1   7
BRANCH   2  10
ATOM     10  O   UNL     1      28.854  -1.970  28.468  1.00  0.00    -0.507 OA
ATOM     11  H   UNL     1      27.996  -2.458  28.251  1.00  0.00     0.293 HD
ENDBRANCH   2  10
TORSDOF 2
ENDMDL
MODEL 6
REMARK VINA RESULT:    -4.522      7.068      7.937
REMARK INTER + INTRA:          -5.131
REMARK INTER:                  -4.891
REMARK INTRA:                  -0.241
REMARK UNBOUND:                -0.212
REMARK SMILES O=C([O-])c1ccccc1O
REMARK SMILES IDX 4 1 9 2 5 3 8 4 6 5 7 6 2 7 1 8 3 9 10 10
REMARK H PARENT 10 11
REMARK Flexibility Score: inf
ROOT
ATOM      1  C   UNL     1      28.608  -0.092  30.696  1.00  0.00     0.039 A 
ATOM      2  C   UNL     1      27.673  -1.061  31.139  1.00  0.00     0.124 A 
ATOM      3  C   UNL     1      28.237   0.787  29.660  1.00  0.00     0.014 A 
ATOM      4  C   UNL     1      26.429  -1.168  30.504  1.00  0.00     0.047 A 
ATOM      5  C   UNL     1      26.985   0.682  29.051  1.00  0.00     0.001 A 
ATOM      6  C   UNL     1      26.086  -0.301  29.465  1.00  0.00     0.004 A 
ENDROOT
BRANCH   1   7
ATOM      7  C   UNL     1      29.975   0.007  31.253  1.00  0.00     0.075 C 
ATOM      8  O   UNL     1      30.975  -0.093  30.495  1.00  0.00    -0.545 OA
ATOM      9  O   UNL     1      30.177   0.140  32.621  1.00  0.00    -0.545 OA
ENDBRANCH   1   7
BRANCH   2  10
ATOM     10  O   UNL     1      27.923  -1.907  32.223  1.00  0.00    -0.507 OA
ATOM     11  H   UNL     1      28.460  -2.760  32.150  1.00  0.00     0.293 HD
ENDBRANCH   2  10
TORSDOF 2
ENDMDL
MODEL 7
REMARK VINA RESULT:    -4.480      3.812      5.104
REMARK INTER + INTRA:          -5.085
REMARK INTER:                  -4.834
REMARK INTRA:                  -0.251
REMARK UNBOUND:                -0.212
REMARK SMILES O=C([O-])c1ccccc1O
REMARK SMILES IDX 4 1 9 2 5 3 8 4 6 5 7 6 2 7 1 8 3 9 10 10
REMARK H PARENT 10 11
REMARK Flexibility Score: inf
ROOT
ATOM      1  C   UNL     1      28.830  -2.889  30.049  1.00  0.00     0.039 A 
ATOM      2  C   UNL     1      29.784  -3.936  29.983  1.00  0.00     0.124 A 
ATOM      3  C   UNL     1      27.522  -3.188  30.476  1.00  0.00     0.014 A 
ATOM      4  C   UNL     1      29.397  -5.248  30.280  1.00  0.00     0.047 A 
ATOM      5  C   UNL     1      27.157  -4.498  30.790  1.00  0.00     0.001 A 
ATOM      6  C   UNL     1      28.090  -5.529  30.682  1.00  0.00     0.004 A 
ENDROOT
BRANCH   1   7
ATOM      7  C   UNL     1      29.145  -1.500  29.649  1.00  0.00     0.075 C 
ATOM      8  O   UNL     1      28.402  -0.893  28.834  1.00  0.00    -0.545 OA
ATOM      9  O   UNL     1      30.295  -0.871  30.111  1.00  0.00    -0.545 OA
ENDBRANCH   1   7
BRANCH   2  10
ATOM     10  O   UNL     1      31.126  -3.711  29.663  1.00  0.00    -0.507 OA
ATOM     11  H   UNL     1      31.690  -4.367  29.141  1.00  0.00     0.293 HD
ENDBRANCH   2  10
TORSDOF 2
ENDMDL
MODEL 8
REMARK VINA RESULT:    -4.452      4.786      7.266
REMARK INTER + INTRA:          -5.055
REMARK INTER:                  -4.814
REMARK INTRA:                  -0.241
REMARK UNBOUND:                -0.212
REMARK SMILES O=C([O-])c1ccccc1O
REMARK SMILES IDX 4 1 9 2 5 3 8 4 6 5 7 6 2 7 1 8 3 9 10 10
REMARK H PARENT 10 11
REMARK Flexibility Score: inf
ROOT
ATOM      1  C   UNL     1      28.071  -2.134  30.422  1.00  0.00     0.039 A 
ATOM      2  C   UNL     1      28.759  -1.523  29.344  1.00  0.00     0.124 A 
ATOM      3  C   UNL     1      27.612  -1.327  31.481  1.00  0.00     0.014 A 
ATOM      4  C   UNL     1      29.023  -0.148  29.380  1.00  0.00     0.047 A 
ATOM      5  C   UNL     1      27.864   0.046  31.491  1.00  0.00     0.001 A 
ATOM      6  C   UNL     1      28.578   0.633  30.448  1.00  0.00     0.004 A 
ENDROOT
BRANCH   1   7
ATOM      7  C   UNL     1      27.850  -3.596  30.498  1.00  0.00     0.075 C 
ATOM      8  O   UNL     1      28.813  -4.390  30.338  1.00  0.00    -0.545 OA
ATOM      9  O   UNL     1      26.572  -4.112  30.677  1.00  0.00    -0.545 OA
ENDBRANCH   1   7
BRANCH   2  10
ATOM     10  O   UNL     1      29.163  -2.233  28.211  1.00  0.00    -0.507 OA
ATOM     11  H   UNL     1      28.638  -2.247  27.347  1.00  0.00     0.293 HD
ENDBRANCH   2  10
TORSDOF 2
ENDMDL
MODEL 9
REMARK VINA RESULT:    -4.403      5.065      7.412
REMARK INTER + INTRA:          -5.001
REMARK INTER:                  -4.774
REMARK INTRA:                  -0.228
REMARK UNBOUND:                -0.212
REMARK SMILES O=C([O-])c1ccccc1O
REMARK SMILES IDX 4 1 9 2 5 3 8 4 6 5 7 6 2 7 1 8 3 9 10 10
REMARK H PARENT 10 11
REMARK Flexibility Score: inf
ROOT
ATOM      1  C   UNL     1      28.364  -1.759  30.687  1.00  0.00     0.039 A 
ATOM      2  C   UNL     1      27.177  -0.997  30.825  1.00  0.00     0.124 A 
ATOM      3  C   UNL     1      29.608  -1.115  30.836  1.00  0.00     0.014 A 
ATOM      4  C   UNL     1      27.260   0.384  31.043  1.00  0.00     0.047 A 
ATOM      5  C   UNL     1      29.673   0.259  31.075  1.00  0.00     0.001 A 
ATOM      6  C   UNL     1      28.502   1.009  31.168  1.00  0.00     0.004 A 
ENDROOT
BRANCH   1   7
ATOM      7  C   UNL     1      28.349  -3.201  30.353  1.00  0.00     0.075 C 
ATOM      8  O   UNL     1      27.367  -3.916  30.683  1.00  0.00    -0.545 OA
ATOM      9  O   UNL     1      29.442  -3.799  29.737  1.00  0.00    -0.545 OA
ENDBRANCH   1   7
BRANCH   2  10
ATOM     10  O   UNL     1      25.905  -1.574  30.788  1.00  0.00    -0.507 OA
ATOM     11  H   UNL     1      25.313  -1.667  31.602  1.00  0.00     0.293 HD
ENDBRANCH   2  10
TORSDOF 2
ENDMDL
