MODEL 1
REMARK VINA RESULT:    -3.136      0.000      0.000
REMARK INTER + INTRA:          -3.411
REMARK INTER:                  -3.411
REMARK INTRA:                   0.000
REMARK UNBOUND:                 0.000
REMARK SMILES Cc1cc(O)c2c(c1)C(=O)c1cc(O)cc(O)c1C2=O
REMARK SMILES IDX 1 1 2 2 8 3 7 4 6 5 4 6 3 7 19 8 20 9 18 10 11 11 9 12 10 13
REMARK SMILES IDX 12 14 13 15 15 16 16 17 5 18 17 20 14 22
REMARK H PARENT 5 19 17 21 14 23
REMARK Flexibility Score: inf
ROOT
ATOM      1  C   UNL     1      -8.526 -23.053  23.570  1.00  0.00     0.044 C 
ATOM      2  C   UNL     1      -8.155 -22.824  22.134  1.00  0.00    -0.047 A 
ATOM      3  C   UNL     1      -9.144 -22.528  21.190  1.00  0.00     0.016 A 
ATOM      4  C   UNL     1      -8.813 -22.356  19.835  1.00  0.00     0.038 A 
ATOM      5  C   UNL     1      -7.472 -22.509  19.414  1.00  0.00     0.076 A 
ATOM      6  C   UNL     1      -6.467 -22.763  20.383  1.00  0.00     0.127 A 
ATOM      7  C   UNL     1      -6.824 -22.950  21.722  1.00  0.00     0.050 A 
ATOM      8  C   UNL     1      -7.186 -22.465  17.956  1.00  0.00     0.201 C 
ATOM      9  O   UNL     1      -6.221 -23.125  17.487  1.00  0.00    -0.288 OA
ATOM     10  C   UNL     1      -8.144 -21.800  17.036  1.00  0.00     0.076 A 
ATOM     11  C   UNL     1      -9.484 -21.650  17.461  1.00  0.00     0.041 A 
ATOM     12  C   UNL     1      -9.862 -22.012  18.847  1.00  0.00     0.194 C 
ATOM     13  O   UNL     1     -11.076 -22.002  19.193  1.00  0.00    -0.289 OA
ATOM     14  C   UNL     1     -10.449 -21.154  16.569  1.00  0.00     0.059 A 
ATOM     15  C   UNL     1     -10.092 -20.792  15.267  1.00  0.00     0.120 A 
ATOM     16  C   UNL     1      -8.764 -20.900  14.857  1.00  0.00     0.093 A 
ATOM     17  C   UNL     1      -7.781 -21.372  15.732  1.00  0.00     0.131 A 
ENDROOT
BRANCH   6  18
ATOM     18  O   UNL     1      -5.107 -22.805  20.067  1.00  0.00    -0.507 OA
ATOM     19  H   UNL     1      -4.742 -23.232  19.227  1.00  0.00     0.293 HD
ENDBRANCH   6  18
BRANCH  17  20
ATOM     20  O   UNL     1      -6.459 -21.368  15.280  1.00  0.00    -0.507 OA
ATOM     21  H   UNL     1      -5.784 -22.080  15.520  1.00  0.00     0.293 HD
ENDBRANCH  17  20
BRANCH  15  22
ATOM     22  O   UNL     1     -11.049 -20.311  14.376  1.00  0.00    -0.508 OA
ATOM     23  H   UNL     1     -11.843 -19.767  14.693  1.00  0.00     0.293 HD
ENDBRANCH  15  22
TORSDOF 3
ENDMDL
MODEL 2
REMARK VINA RESULT:    -1.744      2.049      5.449
REMARK INTER + INTRA:          -1.897
REMARK INTER:                  -1.897
REMARK INTRA:                   0.000
REMARK UNBOUND:                 0.000
REMARK SMILES Cc1cc(O)c2c(c1)C(=O)c1cc(O)cc(O)c1C2=O
REMARK SMILES IDX 1 1 2 2 8 3 7 4 6 5 4 6 3 7 19 8 20 9 18 10 11 11 9 12 10 13
REMARK SMILES IDX 12 14 13 15 15 16 16 17 5 18 17 20 14 22
REMARK H PARENT 5 19 17 21 14 23
REMARK Flexibility Score: inf
ROOT
ATOM      1  C   UNL     1      -3.183 -23.122  16.375  1.00  0.00     0.044 C 
ATOM      2  C   UNL     1      -4.575 -22.757  16.799  1.00  0.00    -0.047 A 
ATOM      3  C   UNL     1      -4.954 -22.866  18.141  1.00  0.00     0.016 A 
ATOM      4  C   UNL     1      -6.268 -22.567  18.541  1.00  0.00     0.038 A 
ATOM      5  C   UNL     1      -7.226 -22.180  17.577  1.00  0.00     0.076 A 
ATOM      6  C   UNL     1      -6.824 -22.027  16.225  1.00  0.00     0.127 A 
ATOM      7  C   UNL     1      -5.517 -22.348  15.848  1.00  0.00     0.050 A 
ATOM      8  C   UNL     1      -8.637 -22.017  18.016  1.00  0.00     0.201 C 
ATOM      9  O   UNL     1      -9.575 -22.243  17.207  1.00  0.00    -0.288 OA
ATOM     10  C   UNL     1      -8.940 -21.775  19.450  1.00  0.00     0.076 A 
ATOM     11  C   UNL     1      -7.979 -22.165  20.411  1.00  0.00     0.041 A 
ATOM     12  C   UNL     1      -6.653 -22.656  19.970  1.00  0.00     0.194 C 
ATOM     13  O   UNL     1      -5.840 -23.125  20.815  1.00  0.00    -0.289 OA
ATOM     14  C   UNL     1      -8.285 -22.080  21.780  1.00  0.00     0.059 A 
ATOM     15  C   UNL     1      -9.528 -21.599  22.201  1.00  0.00     0.120 A 
ATOM     16  C   UNL     1     -10.462 -21.175  21.257  1.00  0.00     0.093 A 
ATOM     17  C   UNL     1     -10.175 -21.230  19.890  1.00  0.00     0.131 A 
ENDROOT
BRANCH   6  18
ATOM     18  O   UNL     1      -7.676 -21.530  15.236  1.00  0.00    -0.507 OA
ATOM     19  H   UNL     1      -8.563 -21.952  14.999  1.00  0.00     0.293 HD
ENDBRANCH   6  18
BRANCH  17  20
ATOM     20  O   UNL     1     -11.124 -20.705  19.009  1.00  0.00    -0.507 OA
ATOM     21  H   UNL     1     -12.119 -20.845  19.111  1.00  0.00     0.293 HD
ENDBRANCH  17  20
BRANCH  15  22
ATOM     22  O   UNL     1      -9.839 -21.525  23.557  1.00  0.00    -0.508 OA
ATOM     23  H   UNL     1     -10.652 -21.018  23.887  1.00  0.00     0.293 HD
ENDBRANCH  15  22
TORSDOF 3
ENDMDL
MODEL 3
REMARK VINA RESULT:    -1.439      2.047      5.854
REMARK INTER + INTRA:          -1.565
REMARK INTER:                  -1.565
REMARK INTRA:                   0.000
REMARK UNBOUND:                 0.000
REMARK SMILES Cc1cc(O)c2c(c1)C(=O)c1cc(O)cc(O)c1C2=O
REMARK SMILES IDX 1 1 2 2 8 3 7 4 6 5 4 6 3 7 19 8 20 9 18 10 11 11 9 12 10 13
REMARK SMILES IDX 12 14 13 15 15 16 16 17 5 18 17 20 14 22
REMARK H PARENT 5 19 17 21 14 23
REMARK Flexibility Score: inf
ROOT
ATOM      1  C   UNL     1      -3.431 -21.748  15.587  1.00  0.00     0.044 C 
ATOM      2  C   UNL     1      -4.764 -21.855  16.269  1.00  0.00    -0.047 A 
ATOM      3  C   UNL     1      -4.839 -22.253  17.607  1.00  0.00     0.016 A 
ATOM      4  C   UNL     1      -6.084 -22.399  18.242  1.00  0.00     0.038 A 
ATOM      5  C   UNL     1      -7.275 -22.169  17.517  1.00  0.00     0.076 A 
ATOM      6  C   UNL     1      -7.191 -21.720  16.174  1.00  0.00     0.127 A 
ATOM      7  C   UNL     1      -5.941 -21.601  15.558  1.00  0.00     0.050 A 
ATOM      8  C   UNL     1      -8.570 -22.476  18.179  1.00  0.00     0.201 C 
ATOM      9  O   UNL     1      -9.556 -22.843  17.487  1.00  0.00    -0.288 OA
ATOM     10  C   UNL     1      -8.645 -22.533  19.662  1.00  0.00     0.076 A 
ATOM     11  C   UNL     1      -7.452 -22.765  20.383  1.00  0.00     0.041 A 
ATOM     12  C   UNL     1      -6.154 -22.792  19.670  1.00  0.00     0.194 C 
ATOM     13  O   UNL     1      -5.103 -23.125  20.285  1.00  0.00    -0.289 OA
ATOM     14  C   UNL     1      -7.503 -22.962  21.773  1.00  0.00     0.059 A 
ATOM     15  C   UNL     1      -8.723 -22.917  22.452  1.00  0.00     0.120 A 
ATOM     16  C   UNL     1      -9.897 -22.648  21.750  1.00  0.00     0.093 A 
ATOM     17  C   UNL     1      -9.872 -22.428  20.370  1.00  0.00     0.131 A 
ENDROOT
BRANCH   6  18
ATOM     18  O   UNL     1      -8.314 -21.352  15.429  1.00  0.00    -0.507 OA
ATOM     19  H   UNL     1      -8.801 -21.981  14.806  1.00  0.00     0.293 HD
ENDBRANCH   6  18
BRANCH  17  20
ATOM     20  O   UNL     1     -11.073 -22.075  19.749  1.00  0.00    -0.507 OA
ATOM     21  H   UNL     1     -11.682 -21.342  20.086  1.00  0.00     0.293 HD
ENDBRANCH  17  20
BRANCH  15  22
ATOM     22  O   UNL     1      -8.779 -23.125  23.829  1.00  0.00    -0.508 OA
ATOM     23  H   UNL     1      -9.434 -23.779  24.240  1.00  0.00     0.293 HD
ENDBRANCH  15  22
TORSDOF 3
ENDMDL
MODEL 4
REMARK VINA RESULT:    -0.857     13.301     15.151
REMARK INTER + INTRA:          -0.932
REMARK INTER:                  -0.932
REMARK INTRA:                   0.000
REMARK UNBOUND:                 0.000
REMARK SMILES Cc1cc(O)c2c(c1)C(=O)c1cc(O)cc(O)c1C2=O
REMARK SMILES IDX 1 1 2 2 8 3 7 4 6 5 4 6 3 7 19 8 20 9 18 10 11 11 9 12 10 13
REMARK SMILES IDX 12 14 13 15 15 16 16 17 5 18 17 20 14 22
REMARK H PARENT 5 19 17 21 14 23
REMARK Flexibility Score: inf
ROOT
ATOM      1  C   UNL     1       0.456 -23.085  14.973  1.00  0.00     0.044 C 
ATOM      2  C   UNL     1       1.945 -22.902  15.020  1.00  0.00    -0.047 A 
ATOM      3  C   UNL     1       2.697 -22.955  13.842  1.00  0.00     0.016 A 
ATOM      4  C   UNL     1       4.097 -22.828  13.880  1.00  0.00     0.038 A 
ATOM      5  C   UNL     1       4.756 -22.673  15.120  1.00  0.00     0.076 A 
ATOM      6  C   UNL     1       3.983 -22.574  16.306  1.00  0.00     0.127 A 
ATOM      7  C   UNL     1       2.594 -22.722  16.246  1.00  0.00     0.050 A 
ATOM      8  C   UNL     1       6.242 -22.692  15.132  1.00  0.00     0.201 C 
ATOM      9  O   UNL     1       6.856 -23.125  16.144  1.00  0.00    -0.288 OA
ATOM     10  C   UNL     1       6.993 -22.380  13.889  1.00  0.00     0.076 A 
ATOM     11  C   UNL     1       6.331 -22.537  12.650  1.00  0.00     0.041 A 
ATOM     12  C   UNL     1       4.884 -22.855  12.624  1.00  0.00     0.194 C 
ATOM     13  O   UNL     1       4.316 -23.123  11.529  1.00  0.00    -0.289 OA
ATOM     14  C   UNL     1       7.046 -22.386  11.451  1.00  0.00     0.059 A 
ATOM     15  C   UNL     1       8.406 -22.067  11.471  1.00  0.00     0.120 A 
ATOM     16  C   UNL     1       9.053 -21.870  12.691  1.00  0.00     0.093 A 
ATOM     17  C   UNL     1       8.360 -21.995  13.898  1.00  0.00     0.131 A 
ENDROOT
BRANCH   6  18
ATOM     18  O   UNL     1       4.548 -22.297  17.554  1.00  0.00    -0.507 OA
ATOM     19  H   UNL     1       4.921 -21.394  17.810  1.00  0.00     0.293 HD
ENDBRANCH   6  18
BRANCH  17  20
ATOM     20  O   UNL     1       9.053 -21.696  15.074  1.00  0.00    -0.507 OA
ATOM     21  H   UNL     1       8.601 -21.543  15.965  1.00  0.00     0.293 HD
ENDBRANCH  17  20
BRANCH  15  22
ATOM     22  O   UNL     1       9.122 -21.928  10.284  1.00  0.00    -0.508 OA
ATOM     23  H   UNL     1      10.126 -22.062  10.251  1.00  0.00     0.293 HD
ENDBRANCH  15  22
TORSDOF 3
ENDMDL
MODEL 5
REMARK VINA RESULT:    -0.542      1.852      6.216
REMARK INTER + INTRA:          -0.590
REMARK INTER:                  -0.590
REMARK INTRA:                   0.000
REMARK UNBOUND:                 0.000
REMARK SMILES Cc1cc(O)c2c(c1)C(=O)c1cc(O)cc(O)c1C2=O
REMARK SMILES IDX 1 1 2 2 8 3 7 4 6 5 4 6 3 7 19 8 20 9 18 10 11 11 9 12 10 13
REMARK SMILES IDX 12 14 13 15 15 16 16 17 5 18 17 20 14 22
REMARK H PARENT 5 19 17 21 14 23
REMARK Flexibility Score: inf
ROOT
ATOM      1  C   UNL     1      -9.654 -20.493  13.359  1.00  0.00     0.044 C 
ATOM      2  C   UNL     1      -9.281 -20.936  14.743  1.00  0.00    -0.047 A 
ATOM      3  C   UNL     1      -7.969 -21.325  15.028  1.00  0.00     0.016 A 
ATOM      4  C   UNL     1      -7.619 -21.784  16.310  1.00  0.00     0.038 A 
ATOM      5  C   UNL     1      -8.607 -21.879  17.316  1.00  0.00     0.076 A 
ATOM      6  C   UNL     1      -9.926 -21.439  17.035  1.00  0.00     0.127 A 
ATOM      7  C   UNL     1     -10.254 -21.005  15.747  1.00  0.00     0.050 A 
ATOM      8  C   UNL     1      -8.231 -22.506  18.611  1.00  0.00     0.201 C 
ATOM      9  O   UNL     1      -9.098 -23.125  19.283  1.00  0.00    -0.288 OA
ATOM     10  C   UNL     1      -6.803 -22.564  19.015  1.00  0.00     0.076 A 
ATOM     11  C   UNL     1      -5.818 -22.469  18.005  1.00  0.00     0.041 A 
ATOM     12  C   UNL     1      -6.219 -22.166  16.612  1.00  0.00     0.194 C 
ATOM     13  O   UNL     1      -5.362 -22.206  15.685  1.00  0.00    -0.289 OA
ATOM     14  C   UNL     1      -4.464 -22.658  18.329  1.00  0.00     0.059 A 
ATOM     15  C   UNL     1      -4.080 -22.925  19.646  1.00  0.00     0.120 A 
ATOM     16  C   UNL     1      -5.045 -22.978  20.651  1.00  0.00     0.093 A 
ATOM     17  C   UNL     1      -6.396 -22.774  20.359  1.00  0.00     0.131 A 
ENDROOT
BRANCH   6  18
ATOM     18  O   UNL     1     -10.927 -21.384  18.007  1.00  0.00    -0.507 OA
ATOM     19  H   UNL     1     -11.444 -22.193  18.323  1.00  0.00     0.293 HD
ENDBRANCH   6  18
BRANCH  17  20
ATOM     20  O   UNL     1      -7.293 -22.754  21.431  1.00  0.00    -0.507 OA
ATOM     21  H   UNL     1      -7.586 -21.908  21.897  1.00  0.00     0.293 HD
ENDBRANCH  17  20
BRANCH  15  22
ATOM     22  O   UNL     1      -2.740 -23.124  19.969  1.00  0.00    -0.508 OA
ATOM     23  H   UNL     1      -2.015 -22.501  19.633  1.00  0.00     0.293 HD
ENDBRANCH  15  22
TORSDOF 3
ENDMDL
