MODEL 1
REMARK VINA RESULT:    31.297      0.000      0.000
REMARK INTER + INTRA:          37.854
REMARK INTER:                  37.701
REMARK INTRA:                   0.154
REMARK UNBOUND:                 0.154
REMARK SMILES O=c1c(O)c(-c2ccc(O)c(O)c2)oc2cc(O)cc(O)c12
REMARK SMILES IDX 5 1 3 2 2 3 1 4 22 5 20 6 19 7 17 8 16 9 15 10 14 11 6 12
REMARK SMILES IDX 7 13 8 14 9 15 13 16 11 17 10 18 12 20 4 22 21 24 18 26
REMARK H PARENT 10 19 12 21 4 23 21 25 18 27
REMARK Flexibility Score: inf
ROOT
ATOM      1  C   UNL     1      13.330  22.929  -4.319  1.00  0.00     0.180 A 
ATOM      2  C   UNL     1      13.333  23.577  -5.567  1.00  0.00     0.208 A 
ATOM      3  C   UNL     1      12.145  24.162  -6.033  1.00  0.00     0.238 A 
ATOM      4  O   UNL     1      12.167  24.788  -7.125  1.00  0.00    -0.285 OA
ATOM      5  C   UNL     1      10.965  24.079  -5.254  1.00  0.00     0.111 A 
ATOM      6  C   UNL     1       9.697  24.601  -5.648  1.00  0.00     0.134 A 
ATOM      7  C   UNL     1       8.629  24.576  -4.741  1.00  0.00     0.093 A 
ATOM      8  C   UNL     1       8.765  23.991  -3.483  1.00  0.00     0.123 A 
ATOM      9  C   UNL     1       9.986  23.424  -3.111  1.00  0.00     0.094 A 
ATOM     10  C   UNL     1      11.079  23.465  -3.979  1.00  0.00     0.146 A 
ATOM     11  O   UNL     1      12.225  22.925  -3.583  1.00  0.00    -0.452 OA
ENDROOT
BRANCH   1  12
ATOM     12  C   UNL     1      14.536  22.267  -3.772  1.00  0.00     0.025 A 
ATOM     13  C   UNL     1      15.781  22.910  -3.868  1.00  0.00     0.016 A 
ATOM     14  C   UNL     1      16.928  22.313  -3.340  1.00  0.00     0.051 A 
ATOM     15  C   UNL     1      16.845  21.072  -2.695  1.00  0.00     0.157 A 
ATOM     16  C   UNL     1      14.454  21.031  -3.105  1.00  0.00     0.062 A 
ATOM     17  C   UNL     1      15.606  20.432  -2.573  1.00  0.00     0.158 A 
BRANCH  15  18
ATOM     18  O   UNL     1      17.988  20.472  -2.168  1.00  0.00    -0.504 OA
ATOM     19  H   UNL     1      18.165  20.457  -1.170  1.00  0.00     0.293 HD
ENDBRANCH  15  18
BRANCH  17  20
ATOM     20  O   UNL     1      15.524  19.205  -1.918  1.00  0.00    -0.504 OA
ATOM     21  H   UNL     1      16.348  18.642  -1.741  1.00  0.00     0.293 HD
ENDBRANCH  17  20
ENDBRANCH   1  12
BRANCH   2  22
ATOM     22  O   UNL     1      14.513  23.666  -6.310  1.00  0.00    -0.502 OA
ATOM     23  H   UNL     1      14.587  24.229  -7.149  1.00  0.00     0.293 HD
ENDBRANCH   2  22
BRANCH   6  24
ATOM     24  O   UNL     1       9.426  25.124  -6.915  1.00  0.00    -0.507 OA
ATOM     25  H   UNL     1      10.093  25.622  -7.486  1.00  0.00     0.293 HD
ENDBRANCH   6  24
BRANCH   8  26
ATOM     26  O   UNL     1       7.678  23.970  -2.613  1.00  0.00    -0.508 OA
ATOM     27  H   UNL     1       7.803  24.015  -1.608  1.00  0.00     0.293 HD
ENDBRANCH   8  26
TORSDOF 6
ENDMDL
