MODEL 1
REMARK VINA RESULT:    -3.808      0.000      0.000
REMARK INTER + INTRA:          -6.565
REMARK INTER:                  -5.812
REMARK INTRA:                  -0.753
REMARK UNBOUND:                -0.753
REMARK SMILES CCCCCCCCCCC(=O)[O-]
REMARK SMILES IDX 7 1 8 2 9 3 10 4 11 5 12 6 13 7 6 8 5 9 4 10 3 11 2 12 1 13
REMARK H PARENT
REMARK Flexibility Score: inf
ROOT
ATOM      1  C   UNL     1      46.039  26.887   6.033  1.00  0.00     0.000 C 
ENDROOT
BRANCH   1   2
ATOM      2  C   UNL     1      45.957  28.405   6.254  1.00  0.00     0.000 C 
BRANCH   2   3
ATOM      3  C   UNL     1      46.274  28.810   7.703  1.00  0.00     0.006 C 
BRANCH   3   4
ATOM      4  C   UNL     1      45.087  28.592   8.651  1.00  0.00     0.053 C 
BRANCH   4   5
ATOM      5  C   UNL     1      45.405  27.521   9.646  1.00  0.00     0.041 C 
ATOM      6  O   UNL     1      45.045  26.333   9.435  1.00  0.00    -0.550 OA
ATOM      7  O   UNL     1      46.055  27.843  10.831  1.00  0.00    -0.550 OA
ENDBRANCH   4   5
ENDBRANCH   3   4
ENDBRANCH   2   3
ENDBRANCH   1   2
BRANCH   1   8
ATOM      8  C   UNL     1      46.211  26.557   4.542  1.00  0.00     0.000 C 
BRANCH   8   9
ATOM      9  C   UNL     1      44.928  26.002   3.901  1.00  0.00    -0.000 C 
BRANCH   9  10
ATOM     10  C   UNL     1      44.169  26.993   2.996  1.00  0.00    -0.000 C 
BRANCH  10  11
ATOM     11  C   UNL     1      45.023  27.676   1.910  1.00  0.00    -0.000 C 
BRANCH  11  12
ATOM     12  C   UNL     1      45.208  29.192   2.093  1.00  0.00    -0.003 C 
ATOM     13  C   UNL     1      44.180  29.807   3.042  1.00  0.00     0.004 C 
ENDBRANCH  11  12
ENDBRANCH  10  11
ENDBRANCH   9  10
ENDBRANCH   8   9
ENDBRANCH   1   8
TORSDOF 9
ENDMDL
MODEL 2
REMARK VINA RESULT:    -3.774      3.297      6.290
REMARK INTER + INTRA:          -6.512
REMARK INTER:                  -5.783
REMARK INTRA:                  -0.730
REMARK UNBOUND:                -0.753
REMARK SMILES CCCCCCCCCCC(=O)[O-]
REMARK SMILES IDX 7 1 8 2 9 3 10 4 11 5 12 6 13 7 6 8 5 9 4 10 3 11 2 12 1 13
REMARK H PARENT
REMARK Flexibility Score: inf
ROOT
ATOM      1  C   UNL     1      45.974  27.050   6.054  1.00  0.00     0.000 C 
ENDROOT
BRANCH   1   2
ATOM      2  C   UNL     1      46.335  26.626   4.622  1.00  0.00     0.000 C 
BRANCH   2   3
ATOM      3  C   UNL     1      45.154  25.980   3.880  1.00  0.00     0.006 C 
BRANCH   3   4
ATOM      4  C   UNL     1      44.237  27.014   3.214  1.00  0.00     0.053 C 
BRANCH   4   5
ATOM      5  C   UNL     1      44.978  27.758   2.148  1.00  0.00     0.041 C 
ATOM      6  O   UNL     1      45.247  27.196   1.054  1.00  0.00    -0.550 OA
ATOM      7  O   UNL     1      45.416  29.056   2.381  1.00  0.00    -0.550 OA
ENDBRANCH   4   5
ENDBRANCH   3   4
ENDBRANCH   2   3
ENDBRANCH   1   2
BRANCH   1   8
ATOM      8  C   UNL     1      46.461  28.478   6.343  1.00  0.00     0.000 C 
BRANCH   8   9
ATOM      9  C   UNL     1      45.459  29.293   7.180  1.00  0.00    -0.000 C 
BRANCH   9  10
ATOM     10  C   UNL     1      45.800  29.403   8.680  1.00  0.00    -0.000 C 
BRANCH  10  11
ATOM     11  C   UNL     1      44.850  28.640   9.625  1.00  0.00    -0.000 C 
BRANCH  11  12
ATOM     12  C   UNL     1      45.013  27.110   9.608  1.00  0.00    -0.003 C 
ATOM     13  C   UNL     1      46.470  26.665   9.734  1.00  0.00     0.004 C 
ENDBRANCH  11  12
ENDBRANCH  10  11
ENDBRANCH   9  10
ENDBRANCH   8   9
ENDBRANCH   1   8
TORSDOF 9
ENDMDL
MODEL 3
REMARK VINA RESULT:    -3.678      4.280      6.922
REMARK INTER + INTRA:          -6.367
REMARK INTER:                  -5.926
REMARK INTRA:                  -0.441
REMARK UNBOUND:                -0.753
REMARK SMILES CCCCCCCCCCC(=O)[O-]
REMARK SMILES IDX 7 1 8 2 9 3 10 4 11 5 12 6 13 7 6 8 5 9 4 10 3 11 2 12 1 13
REMARK H PARENT
REMARK Flexibility Score: inf
ROOT
ATOM      1  C   UNL     1      45.192  25.984   4.126  1.00  0.00     0.000 C 
ENDROOT
BRANCH   1   2
ATOM      2  C   UNL     1      44.846  27.122   3.154  1.00  0.00     0.000 C 
BRANCH   2   3
ATOM      3  C   UNL     1      45.990  27.434   2.175  1.00  0.00     0.006 C 
BRANCH   3   4
ATOM      4  C   UNL     1      45.703  28.661   1.301  1.00  0.00     0.053 C 
BRANCH   4   5
ATOM      5  C   UNL     1      45.464  28.246  -0.117  1.00  0.00     0.041 C 
ATOM      6  O   UNL     1      45.158  27.054  -0.386  1.00  0.00    -0.550 OA
ATOM      7  O   UNL     1      45.628  29.164  -1.148  1.00  0.00    -0.550 OA
ENDBRANCH   4   5
ENDBRANCH   3   4
ENDBRANCH   2   3
ENDBRANCH   1   2
BRANCH   1   8
ATOM      8  C   UNL     1      46.256  26.431   5.139  1.00  0.00     0.000 C 
BRANCH   8   9
ATOM      9  C   UNL     1      45.909  27.766   5.821  1.00  0.00    -0.000 C 
BRANCH   9  10
ATOM     10  C   UNL     1      46.222  27.830   7.329  1.00  0.00    -0.000 C 
BRANCH  10  11
ATOM     11  C   UNL     1      45.584  26.713   8.179  1.00  0.00    -0.000 C 
BRANCH  11  12
ATOM     12  C   UNL     1      45.228  27.121   9.619  1.00  0.00    -0.003 C 
ATOM     13  C   UNL     1      44.827  28.592   9.739  1.00  0.00     0.004 C 
ENDBRANCH  11  12
ENDBRANCH  10  11
ENDBRANCH   9  10
ENDBRANCH   8   9
ENDBRANCH   1   8
TORSDOF 9
ENDMDL
MODEL 4
REMARK VINA RESULT:    -3.647      3.374      6.193
REMARK INTER + INTRA:          -6.319
REMARK INTER:                  -5.824
REMARK INTRA:                  -0.495
REMARK UNBOUND:                -0.753
REMARK SMILES CCCCCCCCCCC(=O)[O-]
REMARK SMILES IDX 7 1 8 2 9 3 10 4 11 5 12 6 13 7 6 8 5 9 4 10 3 11 2 12 1 13
REMARK H PARENT
REMARK Flexibility Score: inf
ROOT
ATOM      1  C   UNL     1      46.996  27.578   4.797  1.00  0.00     0.000 C 
ENDROOT
BRANCH   1   2
ATOM      2  C   UNL     1      46.420  28.973   4.509  1.00  0.00     0.000 C 
BRANCH   2   3
ATOM      3  C   UNL     1      45.018  28.917   3.881  1.00  0.00     0.006 C 
BRANCH   3   4
ATOM      4  C   UNL     1      45.054  28.970   2.348  1.00  0.00     0.053 C 
BRANCH   4   5
ATOM      5  C   UNL     1      44.901  27.597   1.775  1.00  0.00     0.041 C 
ATOM      6  O   UNL     1      44.281  26.708   2.416  1.00  0.00    -0.550 OA
ATOM      7  O   UNL     1      45.487  27.282   0.555  1.00  0.00    -0.550 OA
ENDBRANCH   4   5
ENDBRANCH   3   4
ENDBRANCH   2   3
ENDBRANCH   1   2
BRANCH   1   8
ATOM      8  C   UNL     1      46.129  26.825   5.817  1.00  0.00     0.000 C 
BRANCH   8   9
ATOM      9  C   UNL     1      45.972  27.586   7.145  1.00  0.00    -0.000 C 
BRANCH   9  10
ATOM     10  C   UNL     1      45.700  26.699   8.377  1.00  0.00    -0.000 C 
BRANCH  10  11
ATOM     11  C   UNL     1      45.096  27.432   9.592  1.00  0.00    -0.000 C 
BRANCH  11  12
ATOM     12  C   UNL     1      44.960  28.955   9.424  1.00  0.00    -0.003 C 
ATOM     13  C   UNL     1      44.280  29.627  10.618  1.00  0.00     0.004 C 
ENDBRANCH  11  12
ENDBRANCH  10  11
ENDBRANCH   9  10
ENDBRANCH   8   9
ENDBRANCH   1   8
TORSDOF 9
ENDMDL
MODEL 5
REMARK VINA RESULT:    -3.637      4.464      6.662
REMARK INTER + INTRA:          -6.303
REMARK INTER:                  -5.542
REMARK INTRA:                  -0.761
REMARK UNBOUND:                -0.753
REMARK SMILES CCCCCCCCCCC(=O)[O-]
REMARK SMILES IDX 7 1 8 2 9 3 10 4 11 5 12 6 13 7 6 8 5 9 4 10 3 11 2 12 1 13
REMARK H PARENT
REMARK Flexibility Score: inf
ROOT
ATOM      1  C   UNL     1      44.335  26.756   2.853  1.00  0.00     0.000 C 
ENDROOT
BRANCH   1   2
ATOM      2  C   UNL     1      44.337  28.282   3.023  1.00  0.00     0.000 C 
BRANCH   2   3
ATOM      3  C   UNL     1      45.262  28.989   2.019  1.00  0.00     0.006 C 
BRANCH   3   4
ATOM      4  C   UNL     1      45.992  28.005   1.095  1.00  0.00     0.053 C 
BRANCH   4   5
ATOM      5  C   UNL     1      45.587  28.229  -0.328  1.00  0.00     0.041 C 
ATOM      6  O   UNL     1      45.505  29.399  -0.787  1.00  0.00    -0.550 OA
ATOM      7  O   UNL     1      45.251  27.148  -1.134  1.00  0.00    -0.550 OA
ENDBRANCH   4   5
ENDBRANCH   3   4
ENDBRANCH   2   3
ENDBRANCH   1   2
BRANCH   1   8
ATOM      8  C   UNL     1      44.854  26.061   4.121  1.00  0.00     0.000 C 
BRANCH   8   9
ATOM      9  C   UNL     1      46.390  26.041   4.206  1.00  0.00    -0.000 C 
BRANCH   9  10
ATOM     10  C   UNL     1      46.981  26.653   5.492  1.00  0.00    -0.000 C 
BRANCH  10  11
ATOM     11  C   UNL     1      45.964  26.911   6.622  1.00  0.00    -0.000 C 
BRANCH  11  12
ATOM     12  C   UNL     1      45.897  28.368   7.110  1.00  0.00    -0.003 C 
ATOM     13  C   UNL     1      45.196  28.513   8.461  1.00  0.00     0.004 C 
ENDBRANCH  11  12
ENDBRANCH  10  11
ENDBRANCH   9  10
ENDBRANCH   8   9
ENDBRANCH   1   8
TORSDOF 9
ENDMDL
MODEL 6
REMARK VINA RESULT:    -3.435      4.037      5.987
REMARK INTER + INTRA:          -5.995
REMARK INTER:                  -5.496
REMARK INTRA:                  -0.499
REMARK UNBOUND:                -0.753
REMARK SMILES CCCCCCCCCCC(=O)[O-]
REMARK SMILES IDX 7 1 8 2 9 3 10 4 11 5 12 6 13 7 6 8 5 9 4 10 3 11 2 12 1 13
REMARK H PARENT
REMARK Flexibility Score: inf
ROOT
ATOM      1  C   UNL     1      45.629  27.883   0.659  1.00  0.00     0.000 C 
ENDROOT
BRANCH   1   2
ATOM      2  C   UNL     1      45.171  29.117   1.452  1.00  0.00     0.000 C 
BRANCH   2   3
ATOM      3  C   UNL     1      44.630  28.757   2.846  1.00  0.00     0.006 C 
BRANCH   3   4
ATOM      4  C   UNL     1      44.197  27.289   2.951  1.00  0.00     0.053 C 
BRANCH   4   5
ATOM      5  C   UNL     1      45.066  26.558   3.925  1.00  0.00     0.041 C 
ATOM      6  O   UNL     1      45.627  27.180   4.866  1.00  0.00    -0.550 OA
ATOM      7  O   UNL     1      45.299  25.197   3.765  1.00  0.00    -0.550 OA
ENDBRANCH   4   5
ENDBRANCH   3   4
ENDBRANCH   2   3
ENDBRANCH   1   2
BRANCH   1   8
ATOM      8  C   UNL     1      46.067  28.275  -0.760  1.00  0.00     0.000 C 
BRANCH   8   9
ATOM      9  C   UNL     1      45.166  29.353  -1.388  1.00  0.00    -0.000 C 
BRANCH   9  10
ATOM     10  C   UNL     1      44.567  28.985  -2.760  1.00  0.00    -0.000 C 
BRANCH  10  11
ATOM     11  C   UNL     1      44.622  27.486  -3.119  1.00  0.00    -0.000 C 
BRANCH  11  12
ATOM     12  C   UNL     1      43.440  26.982  -3.964  1.00  0.00    -0.003 C 
ATOM     13  C   UNL     1      42.413  28.074  -4.264  1.00  0.00     0.004 C 
ENDBRANCH  11  12
ENDBRANCH  10  11
ENDBRANCH   9  10
ENDBRANCH   8   9
ENDBRANCH   1   8
TORSDOF 9
ENDMDL
MODEL 7
REMARK VINA RESULT:    -3.432      6.303      9.071
REMARK INTER + INTRA:          -5.991
REMARK INTER:                  -5.426
REMARK INTRA:                  -0.564
REMARK UNBOUND:                -0.753
REMARK SMILES CCCCCCCCCCC(=O)[O-]
REMARK SMILES IDX 7 1 8 2 9 3 10 4 11 5 12 6 13 7 6 8 5 9 4 10 3 11 2 12 1 13
REMARK H PARENT
REMARK Flexibility Score: inf
ROOT
ATOM      1  C   UNL     1      45.284  27.828  -0.812  1.00  0.00     0.000 C 
ENDROOT
BRANCH   1   2
ATOM      2  C   UNL     1      45.247  29.176  -1.548  1.00  0.00     0.000 C 
BRANCH   2   3
ATOM      3  C   UNL     1      44.961  29.023  -3.050  1.00  0.00     0.006 C 
BRANCH   3   4
ATOM      4  C   UNL     1      43.502  29.333  -3.409  1.00  0.00     0.053 C 
BRANCH   4   5
ATOM      5  C   UNL     1      42.846  28.130  -4.010  1.00  0.00     0.041 C 
ATOM      6  O   UNL     1      41.754  28.244  -4.626  1.00  0.00    -0.550 OA
ATOM      7  O   UNL     1      43.415  26.872  -3.845  1.00  0.00    -0.550 OA
ENDBRANCH   4   5
ENDBRANCH   3   4
ENDBRANCH   2   3
ENDBRANCH   1   2
BRANCH   1   8
ATOM      8  C   UNL     1      45.885  27.985   0.593  1.00  0.00     0.000 C 
BRANCH   8   9
ATOM      9  C   UNL     1      45.165  29.055   1.434  1.00  0.00    -0.000 C 
BRANCH   9  10
ATOM     10  C   UNL     1      44.726  28.594   2.838  1.00  0.00    -0.000 C 
BRANCH  10  11
ATOM     11  C   UNL     1      44.150  27.165   2.909  1.00  0.00    -0.000 C 
BRANCH  11  12
ATOM     12  C   UNL     1      44.984  26.174   3.739  1.00  0.00    -0.003 C 
ATOM     13  C   UNL     1      45.784  26.852   4.850  1.00  0.00     0.004 C 
ENDBRANCH  11  12
ENDBRANCH  10  11
ENDBRANCH   9  10
ENDBRANCH   8   9
ENDBRANCH   1   8
TORSDOF 9
ENDMDL
MODEL 8
REMARK VINA RESULT:    -3.395      3.101      6.260
REMARK INTER + INTRA:          -5.934
REMARK INTER:                  -5.035
REMARK INTRA:                  -0.899
REMARK UNBOUND:                -0.753
REMARK SMILES CCCCCCCCCCC(=O)[O-]
REMARK SMILES IDX 7 1 8 2 9 3 10 4 11 5 12 6 13 7 6 8 5 9 4 10 3 11 2 12 1 13
REMARK H PARENT
REMARK Flexibility Score: inf
ROOT
ATOM      1  C   UNL     1      45.782  29.399   6.849  1.00  0.00     0.000 C 
ENDROOT
BRANCH   1   2
ATOM      2  C   UNL     1      46.779  28.281   6.508  1.00  0.00     0.000 C 
BRANCH   2   3
ATOM      3  C   UNL     1      46.148  27.162   5.665  1.00  0.00     0.006 C 
BRANCH   3   4
ATOM      4  C   UNL     1      46.261  27.421   4.158  1.00  0.00     0.053 C 
BRANCH   4   5
ATOM      5  C   UNL     1      44.949  27.167   3.485  1.00  0.00     0.041 C 
ATOM      6  O   UNL     1      44.519  25.990   3.358  1.00  0.00    -0.550 OA
ATOM      7  O   UNL     1      44.222  28.226   2.953  1.00  0.00    -0.550 OA
ENDBRANCH   4   5
ENDBRANCH   3   4
ENDBRANCH   2   3
ENDBRANCH   1   2
BRANCH   1   8
ATOM      8  C   UNL     1      46.097  30.019   8.218  1.00  0.00     0.000 C 
BRANCH   8   9
ATOM      9  C   UNL     1      44.859  30.125   9.126  1.00  0.00    -0.000 C 
BRANCH   9  10
ATOM     10  C   UNL     1      44.678  28.962  10.121  1.00  0.00    -0.000 C 
BRANCH  10  11
ATOM     11  C   UNL     1      45.981  28.421  10.743  1.00  0.00    -0.000 C 
BRANCH  11  12
ATOM     12  C   UNL     1      46.342  26.982  10.337  1.00  0.00    -0.003 C 
ATOM     13  C   UNL     1      45.381  26.397   9.302  1.00  0.00     0.004 C 
ENDBRANCH  11  12
ENDBRANCH  10  11
ENDBRANCH   9  10
ENDBRANCH   8   9
ENDBRANCH   1   8
TORSDOF 9
ENDMDL
MODEL 9
REMARK VINA RESULT:    -3.394      7.491     10.323
REMARK INTER + INTRA:          -5.933
REMARK INTER:                  -5.506
REMARK INTRA:                  -0.427
REMARK UNBOUND:                -0.753
REMARK SMILES CCCCCCCCCCC(=O)[O-]
REMARK SMILES IDX 7 1 8 2 9 3 10 4 11 5 12 6 13 7 6 8 5 9 4 10 3 11 2 12 1 13
REMARK H PARENT
REMARK Flexibility Score: inf
ROOT
ATOM      1  C   UNL     1      44.511  28.959  -2.606  1.00  0.00     0.000 C 
ENDROOT
BRANCH   1   2
ATOM      2  C   UNL     1      44.737  27.581  -3.247  1.00  0.00     0.000 C 
BRANCH   2   3
ATOM      3  C   UNL     1      43.550  27.129  -4.112  1.00  0.00     0.006 C 
BRANCH   3   4
ATOM      4  C   UNL     1      42.405  28.150  -4.125  1.00  0.00     0.053 C 
BRANCH   4   5
ATOM      5  C   UNL     1      42.272  28.767  -5.481  1.00  0.00     0.041 C 
ATOM      6  O   UNL     1      43.065  28.445  -6.405  1.00  0.00    -0.550 OA
ATOM      7  O   UNL     1      41.303  29.737  -5.713  1.00  0.00    -0.550 OA
ENDBRANCH   4   5
ENDBRANCH   3   4
ENDBRANCH   2   3
ENDBRANCH   1   2
BRANCH   1   8
ATOM      8  C   UNL     1      45.373  29.126  -1.345  1.00  0.00     0.000 C 
BRANCH   8   9
ATOM      9  C   UNL     1      45.356  27.881  -0.440  1.00  0.00    -0.000 C 
BRANCH   9  10
ATOM     10  C   UNL     1      46.013  28.070   0.941  1.00  0.00    -0.000 C 
BRANCH  10  11
ATOM     11  C   UNL     1      45.035  28.349   2.100  1.00  0.00    -0.000 C 
BRANCH  11  12
ATOM     12  C   UNL     1      44.209  27.134   2.554  1.00  0.00    -0.003 C 
ATOM     13  C   UNL     1      44.828  26.406   3.748  1.00  0.00     0.004 C 
ENDBRANCH  11  12
ENDBRANCH  10  11
ENDBRANCH   9  10
ENDBRANCH   8   9
ENDBRANCH   1   8
TORSDOF 9
ENDMDL
