MODEL 1
REMARK VINA RESULT:    -4.776      0.000      0.000
REMARK INTER + INTRA:          -7.119
REMARK INTER:                  -6.452
REMARK INTRA:                  -0.668
REMARK UNBOUND:                -0.668
REMARK SMILES CCCCCCC=CC(=O)[O-]
REMARK SMILES IDX 5 1 6 2 7 3 8 4 9 5 10 6 11 7 4 8 3 9 2 10 1 11
REMARK H PARENT
REMARK Flexibility Score: inf
ROOT
ATOM      1  C   UNL     1      18.432  -3.451 -28.065  1.00  0.00     0.004 C 
ENDROOT
BRANCH   1   2
ATOM      2  C   UNL     1      19.771  -3.390 -28.815  1.00  0.00     0.027 C 
BRANCH   2   3
ATOM      3  C   UNL     1      20.947  -3.625 -27.907  1.00  0.00    -0.025 C 
ATOM      4  C   UNL     1      21.665  -2.610 -27.415  1.00  0.00     0.020 C 
BRANCH   4   5
ATOM      5  C   UNL     1      22.822  -2.819 -26.530  1.00  0.00     0.064 C 
ATOM      6  O   UNL     1      23.835  -2.075 -26.597  1.00  0.00    -0.545 OA
ATOM      7  O   UNL     1      22.795  -3.856 -25.606  1.00  0.00    -0.545 OA
ENDBRANCH   4   5
ENDBRANCH   2   3
ENDBRANCH   1   2
BRANCH   1   8
ATOM      8  C   UNL     1      18.038  -4.890 -27.698  1.00  0.00     0.000 C 
BRANCH   8   9
ATOM      9  C   UNL     1      17.513  -4.965 -26.257  1.00  0.00    -0.000 C 
BRANCH   9  10
ATOM     10  C   UNL     1      18.233  -3.988 -25.315  1.00  0.00    -0.003 C 
ATOM     11  C   UNL     1      19.459  -4.606 -24.646  1.00  0.00     0.004 C 
ENDBRANCH   9  10
ENDBRANCH   8   9
ENDBRANCH   1   8
TORSDOF 6
ENDMDL
MODEL 2
REMARK VINA RESULT:    -4.694     10.974     11.613
REMARK INTER + INTRA:          -7.008
REMARK INTER:                  -6.711
REMARK INTRA:                  -0.297
REMARK UNBOUND:                -0.668
REMARK SMILES CCCCCCC=CC(=O)[O-]
REMARK SMILES IDX 5 1 6 2 7 3 8 4 9 5 10 6 11 7 4 8 3 9 2 10 1 11
REMARK H PARENT
REMARK Flexibility Score: inf
ROOT
ATOM      1  C   UNL     1      19.078   0.696 -15.472  1.00  0.00     0.004 C 
ENDROOT
BRANCH   1   2
ATOM      2  C   UNL     1      19.470   1.624 -16.632  1.00  0.00     0.027 C 
BRANCH   2   3
ATOM      3  C   UNL     1      20.907   1.454 -17.042  1.00  0.00    -0.025 C 
ATOM      4  C   UNL     1      21.776   0.780 -16.281  1.00  0.00     0.020 C 
BRANCH   4   5
ATOM      5  C   UNL     1      23.188   0.607 -16.662  1.00  0.00     0.064 C 
ATOM      6  O   UNL     1      24.040   0.198 -15.830  1.00  0.00    -0.545 OA
ATOM      7  O   UNL     1      23.585   0.901 -17.959  1.00  0.00    -0.545 OA
ENDBRANCH   4   5
ENDBRANCH   2   3
ENDBRANCH   1   2
BRANCH   1   8
ATOM      8  C   UNL     1      17.561   0.669 -15.238  1.00  0.00     0.000 C 
BRANCH   8   9
ATOM      9  C   UNL     1      16.862  -0.227 -16.271  1.00  0.00    -0.000 C 
BRANCH   9  10
ATOM     10  C   UNL     1      15.560   0.391 -16.803  1.00  0.00    -0.003 C 
ATOM     11  C   UNL     1      14.729   1.055 -15.706  1.00  0.00     0.004 C 
ENDBRANCH   9  10
ENDBRANCH   8   9
ENDBRANCH   1   8
TORSDOF 6
ENDMDL
MODEL 3
REMARK VINA RESULT:    -4.683      3.296      5.233
REMARK INTER + INTRA:          -6.993
REMARK INTER:                  -6.651
REMARK INTRA:                  -0.342
REMARK UNBOUND:                -0.668
REMARK SMILES CCCCCCC=CC(=O)[O-]
REMARK SMILES IDX 5 1 6 2 7 3 8 4 9 5 10 6 11 7 4 8 3 9 2 10 1 11
REMARK H PARENT
REMARK Flexibility Score: inf
ROOT
ATOM      1  C   UNL     1      20.734  -3.233 -28.385  1.00  0.00     0.004 C 
ENDROOT
BRANCH   1   2
ATOM      2  C   UNL     1      19.246  -3.506 -28.651  1.00  0.00     0.027 C 
BRANCH   2   3
ATOM      3  C   UNL     1      18.692  -4.581 -27.759  1.00  0.00    -0.025 C 
ATOM      4  C   UNL     1      17.390  -4.640 -27.457  1.00  0.00     0.020 C 
BRANCH   4   5
ATOM      5  C   UNL     1      16.829  -5.681 -26.581  1.00  0.00     0.064 C 
ATOM      6  O   UNL     1      16.253  -6.693 -27.060  1.00  0.00    -0.545 OA
ATOM      7  O   UNL     1      16.936  -5.543 -25.203  1.00  0.00    -0.545 OA
ENDBRANCH   4   5
ENDBRANCH   2   3
ENDBRANCH   1   2
BRANCH   1   8
ATOM      8  C   UNL     1      21.219  -3.884 -27.082  1.00  0.00     0.000 C 
BRANCH   8   9
ATOM      9  C   UNL     1      22.434  -3.138 -26.515  1.00  0.00    -0.000 C 
BRANCH   9  10
ATOM     10  C   UNL     1      22.643  -1.764 -27.171  1.00  0.00    -0.003 C 
ATOM     11  C   UNL     1      24.091  -1.527 -27.597  1.00  0.00     0.004 C 
ENDBRANCH   9  10
ENDBRANCH   8   9
ENDBRANCH   1   8
TORSDOF 6
ENDMDL
MODEL 4
REMARK VINA RESULT:    -4.652      1.442      2.236
REMARK INTER + INTRA:          -6.951
REMARK INTER:                  -6.619
REMARK INTRA:                  -0.332
REMARK UNBOUND:                -0.668
REMARK SMILES CCCCCCC=CC(=O)[O-]
REMARK SMILES IDX 5 1 6 2 7 3 8 4 9 5 10 6 11 7 4 8 3 9 2 10 1 11
REMARK H PARENT
REMARK Flexibility Score: inf
ROOT
ATOM      1  C   UNL     1      19.917  -3.379 -28.740  1.00  0.00     0.004 C 
ENDROOT
BRANCH   1   2
ATOM      2  C   UNL     1      20.961  -3.610 -27.638  1.00  0.00     0.027 C 
BRANCH   2   3
ATOM      3  C   UNL     1      21.784  -2.383 -27.361  1.00  0.00    -0.025 C 
ATOM      4  C   UNL     1      23.050  -2.469 -26.939  1.00  0.00     0.020 C 
BRANCH   4   5
ATOM      5  C   UNL     1      23.871  -1.280 -26.658  1.00  0.00     0.064 C 
ATOM      6  O   UNL     1      24.431  -1.125 -25.541  1.00  0.00    -0.545 OA
ATOM      7  O   UNL     1      24.030  -0.313 -27.642  1.00  0.00    -0.545 OA
ENDBRANCH   4   5
ENDBRANCH   2   3
ENDBRANCH   1   2
BRANCH   1   8
ATOM      8  C   UNL     1      18.535  -3.927 -28.355  1.00  0.00     0.000 C 
BRANCH   8   9
ATOM      9  C   UNL     1      18.261  -3.722 -26.859  1.00  0.00    -0.000 C 
BRANCH   9  10
ATOM     10  C   UNL     1      17.640  -4.962 -26.197  1.00  0.00    -0.003 C 
ATOM     11  C   UNL     1      16.917  -5.865 -27.195  1.00  0.00     0.004 C 
ENDBRANCH   9  10
ENDBRANCH   8   9
ENDBRANCH   1   8
TORSDOF 6
ENDMDL
MODEL 5
REMARK VINA RESULT:    -4.586     11.733     12.854
REMARK INTER + INTRA:          -6.862
REMARK INTER:                  -6.629
REMARK INTRA:                  -0.233
REMARK UNBOUND:                -0.668
REMARK SMILES CCCCCCC=CC(=O)[O-]
REMARK SMILES IDX 5 1 6 2 7 3 8 4 9 5 10 6 11 7 4 8 3 9 2 10 1 11
REMARK H PARENT
REMARK Flexibility Score: inf
ROOT
ATOM      1  C   UNL     1      19.977   1.118 -16.564  1.00  0.00     0.004 C 
ENDROOT
BRANCH   1   2
ATOM      2  C   UNL     1      19.366   0.751 -15.203  1.00  0.00     0.027 C 
BRANCH   2   3
ATOM      3  C   UNL     1      17.888   0.489 -15.291  1.00  0.00    -0.025 C 
ATOM      4  C   UNL     1      17.132   1.049 -16.242  1.00  0.00     0.020 C 
BRANCH   4   5
ATOM      5  C   UNL     1      15.684   0.810 -16.342  1.00  0.00     0.064 C 
ATOM      6  O   UNL     1      15.161   0.430 -17.422  1.00  0.00    -0.545 OA
ATOM      7  O   UNL     1      14.882   1.007 -15.226  1.00  0.00    -0.545 OA
ENDBRANCH   4   5
ENDBRANCH   2   3
ENDBRANCH   1   2
BRANCH   1   8
ATOM      8  C   UNL     1      21.275   1.926 -16.418  1.00  0.00     0.000 C 
BRANCH   8   9
ATOM      9  C   UNL     1      22.480   1.127 -16.934  1.00  0.00    -0.000 C 
BRANCH   9  10
ATOM     10  C   UNL     1      23.491   0.801 -15.824  1.00  0.00    -0.003 C 
ATOM     11  C   UNL     1      24.384  -0.390 -16.169  1.00  0.00     0.004 C 
ENDBRANCH   9  10
ENDBRANCH   8   9
ENDBRANCH   1   8
TORSDOF 6
ENDMDL
MODEL 6
REMARK VINA RESULT:    -4.554      3.331      4.708
REMARK INTER + INTRA:          -6.819
REMARK INTER:                  -6.347
REMARK INTRA:                  -0.472
REMARK UNBOUND:                -0.668
REMARK SMILES CCCCCCC=CC(=O)[O-]
REMARK SMILES IDX 5 1 6 2 7 3 8 4 9 5 10 6 11 7 4 8 3 9 2 10 1 11
REMARK H PARENT
REMARK Flexibility Score: inf
ROOT
ATOM      1  C   UNL     1      21.018  -3.681 -27.565  1.00  0.00     0.004 C 
ENDROOT
BRANCH   1   2
ATOM      2  C   UNL     1      19.918  -3.314 -28.573  1.00  0.00     0.027 C 
BRANCH   2   3
ATOM      3  C   UNL     1      18.695  -4.177 -28.426  1.00  0.00    -0.025 C 
ATOM      4  C   UNL     1      18.491  -4.923 -27.335  1.00  0.00     0.020 C 
BRANCH   4   5
ATOM      5  C   UNL     1      17.304  -5.778 -27.175  1.00  0.00     0.064 C 
ATOM      6  O   UNL     1      16.874  -6.480 -28.127  1.00  0.00    -0.545 OA
ATOM      7  O   UNL     1      16.647  -5.809 -25.952  1.00  0.00    -0.545 OA
ENDBRANCH   4   5
ENDBRANCH   2   3
ENDBRANCH   1   2
BRANCH   1   8
ATOM      8  C   UNL     1      21.950  -2.498 -27.267  1.00  0.00     0.000 C 
BRANCH   8   9
ATOM      9  C   UNL     1      22.052  -2.247 -25.756  1.00  0.00    -0.000 C 
BRANCH   9  10
ATOM     10  C   UNL     1      21.010  -3.040 -24.954  1.00  0.00    -0.003 C 
ATOM     11  C   UNL     1      21.636  -3.887 -23.846  1.00  0.00     0.004 C 
ENDBRANCH   9  10
ENDBRANCH   8   9
ENDBRANCH   1   8
TORSDOF 6
ENDMDL
MODEL 7
REMARK VINA RESULT:    -4.549     10.960     11.621
REMARK INTER + INTRA:          -6.812
REMARK INTER:                  -6.561
REMARK INTRA:                  -0.252
REMARK UNBOUND:                -0.668
REMARK SMILES CCCCCCC=CC(=O)[O-]
REMARK SMILES IDX 5 1 6 2 7 3 8 4 9 5 10 6 11 7 4 8 3 9 2 10 1 11
REMARK H PARENT
REMARK Flexibility Score: inf
ROOT
ATOM      1  C   UNL     1      19.772   1.412 -16.510  1.00  0.00     0.004 C 
ENDROOT
BRANCH   1   2
ATOM      2  C   UNL     1      21.233   1.873 -16.400  1.00  0.00     0.027 C 
BRANCH   2   3
ATOM      3  C   UNL     1      22.206   0.779 -16.743  1.00  0.00    -0.025 C 
ATOM      4  C   UNL     1      23.347   0.618 -16.063  1.00  0.00     0.020 C 
BRANCH   4   5
ATOM      5  C   UNL     1      24.314  -0.443 -16.386  1.00  0.00     0.064 C 
ATOM      6  O   UNL     1      24.907  -1.081 -15.477  1.00  0.00    -0.545 OA
ATOM      7  O   UNL     1      24.578  -0.744 -17.716  1.00  0.00    -0.545 OA
ENDBRANCH   4   5
ENDBRANCH   2   3
ENDBRANCH   1   2
BRANCH   1   8
ATOM      8  C   UNL     1      19.282   0.726 -15.227  1.00  0.00     0.000 C 
BRANCH   8   9
ATOM      9  C   UNL     1      17.748   0.690 -15.175  1.00  0.00    -0.000 C 
BRANCH   9  10
ATOM     10  C   UNL     1      17.133  -0.036 -16.381  1.00  0.00    -0.003 C 
ATOM     11  C   UNL     1      15.677   0.355 -16.628  1.00  0.00     0.004 C 
ENDBRANCH   9  10
ENDBRANCH   8   9
ENDBRANCH   1   8
TORSDOF 6
ENDMDL
MODEL 8
REMARK VINA RESULT:    -4.519      1.198      1.484
REMARK INTER + INTRA:          -6.772
REMARK INTER:                  -6.085
REMARK INTRA:                  -0.687
REMARK UNBOUND:                -0.668
REMARK SMILES CCCCCCC=CC(=O)[O-]
REMARK SMILES IDX 5 1 6 2 7 3 8 4 9 5 10 6 11 7 4 8 3 9 2 10 1 11
REMARK H PARENT
REMARK Flexibility Score: inf
ROOT
ATOM      1  C   UNL     1      19.083  -3.254 -28.651  1.00  0.00     0.004 C 
ENDROOT
BRANCH   1   2
ATOM      2  C   UNL     1      20.608  -3.411 -28.747  1.00  0.00     0.027 C 
BRANCH   2   3
ATOM      3  C   UNL     1      21.315  -2.917 -27.516  1.00  0.00    -0.025 C 
ATOM      4  C   UNL     1      21.661  -3.747 -26.526  1.00  0.00     0.020 C 
BRANCH   4   5
ATOM      5  C   UNL     1      22.348  -3.283 -25.311  1.00  0.00     0.064 C 
ATOM      6  O   UNL     1      23.198  -4.006 -24.727  1.00  0.00    -0.545 OA
ATOM      7  O   UNL     1      22.053  -2.026 -24.799  1.00  0.00    -0.545 OA
ENDBRANCH   4   5
ENDBRANCH   2   3
ENDBRANCH   1   2
BRANCH   1   8
ATOM      8  C   UNL     1      18.379  -4.589 -28.366  1.00  0.00     0.000 C 
BRANCH   8   9
ATOM      9  C   UNL     1      17.344  -4.435 -27.243  1.00  0.00    -0.000 C 
BRANCH   9  10
ATOM     10  C   UNL     1      17.677  -3.280 -26.287  1.00  0.00    -0.003 C 
ATOM     11  C   UNL     1      18.371  -3.751 -25.010  1.00  0.00     0.004 C 
ENDBRANCH   9  10
ENDBRANCH   8   9
ENDBRANCH   1   8
TORSDOF 6
ENDMDL
MODEL 9
REMARK VINA RESULT:    -4.420      1.652      2.947
REMARK INTER + INTRA:          -6.638
REMARK INTER:                  -6.361
REMARK INTRA:                  -0.277
REMARK UNBOUND:                -0.668
REMARK SMILES CCCCCCC=CC(=O)[O-]
REMARK SMILES IDX 5 1 6 2 7 3 8 4 9 5 10 6 11 7 4 8 3 9 2 10 1 11
REMARK H PARENT
REMARK Flexibility Score: inf
ROOT
ATOM      1  C   UNL     1      20.899  -3.876 -27.621  1.00  0.00     0.004 C 
ENDROOT
BRANCH   1   2
ATOM      2  C   UNL     1      21.694  -2.695 -27.046  1.00  0.00     0.027 C 
BRANCH   2   3
ATOM      3  C   UNL     1      22.839  -3.142 -26.179  1.00  0.00    -0.025 C 
ATOM      4  C   UNL     1      22.646  -3.548 -24.920  1.00  0.00     0.020 C 
BRANCH   4   5
ATOM      5  C   UNL     1      23.752  -3.985 -24.053  1.00  0.00     0.064 C 
ATOM      6  O   UNL     1      23.571  -4.844 -23.151  1.00  0.00    -0.545 OA
ATOM      7  O   UNL     1      25.016  -3.439 -24.235  1.00  0.00    -0.545 OA
ENDBRANCH   4   5
ENDBRANCH   2   3
ENDBRANCH   1   2
BRANCH   1   8
ATOM      8  C   UNL     1      19.855  -3.425 -28.653  1.00  0.00     0.000 C 
BRANCH   8   9
ATOM      9  C   UNL     1      18.434  -3.544 -28.085  1.00  0.00    -0.000 C 
BRANCH   9  10
ATOM     10  C   UNL     1      18.265  -4.765 -27.168  1.00  0.00    -0.003 C 
ATOM     11  C   UNL     1      17.110  -5.670 -27.595  1.00  0.00     0.004 C 
ENDBRANCH   9  10
ENDBRANCH   8   9
ENDBRANCH   1   8
TORSDOF 6
ENDMDL
