MODEL 1
REMARK VINA RESULT:    -4.660      0.000      0.000
REMARK INTER + INTRA:          -7.378
REMARK INTER:                  -6.566
REMARK INTRA:                  -0.812
REMARK UNBOUND:                -0.812
REMARK SMILES COc1ccc(-c2cc(=O)c3c(OC)c(OC)c(OC)c(OC)c3o2)cc1OC
REMARK SMILES IDX 7 1 8 2 9 3 10 4 11 5 24 6 25 7 21 8 18 9 15 10 12 11 6 12
REMARK SMILES IDX 3 13 27 14 4 15 26 16 5 17 2 18 1 19 28 20 29 21 22 22 23 23
REMARK SMILES IDX 13 24 14 25 19 26 20 27 16 28 17 29
REMARK H PARENT
REMARK Flexibility Score: inf
ROOT
ATOM      1  C   UNL     1      23.680   3.476  26.502  1.00  0.00     0.138 A 
ATOM      2  C   UNL     1      24.283   2.253  26.820  1.00  0.00     0.100 A 
ATOM      3  C   UNL     1      23.752   1.478  27.847  1.00  0.00     0.197 A 
ATOM      4  O   UNL     1      24.322   0.394  28.143  1.00  0.00    -0.289 OA
ATOM      5  C   UNL     1      22.608   1.927  28.546  1.00  0.00     0.115 A 
ATOM      6  C   UNL     1      22.077   3.190  28.195  1.00  0.00     0.188 A 
ATOM      7  O   UNL     1      22.629   3.888  27.205  1.00  0.00    -0.452 OA
ATOM      8  C   UNL     1      20.953   3.701  28.882  1.00  0.00     0.209 A 
ATOM      9  C   UNL     1      20.367   2.962  29.921  1.00  0.00     0.211 A 
ATOM     10  C   UNL     1      20.901   1.703  30.293  1.00  0.00     0.208 A 
ATOM     11  C   UNL     1      21.986   1.165  29.561  1.00  0.00     0.179 A 
ENDROOT
BRANCH   1  12
ATOM     12  C   UNL     1      24.191   4.334  25.405  1.00  0.00     0.021 A 
ATOM     13  C   UNL     1      25.227   5.910  23.304  1.00  0.00     0.160 A 
ATOM     14  C   UNL     1      24.941   4.554  23.087  1.00  0.00     0.161 A 
ATOM     15  C   UNL     1      24.995   6.472  24.572  1.00  0.00     0.051 A 
ATOM     16  C   UNL     1      24.426   3.773  24.139  1.00  0.00     0.062 A 
ATOM     17  C   UNL     1      24.486   5.692  25.611  1.00  0.00     0.016 A 
BRANCH  13  18
ATOM     18  O   UNL     1      25.743   6.663  22.237  1.00  0.00    -0.493 OA
ATOM     19  C   UNL     1      27.117   7.007  22.084  1.00  0.00     0.278 C 
ENDBRANCH  13  18
BRANCH  14  20
ATOM     20  O   UNL     1      25.187   4.016  21.813  1.00  0.00    -0.493 OA
ATOM     21  C   UNL     1      26.400   3.380  21.425  1.00  0.00     0.278 C 
ENDBRANCH  14  20
ENDBRANCH   1  12
BRANCH   8  22
ATOM     22  O   UNL     1      20.366   4.948  28.588  1.00  0.00    -0.490 OA
ATOM     23  C   UNL     1      20.852   6.226  28.983  1.00  0.00     0.278 C 
ENDBRANCH   8  22
BRANCH  11  24
ATOM     24  O   UNL     1      22.409  -0.143  29.807  1.00  0.00    -0.492 OA
ATOM     25  C   UNL     1      21.662  -1.257  29.329  1.00  0.00     0.278 C 
ENDBRANCH  11  24
BRANCH   9  26
ATOM     26  O   UNL     1      19.254   3.553  30.551  1.00  0.00    -0.490 OA
ATOM     27  C   UNL     1      19.246   4.280  31.777  1.00  0.00     0.279 C 
ENDBRANCH   9  26
BRANCH  10  28
ATOM     28  O   UNL     1      20.330   1.016  31.378  1.00  0.00    -0.490 OA
ATOM     29  C   UNL     1      20.819   1.010  32.715  1.00  0.00     0.278 C 
ENDBRANCH  10  28
TORSDOF 7
ENDMDL
MODEL 2
REMARK VINA RESULT:    -4.369     12.318     15.936
REMARK INTER + INTRA:          -6.969
REMARK INTER:                  -6.155
REMARK INTRA:                  -0.813
REMARK UNBOUND:                -0.812
REMARK SMILES COc1ccc(-c2cc(=O)c3c(OC)c(OC)c(OC)c(OC)c3o2)cc1OC
REMARK SMILES IDX 7 1 8 2 9 3 10 4 11 5 24 6 25 7 21 8 18 9 15 10 12 11 6 12
REMARK SMILES IDX 3 13 27 14 4 15 26 16 5 17 2 18 1 19 28 20 29 21 22 22 23 23
REMARK SMILES IDX 13 24 14 25 19 26 20 27 16 28 17 29
REMARK H PARENT
REMARK Flexibility Score: inf
ROOT
ATOM      1  C   UNL     1      15.871  -9.765  23.925  1.00  0.00     0.138 A 
ATOM      2  C   UNL     1      15.558  -8.438  24.246  1.00  0.00     0.100 A 
ATOM      3  C   UNL     1      15.970  -7.918  25.469  1.00  0.00     0.197 A 
ATOM      4  O   UNL     1      15.656  -6.732  25.757  1.00  0.00    -0.289 OA
ATOM      5  C   UNL     1      16.705  -8.727  26.364  1.00  0.00     0.115 A 
ATOM      6  C   UNL     1      16.951 -10.068  25.990  1.00  0.00     0.188 A 
ATOM      7  O   UNL     1      16.531 -10.512  24.807  1.00  0.00    -0.452 OA
ATOM      8  C   UNL     1      17.655 -10.930  26.861  1.00  0.00     0.209 A 
ATOM      9  C   UNL     1      18.104 -10.459  28.104  1.00  0.00     0.211 A 
ATOM     10  C   UNL     1      17.849  -9.122  28.498  1.00  0.00     0.208 A 
ATOM     11  C   UNL     1      17.201  -8.244  27.597  1.00  0.00     0.179 A 
ENDROOT
BRANCH   1  12
ATOM     12  C   UNL     1      15.476 -10.367  22.628  1.00  0.00     0.021 A 
ATOM     13  C   UNL     1      14.642 -11.508  20.184  1.00  0.00     0.160 A 
ATOM     14  C   UNL     1      14.104 -10.282  20.604  1.00  0.00     0.161 A 
ATOM     15  C   UNL     1      15.593 -12.160  20.989  1.00  0.00     0.051 A 
ATOM     16  C   UNL     1      14.524  -9.720  21.824  1.00  0.00     0.062 A 
ATOM     17  C   UNL     1      16.003 -11.597  22.199  1.00  0.00     0.016 A 
BRANCH  13  18
ATOM     18  O   UNL     1      14.203 -12.046  18.964  1.00  0.00    -0.493 OA
ATOM     19  C   UNL     1      14.887 -11.898  17.724  1.00  0.00     0.278 C 
ENDBRANCH  13  18
BRANCH  14  20
ATOM     20  O   UNL     1      13.153  -9.655  19.784  1.00  0.00    -0.493 OA
ATOM     21  C   UNL     1      13.446  -8.613  18.859  1.00  0.00     0.278 C 
ENDBRANCH  14  20
ENDBRANCH   1  12
BRANCH   8  22
ATOM     22  O   UNL     1      17.940 -12.276  26.556  1.00  0.00    -0.490 OA
ATOM     23  C   UNL     1      19.002 -12.750  25.737  1.00  0.00     0.278 C 
ENDBRANCH   8  22
BRANCH  11  24
ATOM     24  O   UNL     1      17.097  -6.887  27.906  1.00  0.00    -0.492 OA
ATOM     25  C   UNL     1      18.239  -6.037  27.872  1.00  0.00     0.278 C 
ENDBRANCH  11  24
BRANCH   9  26
ATOM     26  O   UNL     1      18.791 -11.391  28.907  1.00  0.00    -0.490 OA
ATOM     27  C   UNL     1      18.245 -12.202  29.944  1.00  0.00     0.279 C 
ENDBRANCH   9  26
BRANCH  10  28
ATOM     28  O   UNL     1      18.257  -8.700  29.775  1.00  0.00    -0.490 OA
ATOM     29  C   UNL     1      17.448  -8.678  30.947  1.00  0.00     0.278 C 
ENDBRANCH  10  28
TORSDOF 7
ENDMDL
MODEL 3
REMARK VINA RESULT:    -4.205      1.447      2.195
REMARK INTER + INTRA:          -6.737
REMARK INTER:                  -5.985
REMARK INTRA:                  -0.752
REMARK UNBOUND:                -0.812
REMARK SMILES COc1ccc(-c2cc(=O)c3c(OC)c(OC)c(OC)c(OC)c3o2)cc1OC
REMARK SMILES IDX 7 1 8 2 9 3 10 4 11 5 24 6 25 7 21 8 18 9 15 10 12 11 6 12
REMARK SMILES IDX 3 13 27 14 4 15 26 16 5 17 2 18 1 19 28 20 29 21 22 22 23 23
REMARK SMILES IDX 13 24 14 25 19 26 20 27 16 28 17 29
REMARK H PARENT
REMARK Flexibility Score: inf
ROOT
ATOM      1  C   UNL     1      23.540   2.589  27.207  1.00  0.00     0.138 A 
ATOM      2  C   UNL     1      24.141   1.342  27.416  1.00  0.00     0.100 A 
ATOM      3  C   UNL     1      23.637   0.501  28.404  1.00  0.00     0.197 A 
ATOM      4  O   UNL     1      24.206  -0.607  28.602  1.00  0.00    -0.289 OA
ATOM      5  C   UNL     1      22.524   0.909  29.173  1.00  0.00     0.115 A 
ATOM      6  C   UNL     1      21.994   2.197  28.932  1.00  0.00     0.188 A 
ATOM      7  O   UNL     1      22.518   2.959  27.974  1.00  0.00    -0.452 OA
ATOM      8  C   UNL     1      20.900   2.668  29.693  1.00  0.00     0.209 A 
ATOM      9  C   UNL     1      20.343   1.861  30.697  1.00  0.00     0.211 A 
ATOM     10  C   UNL     1      20.877   0.575  30.959  1.00  0.00     0.208 A 
ATOM     11  C   UNL     1      21.929   0.081  30.153  1.00  0.00     0.179 A 
ENDROOT
BRANCH   1  12
ATOM     12  C   UNL     1      24.021   3.518  26.155  1.00  0.00     0.021 A 
ATOM     13  C   UNL     1      24.905   5.352  24.199  1.00  0.00     0.160 A 
ATOM     14  C   UNL     1      25.292   5.515  25.538  1.00  0.00     0.161 A 
ATOM     15  C   UNL     1      24.075   4.274  23.844  1.00  0.00     0.051 A 
ATOM     16  C   UNL     1      24.847   4.598  26.508  1.00  0.00     0.062 A 
ATOM     17  C   UNL     1      23.635   3.369  24.812  1.00  0.00     0.016 A 
BRANCH  13  18
ATOM     18  O   UNL     1      25.362   6.284  23.254  1.00  0.00    -0.493 OA
ATOM     19  C   UNL     1      26.113   5.951  22.090  1.00  0.00     0.278 C 
ENDBRANCH  13  18
BRANCH  14  20
ATOM     20  O   UNL     1      26.117   6.603  25.866  1.00  0.00    -0.493 OA
ATOM     21  C   UNL     1      26.338   7.078  27.190  1.00  0.00     0.278 C 
ENDBRANCH  14  20
ENDBRANCH   1  12
BRANCH   8  22
ATOM     22  O   UNL     1      20.317   3.937  29.509  1.00  0.00    -0.490 OA
ATOM     23  C   UNL     1      20.822   5.177  29.990  1.00  0.00     0.278 C 
ENDBRANCH   8  22
BRANCH  11  24
ATOM     24  O   UNL     1      22.346  -1.244  30.291  1.00  0.00    -0.492 OA
ATOM     25  C   UNL     1      21.633  -2.306  29.666  1.00  0.00     0.278 C 
ENDBRANCH  11  24
BRANCH   9  26
ATOM     26  O   UNL     1      19.260   2.416  31.407  1.00  0.00    -0.490 OA
ATOM     27  C   UNL     1      19.295   3.017  32.698  1.00  0.00     0.279 C 
ENDBRANCH   9  26
BRANCH  10  28
ATOM     28  O   UNL     1      20.336  -0.183  32.013  1.00  0.00    -0.490 OA
ATOM     29  C   UNL     1      19.133  -0.943  31.965  1.00  0.00     0.278 C 
ENDBRANCH  10  28
TORSDOF 7
ENDMDL
MODEL 4
REMARK VINA RESULT:    -4.194      9.601     14.002
REMARK INTER + INTRA:          -6.723
REMARK INTER:                  -5.966
REMARK INTRA:                  -0.757
REMARK UNBOUND:                -0.812
REMARK SMILES COc1ccc(-c2cc(=O)c3c(OC)c(OC)c(OC)c(OC)c3o2)cc1OC
REMARK SMILES IDX 7 1 8 2 9 3 10 4 11 5 24 6 25 7 21 8 18 9 15 10 12 11 6 12
REMARK SMILES IDX 3 13 27 14 4 15 26 16 5 17 2 18 1 19 28 20 29 21 22 22 23 23
REMARK SMILES IDX 13 24 14 25 19 26 20 27 16 28 17 29
REMARK H PARENT
REMARK Flexibility Score: inf
ROOT
ATOM      1  C   UNL     1      16.765  -6.723  27.123  1.00  0.00     0.138 A 
ATOM      2  C   UNL     1      16.179  -6.794  25.853  1.00  0.00     0.100 A 
ATOM      3  C   UNL     1      16.154  -8.013  25.183  1.00  0.00     0.197 A 
ATOM      4  O   UNL     1      15.650  -8.057  24.028  1.00  0.00    -0.289 OA
ATOM      5  C   UNL     1      16.706  -9.162  25.794  1.00  0.00     0.115 A 
ATOM      6  C   UNL     1      17.314  -9.006  27.061  1.00  0.00     0.188 A 
ATOM      7  O   UNL     1      17.310  -7.814  27.653  1.00  0.00    -0.452 OA
ATOM      8  C   UNL     1      17.909 -10.115  27.703  1.00  0.00     0.209 A 
ATOM      9  C   UNL     1      17.906 -11.372  27.081  1.00  0.00     0.211 A 
ATOM     10  C   UNL     1      17.315 -11.538  25.804  1.00  0.00     0.208 A 
ATOM     11  C   UNL     1      16.663 -10.441  25.193  1.00  0.00     0.179 A 
ENDROOT
BRANCH   1  12
ATOM     12  C   UNL     1      16.802  -5.455  27.893  1.00  0.00     0.021 A 
ATOM     13  C   UNL     1      16.918  -3.083  29.419  1.00  0.00     0.160 A 
ATOM     14  C   UNL     1      18.098  -3.773  29.108  1.00  0.00     0.161 A 
ATOM     15  C   UNL     1      15.683  -3.582  28.968  1.00  0.00     0.051 A 
ATOM     16  C   UNL     1      18.034  -4.956  28.348  1.00  0.00     0.062 A 
ATOM     17  C   UNL     1      15.626  -4.757  28.216  1.00  0.00     0.016 A 
BRANCH  13  18
ATOM     18  O   UNL     1      17.013  -1.908  30.182  1.00  0.00    -0.493 OA
ATOM     19  C   UNL     1      15.897  -1.198  30.711  1.00  0.00     0.278 C 
ENDBRANCH  13  18
BRANCH  14  20
ATOM     20  O   UNL     1      19.317  -3.255  29.576  1.00  0.00    -0.493 OA
ATOM     21  C   UNL     1      20.347  -2.736  28.740  1.00  0.00     0.278 C 
ENDBRANCH  14  20
ENDBRANCH   1  12
BRANCH   8  22
ATOM     22  O   UNL     1      18.530 -10.038  28.965  1.00  0.00    -0.490 OA
ATOM     23  C   UNL     1      17.880 -10.066  30.231  1.00  0.00     0.278 C 
ENDBRANCH   8  22
BRANCH  11  24
ATOM     24  O   UNL     1      15.934 -10.634  24.018  1.00  0.00    -0.492 OA
ATOM     25  C   UNL     1      14.650 -11.251  24.045  1.00  0.00     0.278 C 
ENDBRANCH  11  24
BRANCH   9  26
ATOM     26  O   UNL     1      18.527 -12.417  27.794  1.00  0.00    -0.490 OA
ATOM     27  C   UNL     1      19.844 -12.925  27.603  1.00  0.00     0.279 C 
ENDBRANCH   9  26
BRANCH  10  28
ATOM     28  O   UNL     1      17.384 -12.796  25.181  1.00  0.00    -0.490 OA
ATOM     29  C   UNL     1      18.176 -13.125  24.045  1.00  0.00     0.278 C 
ENDBRANCH  10  28
TORSDOF 7
ENDMDL
MODEL 5
REMARK VINA RESULT:    -4.160      1.776      4.189
REMARK INTER + INTRA:          -6.674
REMARK INTER:                  -5.917
REMARK INTRA:                  -0.756
REMARK UNBOUND:                -0.812
REMARK SMILES COc1ccc(-c2cc(=O)c3c(OC)c(OC)c(OC)c(OC)c3o2)cc1OC
REMARK SMILES IDX 7 1 8 2 9 3 10 4 11 5 24 6 25 7 21 8 18 9 15 10 12 11 6 12
REMARK SMILES IDX 3 13 27 14 4 15 26 16 5 17 2 18 1 19 28 20 29 21 22 22 23 23
REMARK SMILES IDX 13 24 14 25 19 26 20 27 16 28 17 29
REMARK H PARENT
REMARK Flexibility Score: inf
ROOT
ATOM      1  C   UNL     1      22.200   2.985  27.692  1.00  0.00     0.138 A 
ATOM      2  C   UNL     1      21.318   3.817  28.394  1.00  0.00     0.100 A 
ATOM      3  C   UNL     1      20.649   3.316  29.506  1.00  0.00     0.197 A 
ATOM      4  O   UNL     1      19.836   4.066  30.110  1.00  0.00    -0.289 OA
ATOM      5  C   UNL     1      20.875   1.983  29.919  1.00  0.00     0.115 A 
ATOM      6  C   UNL     1      21.749   1.191  29.140  1.00  0.00     0.188 A 
ATOM      7  O   UNL     1      22.360   1.724  28.084  1.00  0.00    -0.452 OA
ATOM      8  C   UNL     1      21.986  -0.157  29.490  1.00  0.00     0.209 A 
ATOM      9  C   UNL     1      21.348  -0.716  30.607  1.00  0.00     0.211 A 
ATOM     10  C   UNL     1      20.456   0.062  31.386  1.00  0.00     0.208 A 
ATOM     11  C   UNL     1      20.270   1.429  31.071  1.00  0.00     0.179 A 
ENDROOT
BRANCH   1  12
ATOM     12  C   UNL     1      22.956   3.471  26.512  1.00  0.00     0.021 A 
ATOM     13  C   UNL     1      24.320   4.418  24.228  1.00  0.00     0.160 A 
ATOM     14  C   UNL     1      23.418   5.255  24.902  1.00  0.00     0.161 A 
ATOM     15  C   UNL     1      24.535   3.109  24.698  1.00  0.00     0.051 A 
ATOM     16  C   UNL     1      22.740   4.776  26.039  1.00  0.00     0.062 A 
ATOM     17  C   UNL     1      23.858   2.641  25.825  1.00  0.00     0.016 A 
BRANCH  13  18
ATOM     18  O   UNL     1      24.978   4.921  23.095  1.00  0.00    -0.493 OA
ATOM     19  C   UNL     1      25.474   4.119  22.028  1.00  0.00     0.278 C 
ENDBRANCH  13  18
BRANCH  14  20
ATOM     20  O   UNL     1      23.218   6.555  24.409  1.00  0.00    -0.493 OA
ATOM     21  C   UNL     1      21.944   7.125  24.129  1.00  0.00     0.278 C 
ENDBRANCH  14  20
ENDBRANCH   1  12
BRANCH   8  22
ATOM     22  O   UNL     1      22.845  -1.007  28.765  1.00  0.00    -0.490 OA
ATOM     23  C   UNL     1      24.267  -0.958  28.750  1.00  0.00     0.278 C 
ENDBRANCH   8  22
BRANCH  11  24
ATOM     24  O   UNL     1      19.530   2.244  31.929  1.00  0.00    -0.492 OA
ATOM     25  C   UNL     1      20.104   2.763  33.125  1.00  0.00     0.278 C 
ENDBRANCH  11  24
BRANCH   9  26
ATOM     26  O   UNL     1      21.641  -2.068  30.876  1.00  0.00    -0.490 OA
ATOM     27  C   UNL     1      22.547  -2.574  31.852  1.00  0.00     0.279 C 
ENDBRANCH   9  26
BRANCH  10  28
ATOM     28  O   UNL     1      19.785  -0.546  32.461  1.00  0.00    -0.490 OA
ATOM     29  C   UNL     1      18.590  -1.316  32.374  1.00  0.00     0.278 C 
ENDBRANCH  10  28
TORSDOF 7
ENDMDL
MODEL 6
REMARK VINA RESULT:    -4.151      2.601      8.133
REMARK INTER + INTRA:          -6.662
REMARK INTER:                  -5.914
REMARK INTRA:                  -0.747
REMARK UNBOUND:                -0.812
REMARK SMILES COc1ccc(-c2cc(=O)c3c(OC)c(OC)c(OC)c(OC)c3o2)cc1OC
REMARK SMILES IDX 7 1 8 2 9 3 10 4 11 5 24 6 25 7 21 8 18 9 15 10 12 11 6 12
REMARK SMILES IDX 3 13 27 14 4 15 26 16 5 17 2 18 1 19 28 20 29 21 22 22 23 23
REMARK SMILES IDX 13 24 14 25 19 26 20 27 16 28 17 29
REMARK H PARENT
REMARK Flexibility Score: inf
ROOT
ATOM      1  C   UNL     1      22.003  -0.135  29.132  1.00  0.00     0.138 A 
ATOM      2  C   UNL     1      23.293  -0.490  28.717  1.00  0.00     0.100 A 
ATOM      3  C   UNL     1      24.133   0.488  28.193  1.00  0.00     0.197 A 
ATOM      4  O   UNL     1      25.280   0.149  27.796  1.00  0.00    -0.289 OA
ATOM      5  C   UNL     1      23.681   1.824  28.098  1.00  0.00     0.115 A 
ATOM      6  C   UNL     1      22.354   2.100  28.501  1.00  0.00     0.188 A 
ATOM      7  O   UNL     1      21.595   1.123  28.993  1.00  0.00    -0.452 OA
ATOM      8  C   UNL     1      21.841   3.413  28.399  1.00  0.00     0.209 A 
ATOM      9  C   UNL     1      22.644   4.444  27.888  1.00  0.00     0.211 A 
ATOM     10  C   UNL     1      23.969   4.176  27.464  1.00  0.00     0.208 A 
ATOM     11  C   UNL     1      24.501   2.875  27.629  1.00  0.00     0.179 A 
ENDROOT
BRANCH   1  12
ATOM     12  C   UNL     1      21.072  -1.131  29.716  1.00  0.00     0.021 A 
ATOM     13  C   UNL     1      19.259  -3.031  30.752  1.00  0.00     0.160 A 
ATOM     14  C   UNL     1      19.976  -3.315  29.581  1.00  0.00     0.161 A 
ATOM     15  C   UNL     1      19.448  -1.797  31.400  1.00  0.00     0.051 A 
ATOM     16  C   UNL     1      20.878  -2.363  29.069  1.00  0.00     0.062 A 
ATOM     17  C   UNL     1      20.343  -0.857  30.886  1.00  0.00     0.016 A 
BRANCH  13  18
ATOM     18  O   UNL     1      18.364  -3.998  31.238  1.00  0.00    -0.493 OA
ATOM     19  C   UNL     1      16.953  -3.960  31.044  1.00  0.00     0.278 C 
ENDBRANCH  13  18
BRANCH  14  20
ATOM     20  O   UNL     1      19.764  -4.552  28.952  1.00  0.00    -0.493 OA
ATOM     21  C   UNL     1      18.989  -4.734  27.771  1.00  0.00     0.278 C 
ENDBRANCH  14  20
ENDBRANCH   1  12
BRANCH   8  22
ATOM     22  O   UNL     1      20.532   3.766  28.782  1.00  0.00    -0.490 OA
ATOM     23  C   UNL     1      20.073   3.994  30.110  1.00  0.00     0.278 C 
ENDBRANCH   8  22
BRANCH  11  24
ATOM     24  O   UNL     1      25.854   2.642  27.374  1.00  0.00    -0.492 OA
ATOM     25  C   UNL     1      26.867   3.296  28.133  1.00  0.00     0.278 C 
ENDBRANCH  11  24
BRANCH   9  26
ATOM     26  O   UNL     1      22.045   5.718  27.818  1.00  0.00    -0.490 OA
ATOM     27  C   UNL     1      21.420   6.313  26.684  1.00  0.00     0.279 C 
ENDBRANCH   9  26
BRANCH  10  28
ATOM     28  O   UNL     1      24.726   5.217  26.899  1.00  0.00    -0.490 OA
ATOM     29  C   UNL     1      24.897   5.467  25.508  1.00  0.00     0.278 C 
ENDBRANCH  10  28
TORSDOF 7
ENDMDL
MODEL 7
REMARK VINA RESULT:    -4.085      8.562     12.272
REMARK INTER + INTRA:          -6.568
REMARK INTER:                  -5.745
REMARK INTRA:                  -0.823
REMARK UNBOUND:                -0.812
REMARK SMILES COc1ccc(-c2cc(=O)c3c(OC)c(OC)c(OC)c(OC)c3o2)cc1OC
REMARK SMILES IDX 7 1 8 2 9 3 10 4 11 5 24 6 25 7 21 8 18 9 15 10 12 11 6 12
REMARK SMILES IDX 3 13 27 14 4 15 26 16 5 17 2 18 1 19 28 20 29 21 22 22 23 23
REMARK SMILES IDX 13 24 14 25 19 26 20 27 16 28 17 29
REMARK H PARENT
REMARK Flexibility Score: inf
ROOT
ATOM      1  C   UNL     1      17.108  -5.998  27.561  1.00  0.00     0.138 A 
ATOM      2  C   UNL     1      18.298  -5.270  27.440  1.00  0.00     0.100 A 
ATOM      3  C   UNL     1      18.497  -4.152  28.244  1.00  0.00     0.197 A 
ATOM      4  O   UNL     1      19.560  -3.489  28.105  1.00  0.00    -0.289 OA
ATOM      5  C   UNL     1      17.505  -3.773  29.177  1.00  0.00     0.115 A 
ATOM      6  C   UNL     1      16.313  -4.533  29.215  1.00  0.00     0.188 A 
ATOM      7  O   UNL     1      16.178  -5.592  28.420  1.00  0.00    -0.452 OA
ATOM      8  C   UNL     1      15.275  -4.179  30.107  1.00  0.00     0.209 A 
ATOM      9  C   UNL     1      15.421  -3.067  30.950  1.00  0.00     0.211 A 
ATOM     10  C   UNL     1      16.604  -2.288  30.909  1.00  0.00     0.208 A 
ATOM     11  C   UNL     1      17.667  -2.682  30.062  1.00  0.00     0.179 A 
ENDROOT
BRANCH   1  12
ATOM     12  C   UNL     1      16.850  -7.210  26.744  1.00  0.00     0.021 A 
ATOM     13  C   UNL     1      16.442  -9.540  25.204  1.00  0.00     0.160 A 
ATOM     14  C   UNL     1      16.931  -9.644  26.514  1.00  0.00     0.161 A 
ATOM     15  C   UNL     1      16.160  -8.271  24.667  1.00  0.00     0.051 A 
ATOM     16  C   UNL     1      17.134  -8.478  27.276  1.00  0.00     0.062 A 
ATOM     17  C   UNL     1      16.365  -7.119  25.428  1.00  0.00     0.016 A 
BRANCH  13  18
ATOM     18  O   UNL     1      16.253 -10.720  24.466  1.00  0.00    -0.493 OA
ATOM     19  C   UNL     1      17.102 -11.154  23.409  1.00  0.00     0.278 C 
ENDBRANCH  13  18
BRANCH  14  20
ATOM     20  O   UNL     1      17.209 -10.923  27.023  1.00  0.00    -0.493 OA
ATOM     21  C   UNL     1      18.509 -11.500  27.093  1.00  0.00     0.278 C 
ENDBRANCH  14  20
ENDBRANCH   1  12
BRANCH   8  22
ATOM     22  O   UNL     1      14.062  -4.888  30.205  1.00  0.00    -0.490 OA
ATOM     23  C   UNL     1      13.841  -6.088  30.938  1.00  0.00     0.278 C 
ENDBRANCH   8  22
BRANCH  11  24
ATOM     24  O   UNL     1      18.895  -2.023  30.137  1.00  0.00    -0.492 OA
ATOM     25  C   UNL     1      19.783  -2.250  31.228  1.00  0.00     0.278 C 
ENDBRANCH  11  24
BRANCH   9  26
ATOM     26  O   UNL     1      14.333  -2.788  31.801  1.00  0.00    -0.490 OA
ATOM     27  C   UNL     1      13.263  -1.879  31.559  1.00  0.00     0.279 C 
ENDBRANCH   9  26
BRANCH  10  28
ATOM     28  O   UNL     1      16.693  -1.144  31.721  1.00  0.00    -0.490 OA
ATOM     29  C   UNL     1      16.369   0.187  31.331  1.00  0.00     0.278 C 
ENDBRANCH  10  28
TORSDOF 7
ENDMDL
MODEL 8
REMARK VINA RESULT:    -4.084      1.012      3.359
REMARK INTER + INTRA:          -6.567
REMARK INTER:                  -5.998
REMARK INTRA:                  -0.570
REMARK UNBOUND:                -0.812
REMARK SMILES COc1ccc(-c2cc(=O)c3c(OC)c(OC)c(OC)c(OC)c3o2)cc1OC
REMARK SMILES IDX 7 1 8 2 9 3 10 4 11 5 24 6 25 7 21 8 18 9 15 10 12 11 6 12
REMARK SMILES IDX 3 13 27 14 4 15 26 16 5 17 2 18 1 19 28 20 29 21 22 22 23 23
REMARK SMILES IDX 13 24 14 25 19 26 20 27 16 28 17 29
REMARK H PARENT
REMARK Flexibility Score: inf
ROOT
ATOM      1  C   UNL     1      23.040   4.750  26.039  1.00  0.00     0.138 A 
ATOM      2  C   UNL     1      21.870   5.395  26.458  1.00  0.00     0.100 A 
ATOM      3  C   UNL     1      21.121   4.842  27.493  1.00  0.00     0.197 A 
ATOM      4  O   UNL     1      20.054   5.417  27.840  1.00  0.00    -0.289 OA
ATOM      5  C   UNL     1      21.554   3.649  28.113  1.00  0.00     0.115 A 
ATOM      6  C   UNL     1      22.724   3.033  27.612  1.00  0.00     0.188 A 
ATOM      7  O   UNL     1      23.399   3.607  26.618  1.00  0.00    -0.452 OA
ATOM      8  C   UNL     1      23.185   1.822  28.175  1.00  0.00     0.209 A 
ATOM      9  C   UNL     1      22.478   1.222  29.228  1.00  0.00     0.211 A 
ATOM     10  C   UNL     1      21.294   1.820  29.727  1.00  0.00     0.208 A 
ATOM     11  C   UNL     1      20.871   3.065  29.205  1.00  0.00     0.179 A 
ENDROOT
BRANCH   1  12
ATOM     12  C   UNL     1      23.889   5.303  24.955  1.00  0.00     0.021 A 
ATOM     13  C   UNL     1      25.554   6.286  22.899  1.00  0.00     0.160 A 
ATOM     14  C   UNL     1      24.990   5.006  22.791  1.00  0.00     0.161 A 
ATOM     15  C   UNL     1      25.285   7.069  24.036  1.00  0.00     0.051 A 
ATOM     16  C   UNL     1      24.161   4.522  23.820  1.00  0.00     0.062 A 
ATOM     17  C   UNL     1      24.465   6.581  25.054  1.00  0.00     0.016 A 
BRANCH  13  18
ATOM     18  O   UNL     1      26.378   6.742  21.858  1.00  0.00    -0.493 OA
ATOM     19  C   UNL     1      27.777   6.979  21.982  1.00  0.00     0.278 C 
ENDBRANCH  13  18
BRANCH  14  20
ATOM     20  O   UNL     1      25.278   4.244  21.647  1.00  0.00    -0.493 OA
ATOM     21  C   UNL     1      26.412   3.394  21.509  1.00  0.00     0.278 C 
ENDBRANCH  14  20
ENDBRANCH   1  12
BRANCH   8  22
ATOM     22  O   UNL     1      24.342   1.152  27.732  1.00  0.00    -0.490 OA
ATOM     23  C   UNL     1      25.657   1.693  27.658  1.00  0.00     0.278 C 
ENDBRANCH   8  22
BRANCH  11  24
ATOM     24  O   UNL     1      19.807   3.743  29.804  1.00  0.00    -0.492 OA
ATOM     25  C   UNL     1      19.993   4.480  31.009  1.00  0.00     0.278 C 
ENDBRANCH  11  24
BRANCH   9  26
ATOM     26  O   UNL     1      23.009   0.014  29.722  1.00  0.00    -0.490 OA
ATOM     27  C   UNL     1      22.598  -1.308  29.385  1.00  0.00     0.279 C 
ENDBRANCH   9  26
BRANCH  10  28
ATOM     28  O   UNL     1      20.575   1.161  30.740  1.00  0.00    -0.490 OA
ATOM     29  C   UNL     1      20.918   1.125  32.121  1.00  0.00     0.278 C 
ENDBRANCH  10  28
TORSDOF 7
ENDMDL
MODEL 9
REMARK VINA RESULT:    -4.071      8.877     13.112
REMARK INTER + INTRA:          -6.548
REMARK INTER:                  -5.908
REMARK INTRA:                  -0.640
REMARK UNBOUND:                -0.812
REMARK SMILES COc1ccc(-c2cc(=O)c3c(OC)c(OC)c(OC)c(OC)c3o2)cc1OC
REMARK SMILES IDX 7 1 8 2 9 3 10 4 11 5 24 6 25 7 21 8 18 9 15 10 12 11 6 12
REMARK SMILES IDX 3 13 27 14 4 15 26 16 5 17 2 18 1 19 28 20 29 21 22 22 23 23
REMARK SMILES IDX 13 24 14 25 19 26 20 27 16 28 17 29
REMARK H PARENT
REMARK Flexibility Score: inf
ROOT
ATOM      1  C   UNL     1      16.054  -7.360  27.078  1.00  0.00     0.138 A 
ATOM      2  C   UNL     1      14.847  -7.375  27.788  1.00  0.00     0.100 A 
ATOM      3  C   UNL     1      14.579  -6.355  28.697  1.00  0.00     0.197 A 
ATOM      4  O   UNL     1      13.502  -6.397  29.351  1.00  0.00    -0.289 OA
ATOM      5  C   UNL     1      15.518  -5.315  28.882  1.00  0.00     0.115 A 
ATOM      6  C   UNL     1      16.731  -5.387  28.159  1.00  0.00     0.188 A 
ATOM      7  O   UNL     1      16.933  -6.388  27.305  1.00  0.00    -0.452 OA
ATOM      8  C   UNL     1      17.718  -4.391  28.330  1.00  0.00     0.209 A 
ATOM      9  C   UNL     1      17.501  -3.332  29.225  1.00  0.00     0.211 A 
ATOM     10  C   UNL     1      16.297  -3.259  29.968  1.00  0.00     0.208 A 
ATOM     11  C   UNL     1      15.284  -4.222  29.747  1.00  0.00     0.179 A 
ENDROOT
BRANCH   1  12
ATOM     12  C   UNL     1      16.384  -8.409  26.082  1.00  0.00     0.021 A 
ATOM     13  C   UNL     1      17.092 -10.411  24.222  1.00  0.00     0.160 A 
ATOM     14  C   UNL     1      17.239 -10.649  25.596  1.00  0.00     0.161 A 
ATOM     15  C   UNL     1      16.593  -9.171  23.782  1.00  0.00     0.051 A 
ATOM     16  C   UNL     1      16.885  -9.646  26.518  1.00  0.00     0.062 A 
ATOM     17  C   UNL     1      16.247  -8.180  24.702  1.00  0.00     0.016 A 
BRANCH  13  18
ATOM     18  O   UNL     1      17.455 -11.428  23.326  1.00  0.00    -0.493 OA
ATOM     19  C   UNL     1      16.530 -12.248  22.618  1.00  0.00     0.278 C 
ENDBRANCH  13  18
BRANCH  14  20
ATOM     20  O   UNL     1      17.743 -11.893  26.008  1.00  0.00    -0.493 OA
ATOM     21  C   UNL     1      19.080 -12.118  26.445  1.00  0.00     0.278 C 
ENDBRANCH  14  20
ENDBRANCH   1  12
BRANCH   8  22
ATOM     22  O   UNL     1      18.948  -4.392  27.643  1.00  0.00    -0.490 OA
ATOM     23  C   UNL     1      20.088  -5.187  27.952  1.00  0.00     0.278 C 
ENDBRANCH   8  22
BRANCH  11  24
ATOM     24  O   UNL     1      14.033  -4.063  30.346  1.00  0.00    -0.492 OA
ATOM     25  C   UNL     1      13.865  -4.235  31.750  1.00  0.00     0.278 C 
ENDBRANCH  11  24
BRANCH   9  26
ATOM     26  O   UNL     1      18.543  -2.389  29.333  1.00  0.00    -0.490 OA
ATOM     27  C   UNL     1      19.531  -2.313  30.357  1.00  0.00     0.279 C 
ENDBRANCH   9  26
BRANCH  10  28
ATOM     28  O   UNL     1      16.137  -2.220  30.902  1.00  0.00    -0.490 OA
ATOM     29  C   UNL     1      15.624  -0.920  30.628  1.00  0.00     0.278 C 
ENDBRANCH  10  28
TORSDOF 7
ENDMDL
