MODEL 1
REMARK VINA RESULT:    -5.350      0.000      0.000
REMARK INTER + INTRA:          -5.663
REMARK INTER:                  -5.663
REMARK INTRA:                   0.000
REMARK UNBOUND:                 0.000
REMARK SMILES O=c1ccc2cc(O)c(O)cc2o1
REMARK SMILES IDX 4 1 3 2 2 3 1 4 13 5 12 6 11 7 9 8 7 9 6 10 5 11 8 12 10 14
REMARK H PARENT 8 13 10 15
REMARK Flexibility Score: inf
ROOT
ATOM      1  C   UNL     1      -1.398 -21.747  -7.868  1.00  0.00     0.019 A 
ATOM      2  C   UNL     1      -2.017 -22.949  -7.524  1.00  0.00     0.094 A 
ATOM      3  C   UNL     1      -1.579 -24.134  -8.127  1.00  0.00     0.336 A 
ATOM      4  O   UNL     1      -2.125 -25.228  -7.830  1.00  0.00    -0.246 OA
ATOM      5  O   UNL     1      -0.587 -24.111  -9.014  1.00  0.00    -0.423 OA
ATOM      6  C   UNL     1       0.030 -22.987  -9.370  1.00  0.00     0.142 A 
ATOM      7  C   UNL     1       1.066 -23.025 -10.308  1.00  0.00     0.098 A 
ATOM      8  C   UNL     1       1.720 -21.843 -10.686  1.00  0.00     0.161 A 
ATOM      9  C   UNL     1       1.334 -20.617 -10.123  1.00  0.00     0.158 A 
ATOM     10  C   UNL     1       0.296 -20.573  -9.181  1.00  0.00     0.062 A 
ATOM     11  C   UNL     1      -0.358 -21.754  -8.803  1.00  0.00     0.022 A 
ENDROOT
BRANCH   9  12
ATOM     12  O   UNL     1       1.989 -19.448 -10.505  1.00  0.00    -0.504 OA
ATOM     13  H   UNL     1       1.939 -18.606  -9.944  1.00  0.00     0.293 HD
ENDBRANCH   9  12
BRANCH   8  14
ATOM     14  O   UNL     1       2.753 -21.878 -11.621  1.00  0.00    -0.504 OA
ATOM     15  H   UNL     1       3.388 -22.666 -11.679  1.00  0.00     0.293 HD
ENDBRANCH   8  14
TORSDOF 2
ENDMDL
MODEL 2
REMARK VINA RESULT:    -5.277      3.989      6.586
REMARK INTER + INTRA:          -5.586
REMARK INTER:                  -5.586
REMARK INTRA:                   0.000
REMARK UNBOUND:                 0.000
REMARK SMILES O=c1ccc2cc(O)c(O)cc2o1
REMARK SMILES IDX 4 1 3 2 2 3 1 4 13 5 12 6 11 7 9 8 7 9 6 10 5 11 8 12 10 14
REMARK H PARENT 8 13 10 15
REMARK Flexibility Score: inf
ROOT
ATOM      1  C   UNL     1       0.788 -25.775  -9.775  1.00  0.00     0.019 A 
ATOM      2  C   UNL     1       0.091 -24.594  -9.519  1.00  0.00     0.094 A 
ATOM      3  C   UNL     1      -0.984 -24.622  -8.624  1.00  0.00     0.336 A 
ATOM      4  O   UNL     1      -1.626 -23.566  -8.381  1.00  0.00    -0.246 OA
ATOM      5  O   UNL     1      -1.334 -25.758  -8.027  1.00  0.00    -0.423 OA
ATOM      6  C   UNL     1      -0.696 -26.906  -8.243  1.00  0.00     0.142 A 
ATOM      7  C   UNL     1      -1.110 -28.070  -7.586  1.00  0.00     0.098 A 
ATOM      8  C   UNL     1      -0.441 -29.282  -7.810  1.00  0.00     0.161 A 
ATOM      9  C   UNL     1       0.647 -29.330  -8.694  1.00  0.00     0.158 A 
ATOM     10  C   UNL     1       1.066 -28.166  -9.356  1.00  0.00     0.062 A 
ATOM     11  C   UNL     1       0.398 -26.954  -9.133  1.00  0.00     0.022 A 
ENDROOT
BRANCH   9  12
ATOM     12  O   UNL     1       1.305 -30.539  -8.911  1.00  0.00    -0.504 OA
ATOM     13  H   UNL     1       2.211 -30.730  -8.498  1.00  0.00     0.293 HD
ENDBRANCH   9  12
BRANCH   8  14
ATOM     14  O   UNL     1      -0.850 -30.443  -7.157  1.00  0.00    -0.504 OA
ATOM     15  H   UNL     1      -1.414 -31.144  -7.626  1.00  0.00     0.293 HD
ENDBRANCH   8  14
TORSDOF 2
ENDMDL
MODEL 3
REMARK VINA RESULT:    -5.255      4.676      6.479
REMARK INTER + INTRA:          -5.562
REMARK INTER:                  -5.562
REMARK INTRA:                   0.000
REMARK UNBOUND:                 0.000
REMARK SMILES O=c1ccc2cc(O)c(O)cc2o1
REMARK SMILES IDX 4 1 3 2 2 3 1 4 13 5 12 6 11 7 9 8 7 9 6 10 5 11 8 12 10 14
REMARK H PARENT 8 13 10 15
REMARK Flexibility Score: inf
ROOT
ATOM      1  C   UNL     1      -1.712 -27.680  -6.280  1.00  0.00     0.019 A 
ATOM      2  C   UNL     1      -2.114 -26.355  -6.115  1.00  0.00     0.094 A 
ATOM      3  C   UNL     1      -1.771 -25.416  -7.093  1.00  0.00     0.336 A 
ATOM      4  O   UNL     1      -2.124 -24.214  -6.962  1.00  0.00    -0.246 OA
ATOM      5  O   UNL     1      -1.073 -25.783  -8.164  1.00  0.00    -0.423 OA
ATOM      6  C   UNL     1      -0.670 -27.036  -8.361  1.00  0.00     0.142 A 
ATOM      7  C   UNL     1       0.062 -27.363  -9.507  1.00  0.00     0.098 A 
ATOM      8  C   UNL     1       0.489 -28.683  -9.719  1.00  0.00     0.161 A 
ATOM      9  C   UNL     1       0.182 -29.679  -8.780  1.00  0.00     0.158 A 
ATOM     10  C   UNL     1      -0.552 -29.356  -7.629  1.00  0.00     0.062 A 
ATOM     11  C   UNL     1      -0.979 -28.038  -7.416  1.00  0.00     0.022 A 
ENDROOT
BRANCH   9  12
ATOM     12  O   UNL     1       0.610 -30.986  -8.998  1.00  0.00    -0.504 OA
ATOM     13  H   UNL     1       1.168 -31.483  -8.313  1.00  0.00     0.293 HD
ENDBRANCH   9  12
BRANCH   8  14
ATOM     14  O   UNL     1       1.219 -29.012 -10.860  1.00  0.00    -0.504 OA
ATOM     15  H   UNL     1       0.815 -28.936 -11.786  1.00  0.00     0.293 HD
ENDBRANCH   8  14
TORSDOF 2
ENDMDL
MODEL 4
REMARK VINA RESULT:    -5.202      4.070      6.563
REMARK INTER + INTRA:          -5.507
REMARK INTER:                  -5.507
REMARK INTRA:                   0.000
REMARK UNBOUND:                 0.000
REMARK SMILES O=c1ccc2cc(O)c(O)cc2o1
REMARK SMILES IDX 4 1 3 2 2 3 1 4 13 5 12 6 11 7 9 8 7 9 6 10 5 11 8 12 10 14
REMARK H PARENT 8 13 10 15
REMARK Flexibility Score: inf
ROOT
ATOM      1  C   UNL     1      -1.353 -25.774  -8.101  1.00  0.00     0.019 A 
ATOM      2  C   UNL     1      -0.891 -24.647  -8.780  1.00  0.00     0.094 A 
ATOM      3  C   UNL     1       0.219 -24.771  -9.623  1.00  0.00     0.336 A 
ATOM      4  O   UNL     1       0.651 -23.765 -10.244  1.00  0.00    -0.246 OA
ATOM      5  O   UNL     1       0.824 -25.946  -9.772  1.00  0.00    -0.423 OA
ATOM      6  C   UNL     1       0.416 -27.046  -9.142  1.00  0.00     0.142 A 
ATOM      7  C   UNL     1       1.091 -28.255  -9.338  1.00  0.00     0.098 A 
ATOM      8  C   UNL     1       0.665 -29.416  -8.677  1.00  0.00     0.161 A 
ATOM      9  C   UNL     1      -0.442 -29.367  -7.816  1.00  0.00     0.158 A 
ATOM     10  C   UNL     1      -1.123 -28.158  -7.616  1.00  0.00     0.062 A 
ATOM     11  C   UNL     1      -0.698 -26.996  -8.277  1.00  0.00     0.022 A 
ENDROOT
BRANCH   9  12
ATOM     12  O   UNL     1      -0.858 -30.526  -7.164  1.00  0.00    -0.504 OA
ATOM     13  H   UNL     1      -1.502 -30.492  -6.382  1.00  0.00     0.293 HD
ENDBRANCH   9  12
BRANCH   8  14
ATOM     14  O   UNL     1       1.336 -30.622  -8.869  1.00  0.00    -0.504 OA
ATOM     15  H   UNL     1       1.315 -31.357  -8.171  1.00  0.00     0.293 HD
ENDBRANCH   8  14
TORSDOF 2
ENDMDL
MODEL 5
REMARK VINA RESULT:    -5.124      2.294      2.533
REMARK INTER + INTRA:          -5.424
REMARK INTER:                  -5.424
REMARK INTRA:                   0.000
REMARK UNBOUND:                 0.000
REMARK SMILES O=c1ccc2cc(O)c(O)cc2o1
REMARK SMILES IDX 4 1 3 2 2 3 1 4 13 5 12 6 11 7 9 8 7 9 6 10 5 11 8 12 10 14
REMARK H PARENT 8 13 10 15
REMARK Flexibility Score: inf
ROOT
ATOM      1  C   UNL     1      -1.017 -23.964 -11.026  1.00  0.00     0.019 A 
ATOM      2  C   UNL     1      -0.728 -25.208 -10.467  1.00  0.00     0.094 A 
ATOM      3  C   UNL     1       0.465 -25.370  -9.754  1.00  0.00     0.336 A 
ATOM      4  O   UNL     1       0.744 -26.486  -9.242  1.00  0.00    -0.246 OA
ATOM      5  O   UNL     1       1.310 -24.352  -9.614  1.00  0.00    -0.423 OA
ATOM      6  C   UNL     1       1.073 -23.149 -10.132  1.00  0.00     0.142 A 
ATOM      7  C   UNL     1       1.998 -22.116  -9.952  1.00  0.00     0.098 A 
ATOM      8  C   UNL     1       1.753 -20.846 -10.496  1.00  0.00     0.161 A 
ATOM      9  C   UNL     1       0.576 -20.610 -11.222  1.00  0.00     0.158 A 
ATOM     10  C   UNL     1      -0.356 -21.642 -11.406  1.00  0.00     0.062 A 
ATOM     11  C   UNL     1      -0.111 -22.912 -10.863  1.00  0.00     0.022 A 
ENDROOT
BRANCH   9  12
ATOM     12  O   UNL     1       0.341 -19.345 -11.759  1.00  0.00    -0.504 OA
ATOM     13  H   UNL     1      -0.598 -19.020 -11.956  1.00  0.00     0.293 HD
ENDBRANCH   9  12
BRANCH   8  14
ATOM     14  O   UNL     1       2.672 -19.814 -10.318  1.00  0.00    -0.504 OA
ATOM     15  H   UNL     1       3.001 -19.551  -9.396  1.00  0.00     0.293 HD
ENDBRANCH   8  14
TORSDOF 2
ENDMDL
MODEL 6
REMARK VINA RESULT:    -4.981      2.377      2.699
REMARK INTER + INTRA:          -5.272
REMARK INTER:                  -5.272
REMARK INTRA:                   0.000
REMARK UNBOUND:                 0.000
REMARK SMILES O=c1ccc2cc(O)c(O)cc2o1
REMARK SMILES IDX 4 1 3 2 2 3 1 4 13 5 12 6 11 7 9 8 7 9 6 10 5 11 8 12 10 14
REMARK H PARENT 8 13 10 15
REMARK Flexibility Score: inf
ROOT
ATOM      1  C   UNL     1       0.978 -24.065  -9.727  1.00  0.00     0.019 A 
ATOM      2  C   UNL     1      -0.069 -24.886 -10.145  1.00  0.00     0.094 A 
ATOM      3  C   UNL     1      -1.077 -24.343 -10.949  1.00  0.00     0.336 A 
ATOM      4  O   UNL     1      -2.030 -25.068 -11.337  1.00  0.00    -0.246 OA
ATOM      5  O   UNL     1      -1.035 -23.062 -11.308  1.00  0.00    -0.423 OA
ATOM      6  C   UNL     1      -0.055 -22.244 -10.930  1.00  0.00     0.142 A 
ATOM      7  C   UNL     1      -0.065 -20.906 -11.338  1.00  0.00     0.098 A 
ATOM      8  C   UNL     1       0.965 -20.041 -10.943  1.00  0.00     0.161 A 
ATOM      9  C   UNL     1       2.011 -20.516 -10.137  1.00  0.00     0.158 A 
ATOM     10  C   UNL     1       2.026 -21.857  -9.725  1.00  0.00     0.062 A 
ATOM     11  C   UNL     1       0.996 -22.723 -10.119  1.00  0.00     0.022 A 
ENDROOT
BRANCH   9  12
ATOM     12  O   UNL     1       3.030 -19.649  -9.750  1.00  0.00    -0.504 OA
ATOM     13  H   UNL     1       2.837 -18.811  -9.214  1.00  0.00     0.293 HD
ENDBRANCH   9  12
BRANCH   8  14
ATOM     14  O   UNL     1       0.959 -18.707 -11.348  1.00  0.00    -0.504 OA
ATOM     15  H   UNL     1       1.327 -17.972 -10.755  1.00  0.00     0.293 HD
ENDBRANCH   8  14
TORSDOF 2
ENDMDL
MODEL 7
REMARK VINA RESULT:    -4.973     14.433     16.106
REMARK INTER + INTRA:          -5.264
REMARK INTER:                  -5.264
REMARK INTRA:                   0.000
REMARK UNBOUND:                 0.000
REMARK SMILES O=c1ccc2cc(O)c(O)cc2o1
REMARK SMILES IDX 4 1 3 2 2 3 1 4 13 5 12 6 11 7 9 8 7 9 6 10 5 11 8 12 10 14
REMARK H PARENT 8 13 10 15
REMARK Flexibility Score: inf
ROOT
ATOM      1  C   UNL     1      13.235 -18.466  -8.972  1.00  0.00     0.019 A 
ATOM      2  C   UNL     1      13.383 -17.376  -9.830  1.00  0.00     0.094 A 
ATOM      3  C   UNL     1      14.669 -16.889 -10.090  1.00  0.00     0.336 A 
ATOM      4  O   UNL     1      14.823 -15.906 -10.862  1.00  0.00    -0.246 OA
ATOM      5  O   UNL     1      15.731 -17.457  -9.527  1.00  0.00    -0.423 OA
ATOM      6  C   UNL     1      15.634 -18.498  -8.702  1.00  0.00     0.142 A 
ATOM      7  C   UNL     1      16.787 -19.053  -8.139  1.00  0.00     0.098 A 
ATOM      8  C   UNL     1      16.690 -20.150  -7.270  1.00  0.00     0.161 A 
ATOM      9  C   UNL     1      15.433 -20.693  -6.963  1.00  0.00     0.158 A 
ATOM     10  C   UNL     1      14.273 -20.139  -7.525  1.00  0.00     0.062 A 
ATOM     11  C   UNL     1      14.370 -19.043  -8.394  1.00  0.00     0.022 A 
ENDROOT
BRANCH   9  12
ATOM     12  O   UNL     1      15.346 -21.782  -6.098  1.00  0.00    -0.504 OA
ATOM     13  H   UNL     1      14.770 -21.752  -5.266  1.00  0.00     0.293 HD
ENDBRANCH   9  12
BRANCH   8  14
ATOM     14  O   UNL     1      17.837 -20.706  -6.707  1.00  0.00    -0.504 OA
ATOM     15  H   UNL     1      17.920 -20.848  -5.707  1.00  0.00     0.293 HD
ENDBRANCH   8  14
TORSDOF 2
ENDMDL
MODEL 8
REMARK VINA RESULT:    -4.732      2.792      4.214
REMARK INTER + INTRA:          -5.008
REMARK INTER:                  -5.008
REMARK INTRA:                   0.000
REMARK UNBOUND:                 0.000
REMARK SMILES O=c1ccc2cc(O)c(O)cc2o1
REMARK SMILES IDX 4 1 3 2 2 3 1 4 13 5 12 6 11 7 9 8 7 9 6 10 5 11 8 12 10 14
REMARK H PARENT 8 13 10 15
REMARK Flexibility Score: inf
ROOT
ATOM      1  C   UNL     1      -2.125 -26.446  -6.382  1.00  0.00     0.019 A 
ATOM      2  C   UNL     1      -1.793 -27.797  -6.291  1.00  0.00     0.094 A 
ATOM      3  C   UNL     1      -0.951 -28.355  -7.260  1.00  0.00     0.336 A 
ATOM      4  O   UNL     1      -0.640 -29.573  -7.195  1.00  0.00    -0.246 OA
ATOM      5  O   UNL     1      -0.475 -27.605  -8.250  1.00  0.00    -0.423 OA
ATOM      6  C   UNL     1      -0.767 -26.312  -8.374  1.00  0.00     0.142 A 
ATOM      7  C   UNL     1      -0.237 -25.575  -9.437  1.00  0.00     0.098 A 
ATOM      8  C   UNL     1      -0.541 -24.212  -9.572  1.00  0.00     0.161 A 
ATOM      9  C   UNL     1      -1.380 -23.585  -8.637  1.00  0.00     0.158 A 
ATOM     10  C   UNL     1      -1.914 -24.320  -7.569  1.00  0.00     0.062 A 
ATOM     11  C   UNL     1      -1.610 -25.682  -7.434  1.00  0.00     0.022 A 
ENDROOT
BRANCH   9  12
ATOM     12  O   UNL     1      -1.677 -22.231  -8.779  1.00  0.00    -0.504 OA
ATOM     13  H   UNL     1      -1.393 -21.710  -9.601  1.00  0.00     0.293 HD
ENDBRANCH   9  12
BRANCH   8  14
ATOM     14  O   UNL     1      -0.015 -23.474 -10.630  1.00  0.00    -0.504 OA
ATOM     15  H   UNL     1       0.879 -23.709 -11.047  1.00  0.00     0.293 HD
ENDBRANCH   8  14
TORSDOF 2
ENDMDL
MODEL 9
REMARK VINA RESULT:    -4.635      2.235      4.558
REMARK INTER + INTRA:          -4.906
REMARK INTER:                  -4.906
REMARK INTRA:                   0.000
REMARK UNBOUND:                 0.000
REMARK SMILES O=c1ccc2cc(O)c(O)cc2o1
REMARK SMILES IDX 4 1 3 2 2 3 1 4 13 5 12 6 11 7 9 8 7 9 6 10 5 11 8 12 10 14
REMARK H PARENT 8 13 10 15
REMARK Flexibility Score: inf
ROOT
ATOM      1  C   UNL     1      -2.022 -23.310  -8.244  1.00  0.00     0.019 A 
ATOM      2  C   UNL     1      -1.755 -21.993  -8.618  1.00  0.00     0.094 A 
ATOM      3  C   UNL     1      -0.606 -21.721  -9.368  1.00  0.00     0.336 A 
ATOM      4  O   UNL     1      -0.347 -20.538  -9.715  1.00  0.00    -0.246 OA
ATOM      5  O   UNL     1       0.218 -22.705  -9.719  1.00  0.00    -0.423 OA
ATOM      6  C   UNL     1       0.001 -23.975  -9.384  1.00  0.00     0.142 A 
ATOM      7  C   UNL     1       0.903 -24.967  -9.781  1.00  0.00     0.098 A 
ATOM      8  C   UNL     1       0.679 -26.306  -9.430  1.00  0.00     0.161 A 
ATOM      9  C   UNL     1      -0.454 -26.654  -8.678  1.00  0.00     0.158 A 
ATOM     10  C   UNL     1      -1.362 -25.663  -8.277  1.00  0.00     0.062 A 
ATOM     11  C   UNL     1      -1.138 -24.324  -8.627  1.00  0.00     0.022 A 
ENDROOT
BRANCH   9  12
ATOM     12  O   UNL     1      -0.668 -27.987  -8.333  1.00  0.00    -0.504 OA
ATOM     13  H   UNL     1       0.075 -28.562  -7.953  1.00  0.00     0.293 HD
ENDBRANCH   9  12
BRANCH   8  14
ATOM     14  O   UNL     1       1.576 -27.297  -9.824  1.00  0.00    -0.504 OA
ATOM     15  H   UNL     1       1.503 -27.747 -10.730  1.00  0.00     0.293 HD
ENDBRANCH   8  14
TORSDOF 2
ENDMDL
