MODEL 1
REMARK VINA RESULT:    -1.859      0.000      0.000
REMARK INTER + INTRA:          -2.337
REMARK INTER:                  -3.489
REMARK INTRA:                   1.152
REMARK UNBOUND:                 1.152
REMARK SMILES CCCCCCCCC=CCCCCCCCC(=O)[O-]
REMARK SMILES IDX 10 1 9 2 11 3 12 4 13 5 14 6 15 7 16 8 17 9 18 10 19 11
REMARK SMILES IDX 20 12 8 13 7 14 6 15 5 16 4 17 3 18 2 19 1 20
REMARK H PARENT
REMARK Flexibility Score: inf
ROOT
ATOM      1  C   UNL     1      -9.134 -33.780   2.444  1.00  0.00    -0.031 C 
ATOM      2  C   UNL     1      -8.947 -35.000   1.917  1.00  0.00    -0.031 C 
ENDROOT
BRANCH   1   3
ATOM      3  C   UNL     1      -8.025 -33.049   3.149  1.00  0.00     0.027 C 
BRANCH   3   4
ATOM      4  C   UNL     1      -7.786 -33.625   4.553  1.00  0.00     0.004 C 
BRANCH   4   5
ATOM      5  C   UNL     1      -7.316 -35.087   4.518  1.00  0.00     0.000 C 
BRANCH   5   6
ATOM      6  C   UNL     1      -8.245 -36.027   5.305  1.00  0.00     0.000 C 
BRANCH   6   7
ATOM      7  C   UNL     1      -9.655 -36.124   4.694  1.00  0.00     0.000 C 
BRANCH   7   8
ATOM      8  C   UNL     1     -10.792 -35.599   5.594  1.00  0.00     0.006 C 
BRANCH   8   9
ATOM      9  C   UNL     1     -10.409 -34.395   6.469  1.00  0.00     0.053 C 
BRANCH   9  10
ATOM     10  C   UNL     1     -10.813 -33.095   5.845  1.00  0.00     0.041 C 
ATOM     11  O   UNL     1     -11.125 -33.048   4.626  1.00  0.00    -0.550 OA
ATOM     12  O   UNL     1     -10.810 -31.930   6.600  1.00  0.00    -0.550 OA
ENDBRANCH   9  10
ENDBRANCH   8   9
ENDBRANCH   7   8
ENDBRANCH   6   7
ENDBRANCH   5   6
ENDBRANCH   4   5
ENDBRANCH   3   4
ENDBRANCH   1   3
BRANCH   2  13
ATOM     13  C   UNL     1     -10.049 -35.725   1.193  1.00  0.00     0.027 C 
BRANCH  13  14
ATOM     14  C   UNL     1      -9.722 -35.969  -0.291  1.00  0.00     0.004 C 
BRANCH  14  15
ATOM     15  C   UNL     1     -10.960 -36.124  -1.193  1.00  0.00     0.000 C 
BRANCH  15  16
ATOM     16  C   UNL     1     -11.104 -34.973  -2.204  1.00  0.00     0.000 C 
BRANCH  16  17
ATOM     17  C   UNL     1     -10.670 -35.374  -3.623  1.00  0.00    -0.000 C 
BRANCH  17  18
ATOM     18  C   UNL     1     -10.666 -34.182  -4.597  1.00  0.00    -0.000 C 
BRANCH  18  19
ATOM     19  C   UNL     1     -10.132 -32.895  -3.949  1.00  0.00    -0.003 C 
ATOM     20  C   UNL     1     -11.029 -32.382  -2.823  1.00  0.00     0.004 C 
ENDBRANCH  18  19
ENDBRANCH  17  18
ENDBRANCH  16  17
ENDBRANCH  15  16
ENDBRANCH  14  15
ENDBRANCH  13  14
ENDBRANCH   2  13
TORSDOF 15
ENDMDL
MODEL 2
REMARK VINA RESULT:    -1.552      1.259      1.590
REMARK INTER + INTRA:          -1.761
REMARK INTER:                  -1.580
REMARK INTRA:                  -0.181
REMARK UNBOUND:                 1.152
REMARK SMILES CCCCCCCCC=CCCCCCCCC(=O)[O-]
REMARK SMILES IDX 10 1 9 2 11 3 12 4 13 5 14 6 15 7 16 8 17 9 18 10 19 11
REMARK SMILES IDX 20 12 8 13 7 14 6 15 5 16 4 17 3 18 2 19 1 20
REMARK H PARENT
REMARK Flexibility Score: inf
ROOT
ATOM      1  C   UNL     1      -9.197 -34.030   2.322  1.00  0.00    -0.031 C 
ATOM      2  C   UNL     1      -8.393 -34.644   1.441  1.00  0.00    -0.031 C 
ENDROOT
BRANCH   1   3
ATOM      3  C   UNL     1      -8.728 -32.847   3.122  1.00  0.00     0.027 C 
BRANCH   3   4
ATOM      4  C   UNL     1      -7.510 -33.209   3.987  1.00  0.00     0.004 C 
BRANCH   4   5
ATOM      5  C   UNL     1      -7.907 -33.697   5.388  1.00  0.00     0.000 C 
BRANCH   5   6
ATOM      6  C   UNL     1      -7.481 -35.151   5.651  1.00  0.00     0.000 C 
BRANCH   6   7
ATOM      7  C   UNL     1      -8.673 -36.125   5.697  1.00  0.00     0.000 C 
BRANCH   7   8
ATOM      8  C   UNL     1      -9.722 -35.919   4.586  1.00  0.00     0.006 C 
BRANCH   8   9
ATOM      9  C   UNL     1     -10.958 -35.114   5.016  1.00  0.00     0.053 C 
BRANCH   9  10
ATOM     10  C   UNL     1     -10.953 -34.818   6.484  1.00  0.00     0.041 C 
ATOM     11  O   UNL     1     -11.063 -33.632   6.892  1.00  0.00    -0.550 OA
ATOM     12  O   UNL     1     -10.790 -35.849   7.401  1.00  0.00    -0.550 OA
ENDBRANCH   9  10
ENDBRANCH   8   9
ENDBRANCH   7   8
ENDBRANCH   6   7
ENDBRANCH   5   6
ENDBRANCH   4   5
ENDBRANCH   3   4
ENDBRANCH   1   3
BRANCH   2  13
ATOM     13  C   UNL     1      -8.867 -35.815   0.623  1.00  0.00     0.027 C 
BRANCH  13  14
ATOM     14  C   UNL     1     -10.382 -36.053   0.750  1.00  0.00     0.004 C 
BRANCH  14  15
ATOM     15  C   UNL     1     -11.125 -36.125  -0.597  1.00  0.00     0.000 C 
BRANCH  15  16
ATOM     16  C   UNL     1     -10.206 -35.837  -1.797  1.00  0.00     0.000 C 
BRANCH  16  17
ATOM     17  C   UNL     1     -10.937 -35.126  -2.946  1.00  0.00    -0.000 C 
BRANCH  17  18
ATOM     18  C   UNL     1     -11.085 -33.613  -2.705  1.00  0.00    -0.000 C 
BRANCH  18  19
ATOM     19  C   UNL     1     -10.307 -32.776  -3.732  1.00  0.00    -0.003 C 
ATOM     20  C   UNL     1     -10.481 -31.272  -3.525  1.00  0.00     0.004 C 
ENDBRANCH  18  19
ENDBRANCH  17  18
ENDBRANCH  16  17
ENDBRANCH  15  16
ENDBRANCH  14  15
ENDBRANCH  13  14
ENDBRANCH   2  13
TORSDOF 15
ENDMDL
MODEL 3
REMARK VINA RESULT:    -1.209      1.873      2.654
REMARK INTER + INTRA:          -1.118
REMARK INTER:                  -0.972
REMARK INTRA:                  -0.145
REMARK UNBOUND:                 1.152
REMARK SMILES CCCCCCCCC=CCCCCCCCC(=O)[O-]
REMARK SMILES IDX 10 1 9 2 11 3 12 4 13 5 14 6 15 7 16 8 17 9 18 10 19 11
REMARK SMILES IDX 20 12 8 13 7 14 6 15 5 16 4 17 3 18 2 19 1 20
REMARK H PARENT
REMARK Flexibility Score: inf
ROOT
ATOM      1  C   UNL     1      -8.559 -33.744   2.503  1.00  0.00    -0.031 C 
ATOM      2  C   UNL     1      -9.767 -34.303   2.335  1.00  0.00    -0.031 C 
ENDROOT
BRANCH   1   3
ATOM      3  C   UNL     1      -8.108 -33.234   3.844  1.00  0.00     0.027 C 
BRANCH   3   4
ATOM      4  C   UNL     1      -9.192 -32.363   4.499  1.00  0.00     0.004 C 
BRANCH   4   5
ATOM      5  C   UNL     1      -9.680 -32.939   5.837  1.00  0.00     0.000 C 
BRANCH   5   6
ATOM      6  C   UNL     1     -11.059 -33.612   5.725  1.00  0.00     0.000 C 
BRANCH   6   7
ATOM      7  C   UNL     1     -11.107 -34.993   6.403  1.00  0.00     0.000 C 
BRANCH   7   8
ATOM      8  C   UNL     1      -9.774 -35.768   6.394  1.00  0.00     0.006 C 
BRANCH   8   9
ATOM      9  C   UNL     1      -9.251 -36.122   4.993  1.00  0.00     0.053 C 
BRANCH   9  10
ATOM     10  C   UNL     1      -7.756 -36.083   4.925  1.00  0.00     0.041 C 
ATOM     11  O   UNL     1      -7.171 -36.124   3.810  1.00  0.00    -0.550 OA
ATOM     12  O   UNL     1      -7.007 -36.037   6.094  1.00  0.00    -0.550 OA
ENDBRANCH   9  10
ENDBRANCH   8   9
ENDBRANCH   7   8
ENDBRANCH   6   7
ENDBRANCH   5   6
ENDBRANCH   4   5
ENDBRANCH   3   4
ENDBRANCH   1   3
BRANCH   2  13
ATOM     13  C   UNL     1     -10.212 -34.834   1.000  1.00  0.00     0.027 C 
BRANCH  13  14
ATOM     14  C   UNL     1      -9.182 -35.786   0.367  1.00  0.00     0.004 C 
BRANCH  14  15
ATOM     15  C   UNL     1      -9.417 -36.067  -1.129  1.00  0.00     0.000 C 
BRANCH  15  16
ATOM     16  C   UNL     1     -10.899 -35.950  -1.528  1.00  0.00     0.000 C 
BRANCH  16  17
ATOM     17  C   UNL     1     -11.117 -35.015  -2.728  1.00  0.00    -0.000 C 
BRANCH  17  18
ATOM     18  C   UNL     1     -11.027 -33.528  -2.341  1.00  0.00    -0.000 C 
BRANCH  18  19
ATOM     19  C   UNL     1     -10.743 -32.623  -3.550  1.00  0.00    -0.003 C 
ATOM     20  C   UNL     1     -10.022 -33.354  -4.682  1.00  0.00     0.004 C 
ENDBRANCH  18  19
ENDBRANCH  17  18
ENDBRANCH  16  17
ENDBRANCH  15  16
ENDBRANCH  14  15
ENDBRANCH  13  14
ENDBRANCH   2  13
TORSDOF 15
ENDMDL
MODEL 4
REMARK VINA RESULT:    -1.175      1.381      2.012
REMARK INTER + INTRA:          -1.053
REMARK INTER:                  -1.380
REMARK INTRA:                   0.327
REMARK UNBOUND:                 1.152
REMARK SMILES CCCCCCCCC=CCCCCCCCC(=O)[O-]
REMARK SMILES IDX 10 1 9 2 11 3 12 4 13 5 14 6 15 7 16 8 17 9 18 10 19 11
REMARK SMILES IDX 20 12 8 13 7 14 6 15 5 16 4 17 3 18 2 19 1 20
REMARK H PARENT
REMARK Flexibility Score: inf
ROOT
ATOM      1  C   UNL     1      -7.669 -36.022   2.940  1.00  0.00    -0.031 C 
ATOM      2  C   UNL     1      -8.341 -35.372   1.978  1.00  0.00    -0.031 C 
ENDROOT
BRANCH   1   3
ATOM      3  C   UNL     1      -7.077 -35.292   4.115  1.00  0.00     0.027 C 
BRANCH   3   4
ATOM      4  C   UNL     1      -7.916 -35.510   5.384  1.00  0.00     0.004 C 
BRANCH   4   5
ATOM      5  C   UNL     1      -9.292 -36.123   5.081  1.00  0.00     0.000 C 
BRANCH   5   6
ATOM      6  C   UNL     1     -10.253 -36.038   6.280  1.00  0.00     0.000 C 
BRANCH   6   7
ATOM      7  C   UNL     1     -10.642 -34.591   6.632  1.00  0.00     0.000 C 
BRANCH   7   8
ATOM      8  C   UNL     1      -9.709 -33.508   6.055  1.00  0.00     0.006 C 
BRANCH   8   9
ATOM      9  C   UNL     1     -10.378 -32.562   5.045  1.00  0.00     0.053 C 
BRANCH   9  10
ATOM     10  C   UNL     1     -10.183 -33.020   3.632  1.00  0.00     0.041 C 
ATOM     11  O   UNL     1     -11.125 -33.581   3.012  1.00  0.00    -0.550 OA
ATOM     12  O   UNL     1      -8.951 -32.859   3.013  1.00  0.00    -0.550 OA
ENDBRANCH   9  10
ENDBRANCH   8   9
ENDBRANCH   7   8
ENDBRANCH   6   7
ENDBRANCH   5   6
ENDBRANCH   4   5
ENDBRANCH   3   4
ENDBRANCH   1   3
BRANCH   2  13
ATOM     13  C   UNL     1      -8.953 -36.102   0.812  1.00  0.00     0.027 C 
BRANCH  13  14
ATOM     14  C   UNL     1     -10.463 -35.841   0.675  1.00  0.00     0.004 C 
BRANCH  14  15
ATOM     15  C   UNL     1     -11.028 -36.124  -0.729  1.00  0.00     0.000 C 
BRANCH  15  16
ATOM     16  C   UNL     1     -10.948 -34.900  -1.658  1.00  0.00     0.000 C 
BRANCH  16  17
ATOM     17  C   UNL     1     -10.629 -35.280  -3.112  1.00  0.00    -0.000 C 
BRANCH  17  18
ATOM     18  C   UNL     1     -10.346 -34.050  -3.994  1.00  0.00    -0.000 C 
BRANCH  18  19
ATOM     19  C   UNL     1     -10.726 -32.731  -3.303  1.00  0.00    -0.003 C 
ATOM     20  C   UNL     1     -10.322 -31.500  -4.113  1.00  0.00     0.004 C 
ENDBRANCH  18  19
ENDBRANCH  17  18
ENDBRANCH  16  17
ENDBRANCH  15  16
ENDBRANCH  14  15
ENDBRANCH  13  14
ENDBRANCH   2  13
TORSDOF 15
ENDMDL
MODEL 5
REMARK VINA RESULT:    -0.378      3.050      7.077
REMARK INTER + INTRA:           0.442
REMARK INTER:                  -0.509
REMARK INTRA:                   0.951
REMARK UNBOUND:                 1.152
REMARK SMILES CCCCCCCCC=CCCCCCCCC(=O)[O-]
REMARK SMILES IDX 10 1 9 2 11 3 12 4 13 5 14 6 15 7 16 8 17 9 18 10 19 11
REMARK SMILES IDX 20 12 8 13 7 14 6 15 5 16 4 17 3 18 2 19 1 20
REMARK H PARENT
REMARK Flexibility Score: inf
ROOT
ATOM      1  C   UNL     1      -9.511 -32.605   3.521  1.00  0.00    -0.031 C 
ATOM      2  C   UNL     1     -10.642 -32.515   4.237  1.00  0.00    -0.031 C 
ENDROOT
BRANCH   1   3
ATOM      3  C   UNL     1      -9.522 -33.060   2.088  1.00  0.00     0.027 C 
BRANCH   3   4
ATOM      4  C   UNL     1      -8.384 -34.055   1.812  1.00  0.00     0.004 C 
BRANCH   4   5
ATOM      5  C   UNL     1      -8.761 -35.102   0.753  1.00  0.00     0.000 C 
BRANCH   5   6
ATOM      6  C   UNL     1      -9.799 -36.115   1.266  1.00  0.00     0.000 C 
BRANCH   6   7
ATOM      7  C   UNL     1     -11.102 -36.102   0.446  1.00  0.00     0.000 C 
BRANCH   7   8
ATOM      8  C   UNL     1     -10.929 -35.748  -1.045  1.00  0.00     0.006 C 
BRANCH   8   9
ATOM      9  C   UNL     1     -11.123 -34.260  -1.375  1.00  0.00     0.053 C 
BRANCH   9  10
ATOM     10  C   UNL     1     -10.862 -33.966  -2.820  1.00  0.00     0.041 C 
ATOM     11  O   UNL     1     -10.628 -32.786  -3.194  1.00  0.00    -0.550 OA
ATOM     12  O   UNL     1     -10.910 -34.989  -3.758  1.00  0.00    -0.550 OA
ENDBRANCH   9  10
ENDBRANCH   8   9
ENDBRANCH   7   8
ENDBRANCH   6   7
ENDBRANCH   5   6
ENDBRANCH   4   5
ENDBRANCH   3   4
ENDBRANCH   1   3
BRANCH   2  13
ATOM     13  C   UNL     1     -10.638 -32.041   5.665  1.00  0.00     0.027 C 
BRANCH  13  14
ATOM     14  C   UNL     1      -9.740 -32.901   6.572  1.00  0.00     0.004 C 
BRANCH  14  15
ATOM     15  C   UNL     1     -10.077 -34.403   6.551  1.00  0.00     0.000 C 
BRANCH  15  16
ATOM     16  C   UNL     1     -11.124 -34.761   5.483  1.00  0.00     0.000 C 
BRANCH  16  17
ATOM     17  C   UNL     1     -10.792 -36.064   4.740  1.00  0.00    -0.000 C 
BRANCH  17  18
ATOM     18  C   UNL     1      -9.323 -36.123   4.281  1.00  0.00    -0.000 C 
BRANCH  18  19
ATOM     19  C   UNL     1      -8.337 -35.916   5.441  1.00  0.00    -0.003 C 
ATOM     20  C   UNL     1      -6.892 -35.756   4.968  1.00  0.00     0.004 C 
ENDBRANCH  18  19
ENDBRANCH  17  18
ENDBRANCH  16  17
ENDBRANCH  15  16
ENDBRANCH  14  15
ENDBRANCH  13  14
ENDBRANCH   2  13
TORSDOF 15
ENDMDL
MODEL 6
REMARK VINA RESULT:     0.108      2.675      8.032
REMARK INTER + INTRA:           1.355
REMARK INTER:                   0.436
REMARK INTRA:                   0.918
REMARK UNBOUND:                 1.152
REMARK SMILES CCCCCCCCC=CCCCCCCCC(=O)[O-]
REMARK SMILES IDX 10 1 9 2 11 3 12 4 13 5 14 6 15 7 16 8 17 9 18 10 19 11
REMARK SMILES IDX 20 12 8 13 7 14 6 15 5 16 4 17 3 18 2 19 1 20
REMARK H PARENT
REMARK Flexibility Score: inf
ROOT
ATOM      1  C   UNL     1      -8.748 -35.206   2.285  1.00  0.00    -0.031 C 
ATOM      2  C   UNL     1      -9.114 -36.108   3.209  1.00  0.00    -0.031 C 
ENDROOT
BRANCH   1   3
ATOM      3  C   UNL     1      -9.220 -35.305   0.861  1.00  0.00     0.027 C 
BRANCH   3   4
ATOM      4  C   UNL     1     -10.516 -36.125   0.761  1.00  0.00     0.004 C 
BRANCH   4   5
ATOM      5  C   UNL     1     -11.125 -36.092  -0.649  1.00  0.00     0.000 C 
BRANCH   5   6
ATOM      6  C   UNL     1     -10.061 -35.936  -1.750  1.00  0.00     0.000 C 
BRANCH   6   7
ATOM      7  C   UNL     1     -10.646 -36.064  -3.168  1.00  0.00     0.000 C 
BRANCH   7   8
ATOM      8  C   UNL     1     -10.002 -35.141  -4.223  1.00  0.00     0.006 C 
BRANCH   8   9
ATOM      9  C   UNL     1     -10.822 -33.885  -4.557  1.00  0.00     0.053 C 
BRANCH   9  10
ATOM     10  C   UNL     1     -10.622 -32.798  -3.547  1.00  0.00     0.041 C 
ATOM     11  O   UNL     1     -10.192 -31.670  -3.907  1.00  0.00    -0.550 OA
ATOM     12  O   UNL     1     -10.875 -33.042  -2.204  1.00  0.00    -0.550 OA
ENDBRANCH   9  10
ENDBRANCH   8   9
ENDBRANCH   7   8
ENDBRANCH   6   7
ENDBRANCH   5   6
ENDBRANCH   4   5
ENDBRANCH   3   4
ENDBRANCH   1   3
BRANCH   2  13
ATOM     13  C   UNL     1      -8.661 -36.000   4.640  1.00  0.00     0.027 C 
BRANCH  13  14
ATOM     14  C   UNL     1      -7.426 -35.097   4.805  1.00  0.00     0.004 C 
BRANCH  14  15
ATOM     15  C   UNL     1      -7.744 -33.590   4.817  1.00  0.00     0.000 C 
BRANCH  15  16
ATOM     16  C   UNL     1      -8.884 -33.233   5.785  1.00  0.00     0.000 C 
BRANCH  16  17
ATOM     17  C   UNL     1     -10.272 -33.555   5.210  1.00  0.00    -0.000 C 
BRANCH  17  18
ATOM     18  C   UNL     1     -11.123 -34.410   6.167  1.00  0.00    -0.000 C 
BRANCH  18  19
ATOM     19  C   UNL     1     -10.299 -35.497   6.874  1.00  0.00    -0.003 C 
ATOM     20  C   UNL     1     -10.980 -36.033   8.133  1.00  0.00     0.004 C 
ENDBRANCH  18  19
ENDBRANCH  17  18
ENDBRANCH  16  17
ENDBRANCH  15  16
ENDBRANCH  14  15
ENDBRANCH  13  14
ENDBRANCH   2  13
TORSDOF 15
ENDMDL
MODEL 7
REMARK VINA RESULT:     0.346      2.001      3.523
REMARK INTER + INTRA:           1.801
REMARK INTER:                   0.006
REMARK INTRA:                   1.795
REMARK UNBOUND:                 1.152
REMARK SMILES CCCCCCCCC=CCCCCCCCC(=O)[O-]
REMARK SMILES IDX 10 1 9 2 11 3 12 4 13 5 14 6 15 7 16 8 17 9 18 10 19 11
REMARK SMILES IDX 20 12 8 13 7 14 6 15 5 16 4 17 3 18 2 19 1 20
REMARK H PARENT
REMARK Flexibility Score: inf
ROOT
ATOM      1  C   UNL     1     -11.120 -35.999   4.821  1.00  0.00    -0.031 C 
ATOM      2  C   UNL     1     -10.660 -35.539   3.648  1.00  0.00    -0.031 C 
ENDROOT
BRANCH   1   3
ATOM      3  C   UNL     1     -10.681 -35.398   6.128  1.00  0.00     0.027 C 
BRANCH   3   4
ATOM      4  C   UNL     1      -9.966 -34.055   5.908  1.00  0.00     0.004 C 
BRANCH   4   5
ATOM      5  C   UNL     1      -9.283 -33.970   4.535  1.00  0.00     0.000 C 
BRANCH   5   6
ATOM      6  C   UNL     1      -7.826 -33.483   4.628  1.00  0.00     0.000 C 
BRANCH   6   7
ATOM      7  C   UNL     1      -6.812 -34.640   4.673  1.00  0.00     0.000 C 
BRANCH   7   8
ATOM      8  C   UNL     1      -7.281 -35.943   3.993  1.00  0.00     0.006 C 
BRANCH   8   9
ATOM      9  C   UNL     1      -6.783 -36.125   2.551  1.00  0.00     0.053 C 
BRANCH   9  10
ATOM     10  C   UNL     1      -7.574 -35.309   1.576  1.00  0.00     0.041 C 
ATOM     11  O   UNL     1      -7.873 -34.116   1.845  1.00  0.00    -0.550 OA
ATOM     12  O   UNL     1      -8.010 -35.876   0.386  1.00  0.00    -0.550 OA
ENDBRANCH   9  10
ENDBRANCH   8   9
ENDBRANCH   7   8
ENDBRANCH   6   7
ENDBRANCH   5   6
ENDBRANCH   4   5
ENDBRANCH   3   4
ENDBRANCH   1   3
BRANCH   2  13
ATOM     13  C   UNL     1     -11.114 -36.124   2.338  1.00  0.00     0.027 C 
BRANCH  13  14
ATOM     14  C   UNL     1     -11.118 -35.092   1.196  1.00  0.00     0.004 C 
BRANCH  14  15
ATOM     15  C   UNL     1     -10.812 -35.685  -0.192  1.00  0.00     0.000 C 
BRANCH  15  16
ATOM     16  C   UNL     1     -10.816 -34.622  -1.304  1.00  0.00     0.000 C 
BRANCH  16  17
ATOM     17  C   UNL     1     -10.671 -35.232  -2.707  1.00  0.00    -0.000 C 
BRANCH  17  18
ATOM     18  C   UNL     1     -10.672 -34.165  -3.816  1.00  0.00    -0.000 C 
BRANCH  18  19
ATOM     19  C   UNL     1     -10.740 -32.735  -3.257  1.00  0.00    -0.003 C 
ATOM     20  C   UNL     1     -10.286 -31.681  -4.267  1.00  0.00     0.004 C 
ENDBRANCH  18  19
ENDBRANCH  17  18
ENDBRANCH  16  17
ENDBRANCH  15  16
ENDBRANCH  14  15
ENDBRANCH  13  14
ENDBRANCH   2  13
TORSDOF 15
ENDMDL
MODEL 8
REMARK VINA RESULT:     0.371      1.812      3.075
REMARK INTER + INTRA:           1.848
REMARK INTER:                   0.583
REMARK INTRA:                   1.265
REMARK UNBOUND:                 1.152
REMARK SMILES CCCCCCCCC=CCCCCCCCC(=O)[O-]
REMARK SMILES IDX 10 1 9 2 11 3 12 4 13 5 14 6 15 7 16 8 17 9 18 10 19 11
REMARK SMILES IDX 20 12 8 13 7 14 6 15 5 16 4 17 3 18 2 19 1 20
REMARK H PARENT
REMARK Flexibility Score: inf
ROOT
ATOM      1  C   UNL     1      -7.594 -35.880   3.861  1.00  0.00    -0.031 C 
ATOM      2  C   UNL     1      -7.341 -35.327   2.665  1.00  0.00    -0.031 C 
ENDROOT
BRANCH   1   3
ATOM      3  C   UNL     1      -7.443 -35.099   5.137  1.00  0.00     0.027 C 
BRANCH   3   4
ATOM      4  C   UNL     1      -8.494 -35.522   6.175  1.00  0.00     0.004 C 
BRANCH   4   5
ATOM      5  C   UNL     1      -9.787 -36.038   5.526  1.00  0.00     0.000 C 
BRANCH   5   6
ATOM      6  C   UNL     1     -11.003 -35.149   5.840  1.00  0.00     0.000 C 
BRANCH   6   7
ATOM      7  C   UNL     1     -10.915 -33.761   5.180  1.00  0.00     0.000 C 
BRANCH   7   8
ATOM      8  C   UNL     1     -10.026 -33.695   3.922  1.00  0.00     0.006 C 
BRANCH   8   9
ATOM      9  C   UNL     1      -9.389 -32.320   3.662  1.00  0.00     0.053 C 
BRANCH   9  10
ATOM     10  C   UNL     1      -8.076 -32.435   2.952  1.00  0.00     0.041 C 
ATOM     11  O   UNL     1      -7.001 -32.460   3.609  1.00  0.00    -0.550 OA
ATOM     12  O   UNL     1      -8.036 -32.478   1.565  1.00  0.00    -0.550 OA
ENDBRANCH   9  10
ENDBRANCH   8   9
ENDBRANCH   7   8
ENDBRANCH   6   7
ENDBRANCH   5   6
ENDBRANCH   4   5
ENDBRANCH   3   4
ENDBRANCH   1   3
BRANCH   2  13
ATOM     13  C   UNL     1      -7.511 -36.100   1.385  1.00  0.00     0.027 C 
BRANCH  13  14
ATOM     14  C   UNL     1      -8.576 -35.486   0.459  1.00  0.00     0.004 C 
BRANCH  14  15
ATOM     15  C   UNL     1      -9.778 -34.871   1.200  1.00  0.00     0.000 C 
BRANCH  15  16
ATOM     16  C   UNL     1     -11.125 -35.247   0.558  1.00  0.00     0.000 C 
BRANCH  16  17
ATOM     17  C   UNL     1     -10.961 -36.117  -0.698  1.00  0.00    -0.000 C 
BRANCH  17  18
ATOM     18  C   UNL     1     -11.033 -35.295  -1.998  1.00  0.00    -0.000 C 
BRANCH  18  19
ATOM     19  C   UNL     1     -10.881 -33.786  -1.749  1.00  0.00    -0.003 C 
ATOM     20  C   UNL     1     -10.405 -33.026  -2.986  1.00  0.00     0.004 C 
ENDBRANCH  18  19
ENDBRANCH  17  18
ENDBRANCH  16  17
ENDBRANCH  15  16
ENDBRANCH  14  15
ENDBRANCH  13  14
ENDBRANCH   2  13
TORSDOF 15
ENDMDL
