MODEL 1
REMARK VINA RESULT:    -3.645      0.000      0.000
REMARK INTER + INTRA:          -6.862
REMARK INTER:                  -6.202
REMARK INTRA:                  -0.660
REMARK UNBOUND:                -0.660
REMARK SMILES CCCCCCCCCCCCCC(=O)[O-]
REMARK SMILES IDX 8 1 9 2 10 3 11 4 12 5 13 6 14 7 15 8 16 9 7 10 6 11 5 12
REMARK SMILES IDX 4 13 3 14 2 15 1 16
REMARK H PARENT
REMARK Flexibility Score: inf
ROOT
ATOM      1  C   UNL     1      -3.414   0.505  -0.426  1.00  0.00     0.000 C 
ENDROOT
BRANCH   1   2
ATOM      2  C   UNL     1      -4.189  -0.688  -1.012  1.00  0.00     0.000 C 
BRANCH   2   3
ATOM      3  C   UNL     1      -3.278  -1.628  -1.833  1.00  0.00     0.000 C 
BRANCH   3   4
ATOM      4  C   UNL     1      -4.048  -2.706  -2.619  1.00  0.00     0.000 C 
BRANCH   4   5
ATOM      5  C   UNL     1      -4.062  -4.097  -1.963  1.00  0.00     0.006 C 
BRANCH   5   6
ATOM      6  C   UNL     1      -3.589  -4.070  -0.503  1.00  0.00     0.053 C 
BRANCH   6   7
ATOM      7  C   UNL     1      -4.685  -4.524   0.407  1.00  0.00     0.041 C 
ATOM      8  O   UNL     1      -5.151  -3.742   1.277  1.00  0.00    -0.550 OA
ATOM      9  O   UNL     1      -5.160  -5.828   0.329  1.00  0.00    -0.550 OA
ENDBRANCH   6   7
ENDBRANCH   5   6
ENDBRANCH   4   5
ENDBRANCH   3   4
ENDBRANCH   2   3
ENDBRANCH   1   2
BRANCH   1  10
ATOM     10  C   UNL     1      -4.278   1.367   0.509  1.00  0.00     0.000 C 
BRANCH  10  11
ATOM     11  C   UNL     1      -3.805   2.831   0.563  1.00  0.00    -0.000 C 
BRANCH  11  12
ATOM     12  C   UNL     1      -2.646   3.113  -0.405  1.00  0.00    -0.000 C 
BRANCH  12  13
ATOM     13  C   UNL     1      -2.856   4.400  -1.218  1.00  0.00    -0.000 C 
BRANCH  13  14
ATOM     14  C   UNL     1      -3.339   5.545  -0.317  1.00  0.00    -0.000 C 
BRANCH  14  15
ATOM     15  C   UNL     1      -2.181   6.290   0.364  1.00  0.00    -0.003 C 
ATOM     16  C   UNL     1      -2.050   5.951   1.849  1.00  0.00     0.004 C 
ENDBRANCH  14  15
ENDBRANCH  13  14
ENDBRANCH  12  13
ENDBRANCH  11  12
ENDBRANCH  10  11
ENDBRANCH   1  10
TORSDOF 12
ENDMDL
MODEL 2
REMARK VINA RESULT:    -3.507      0.961      1.936
REMARK INTER + INTRA:          -6.627
REMARK INTER:                  -5.729
REMARK INTRA:                  -0.898
REMARK UNBOUND:                -0.660
REMARK SMILES CCCCCCCCCCCCCC(=O)[O-]
REMARK SMILES IDX 8 1 9 2 10 3 11 4 12 5 13 6 14 7 15 8 16 9 7 10 6 11 5 12
REMARK SMILES IDX 4 13 3 14 2 15 1 16
REMARK H PARENT
REMARK Flexibility Score: inf
ROOT
ATOM      1  C   UNL     1      -2.784   0.903  -0.001  1.00  0.00     0.000 C 
ENDROOT
BRANCH   1   2
ATOM      2  C   UNL     1      -2.873  -0.030  -1.222  1.00  0.00     0.000 C 
BRANCH   2   3
ATOM      3  C   UNL     1      -4.033  -1.042  -1.098  1.00  0.00     0.000 C 
BRANCH   3   4
ATOM      4  C   UNL     1      -4.194  -1.952  -2.331  1.00  0.00     0.000 C 
BRANCH   4   5
ATOM      5  C   UNL     1      -3.875  -3.437  -2.084  1.00  0.00     0.006 C 
BRANCH   5   6
ATOM      6  C   UNL     1      -3.433  -3.717  -0.640  1.00  0.00     0.053 C 
BRANCH   6   7
ATOM      7  C   UNL     1      -4.522  -4.414   0.110  1.00  0.00     0.041 C 
ATOM      8  O   UNL     1      -5.022  -3.885   1.139  1.00  0.00    -0.550 OA
ATOM      9  O   UNL     1      -4.953  -5.670  -0.296  1.00  0.00    -0.550 OA
ENDBRANCH   6   7
ENDBRANCH   5   6
ENDBRANCH   4   5
ENDBRANCH   3   4
ENDBRANCH   2   3
ENDBRANCH   1   2
BRANCH   1  10
ATOM     10  C   UNL     1      -4.158   1.441   0.430  1.00  0.00     0.000 C 
BRANCH  10  11
ATOM     11  C   UNL     1      -4.120   2.939   0.780  1.00  0.00    -0.000 C 
BRANCH  11  12
ATOM     12  C   UNL     1      -2.816   3.617   0.330  1.00  0.00    -0.000 C 
BRANCH  12  13
ATOM     13  C   UNL     1      -3.017   5.094  -0.044  1.00  0.00    -0.000 C 
BRANCH  13  14
ATOM     14  C   UNL     1      -3.093   5.269  -1.567  1.00  0.00    -0.000 C 
BRANCH  14  15
ATOM     15  C   UNL     1      -2.739   3.982  -2.328  1.00  0.00    -0.003 C 
ATOM     16  C   UNL     1      -2.768   4.163  -3.845  1.00  0.00     0.004 C 
ENDBRANCH  14  15
ENDBRANCH  13  14
ENDBRANCH  12  13
ENDBRANCH  11  12
ENDBRANCH  10  11
ENDBRANCH   1  10
TORSDOF 12
ENDMDL
MODEL 3
REMARK VINA RESULT:    -3.202      3.931      8.263
REMARK INTER + INTRA:          -6.108
REMARK INTER:                  -5.524
REMARK INTRA:                  -0.584
REMARK UNBOUND:                -0.660
REMARK SMILES CCCCCCCCCCCCCC(=O)[O-]
REMARK SMILES IDX 8 1 9 2 10 3 11 4 12 5 13 6 14 7 15 8 16 9 7 10 6 11 5 12
REMARK SMILES IDX 4 13 3 14 2 15 1 16
REMARK H PARENT
REMARK Flexibility Score: inf
ROOT
ATOM      1  C   UNL     1      -3.312   0.552  -0.391  1.00  0.00     0.000 C 
ENDROOT
BRANCH   1   2
ATOM      2  C   UNL     1      -4.119   1.378   0.626  1.00  0.00     0.000 C 
BRANCH   2   3
ATOM      3  C   UNL     1      -3.920   2.898   0.430  1.00  0.00     0.000 C 
BRANCH   3   4
ATOM      4  C   UNL     1      -2.644   3.259  -0.356  1.00  0.00     0.000 C 
BRANCH   4   5
ATOM      5  C   UNL     1      -2.647   4.664  -0.981  1.00  0.00     0.006 C 
BRANCH   5   6
ATOM      6  C   UNL     1      -3.210   5.734  -0.035  1.00  0.00     0.053 C 
BRANCH   6   7
ATOM      7  C   UNL     1      -2.216   6.058   1.034  1.00  0.00     0.041 C 
ATOM      8  O   UNL     1      -2.458   5.761   2.235  1.00  0.00    -0.550 OA
ATOM      9  O   UNL     1      -1.044   6.732   0.714  1.00  0.00    -0.550 OA
ENDBRANCH   6   7
ENDBRANCH   5   6
ENDBRANCH   4   5
ENDBRANCH   3   4
ENDBRANCH   2   3
ENDBRANCH   1   2
BRANCH   1  10
ATOM     10  C   UNL     1      -4.147  -0.565  -1.038  1.00  0.00     0.000 C 
BRANCH  10  11
ATOM     11  C   UNL     1      -3.718  -0.856  -2.487  1.00  0.00    -0.000 C 
BRANCH  11  12
ATOM     12  C   UNL     1      -3.042  -2.227  -2.639  1.00  0.00    -0.000 C 
BRANCH  12  13
ATOM     13  C   UNL     1      -4.045  -3.350  -2.944  1.00  0.00    -0.000 C 
BRANCH  13  14
ATOM     14  C   UNL     1      -4.049  -4.401  -1.825  1.00  0.00    -0.000 C 
BRANCH  14  15
ATOM     15  C   UNL     1      -3.732  -3.798  -0.447  1.00  0.00    -0.003 C 
ATOM     16  C   UNL     1      -4.579  -4.402   0.673  1.00  0.00     0.004 C 
ENDBRANCH  14  15
ENDBRANCH  13  14
ENDBRANCH  12  13
ENDBRANCH  11  12
ENDBRANCH  10  11
ENDBRANCH   1  10
TORSDOF 12
ENDMDL
MODEL 4
REMARK VINA RESULT:    -3.142      3.887      7.946
REMARK INTER + INTRA:          -6.007
REMARK INTER:                  -5.265
REMARK INTRA:                  -0.741
REMARK UNBOUND:                -0.660
REMARK SMILES CCCCCCCCCCCCCC(=O)[O-]
REMARK SMILES IDX 8 1 9 2 10 3 11 4 12 5 13 6 14 7 15 8 16 9 7 10 6 11 5 12
REMARK SMILES IDX 4 13 3 14 2 15 1 16
REMARK H PARENT
REMARK Flexibility Score: inf
ROOT
ATOM      1  C   UNL     1      -4.422   1.641   1.003  1.00  0.00     0.000 C 
ENDROOT
BRANCH   1   2
ATOM      2  C   UNL     1      -4.289   3.174   0.977  1.00  0.00     0.000 C 
BRANCH   2   3
ATOM      3  C   UNL     1      -2.825   3.628   0.786  1.00  0.00     0.000 C 
BRANCH   3   4
ATOM      4  C   UNL     1      -2.688   5.083   0.297  1.00  0.00     0.000 C 
BRANCH   4   5
ATOM      5  C   UNL     1      -3.091   5.313  -1.169  1.00  0.00     0.006 C 
BRANCH   5   6
ATOM      6  C   UNL     1      -2.781   4.107  -2.067  1.00  0.00     0.053 C 
BRANCH   6   7
ATOM      7  C   UNL     1      -2.992   4.461  -3.504  1.00  0.00     0.041 C 
ATOM      8  O   UNL     1      -2.194   4.041  -4.383  1.00  0.00    -0.550 OA
ATOM      9  O   UNL     1      -4.042   5.295  -3.868  1.00  0.00    -0.550 OA
ENDBRANCH   6   7
ENDBRANCH   5   6
ENDBRANCH   4   5
ENDBRANCH   3   4
ENDBRANCH   2   3
ENDBRANCH   1   2
BRANCH   1  10
ATOM     10  C   UNL     1      -3.520   0.954  -0.035  1.00  0.00     0.000 C 
BRANCH  10  11
ATOM     11  C   UNL     1      -4.307   0.019  -0.970  1.00  0.00    -0.000 C 
BRANCH  11  12
ATOM     12  C   UNL     1      -3.419  -1.056  -1.615  1.00  0.00    -0.000 C 
BRANCH  12  13
ATOM     13  C   UNL     1      -4.219  -2.040  -2.483  1.00  0.00    -0.000 C 
BRANCH  13  14
ATOM     14  C   UNL     1      -3.985  -3.488  -2.028  1.00  0.00    -0.000 C 
BRANCH  14  15
ATOM     15  C   UNL     1      -3.557  -3.582  -0.556  1.00  0.00    -0.003 C 
ATOM     16  C   UNL     1      -4.477  -4.480   0.272  1.00  0.00     0.004 C 
ENDBRANCH  14  15
ENDBRANCH  13  14
ENDBRANCH  12  13
ENDBRANCH  11  12
ENDBRANCH  10  11
ENDBRANCH   1  10
TORSDOF 12
ENDMDL
MODEL 5
REMARK VINA RESULT:    -3.075      7.303      9.774
REMARK INTER + INTRA:          -5.893
REMARK INTER:                  -5.170
REMARK INTRA:                  -0.723
REMARK UNBOUND:                -0.660
REMARK SMILES CCCCCCCCCCCCCC(=O)[O-]
REMARK SMILES IDX 8 1 9 2 10 3 11 4 12 5 13 6 14 7 15 8 16 9 7 10 6 11 5 12
REMARK SMILES IDX 4 13 3 14 2 15 1 16
REMARK H PARENT
REMARK Flexibility Score: inf
ROOT
ATOM      1  C   UNL     1      -4.956   5.531  -3.123  1.00  0.00     0.000 C 
ENDROOT
BRANCH   1   2
ATOM      2  C   UNL     1      -5.628   6.446  -4.161  1.00  0.00     0.000 C 
BRANCH   2   3
ATOM      3  C   UNL     1      -5.928   5.705  -5.483  1.00  0.00     0.000 C 
BRANCH   3   4
ATOM      4  C   UNL     1      -7.281   6.087  -6.113  1.00  0.00     0.000 C 
BRANCH   4   5
ATOM      5  C   UNL     1      -7.304   6.076  -7.651  1.00  0.00     0.006 C 
BRANCH   5   6
ATOM      6  C   UNL     1      -7.798   7.401  -8.248  1.00  0.00     0.053 C 
BRANCH   6   7
ATOM      7  C   UNL     1      -6.660   8.359  -8.398  1.00  0.00     0.041 C 
ATOM      8  O   UNL     1      -5.868   8.254  -9.371  1.00  0.00    -0.550 OA
ATOM      9  O   UNL     1      -6.443   9.339  -7.437  1.00  0.00    -0.550 OA
ENDBRANCH   6   7
ENDBRANCH   5   6
ENDBRANCH   4   5
ENDBRANCH   3   4
ENDBRANCH   2   3
ENDBRANCH   1   2
BRANCH   1  10
ATOM     10  C   UNL     1      -3.663   4.890  -3.652  1.00  0.00     0.000 C 
BRANCH  10  11
ATOM     11  C   UNL     1      -2.699   4.489  -2.520  1.00  0.00    -0.000 C 
BRANCH  11  12
ATOM     12  C   UNL     1      -3.012   5.206  -1.197  1.00  0.00    -0.000 C 
BRANCH  12  13
ATOM     13  C   UNL     1      -3.165   4.231  -0.020  1.00  0.00    -0.000 C 
BRANCH  13  14
ATOM     14  C   UNL     1      -2.581   2.854  -0.368  1.00  0.00    -0.000 C 
BRANCH  14  15
ATOM     15  C   UNL     1      -3.580   1.711  -0.130  1.00  0.00    -0.003 C 
ATOM     16  C   UNL     1      -4.457   1.937   1.101  1.00  0.00     0.004 C 
ENDBRANCH  14  15
ENDBRANCH  13  14
ENDBRANCH  12  13
ENDBRANCH  11  12
ENDBRANCH  10  11
ENDBRANCH   1  10
TORSDOF 12
ENDMDL
MODEL 6
REMARK VINA RESULT:    -2.992      2.247      3.654
REMARK INTER + INTRA:          -5.751
REMARK INTER:                  -4.893
REMARK INTRA:                  -0.858
REMARK UNBOUND:                -0.660
REMARK SMILES CCCCCCCCCCCCCC(=O)[O-]
REMARK SMILES IDX 8 1 9 2 10 3 11 4 12 5 13 6 14 7 15 8 16 9 7 10 6 11 5 12
REMARK SMILES IDX 4 13 3 14 2 15 1 16
REMARK H PARENT
REMARK Flexibility Score: inf
ROOT
ATOM      1  C   UNL     1      -4.005   2.930   0.812  1.00  0.00     0.000 C 
ENDROOT
BRANCH   1   2
ATOM      2  C   UNL     1      -4.141   1.461   0.372  1.00  0.00     0.000 C 
BRANCH   2   3
ATOM      3  C   UNL     1      -2.790   0.857  -0.070  1.00  0.00     0.000 C 
BRANCH   3   4
ATOM      4  C   UNL     1      -2.910  -0.138  -1.239  1.00  0.00     0.000 C 
BRANCH   4   5
ATOM      5  C   UNL     1      -4.109  -1.098  -1.150  1.00  0.00     0.006 C 
BRANCH   5   6
ATOM      6  C   UNL     1      -4.395  -1.815  -2.477  1.00  0.00     0.053 C 
BRANCH   6   7
ATOM      7  C   UNL     1      -3.809  -3.190  -2.461  1.00  0.00     0.041 C 
ATOM      8  O   UNL     1      -3.447  -3.737  -3.536  1.00  0.00    -0.550 OA
ATOM      9  O   UNL     1      -3.707  -3.890  -1.265  1.00  0.00    -0.550 OA
ENDBRANCH   6   7
ENDBRANCH   5   6
ENDBRANCH   4   5
ENDBRANCH   3   4
ENDBRANCH   2   3
ENDBRANCH   1   2
BRANCH   1  10
ATOM     10  C   UNL     1      -2.829   3.643   0.125  1.00  0.00     0.000 C 
BRANCH  10  11
ATOM     11  C   UNL     1      -3.121   5.130  -0.147  1.00  0.00    -0.000 C 
BRANCH  11  12
ATOM     12  C   UNL     1      -2.833   5.532  -1.601  1.00  0.00    -0.000 C 
BRANCH  12  13
ATOM     13  C   UNL     1      -2.970   4.353  -2.578  1.00  0.00    -0.000 C 
BRANCH  13  14
ATOM     14  C   UNL     1      -3.784   4.758  -3.815  1.00  0.00    -0.000 C 
BRANCH  14  15
ATOM     15  C   UNL     1      -4.953   5.695  -3.474  1.00  0.00    -0.003 C 
ATOM     16  C   UNL     1      -5.778   6.085  -4.700  1.00  0.00     0.004 C 
ENDBRANCH  14  15
ENDBRANCH  13  14
ENDBRANCH  12  13
ENDBRANCH  11  12
ENDBRANCH  10  11
ENDBRANCH   1  10
TORSDOF 12
ENDMDL
MODEL 7
REMARK VINA RESULT:    -2.956      5.453      8.810
REMARK INTER + INTRA:          -5.690
REMARK INTER:                  -5.249
REMARK INTRA:                  -0.441
REMARK UNBOUND:                -0.660
REMARK SMILES CCCCCCCCCCCCCC(=O)[O-]
REMARK SMILES IDX 8 1 9 2 10 3 11 4 12 5 13 6 14 7 15 8 16 9 7 10 6 11 5 12
REMARK SMILES IDX 4 13 3 14 2 15 1 16
REMARK H PARENT
REMARK Flexibility Score: inf
ROOT
ATOM      1  C   UNL     1      -2.674   3.600  -0.948  1.00  0.00     0.000 C 
ENDROOT
BRANCH   1   2
ATOM      2  C   UNL     1      -3.081   4.977  -1.500  1.00  0.00     0.000 C 
BRANCH   2   3
ATOM      3  C   UNL     1      -3.538   4.903  -2.974  1.00  0.00     0.000 C 
BRANCH   3   4
ATOM      4  C   UNL     1      -4.897   5.579  -3.236  1.00  0.00     0.000 C 
BRANCH   4   5
ATOM      5  C   UNL     1      -5.292   5.682  -4.719  1.00  0.00     0.006 C 
BRANCH   5   6
ATOM      6  C   UNL     1      -6.637   6.393  -4.927  1.00  0.00     0.053 C 
BRANCH   6   7
ATOM      7  C   UNL     1      -6.977   6.445  -6.382  1.00  0.00     0.041 C 
ATOM      8  O   UNL     1      -6.569   5.543  -7.161  1.00  0.00    -0.550 OA
ATOM      9  O   UNL     1      -7.703   7.516  -6.889  1.00  0.00    -0.550 OA
ENDBRANCH   6   7
ENDBRANCH   5   6
ENDBRANCH   4   5
ENDBRANCH   3   4
ENDBRANCH   2   3
ENDBRANCH   1   2
BRANCH   1  10
ATOM     10  C   UNL     1      -3.406   3.248   0.357  1.00  0.00     0.000 C 
BRANCH  10  11
ATOM     11  C   UNL     1      -4.064   1.857   0.306  1.00  0.00    -0.000 C 
BRANCH  11  12
ATOM     12  C   UNL     1      -3.215   0.831  -0.461  1.00  0.00    -0.000 C 
BRANCH  12  13
ATOM     13  C   UNL     1      -3.995  -0.452  -0.790  1.00  0.00    -0.000 C 
BRANCH  13  14
ATOM     14  C   UNL     1      -3.436  -1.125  -2.051  1.00  0.00    -0.000 C 
BRANCH  14  15
ATOM     15  C   UNL     1      -4.065  -2.502  -2.314  1.00  0.00    -0.003 C 
ATOM     16  C   UNL     1      -3.783  -3.506  -1.196  1.00  0.00     0.004 C 
ENDBRANCH  14  15
ENDBRANCH  13  14
ENDBRANCH  12  13
ENDBRANCH  11  12
ENDBRANCH  10  11
ENDBRANCH   1  10
TORSDOF 12
ENDMDL
MODEL 8
REMARK VINA RESULT:    -2.794      3.677      7.956
REMARK INTER + INTRA:          -5.415
REMARK INTER:                  -4.526
REMARK INTRA:                  -0.889
REMARK UNBOUND:                -0.660
REMARK SMILES CCCCCCCCCCCCCC(=O)[O-]
REMARK SMILES IDX 8 1 9 2 10 3 11 4 12 5 13 6 14 7 15 8 16 9 7 10 6 11 5 12
REMARK SMILES IDX 4 13 3 14 2 15 1 16
REMARK H PARENT
REMARK Flexibility Score: inf
ROOT
ATOM      1  C   UNL     1      -4.386  -0.264  -1.443  1.00  0.00     0.000 C 
ENDROOT
BRANCH   1   2
ATOM      2  C   UNL     1      -2.998  -0.205  -0.781  1.00  0.00     0.000 C 
BRANCH   2   3
ATOM      3  C   UNL     1      -2.782   1.108   0.004  1.00  0.00     0.000 C 
BRANCH   3   4
ATOM      4  C   UNL     1      -4.092   1.769   0.475  1.00  0.00     0.000 C 
BRANCH   4   5
ATOM      5  C   UNL     1      -3.951   3.235   0.919  1.00  0.00     0.006 C 
BRANCH   5   6
ATOM      6  C   UNL     1      -2.704   3.915   0.337  1.00  0.00     0.053 C 
BRANCH   6   7
ATOM      7  C   UNL     1      -3.086   4.826  -0.786  1.00  0.00     0.041 C 
ATOM      8  O   UNL     1      -3.585   5.956  -0.543  1.00  0.00    -0.550 OA
ATOM      9  O   UNL     1      -2.937   4.407  -2.102  1.00  0.00    -0.550 OA
ENDBRANCH   6   7
ENDBRANCH   5   6
ENDBRANCH   4   5
ENDBRANCH   3   4
ENDBRANCH   2   3
ENDBRANCH   1   2
BRANCH   1  10
ATOM     10  C   UNL     1      -4.444  -1.274  -2.601  1.00  0.00     0.000 C 
BRANCH  10  11
ATOM     11  C   UNL     1      -3.102  -1.997  -2.817  1.00  0.00    -0.000 C 
BRANCH  11  12
ATOM     12  C   UNL     1      -3.280  -3.496  -3.104  1.00  0.00    -0.000 C 
BRANCH  12  13
ATOM     13  C   UNL     1      -4.082  -4.216  -2.009  1.00  0.00    -0.000 C 
BRANCH  13  14
ATOM     14  C   UNL     1      -3.550  -3.857  -0.614  1.00  0.00    -0.000 C 
BRANCH  14  15
ATOM     15  C   UNL     1      -4.493  -4.308   0.512  1.00  0.00    -0.003 C 
ATOM     16  C   UNL     1      -4.986  -5.743   0.333  1.00  0.00     0.004 C 
ENDBRANCH  14  15
ENDBRANCH  13  14
ENDBRANCH  12  13
ENDBRANCH  11  12
ENDBRANCH  10  11
ENDBRANCH   1  10
TORSDOF 12
ENDMDL
MODEL 9
REMARK VINA RESULT:    -2.699      3.439      4.923
REMARK INTER + INTRA:          -5.252
REMARK INTER:                  -4.815
REMARK INTRA:                  -0.437
REMARK UNBOUND:                -0.660
REMARK SMILES CCCCCCCCCCCCCC(=O)[O-]
REMARK SMILES IDX 8 1 9 2 10 3 11 4 12 5 13 6 14 7 15 8 16 9 7 10 6 11 5 12
REMARK SMILES IDX 4 13 3 14 2 15 1 16
REMARK H PARENT
REMARK Flexibility Score: inf
ROOT
ATOM      1  C   UNL     1      -2.753   3.411  -0.722  1.00  0.00     0.000 C 
ENDROOT
BRANCH   1   2
ATOM      2  C   UNL     1      -3.628   3.069   0.497  1.00  0.00     0.000 C 
BRANCH   2   3
ATOM      3  C   UNL     1      -4.034   1.579   0.522  1.00  0.00     0.000 C 
BRANCH   3   4
ATOM      4  C   UNL     1      -3.758   0.840  -0.801  1.00  0.00     0.000 C 
BRANCH   4   5
ATOM      5  C   UNL     1      -4.029  -0.674  -0.765  1.00  0.00     0.006 C 
BRANCH   5   6
ATOM      6  C   UNL     1      -3.431  -1.414  -1.970  1.00  0.00     0.053 C 
BRANCH   6   7
ATOM      7  C   UNL     1      -3.795  -2.863  -1.922  1.00  0.00     0.041 C 
ATOM      8  O   UNL     1      -4.291  -3.425  -2.935  1.00  0.00    -0.550 OA
ATOM      9  O   UNL     1      -3.634  -3.583  -0.745  1.00  0.00    -0.550 OA
ENDBRANCH   6   7
ENDBRANCH   5   6
ENDBRANCH   4   5
ENDBRANCH   3   4
ENDBRANCH   2   3
ENDBRANCH   1   2
BRANCH   1  10
ATOM     10  C   UNL     1      -3.074   4.796  -1.308  1.00  0.00     0.000 C 
BRANCH  10  11
ATOM     11  C   UNL     1      -3.487   4.726  -2.789  1.00  0.00    -0.000 C 
BRANCH  11  12
ATOM     12  C   UNL     1      -4.740   5.563  -3.093  1.00  0.00    -0.000 C 
BRANCH  12  13
ATOM     13  C   UNL     1      -5.028   5.670  -4.598  1.00  0.00    -0.000 C 
BRANCH  13  14
ATOM     14  C   UNL     1      -6.443   6.210  -4.849  1.00  0.00    -0.000 C 
BRANCH  14  15
ATOM     15  C   UNL     1      -6.920   5.972  -6.290  1.00  0.00    -0.003 C 
ATOM     16  C   UNL     1      -7.137   7.272  -7.064  1.00  0.00     0.004 C 
ENDBRANCH  14  15
ENDBRANCH  13  14
ENDBRANCH  12  13
ENDBRANCH  11  12
ENDBRANCH  10  11
ENDBRANCH   1  10
TORSDOF 12
ENDMDL
