MODEL 1
REMARK VINA RESULT:    -4.292      0.000      0.000
REMARK INTER + INTRA:          -9.451
REMARK INTER:                  -7.553
REMARK INTRA:                  -1.897
REMARK UNBOUND:                -1.897
REMARK SMILES CCCCCCCCCCCCCCC(=O)[O-]
REMARK SMILES IDX 9 1 10 2 11 3 12 4 13 5 14 6 15 7 16 8 17 9 8 10 7 11 6 12
REMARK SMILES IDX 5 13 4 14 3 15 2 16 1 17
REMARK H PARENT
REMARK Flexibility Score: inf
ROOT
ATOM      1  C   UNL     1      19.042  10.345   5.690  1.00  0.00     0.000 C 
ENDROOT
BRANCH   1   2
ATOM      2  C   UNL     1      19.687  11.018   6.916  1.00  0.00     0.000 C 
BRANCH   2   3
ATOM      3  C   UNL     1      20.301  10.008   7.900  1.00  0.00     0.000 C 
BRANCH   3   4
ATOM      4  C   UNL     1      20.164   8.555   7.414  1.00  0.00     0.000 C 
BRANCH   4   5
ATOM      5  C   UNL     1      21.443   7.732   7.635  1.00  0.00     0.006 C 
BRANCH   5   6
ATOM      6  C   UNL     1      21.589   6.651   6.562  1.00  0.00     0.053 C 
BRANCH   6   7
ATOM      7  C   UNL     1      23.033   6.410   6.253  1.00  0.00     0.041 C 
ATOM      8  O   UNL     1      23.378   6.004   5.111  1.00  0.00    -0.550 OA
ATOM      9  O   UNL     1      24.003   6.681   7.209  1.00  0.00    -0.550 OA
ENDBRANCH   6   7
ENDBRANCH   5   6
ENDBRANCH   4   5
ENDBRANCH   3   4
ENDBRANCH   2   3
ENDBRANCH   1   2
BRANCH   1  10
ATOM     10  C   UNL     1      17.526  10.570   5.539  1.00  0.00     0.000 C 
BRANCH  10  11
ATOM     11  C   UNL     1      16.688   9.597   6.388  1.00  0.00    -0.000 C 
BRANCH  11  12
ATOM     12  C   UNL     1      16.239   8.359   5.594  1.00  0.00    -0.000 C 
BRANCH  12  13
ATOM     13  C   UNL     1      16.887   7.062   6.108  1.00  0.00    -0.000 C 
BRANCH  13  14
ATOM     14  C   UNL     1      17.548   6.245   4.986  1.00  0.00    -0.000 C 
BRANCH  14  15
ATOM     15  C   UNL     1      18.667   7.019   4.270  1.00  0.00    -0.000 C 
BRANCH  15  16
ATOM     16  C   UNL     1      18.306   7.267   2.800  1.00  0.00    -0.003 C 
ATOM     17  C   UNL     1      18.580   8.714   2.403  1.00  0.00     0.004 C 
ENDBRANCH  15  16
ENDBRANCH  14  15
ENDBRANCH  13  14
ENDBRANCH  12  13
ENDBRANCH  11  12
ENDBRANCH  10  11
ENDBRANCH   1  10
TORSDOF 13
ENDMDL
MODEL 2
REMARK VINA RESULT:    -4.095      2.301      4.849
REMARK INTER + INTRA:          -9.105
REMARK INTER:                  -7.498
REMARK INTRA:                  -1.608
REMARK UNBOUND:                -1.897
REMARK SMILES CCCCCCCCCCCCCCC(=O)[O-]
REMARK SMILES IDX 9 1 10 2 11 3 12 4 13 5 14 6 15 7 16 8 17 9 8 10 7 11 6 12
REMARK SMILES IDX 5 13 4 14 3 15 2 16 1 17
REMARK H PARENT
REMARK Flexibility Score: inf
ROOT
ATOM      1  C   UNL     1      18.040  11.036   5.347  1.00  0.00     0.000 C 
ENDROOT
BRANCH   1   2
ATOM      2  C   UNL     1      16.697  10.289   5.453  1.00  0.00     0.000 C 
BRANCH   2   3
ATOM      3  C   UNL     1      16.797   8.988   6.268  1.00  0.00     0.000 C 
BRANCH   3   4
ATOM      4  C   UNL     1      16.377   7.751   5.457  1.00  0.00     0.000 C 
BRANCH   4   5
ATOM      5  C   UNL     1      17.407   6.613   5.534  1.00  0.00     0.006 C 
BRANCH   5   6
ATOM      6  C   UNL     1      18.698   6.994   4.805  1.00  0.00     0.053 C 
BRANCH   6   7
ATOM      7  C   UNL     1      18.421   7.285   3.364  1.00  0.00     0.041 C 
ATOM      8  O   UNL     1      18.686   8.418   2.883  1.00  0.00    -0.550 OA
ATOM      9  O   UNL     1      17.916   6.288   2.538  1.00  0.00    -0.550 OA
ENDBRANCH   6   7
ENDBRANCH   5   6
ENDBRANCH   4   5
ENDBRANCH   3   4
ENDBRANCH   2   3
ENDBRANCH   1   2
BRANCH   1  10
ATOM     10  C   UNL     1      19.241  10.321   5.995  1.00  0.00     0.000 C 
BRANCH  10  11
ATOM     11  C   UNL     1      19.835  11.103   7.181  1.00  0.00    -0.000 C 
BRANCH  11  12
ATOM     12  C   UNL     1      20.571  10.192   8.176  1.00  0.00    -0.000 C 
BRANCH  12  13
ATOM     13  C   UNL     1      20.316   8.698   7.907  1.00  0.00    -0.000 C 
BRANCH  13  14
ATOM     14  C   UNL     1      21.604   7.860   7.954  1.00  0.00    -0.000 C 
BRANCH  14  15
ATOM     15  C   UNL     1      21.635   6.758   6.882  1.00  0.00    -0.000 C 
BRANCH  15  16
ATOM     16  C   UNL     1      23.072   6.473   6.431  1.00  0.00    -0.003 C 
ATOM     17  C   UNL     1      23.375   4.978   6.467  1.00  0.00     0.004 C 
ENDBRANCH  15  16
ENDBRANCH  14  15
ENDBRANCH  13  14
ENDBRANCH  12  13
ENDBRANCH  11  12
ENDBRANCH  10  11
ENDBRANCH   1  10
TORSDOF 13
ENDMDL
MODEL 3
REMARK VINA RESULT:    -4.065      1.115      2.708
REMARK INTER + INTRA:          -9.052
REMARK INTER:                  -7.151
REMARK INTRA:                  -1.901
REMARK UNBOUND:                -1.897
REMARK SMILES CCCCCCCCCCCCCCC(=O)[O-]
REMARK SMILES IDX 9 1 10 2 11 3 12 4 13 5 14 6 15 7 16 8 17 9 8 10 7 11 6 12
REMARK SMILES IDX 5 13 4 14 3 15 2 16 1 17
REMARK H PARENT
REMARK Flexibility Score: inf
ROOT
ATOM      1  C   UNL     1      17.409  10.437   4.887  1.00  0.00     0.000 C 
ENDROOT
BRANCH   1   2
ATOM      2  C   UNL     1      18.890  10.722   5.204  1.00  0.00     0.000 C 
BRANCH   2   3
ATOM      3  C   UNL     1      19.164  10.860   6.711  1.00  0.00     0.000 C 
BRANCH   3   4
ATOM      4  C   UNL     1      19.160   9.504   7.436  1.00  0.00     0.000 C 
BRANCH   4   5
ATOM      5  C   UNL     1      20.575   8.993   7.746  1.00  0.00     0.006 C 
BRANCH   5   6
ATOM      6  C   UNL     1      20.719   7.517   7.363  1.00  0.00     0.053 C 
BRANCH   6   7
ATOM      7  C   UNL     1      22.112   7.039   7.629  1.00  0.00     0.041 C 
ATOM      8  O   UNL     1      22.865   6.717   6.673  1.00  0.00    -0.550 OA
ATOM      9  O   UNL     1      22.595   6.997   8.930  1.00  0.00    -0.550 OA
ENDBRANCH   6   7
ENDBRANCH   5   6
ENDBRANCH   4   5
ENDBRANCH   3   4
ENDBRANCH   2   3
ENDBRANCH   1   2
BRANCH   1  10
ATOM     10  C   UNL     1      17.128   9.950   3.453  1.00  0.00     0.000 C 
BRANCH  10  11
ATOM     11  C   UNL     1      18.339   9.254   2.808  1.00  0.00    -0.000 C 
BRANCH  11  12
ATOM     12  C   UNL     1      18.067   7.775   2.488  1.00  0.00    -0.000 C 
BRANCH  12  13
ATOM     13  C   UNL     1      18.922   6.820   3.340  1.00  0.00    -0.000 C 
BRANCH  13  14
ATOM     14  C   UNL     1      18.408   6.695   4.784  1.00  0.00    -0.000 C 
BRANCH  14  15
ATOM     15  C   UNL     1      16.904   6.386   4.854  1.00  0.00    -0.000 C 
BRANCH  15  16
ATOM     16  C   UNL     1      16.243   7.144   6.011  1.00  0.00    -0.003 C 
ATOM     17  C   UNL     1      16.855   6.746   7.351  1.00  0.00     0.004 C 
ENDBRANCH  15  16
ENDBRANCH  14  15
ENDBRANCH  13  14
ENDBRANCH  12  13
ENDBRANCH  11  12
ENDBRANCH  10  11
ENDBRANCH   1  10
TORSDOF 13
ENDMDL
MODEL 4
REMARK VINA RESULT:    -4.062      2.916      5.403
REMARK INTER + INTRA:          -9.047
REMARK INTER:                  -7.327
REMARK INTRA:                  -1.720
REMARK UNBOUND:                -1.897
REMARK SMILES CCCCCCCCCCCCCCC(=O)[O-]
REMARK SMILES IDX 9 1 10 2 11 3 12 4 13 5 14 6 15 7 16 8 17 9 8 10 7 11 6 12
REMARK SMILES IDX 5 13 4 14 3 15 2 16 1 17
REMARK H PARENT
REMARK Flexibility Score: inf
ROOT
ATOM      1  C   UNL     1      17.406   7.626   7.929  1.00  0.00     0.000 C 
ENDROOT
BRANCH   1   2
ATOM      2  C   UNL     1      17.684   6.350   7.111  1.00  0.00     0.000 C 
BRANCH   2   3
ATOM      3  C   UNL     1      17.421   6.535   5.607  1.00  0.00     0.000 C 
BRANCH   3   4
ATOM      4  C   UNL     1      18.720   6.687   4.797  1.00  0.00     0.000 C 
BRANCH   4   5
ATOM      5  C   UNL     1      18.482   7.280   3.400  1.00  0.00     0.006 C 
BRANCH   5   6
ATOM      6  C   UNL     1      18.383   8.806   3.464  1.00  0.00     0.053 C 
BRANCH   6   7
ATOM      7  C   UNL     1      17.822   9.350   2.188  1.00  0.00     0.041 C 
ATOM      8  O   UNL     1      18.388   9.101   1.090  1.00  0.00    -0.550 OA
ATOM      9  O   UNL     1      16.646  10.089   2.204  1.00  0.00    -0.550 OA
ENDBRANCH   6   7
ENDBRANCH   5   6
ENDBRANCH   4   5
ENDBRANCH   3   4
ENDBRANCH   2   3
ENDBRANCH   1   2
BRANCH   1  10
ATOM     10  C   UNL     1      17.142   8.895   7.096  1.00  0.00     0.000 C 
BRANCH  10  11
ATOM     11  C   UNL     1      17.259  10.189   7.922  1.00  0.00    -0.000 C 
BRANCH  11  12
ATOM     12  C   UNL     1      18.373  11.115   7.408  1.00  0.00    -0.000 C 
BRANCH  12  13
ATOM     13  C   UNL     1      19.661  10.350   7.055  1.00  0.00    -0.000 C 
BRANCH  13  14
ATOM     14  C   UNL     1      20.672  10.327   8.212  1.00  0.00    -0.000 C 
BRANCH  14  15
ATOM     15  C   UNL     1      21.273   8.932   8.448  1.00  0.00    -0.000 C 
BRANCH  15  16
ATOM     16  C   UNL     1      20.910   7.979   7.303  1.00  0.00    -0.003 C 
ATOM     17  C   UNL     1      22.028   6.972   7.049  1.00  0.00     0.004 C 
ENDBRANCH  15  16
ENDBRANCH  14  15
ENDBRANCH  13  14
ENDBRANCH  12  13
ENDBRANCH  11  12
ENDBRANCH  10  11
ENDBRANCH   1  10
TORSDOF 13
ENDMDL
MODEL 5
REMARK VINA RESULT:    -4.060      1.210      1.557
REMARK INTER + INTRA:          -9.042
REMARK INTER:                  -7.193
REMARK INTRA:                  -1.849
REMARK UNBOUND:                -1.897
REMARK SMILES CCCCCCCCCCCCCCC(=O)[O-]
REMARK SMILES IDX 9 1 10 2 11 3 12 4 13 5 14 6 15 7 16 8 17 9 8 10 7 11 6 12
REMARK SMILES IDX 5 13 4 14 3 15 2 16 1 17
REMARK H PARENT
REMARK Flexibility Score: inf
ROOT
ATOM      1  C   UNL     1      19.569   9.722   6.495  1.00  0.00     0.000 C 
ENDROOT
BRANCH   1   2
ATOM      2  C   UNL     1      20.356   9.802   7.817  1.00  0.00     0.000 C 
BRANCH   2   3
ATOM      3  C   UNL     1      21.137   8.514   8.129  1.00  0.00     0.000 C 
BRANCH   3   4
ATOM      4  C   UNL     1      21.026   7.472   7.003  1.00  0.00     0.000 C 
BRANCH   4   5
ATOM      5  C   UNL     1      22.012   6.306   7.174  1.00  0.00     0.006 C 
BRANCH   5   6
ATOM      6  C   UNL     1      23.241   6.495   6.280  1.00  0.00     0.053 C 
BRANCH   6   7
ATOM      7  C   UNL     1      23.281   5.444   5.216  1.00  0.00     0.041 C 
ATOM      8  O   UNL     1      22.994   5.738   4.025  1.00  0.00    -0.550 OA
ATOM      9  O   UNL     1      23.684   4.153   5.528  1.00  0.00    -0.550 OA
ENDBRANCH   6   7
ENDBRANCH   5   6
ENDBRANCH   4   5
ENDBRANCH   3   4
ENDBRANCH   2   3
ENDBRANCH   1   2
BRANCH   1  10
ATOM     10  C   UNL     1      18.064  10.031   6.608  1.00  0.00     0.000 C 
BRANCH  10  11
ATOM     11  C   UNL     1      17.325   9.073   7.558  1.00  0.00    -0.000 C 
BRANCH  11  12
ATOM     12  C   UNL     1      17.326   7.622   7.048  1.00  0.00    -0.000 C 
BRANCH  12  13
ATOM     13  C   UNL     1      16.155   7.333   6.093  1.00  0.00    -0.000 C 
BRANCH  13  14
ATOM     14  C   UNL     1      16.619   7.071   4.651  1.00  0.00    -0.000 C 
BRANCH  14  15
ATOM     15  C   UNL     1      17.894   6.215   4.584  1.00  0.00    -0.000 C 
BRANCH  15  16
ATOM     16  C   UNL     1      19.034   6.982   3.905  1.00  0.00    -0.003 C 
ATOM     17  C   UNL     1      18.507   8.201   3.154  1.00  0.00     0.004 C 
ENDBRANCH  15  16
ENDBRANCH  14  15
ENDBRANCH  13  14
ENDBRANCH  12  13
ENDBRANCH  11  12
ENDBRANCH  10  11
ENDBRANCH   1  10
TORSDOF 13
ENDMDL
MODEL 6
REMARK VINA RESULT:    -3.996      2.656      5.195
REMARK INTER + INTRA:          -8.930
REMARK INTER:                  -7.318
REMARK INTRA:                  -1.612
REMARK UNBOUND:                -1.897
REMARK SMILES CCCCCCCCCCCCCCC(=O)[O-]
REMARK SMILES IDX 9 1 10 2 11 3 12 4 13 5 14 6 15 7 16 8 17 9 8 10 7 11 6 12
REMARK SMILES IDX 5 13 4 14 3 15 2 16 1 17
REMARK H PARENT
REMARK Flexibility Score: inf
ROOT
ATOM      1  C   UNL     1      16.732   9.686   5.396  1.00  0.00     0.000 C 
ENDROOT
BRANCH   1   2
ATOM      2  C   UNL     1      16.468   8.338   6.094  1.00  0.00     0.000 C 
BRANCH   2   3
ATOM      3  C   UNL     1      16.143   7.206   5.105  1.00  0.00     0.000 C 
BRANCH   3   4
ATOM      4  C   UNL     1      17.286   6.184   4.983  1.00  0.00     0.000 C 
BRANCH   4   5
ATOM      5  C   UNL     1      18.097   6.353   3.689  1.00  0.00     0.006 C 
BRANCH   5   6
ATOM      6  C   UNL     1      17.186   6.286   2.460  1.00  0.00     0.053 C 
BRANCH   6   7
ATOM      7  C   UNL     1      17.559   7.345   1.472  1.00  0.00     0.041 C 
ATOM      8  O   UNL     1      17.038   7.353   0.325  1.00  0.00    -0.550 OA
ATOM      9  O   UNL     1      18.442   8.353   1.834  1.00  0.00    -0.550 OA
ENDBRANCH   6   7
ENDBRANCH   5   6
ENDBRANCH   4   5
ENDBRANCH   3   4
ENDBRANCH   2   3
ENDBRANCH   1   2
BRANCH   1  10
ATOM     10  C   UNL     1      18.196   9.941   4.992  1.00  0.00     0.000 C 
BRANCH  10  11
ATOM     11  C   UNL     1      18.832  11.118   5.753  1.00  0.00    -0.000 C 
BRANCH  11  12
ATOM     12  C   UNL     1      19.084  10.793   7.234  1.00  0.00    -0.000 C 
BRANCH  12  13
ATOM     13  C   UNL     1      20.267   9.829   7.433  1.00  0.00    -0.000 C 
BRANCH  13  14
ATOM     14  C   UNL     1      19.814   8.396   7.755  1.00  0.00    -0.000 C 
BRANCH  14  15
ATOM     15  C   UNL     1      20.329   7.367   6.736  1.00  0.00    -0.000 C 
BRANCH  15  16
ATOM     16  C   UNL     1      21.782   6.980   7.036  1.00  0.00    -0.003 C 
ATOM     17  C   UNL     1      22.379   6.156   5.900  1.00  0.00     0.004 C 
ENDBRANCH  15  16
ENDBRANCH  14  15
ENDBRANCH  13  14
ENDBRANCH  12  13
ENDBRANCH  11  12
ENDBRANCH  10  11
ENDBRANCH   1  10
TORSDOF 13
ENDMDL
MODEL 7
REMARK VINA RESULT:    -3.970      1.388      2.598
REMARK INTER + INTRA:          -8.884
REMARK INTER:                  -7.388
REMARK INTRA:                  -1.496
REMARK UNBOUND:                -1.897
REMARK SMILES CCCCCCCCCCCCCCC(=O)[O-]
REMARK SMILES IDX 9 1 10 2 11 3 12 4 13 5 14 6 15 7 16 8 17 9 8 10 7 11 6 12
REMARK SMILES IDX 5 13 4 14 3 15 2 16 1 17
REMARK H PARENT
REMARK Flexibility Score: inf
ROOT
ATOM      1  C   UNL     1      20.010  10.893   7.372  1.00  0.00     0.000 C 
ENDROOT
BRANCH   1   2
ATOM      2  C   UNL     1      20.861   9.801   8.049  1.00  0.00     0.000 C 
BRANCH   2   3
ATOM      3  C   UNL     1      20.405   8.377   7.688  1.00  0.00     0.000 C 
BRANCH   3   4
ATOM      4  C   UNL     1      21.561   7.363   7.722  1.00  0.00     0.000 C 
BRANCH   4   5
ATOM      5  C   UNL     1      21.786   6.672   6.369  1.00  0.00     0.006 C 
BRANCH   5   6
ATOM      6  C   UNL     1      23.264   6.330   6.169  1.00  0.00     0.053 C 
BRANCH   6   7
ATOM      7  C   UNL     1      23.467   4.848   6.188  1.00  0.00     0.041 C 
ATOM      8  O   UNL     1      23.667   4.221   5.114  1.00  0.00    -0.550 OA
ATOM      9  O   UNL     1      23.487   4.165   7.397  1.00  0.00    -0.550 OA
ENDBRANCH   6   7
ENDBRANCH   5   6
ENDBRANCH   4   5
ENDBRANCH   3   4
ENDBRANCH   2   3
ENDBRANCH   1   2
BRANCH   1  10
ATOM     10  C   UNL     1      18.707  10.397   6.717  1.00  0.00     0.000 C 
BRANCH  10  11
ATOM     11  C   UNL     1      18.802  10.309   5.183  1.00  0.00    -0.000 C 
BRANCH  11  12
ATOM     12  C   UNL     1      17.998   9.132   4.610  1.00  0.00    -0.000 C 
BRANCH  12  13
ATOM     13  C   UNL     1      16.533   9.133   5.083  1.00  0.00    -0.000 C 
BRANCH  13  14
ATOM     14  C   UNL     1      16.077   7.759   5.600  1.00  0.00    -0.000 C 
BRANCH  14  15
ATOM     15  C   UNL     1      17.154   6.675   5.434  1.00  0.00    -0.000 C 
BRANCH  15  16
ATOM     16  C   UNL     1      17.659   6.191   6.799  1.00  0.00    -0.003 C 
ATOM     17  C   UNL     1      16.971   6.938   7.937  1.00  0.00     0.004 C 
ENDBRANCH  15  16
ENDBRANCH  14  15
ENDBRANCH  13  14
ENDBRANCH  12  13
ENDBRANCH  11  12
ENDBRANCH  10  11
ENDBRANCH   1  10
TORSDOF 13
ENDMDL
MODEL 8
REMARK VINA RESULT:    -3.945      2.952      5.868
REMARK INTER + INTRA:          -8.841
REMARK INTER:                  -6.981
REMARK INTRA:                  -1.860
REMARK UNBOUND:                -1.897
REMARK SMILES CCCCCCCCCCCCCCC(=O)[O-]
REMARK SMILES IDX 9 1 10 2 11 3 12 4 13 5 14 6 15 7 16 8 17 9 8 10 7 11 6 12
REMARK SMILES IDX 5 13 4 14 3 15 2 16 1 17
REMARK H PARENT
REMARK Flexibility Score: inf
ROOT
ATOM      1  C   UNL     1      18.486   6.657   4.293  1.00  0.00     0.000 C 
ENDROOT
BRANCH   1   2
ATOM      2  C   UNL     1      17.209   6.110   4.959  1.00  0.00     0.000 C 
BRANCH   2   3
ATOM      3  C   UNL     1      15.940   6.382   4.133  1.00  0.00     0.000 C 
BRANCH   3   4
ATOM      4  C   UNL     1      16.091   7.598   3.205  1.00  0.00     0.000 C 
BRANCH   4   5
ATOM      5  C   UNL     1      15.910   7.239   1.722  1.00  0.00     0.006 C 
BRANCH   5   6
ATOM      6  C   UNL     1      17.193   7.516   0.933  1.00  0.00     0.053 C 
BRANCH   6   7
ATOM      7  C   UNL     1      17.649   8.924   1.150  1.00  0.00     0.041 C 
ATOM      8  O   UNL     1      17.000   9.884   0.656  1.00  0.00    -0.550 OA
ATOM      9  O   UNL     1      18.762   9.180   1.940  1.00  0.00    -0.550 OA
ENDBRANCH   6   7
ENDBRANCH   5   6
ENDBRANCH   4   5
ENDBRANCH   3   4
ENDBRANCH   2   3
ENDBRANCH   1   2
BRANCH   1  10
ATOM     10  C   UNL     1      19.618   7.044   5.263  1.00  0.00     0.000 C 
BRANCH  10  11
ATOM     11  C   UNL     1      19.119   7.294   6.697  1.00  0.00    -0.000 C 
BRANCH  11  12
ATOM     12  C   UNL     1      20.193   7.936   7.591  1.00  0.00    -0.000 C 
BRANCH  12  13
ATOM     13  C   UNL     1      20.304   9.457   7.379  1.00  0.00    -0.000 C 
BRANCH  13  14
ATOM     14  C   UNL     1      18.951  10.108   7.049  1.00  0.00    -0.000 C 
BRANCH  14  15
ATOM     15  C   UNL     1      18.905  10.693   5.628  1.00  0.00    -0.000 C 
BRANCH  15  16
ATOM     16  C   UNL     1      17.507  10.537   5.017  1.00  0.00    -0.003 C 
ATOM     17  C   UNL     1      16.565   9.813   5.974  1.00  0.00     0.004 C 
ENDBRANCH  15  16
ENDBRANCH  14  15
ENDBRANCH  13  14
ENDBRANCH  12  13
ENDBRANCH  11  12
ENDBRANCH  10  11
ENDBRANCH   1  10
TORSDOF 13
ENDMDL
