MODEL 1
REMARK VINA RESULT:    -4.822      0.000      0.000
REMARK INTER + INTRA:          -4.822
REMARK INTER:                  -4.822
REMARK INTRA:                   0.000
REMARK UNBOUND:                 0.000
REMARK SMILES CC1(C)[C@H]2CC[C@]1(C)C(=O)C2
REMARK SMILES IDX 1 1 2 2 4 3 5 4 6 5 7 6 9 7 10 8 11 9 8 10 3 11
REMARK H PARENT
REMARK Flexibility Score: inf
ROOT
ATOM      1  C   UNL     1      15.791   0.472  -2.620  1.00  0.00     0.012 C 
ATOM      2  C   UNL     1      16.189   1.556  -1.572  1.00  0.00    -0.020 C 
ATOM      3  C   UNL     1      15.732   2.986  -1.947  1.00  0.00     0.003 C 
ATOM      4  C   UNL     1      14.183   2.868  -1.921  1.00  0.00     0.005 C 
ATOM      5  C   UNL     1      13.930   1.882  -0.753  1.00  0.00     0.015 C 
ATOM      6  C   UNL     1      15.362   1.554  -0.268  1.00  0.00     0.032 C 
ATOM      7  C   UNL     1      15.853   2.829   0.374  1.00  0.00     0.139 C 
ATOM      8  O   UNL     1      15.931   3.045   1.573  1.00  0.00    -0.299 OA
ATOM      9  C   UNL     1      16.128   3.831  -0.704  1.00  0.00     0.080 C 
ATOM     10  C   UNL     1      15.473   0.302   0.610  1.00  0.00     0.020 C 
ATOM     11  C   UNL     1      17.730   1.426  -1.367  1.00  0.00     0.012 C 
ENDROOT
TORSDOF 0
ENDMDL
MODEL 2
REMARK VINA RESULT:    -4.765     14.384     15.731
REMARK INTER + INTRA:          -4.765
REMARK INTER:                  -4.765
REMARK INTRA:                   0.000
REMARK UNBOUND:                 0.000
REMARK SMILES CC1(C)[C@H]2CC[C@]1(C)C(=O)C2
REMARK SMILES IDX 1 1 2 2 4 3 5 4 6 5 7 6 9 7 10 8 11 9 8 10 3 11
REMARK H PARENT
REMARK Flexibility Score: inf
ROOT
ATOM      1  C   UNL     1      14.859  17.267  -2.451  1.00  0.00     0.012 C 
ATOM      2  C   UNL     1      15.759  17.969  -1.389  1.00  0.00    -0.020 C 
ATOM      3  C   UNL     1      14.993  18.432  -0.127  1.00  0.00     0.003 C 
ATOM      4  C   UNL     1      14.512  17.091   0.493  1.00  0.00     0.005 C 
ATOM      5  C   UNL     1      15.685  16.126   0.187  1.00  0.00     0.015 C 
ATOM      6  C   UNL     1      16.680  17.033  -0.576  1.00  0.00     0.032 C 
ATOM      7  C   UNL     1      17.203  17.992   0.465  1.00  0.00     0.139 C 
ATOM      8  O   UNL     1      18.295  17.937   1.008  1.00  0.00    -0.299 OA
ATOM      9  C   UNL     1      16.117  18.966   0.804  1.00  0.00     0.080 C 
ATOM     10  C   UNL     1      17.759  16.282  -1.364  1.00  0.00     0.020 C 
ATOM     11  C   UNL     1      16.497  19.125  -2.132  1.00  0.00     0.012 C 
ENDROOT
TORSDOF 0
ENDMDL
MODEL 3
REMARK VINA RESULT:    -4.673      1.419      2.466
REMARK INTER + INTRA:          -4.673
REMARK INTER:                  -4.673
REMARK INTRA:                   0.000
REMARK UNBOUND:                 0.000
REMARK SMILES CC1(C)[C@H]2CC[C@]1(C)C(=O)C2
REMARK SMILES IDX 1 1 2 2 4 3 5 4 6 5 7 6 9 7 10 8 11 9 8 10 3 11
REMARK H PARENT
REMARK Flexibility Score: inf
ROOT
ATOM      1  C   UNL     1      17.092   1.308  -1.904  1.00  0.00     0.012 C 
ATOM      2  C   UNL     1      15.938   1.476  -0.870  1.00  0.00    -0.020 C 
ATOM      3  C   UNL     1      16.187   2.596   0.169  1.00  0.00     0.003 C 
ATOM      4  C   UNL     1      16.208   3.878  -0.709  1.00  0.00     0.005 C 
ATOM      5  C   UNL     1      15.144   3.574  -1.793  1.00  0.00     0.015 C 
ATOM      6  C   UNL     1      14.660   2.157  -1.405  1.00  0.00     0.032 C 
ATOM      7  C   UNL     1      13.889   2.351  -0.123  1.00  0.00     0.139 C 
ATOM      8  O   UNL     1      12.674   2.358  -0.009  1.00  0.00    -0.299 OA
ATOM      9  C   UNL     1      14.861   2.642   0.978  1.00  0.00     0.080 C 
ATOM     10  C   UNL     1      13.901   1.412  -2.511  1.00  0.00     0.020 C 
ATOM     11  C   UNL     1      15.710   0.071  -0.231  1.00  0.00     0.012 C 
ENDROOT
TORSDOF 0
ENDMDL
MODEL 4
REMARK VINA RESULT:    -4.635      1.532      2.769
REMARK INTER + INTRA:          -4.635
REMARK INTER:                  -4.635
REMARK INTRA:                   0.000
REMARK UNBOUND:                 0.000
REMARK SMILES CC1(C)[C@H]2CC[C@]1(C)C(=O)C2
REMARK SMILES IDX 1 1 2 2 4 3 5 4 6 5 7 6 9 7 10 8 11 9 8 10 3 11
REMARK H PARENT
REMARK Flexibility Score: inf
ROOT
ATOM      1  C   UNL     1      14.190  -0.201   0.266  1.00  0.00     0.012 C 
ATOM      2  C   UNL     1      15.080   0.961  -0.273  1.00  0.00    -0.020 C 
ATOM      3  C   UNL     1      16.148   0.507  -1.297  1.00  0.00     0.003 C 
ATOM      4  C   UNL     1      15.288  -0.003  -2.486  1.00  0.00     0.005 C 
ATOM      5  C   UNL     1      14.082   0.969  -2.483  1.00  0.00     0.015 C 
ATOM      6  C   UNL     1      14.399   1.902  -1.290  1.00  0.00     0.032 C 
ATOM      7  C   UNL     1      15.581   2.721  -1.746  1.00  0.00     0.139 C 
ATOM      8  O   UNL     1      15.548   3.882  -2.122  1.00  0.00    -0.299 OA
ATOM      9  C   UNL     1      16.793   1.841  -1.763  1.00  0.00     0.080 C 
ATOM     10  C   UNL     1      13.206   2.716  -0.776  1.00  0.00     0.020 C 
ATOM     11  C   UNL     1      15.677   1.675   0.978  1.00  0.00     0.012 C 
ENDROOT
TORSDOF 0
ENDMDL
MODEL 5
REMARK VINA RESULT:    -4.576      1.774      3.161
REMARK INTER + INTRA:          -4.576
REMARK INTER:                  -4.576
REMARK INTRA:                   0.000
REMARK UNBOUND:                 0.000
REMARK SMILES CC1(C)[C@H]2CC[C@]1(C)C(=O)C2
REMARK SMILES IDX 1 1 2 2 4 3 5 4 6 5 7 6 9 7 10 8 11 9 8 10 3 11
REMARK H PARENT
REMARK Flexibility Score: inf
ROOT
ATOM      1  C   UNL     1      15.756   2.368   1.961  1.00  0.00     0.012 C 
ATOM      2  C   UNL     1      15.263   3.079   0.664  1.00  0.00    -0.020 C 
ATOM      3  C   UNL     1      16.374   3.296  -0.392  1.00  0.00     0.003 C 
ATOM      4  C   UNL     1      16.764   1.843  -0.782  1.00  0.00     0.005 C 
ATOM      5  C   UNL     1      15.410   1.092  -0.721  1.00  0.00     0.015 C 
ATOM      6  C   UNL     1      14.423   2.205  -0.293  1.00  0.00     0.032 C 
ATOM      7  C   UNL     1      14.328   3.117  -1.491  1.00  0.00     0.139 C 
ATOM      8  O   UNL     1      13.404   3.163  -2.288  1.00  0.00    -0.299 OA
ATOM      9  C   UNL     1      15.608   3.886  -1.608  1.00  0.00     0.080 C 
ATOM     10  C   UNL     1      13.079   1.700   0.244  1.00  0.00     0.020 C 
ATOM     11  C   UNL     1      14.568   4.398   1.121  1.00  0.00     0.012 C 
ENDROOT
TORSDOF 0
ENDMDL
MODEL 6
REMARK VINA RESULT:    -4.575     14.228     15.984
REMARK INTER + INTRA:          -4.575
REMARK INTER:                  -4.575
REMARK INTRA:                   0.000
REMARK UNBOUND:                 0.000
REMARK SMILES CC1(C)[C@H]2CC[C@]1(C)C(=O)C2
REMARK SMILES IDX 1 1 2 2 4 3 5 4 6 5 7 6 9 7 10 8 11 9 8 10 3 11
REMARK H PARENT
REMARK Flexibility Score: inf
ROOT
ATOM      1  C   UNL     1      17.592  16.267  -1.453  1.00  0.00     0.012 C 
ATOM      2  C   UNL     1      16.344  16.919  -0.785  1.00  0.00    -0.020 C 
ATOM      3  C   UNL     1      16.687  18.045   0.220  1.00  0.00     0.003 C 
ATOM      4  C   UNL     1      17.340  19.125  -0.687  1.00  0.00     0.005 C 
ATOM      5  C   UNL     1      16.530  19.008  -2.003  1.00  0.00     0.015 C 
ATOM      6  C   UNL     1      15.529  17.872  -1.686  1.00  0.00     0.032 C 
ATOM      7  C   UNL     1      14.579  18.466  -0.676  1.00  0.00     0.139 C 
ATOM      8  O   UNL     1      13.444  18.856  -0.900  1.00  0.00    -0.299 OA
ATOM      9  C   UNL     1      15.296  18.601   0.632  1.00  0.00     0.080 C 
ATOM     10  C   UNL     1      14.859  17.245  -2.914  1.00  0.00     0.020 C 
ATOM     11  C   UNL     1      15.520  15.752  -0.158  1.00  0.00     0.012 C 
ENDROOT
TORSDOF 0
ENDMDL
MODEL 7
REMARK VINA RESULT:    -4.524      1.049      2.849
REMARK INTER + INTRA:          -4.524
REMARK INTER:                  -4.524
REMARK INTRA:                   0.000
REMARK UNBOUND:                 0.000
REMARK SMILES CC1(C)[C@H]2CC[C@]1(C)C(=O)C2
REMARK SMILES IDX 1 1 2 2 4 3 5 4 6 5 7 6 9 7 10 8 11 9 8 10 3 11
REMARK H PARENT
REMARK Flexibility Score: inf
ROOT
ATOM      1  C   UNL     1      14.398   0.579  -2.500  1.00  0.00     0.012 C 
ATOM      2  C   UNL     1      14.589   1.374  -1.173  1.00  0.00    -0.020 C 
ATOM      3  C   UNL     1      15.525   0.678  -0.156  1.00  0.00     0.003 C 
ATOM      4  C   UNL     1      16.893   0.678  -0.894  1.00  0.00     0.005 C 
ATOM      5  C   UNL     1      16.874   2.026  -1.657  1.00  0.00     0.015 C 
ATOM      6  C   UNL     1      15.499   2.618  -1.269  1.00  0.00     0.032 C 
ATOM      7  C   UNL     1      15.632   2.978   0.190  1.00  0.00     0.139 C 
ATOM      8  O   UNL     1      15.790   4.102   0.641  1.00  0.00    -0.299 OA
ATOM      9  C   UNL     1      15.647   1.715   0.994  1.00  0.00     0.080 C 
ATOM     10  C   UNL     1      15.010   3.755  -2.174  1.00  0.00     0.020 C 
ATOM     11  C   UNL     1      13.159   1.654  -0.616  1.00  0.00     0.012 C 
ENDROOT
TORSDOF 0
ENDMDL
MODEL 8
REMARK VINA RESULT:    -4.511      1.383      2.632
REMARK INTER + INTRA:          -4.511
REMARK INTER:                  -4.511
REMARK INTRA:                   0.000
REMARK UNBOUND:                 0.000
REMARK SMILES CC1(C)[C@H]2CC[C@]1(C)C(=O)C2
REMARK SMILES IDX 1 1 2 2 4 3 5 4 6 5 7 6 9 7 10 8 11 9 8 10 3 11
REMARK H PARENT
REMARK Flexibility Score: inf
ROOT
ATOM      1  C   UNL     1      17.482   1.469  -1.620  1.00  0.00     0.012 C 
ATOM      2  C   UNL     1      15.949   1.723  -1.498  1.00  0.00    -0.020 C 
ATOM      3  C   UNL     1      15.089   0.809  -2.403  1.00  0.00     0.003 C 
ATOM      4  C   UNL     1      15.368  -0.606  -1.824  1.00  0.00     0.005 C 
ATOM      5  C   UNL     1      15.498  -0.338  -0.303  1.00  0.00     0.015 C 
ATOM      6  C   UNL     1      15.288   1.192  -0.208  1.00  0.00     0.032 C 
ATOM      7  C   UNL     1      13.830   1.401  -0.535  1.00  0.00     0.139 C 
ATOM      8  O   UNL     1      12.941   1.637   0.268  1.00  0.00    -0.299 OA
ATOM      9  C   UNL     1      13.632   1.167  -2.001  1.00  0.00     0.080 C 
ATOM     10  C   UNL     1      15.754   1.823   1.110  1.00  0.00     0.020 C 
ATOM     11  C   UNL     1      15.733   3.245  -1.761  1.00  0.00     0.012 C 
ENDROOT
TORSDOF 0
ENDMDL
