MODEL 1
REMARK VINA RESULT:    -5.779      0.000      0.000
REMARK INTER + INTRA:         -14.122
REMARK INTER:                 -11.185
REMARK INTRA:                  -2.937
REMARK UNBOUND:                -2.937
REMARK SMILES CCCCCCCCCCCCCCCCCC(=O)[O-]
REMARK SMILES IDX 10 1 11 2 12 3 13 4 14 5 15 6 16 7 17 8 18 9 19 10 20 11
REMARK SMILES IDX 9 12 8 13 7 14 6 15 5 16 4 17 3 18 2 19 1 20
REMARK H PARENT
REMARK Flexibility Score: inf
ROOT
ATOM      1  C   UNL     1     218.184  -8.731  26.412  1.00  0.00     0.000 C 
ENDROOT
BRANCH   1   2
ATOM      2  C   UNL     1     217.512  -7.750  25.432  1.00  0.00     0.000 C 
BRANCH   2   3
ATOM      3  C   UNL     1     218.435  -6.647  24.878  1.00  0.00     0.000 C 
BRANCH   3   4
ATOM      4  C   UNL     1     219.921  -6.912  25.175  1.00  0.00     0.000 C 
BRANCH   4   5
ATOM      5  C   UNL     1     220.782  -6.911  23.900  1.00  0.00     0.000 C 
BRANCH   5   6
ATOM      6  C   UNL     1     221.629  -8.187  23.762  1.00  0.00     0.000 C 
BRANCH   6   7
ATOM      7  C   UNL     1     220.984  -9.241  22.844  1.00  0.00     0.006 C 
BRANCH   7   8
ATOM      8  C   UNL     1     220.065 -10.233  23.579  1.00  0.00     0.053 C 
BRANCH   8   9
ATOM      9  C   UNL     1     218.661 -10.220  23.057  1.00  0.00     0.041 C 
ATOM     10  O   UNL     1     217.807 -11.028  23.509  1.00  0.00    -0.550 OA
ATOM     11  O   UNL     1     218.285  -9.293  22.093  1.00  0.00    -0.550 OA
ENDBRANCH   8   9
ENDBRANCH   7   8
ENDBRANCH   6   7
ENDBRANCH   5   6
ENDBRANCH   4   5
ENDBRANCH   3   4
ENDBRANCH   2   3
ENDBRANCH   1   2
BRANCH   1  12
ATOM     12  C   UNL     1     217.417  -8.973  27.728  1.00  0.00     0.000 C 
BRANCH  12  13
ATOM     13  C   UNL     1     218.281  -8.937  29.002  1.00  0.00    -0.000 C 
BRANCH  13  14
ATOM     14  C   UNL     1     218.910  -7.555  29.255  1.00  0.00    -0.000 C 
BRANCH  14  15
ATOM     15  C   UNL     1     220.113  -7.621  30.210  1.00  0.00    -0.000 C 
BRANCH  15  16
ATOM     16  C   UNL     1     221.299  -8.400  29.612  1.00  0.00    -0.000 C 
BRANCH  16  17
ATOM     17  C   UNL     1     222.055  -7.595  28.543  1.00  0.00    -0.000 C 
BRANCH  17  18
ATOM     18  C   UNL     1     222.402  -8.433  27.303  1.00  0.00    -0.000 C 
BRANCH  18  19
ATOM     19  C   UNL     1     221.579  -9.726  27.270  1.00  0.00    -0.003 C 
ATOM     20  C   UNL     1     222.431 -10.911  26.823  1.00  0.00     0.004 C 
ENDBRANCH  18  19
ENDBRANCH  17  18
ENDBRANCH  16  17
ENDBRANCH  15  16
ENDBRANCH  14  15
ENDBRANCH  13  14
ENDBRANCH  12  13
ENDBRANCH   1  12
TORSDOF 16
ENDMDL
MODEL 2
REMARK VINA RESULT:    -5.729      2.667      5.371
REMARK INTER + INTRA:         -14.024
REMARK INTER:                 -11.002
REMARK INTRA:                  -3.022
REMARK UNBOUND:                -2.937
REMARK SMILES CCCCCCCCCCCCCCCCCC(=O)[O-]
REMARK SMILES IDX 10 1 11 2 12 3 13 4 14 5 15 6 16 7 17 8 18 9 19 10 20 11
REMARK SMILES IDX 9 12 8 13 7 14 6 15 5 16 4 17 3 18 2 19 1 20
REMARK H PARENT
REMARK Flexibility Score: inf
ROOT
ATOM      1  C   UNL     1     217.862  -8.738  26.305  1.00  0.00     0.000 C 
ENDROOT
BRANCH   1   2
ATOM      2  C   UNL     1     217.198  -9.127  27.640  1.00  0.00     0.000 C 
BRANCH   2   3
ATOM      3  C   UNL     1     217.877  -8.555  28.898  1.00  0.00     0.000 C 
BRANCH   3   4
ATOM      4  C   UNL     1     219.339  -9.011  29.044  1.00  0.00     0.000 C 
BRANCH   4   5
ATOM      5  C   UNL     1     220.328  -7.834  29.001  1.00  0.00     0.000 C 
BRANCH   5   6
ATOM      6  C   UNL     1     221.289  -7.916  27.804  1.00  0.00     0.000 C 
BRANCH   6   7
ATOM      7  C   UNL     1     221.287  -9.298  27.125  1.00  0.00     0.006 C 
BRANCH   7   8
ATOM      8  C   UNL     1     222.653 -10.008  27.145  1.00  0.00     0.053 C 
BRANCH   8   9
ATOM      9  C   UNL     1     223.124 -10.320  28.533  1.00  0.00     0.041 C 
ATOM     10  O   UNL     1     222.394 -10.980  29.319  1.00  0.00    -0.550 OA
ATOM     11  O   UNL     1     224.384  -9.908  28.950  1.00  0.00    -0.550 OA
ENDBRANCH   8   9
ENDBRANCH   7   8
ENDBRANCH   6   7
ENDBRANCH   5   6
ENDBRANCH   4   5
ENDBRANCH   3   4
ENDBRANCH   2   3
ENDBRANCH   1   2
BRANCH   1  12
ATOM     12  C   UNL     1     217.965  -7.223  26.040  1.00  0.00     0.000 C 
BRANCH  12  13
ATOM     13  C   UNL     1     218.540  -6.840  24.664  1.00  0.00    -0.000 C 
BRANCH  13  14
ATOM     14  C   UNL     1     220.038  -6.492  24.720  1.00  0.00    -0.000 C 
BRANCH  14  15
ATOM     15  C   UNL     1     220.811  -7.010  23.496  1.00  0.00    -0.000 C 
BRANCH  15  16
ATOM     16  C   UNL     1     221.332  -8.446  23.692  1.00  0.00    -0.000 C 
BRANCH  16  17
ATOM     17  C   UNL     1     220.481  -9.488  22.947  1.00  0.00    -0.000 C 
BRANCH  17  18
ATOM     18  C   UNL     1     219.878 -10.543  23.888  1.00  0.00    -0.000 C 
BRANCH  18  19
ATOM     19  C   UNL     1     218.459 -10.921  23.448  1.00  0.00    -0.003 C 
ATOM     20  C   UNL     1     217.840  -9.826  22.583  1.00  0.00     0.004 C 
ENDBRANCH  18  19
ENDBRANCH  17  18
ENDBRANCH  16  17
ENDBRANCH  15  16
ENDBRANCH  14  15
ENDBRANCH  13  14
ENDBRANCH  12  13
ENDBRANCH   1  12
TORSDOF 16
ENDMDL
MODEL 3
REMARK VINA RESULT:    -5.620      2.991      5.662
REMARK INTER + INTRA:         -13.814
REMARK INTER:                 -11.124
REMARK INTRA:                  -2.691
REMARK UNBOUND:                -2.937
REMARK SMILES CCCCCCCCCCCCCCCCCC(=O)[O-]
REMARK SMILES IDX 10 1 11 2 12 3 13 4 14 5 15 6 16 7 17 8 18 9 19 10 20 11
REMARK SMILES IDX 9 12 8 13 7 14 6 15 5 16 4 17 3 18 2 19 1 20
REMARK H PARENT
REMARK Flexibility Score: inf
ROOT
ATOM      1  C   UNL     1     217.874  -9.185  23.221  1.00  0.00     0.000 C 
ENDROOT
BRANCH   1   2
ATOM      2  C   UNL     1     217.663  -7.730  23.682  1.00  0.00     0.000 C 
BRANCH   2   3
ATOM      3  C   UNL     1     217.629  -7.528  25.209  1.00  0.00     0.000 C 
BRANCH   3   4
ATOM      4  C   UNL     1     217.847  -8.838  25.986  1.00  0.00     0.000 C 
BRANCH   4   5
ATOM      5  C   UNL     1     217.497  -8.700  27.478  1.00  0.00     0.000 C 
BRANCH   5   6
ATOM      6  C   UNL     1     218.336  -7.621  28.182  1.00  0.00     0.000 C 
BRANCH   6   7
ATOM      7  C   UNL     1     219.740  -8.113  28.576  1.00  0.00     0.006 C 
BRANCH   7   8
ATOM      8  C   UNL     1     219.771  -9.557  29.108  1.00  0.00     0.053 C 
BRANCH   8   9
ATOM      9  C   UNL     1     219.593  -9.631  30.593  1.00  0.00     0.041 C 
ATOM     10  O   UNL     1     220.582  -9.846  31.343  1.00  0.00    -0.550 OA
ATOM     11  O   UNL     1     218.338  -9.431  31.155  1.00  0.00    -0.550 OA
ENDBRANCH   8   9
ENDBRANCH   7   8
ENDBRANCH   6   7
ENDBRANCH   5   6
ENDBRANCH   4   5
ENDBRANCH   3   4
ENDBRANCH   2   3
ENDBRANCH   1   2
BRANCH   1  12
ATOM     12  C   UNL     1     218.677  -9.351  21.915  1.00  0.00     0.000 C 
BRANCH  12  13
ATOM     13  C   UNL     1     219.721  -8.252  21.648  1.00  0.00    -0.000 C 
BRANCH  13  14
ATOM     14  C   UNL     1     221.134  -8.816  21.421  1.00  0.00    -0.000 C 
BRANCH  14  15
ATOM     15  C   UNL     1     222.054  -8.612  22.635  1.00  0.00    -0.000 C 
BRANCH  15  16
ATOM     16  C   UNL     1     221.386  -7.786  23.749  1.00  0.00    -0.000 C 
BRANCH  16  17
ATOM     17  C   UNL     1     221.493  -8.459  25.128  1.00  0.00    -0.000 C 
BRANCH  17  18
ATOM     18  C   UNL     1     221.098  -9.943  25.096  1.00  0.00    -0.000 C 
BRANCH  18  19
ATOM     19  C   UNL     1     221.949 -10.756  26.078  1.00  0.00    -0.003 C 
ATOM     20  C   UNL     1     222.705  -9.843  27.040  1.00  0.00     0.004 C 
ENDBRANCH  18  19
ENDBRANCH  17  18
ENDBRANCH  16  17
ENDBRANCH  15  16
ENDBRANCH  14  15
ENDBRANCH  13  14
ENDBRANCH  12  13
ENDBRANCH   1  12
TORSDOF 16
ENDMDL
MODEL 4
REMARK VINA RESULT:    -5.608      3.245      6.059
REMARK INTER + INTRA:         -13.791
REMARK INTER:                 -10.682
REMARK INTRA:                  -3.108
REMARK UNBOUND:                -2.937
REMARK SMILES CCCCCCCCCCCCCCCCCC(=O)[O-]
REMARK SMILES IDX 10 1 11 2 12 3 13 4 14 5 15 6 16 7 17 8 18 9 19 10 20 11
REMARK SMILES IDX 9 12 8 13 7 14 6 15 5 16 4 17 3 18 2 19 1 20
REMARK H PARENT
REMARK Flexibility Score: inf
ROOT
ATOM      1  C   UNL     1     219.054  -6.504  24.812  1.00  0.00     0.000 C 
ENDROOT
BRANCH   1   2
ATOM      2  C   UNL     1     218.593  -7.193  26.111  1.00  0.00     0.000 C 
BRANCH   2   3
ATOM      3  C   UNL     1     217.620  -8.370  25.914  1.00  0.00     0.000 C 
BRANCH   3   4
ATOM      4  C   UNL     1     217.262  -9.073  27.235  1.00  0.00     0.000 C 
BRANCH   4   5
ATOM      5  C   UNL     1     218.036  -8.496  28.434  1.00  0.00     0.000 C 
BRANCH   5   6
ATOM      6  C   UNL     1     218.438  -9.578  29.450  1.00  0.00     0.000 C 
BRANCH   6   7
ATOM      7  C   UNL     1     219.557  -9.121  30.403  1.00  0.00     0.006 C 
BRANCH   7   8
ATOM      8  C   UNL     1     220.643 -10.184  30.650  1.00  0.00     0.053 C 
BRANCH   8   9
ATOM      9  C   UNL     1     221.816  -9.649  31.413  1.00  0.00     0.041 C 
ATOM     10  O   UNL     1     222.068  -8.414  31.406  1.00  0.00    -0.550 OA
ATOM     11  O   UNL     1     222.613 -10.508  32.158  1.00  0.00    -0.550 OA
ENDBRANCH   8   9
ENDBRANCH   7   8
ENDBRANCH   6   7
ENDBRANCH   5   6
ENDBRANCH   4   5
ENDBRANCH   3   4
ENDBRANCH   2   3
ENDBRANCH   1   2
BRANCH   1  12
ATOM     12  C   UNL     1     220.559  -6.629  24.500  1.00  0.00     0.000 C 
BRANCH  12  13
ATOM     13  C   UNL     1     220.892  -7.243  23.128  1.00  0.00    -0.000 C 
BRANCH  13  14
ATOM     14  C   UNL     1     221.457  -8.670  23.236  1.00  0.00    -0.000 C 
BRANCH  14  15
ATOM     15  C   UNL     1     220.353  -9.734  23.361  1.00  0.00    -0.000 C 
BRANCH  15  16
ATOM     16  C   UNL     1     220.518 -10.610  24.616  1.00  0.00    -0.000 C 
BRANCH  16  17
ATOM     17  C   UNL     1     221.695 -10.162  25.498  1.00  0.00    -0.000 C 
BRANCH  17  18
ATOM     18  C   UNL     1     221.249  -9.701  26.894  1.00  0.00    -0.000 C 
BRANCH  18  19
ATOM     19  C   UNL     1     222.329  -8.837  27.555  1.00  0.00    -0.003 C 
ATOM     20  C   UNL     1     221.777  -7.471  27.952  1.00  0.00     0.004 C 
ENDBRANCH  18  19
ENDBRANCH  17  18
ENDBRANCH  16  17
ENDBRANCH  15  16
ENDBRANCH  14  15
ENDBRANCH  13  14
ENDBRANCH  12  13
ENDBRANCH   1  12
TORSDOF 16
ENDMDL
MODEL 5
REMARK VINA RESULT:    -5.596      2.856      5.722
REMARK INTER + INTRA:         -13.768
REMARK INTER:                 -11.060
REMARK INTRA:                  -2.708
REMARK UNBOUND:                -2.937
REMARK SMILES CCCCCCCCCCCCCCCCCC(=O)[O-]
REMARK SMILES IDX 10 1 11 2 12 3 13 4 14 5 15 6 16 7 17 8 18 9 19 10 20 11
REMARK SMILES IDX 9 12 8 13 7 14 6 15 5 16 4 17 3 18 2 19 1 20
REMARK H PARENT
REMARK Flexibility Score: inf
ROOT
ATOM      1  C   UNL     1     218.253  -7.306  26.313  1.00  0.00     0.000 C 
ENDROOT
BRANCH   1   2
ATOM      2  C   UNL     1     217.235  -8.458  26.421  1.00  0.00     0.000 C 
BRANCH   2   3
ATOM      3  C   UNL     1     217.256  -9.223  27.757  1.00  0.00     0.000 C 
BRANCH   3   4
ATOM      4  C   UNL     1     218.091  -8.512  28.836  1.00  0.00     0.000 C 
BRANCH   4   5
ATOM      5  C   UNL     1     218.670  -9.492  29.871  1.00  0.00     0.000 C 
BRANCH   5   6
ATOM      6  C   UNL     1     220.208  -9.512  29.865  1.00  0.00     0.000 C 
BRANCH   6   7
ATOM      7  C   UNL     1     220.805  -9.434  28.449  1.00  0.00     0.006 C 
BRANCH   7   8
ATOM      8  C   UNL     1     222.051 -10.315  28.245  1.00  0.00     0.053 C 
BRANCH   8   9
ATOM      9  C   UNL     1     223.325  -9.604  28.582  1.00  0.00     0.041 C 
ATOM     10  O   UNL     1     224.171 -10.141  29.345  1.00  0.00    -0.550 OA
ATOM     11  O   UNL     1     223.596  -8.359  28.027  1.00  0.00    -0.550 OA
ENDBRANCH   8   9
ENDBRANCH   7   8
ENDBRANCH   6   7
ENDBRANCH   5   6
ENDBRANCH   4   5
ENDBRANCH   3   4
ENDBRANCH   2   3
ENDBRANCH   1   2
BRANCH   1  12
ATOM     12  C   UNL     1     218.596  -6.865  24.875  1.00  0.00     0.000 C 
BRANCH  12  13
ATOM     13  C   UNL     1     217.548  -7.240  23.811  1.00  0.00    -0.000 C 
BRANCH  13  14
ATOM     14  C   UNL     1     218.106  -8.186  22.733  1.00  0.00    -0.000 C 
BRANCH  14  15
ATOM     15  C   UNL     1     217.500  -9.596  22.815  1.00  0.00    -0.000 C 
BRANCH  15  16
ATOM     16  C   UNL     1     218.407 -10.585  23.570  1.00  0.00    -0.000 C 
BRANCH  16  17
ATOM     17  C   UNL     1     219.898 -10.223  23.457  1.00  0.00    -0.000 C 
BRANCH  17  18
ATOM     18  C   UNL     1     220.563 -10.010  24.826  1.00  0.00    -0.000 C 
BRANCH  18  19
ATOM     19  C   UNL     1     221.602  -8.884  24.759  1.00  0.00    -0.003 C 
ATOM     20  C   UNL     1     221.801  -8.402  23.325  1.00  0.00     0.004 C 
ENDBRANCH  18  19
ENDBRANCH  17  18
ENDBRANCH  16  17
ENDBRANCH  15  16
ENDBRANCH  14  15
ENDBRANCH  13  14
ENDBRANCH  12  13
ENDBRANCH   1  12
TORSDOF 16
ENDMDL
MODEL 6
REMARK VINA RESULT:    -5.578      2.087      5.567
REMARK INTER + INTRA:         -13.732
REMARK INTER:                 -10.929
REMARK INTRA:                  -2.803
REMARK UNBOUND:                -2.937
REMARK SMILES CCCCCCCCCCCCCCCCCC(=O)[O-]
REMARK SMILES IDX 10 1 11 2 12 3 13 4 14 5 15 6 16 7 17 8 18 9 19 10 20 11
REMARK SMILES IDX 9 12 8 13 7 14 6 15 5 16 4 17 3 18 2 19 1 20
REMARK H PARENT
REMARK Flexibility Score: inf
ROOT
ATOM      1  C   UNL     1     221.799  -9.135  23.641  1.00  0.00     0.000 C 
ENDROOT
BRANCH   1   2
ATOM      2  C   UNL     1     221.111 -10.146  24.579  1.00  0.00     0.000 C 
BRANCH   2   3
ATOM      3  C   UNL     1     221.938 -10.561  25.810  1.00  0.00     0.000 C 
BRANCH   3   4
ATOM      4  C   UNL     1     221.513  -9.819  27.089  1.00  0.00     0.000 C 
BRANCH   4   5
ATOM      5  C   UNL     1     222.390  -8.588  27.372  1.00  0.00     0.000 C 
BRANCH   5   6
ATOM      6  C   UNL     1     221.612  -7.460  28.070  1.00  0.00     0.000 C 
BRANCH   6   7
ATOM      7  C   UNL     1     220.819  -7.945  29.296  1.00  0.00     0.006 C 
BRANCH   7   8
ATOM      8  C   UNL     1     219.296  -7.758  29.171  1.00  0.00     0.053 C 
BRANCH   8   9
ATOM      9  C   UNL     1     218.555  -9.059  29.109  1.00  0.00     0.041 C 
ATOM     10  O   UNL     1     218.929 -10.037  29.808  1.00  0.00    -0.550 OA
ATOM     11  O   UNL     1     217.432  -9.182  28.301  1.00  0.00    -0.550 OA
ENDBRANCH   8   9
ENDBRANCH   7   8
ENDBRANCH   6   7
ENDBRANCH   5   6
ENDBRANCH   4   5
ENDBRANCH   3   4
ENDBRANCH   2   3
ENDBRANCH   1   2
BRANCH   1  12
ATOM     12  C   UNL     1     220.980  -7.867  23.326  1.00  0.00     0.000 C 
BRANCH  12  13
ATOM     13  C   UNL     1     220.946  -6.818  24.452  1.00  0.00    -0.000 C 
BRANCH  13  14
ATOM     14  C   UNL     1     219.545  -6.218  24.665  1.00  0.00    -0.000 C 
BRANCH  14  15
ATOM     15  C   UNL     1     218.746  -6.958  25.751  1.00  0.00    -0.000 C 
BRANCH  15  16
ATOM     16  C   UNL     1     217.569  -7.764  25.170  1.00  0.00    -0.000 C 
BRANCH  16  17
ATOM     17  C   UNL     1     217.373  -7.520  23.665  1.00  0.00    -0.000 C 
BRANCH  17  18
ATOM     18  C   UNL     1     217.401  -8.818  22.843  1.00  0.00    -0.000 C 
BRANCH  18  19
ATOM     19  C   UNL     1     217.691 -10.026  23.741  1.00  0.00    -0.003 C 
ATOM     20  C   UNL     1     217.920 -11.287  22.912  1.00  0.00     0.004 C 
ENDBRANCH  18  19
ENDBRANCH  17  18
ENDBRANCH  16  17
ENDBRANCH  15  16
ENDBRANCH  14  15
ENDBRANCH  13  14
ENDBRANCH  12  13
ENDBRANCH   1  12
TORSDOF 16
ENDMDL
MODEL 7
REMARK VINA RESULT:    -5.569      3.005      5.800
REMARK INTER + INTRA:         -13.715
REMARK INTER:                 -11.031
REMARK INTRA:                  -2.684
REMARK UNBOUND:                -2.937
REMARK SMILES CCCCCCCCCCCCCCCCCC(=O)[O-]
REMARK SMILES IDX 10 1 11 2 12 3 13 4 14 5 15 6 16 7 17 8 18 9 19 10 20 11
REMARK SMILES IDX 9 12 8 13 7 14 6 15 5 16 4 17 3 18 2 19 1 20
REMARK H PARENT
REMARK Flexibility Score: inf
ROOT
ATOM      1  C   UNL     1     220.483  -8.371  21.029  1.00  0.00     0.000 C 
ENDROOT
BRANCH   1   2
ATOM      2  C   UNL     1     221.383  -8.648  22.248  1.00  0.00     0.000 C 
BRANCH   2   3
ATOM      3  C   UNL     1     221.314  -7.587  23.363  1.00  0.00     0.000 C 
BRANCH   3   4
ATOM      4  C   UNL     1     221.592  -8.174  24.758  1.00  0.00     0.000 C 
BRANCH   4   5
ATOM      5  C   UNL     1     221.498  -9.709  24.778  1.00  0.00     0.000 C 
BRANCH   5   6
ATOM      6  C   UNL     1     221.821 -10.300  26.161  1.00  0.00     0.000 C 
BRANCH   6   7
ATOM      7  C   UNL     1     221.677  -9.275  27.301  1.00  0.00     0.006 C 
BRANCH   7   8
ATOM      8  C   UNL     1     221.394  -9.904  28.677  1.00  0.00     0.053 C 
BRANCH   8   9
ATOM      9  C   UNL     1     222.064  -9.172  29.799  1.00  0.00     0.041 C 
ATOM     10  O   UNL     1     223.305  -9.284  29.980  1.00  0.00    -0.550 OA
ATOM     11  O   UNL     1     221.323  -8.338  30.627  1.00  0.00    -0.550 OA
ENDBRANCH   8   9
ENDBRANCH   7   8
ENDBRANCH   6   7
ENDBRANCH   5   6
ENDBRANCH   4   5
ENDBRANCH   3   4
ENDBRANCH   2   3
ENDBRANCH   1   2
BRANCH   1  12
ATOM     12  C   UNL     1     219.005  -8.779  21.197  1.00  0.00     0.000 C 
BRANCH  12  13
ATOM     13  C   UNL     1     218.737  -9.816  22.303  1.00  0.00    -0.000 C 
BRANCH  13  14
ATOM     14  C   UNL     1     217.670  -9.351  23.310  1.00  0.00    -0.000 C 
BRANCH  14  15
ATOM     15  C   UNL     1     217.689  -7.830  23.529  1.00  0.00    -0.000 C 
BRANCH  15  16
ATOM     16  C   UNL     1     217.890  -7.450  25.007  1.00  0.00    -0.000 C 
BRANCH  16  17
ATOM     17  C   UNL     1     218.159  -8.673  25.900  1.00  0.00    -0.000 C 
BRANCH  17  18
ATOM     18  C   UNL     1     217.190  -8.765  27.088  1.00  0.00    -0.000 C 
BRANCH  18  19
ATOM     19  C   UNL     1     217.947  -8.679  28.419  1.00  0.00    -0.003 C 
ATOM     20  C   UNL     1     218.590  -7.307  28.599  1.00  0.00     0.004 C 
ENDBRANCH  18  19
ENDBRANCH  17  18
ENDBRANCH  16  17
ENDBRANCH  15  16
ENDBRANCH  14  15
ENDBRANCH  13  14
ENDBRANCH  12  13
ENDBRANCH   1  12
TORSDOF 16
ENDMDL
MODEL 8
REMARK VINA RESULT:    -5.531      2.803      4.665
REMARK INTER + INTRA:         -13.642
REMARK INTER:                 -10.666
REMARK INTRA:                  -2.976
REMARK UNBOUND:                -2.937
REMARK SMILES CCCCCCCCCCCCCCCCCC(=O)[O-]
REMARK SMILES IDX 10 1 11 2 12 3 13 4 14 5 15 6 16 7 17 8 18 9 19 10 20 11
REMARK SMILES IDX 9 12 8 13 7 14 6 15 5 16 4 17 3 18 2 19 1 20
REMARK H PARENT
REMARK Flexibility Score: inf
ROOT
ATOM      1  C   UNL     1     217.998  -8.010  22.770  1.00  0.00     0.000 C 
ENDROOT
BRANCH   1   2
ATOM      2  C   UNL     1     217.922  -9.546  22.856  1.00  0.00     0.000 C 
BRANCH   2   3
ATOM      3  C   UNL     1     219.238 -10.243  23.251  1.00  0.00     0.000 C 
BRANCH   3   4
ATOM      4  C   UNL     1     220.472  -9.350  23.033  1.00  0.00     0.000 C 
BRANCH   4   5
ATOM      5  C   UNL     1     221.416  -9.348  24.247  1.00  0.00     0.000 C 
BRANCH   5   6
ATOM      6  C   UNL     1     220.877 -10.194  25.413  1.00  0.00     0.000 C 
BRANCH   6   7
ATOM      7  C   UNL     1     221.587  -9.900  26.747  1.00  0.00     0.006 C 
BRANCH   7   8
ATOM      8  C   UNL     1     221.831  -8.404  27.011  1.00  0.00     0.053 C 
BRANCH   8   9
ATOM      9  C   UNL     1     222.388  -8.139  28.376  1.00  0.00     0.041 C 
ATOM     10  O   UNL     1     221.905  -7.223  29.093  1.00  0.00    -0.550 OA
ATOM     11  O   UNL     1     223.421  -8.924  28.871  1.00  0.00    -0.550 OA
ENDBRANCH   8   9
ENDBRANCH   7   8
ENDBRANCH   6   7
ENDBRANCH   5   6
ENDBRANCH   4   5
ENDBRANCH   3   4
ENDBRANCH   2   3
ENDBRANCH   1   2
BRANCH   1  12
ATOM     12  C   UNL     1     217.509  -7.256  24.024  1.00  0.00     0.000 C 
BRANCH  12  13
ATOM     13  C   UNL     1     218.625  -6.750  24.956  1.00  0.00    -0.000 C 
BRANCH  13  14
ATOM     14  C   UNL     1     218.453  -7.233  26.407  1.00  0.00    -0.000 C 
BRANCH  14  15
ATOM     15  C   UNL     1     217.672  -8.554  26.501  1.00  0.00    -0.000 C 
BRANCH  15  16
ATOM     16  C   UNL     1     217.511  -9.042  27.952  1.00  0.00    -0.000 C 
BRANCH  16  17
ATOM     17  C   UNL     1     218.223  -8.130  28.964  1.00  0.00    -0.000 C 
BRANCH  17  18
ATOM     18  C   UNL     1     218.632  -8.871  30.247  1.00  0.00    -0.000 C 
BRANCH  18  19
ATOM     19  C   UNL     1     219.554 -10.052  29.925  1.00  0.00    -0.003 C 
ATOM     20  C   UNL     1     220.652 -10.196  30.975  1.00  0.00     0.004 C 
ENDBRANCH  18  19
ENDBRANCH  17  18
ENDBRANCH  16  17
ENDBRANCH  15  16
ENDBRANCH  14  15
ENDBRANCH  13  14
ENDBRANCH  12  13
ENDBRANCH   1  12
TORSDOF 16
ENDMDL
MODEL 9
REMARK VINA RESULT:    -5.431      2.461      5.965
REMARK INTER + INTRA:         -13.447
REMARK INTER:                 -11.056
REMARK INTRA:                  -2.391
REMARK UNBOUND:                -2.937
REMARK SMILES CCCCCCCCCCCCCCCCCC(=O)[O-]
REMARK SMILES IDX 10 1 11 2 12 3 13 4 14 5 15 6 16 7 17 8 18 9 19 10 20 11
REMARK SMILES IDX 9 12 8 13 7 14 6 15 5 16 4 17 3 18 2 19 1 20
REMARK H PARENT
REMARK Flexibility Score: inf
ROOT
ATOM      1  C   UNL     1     218.513  -6.878  25.199  1.00  0.00     0.000 C 
ENDROOT
BRANCH   1   2
ATOM      2  C   UNL     1     218.569  -7.426  26.638  1.00  0.00     0.000 C 
BRANCH   2   3
ATOM      3  C   UNL     1     217.461  -8.434  26.996  1.00  0.00     0.000 C 
BRANCH   3   4
ATOM      4  C   UNL     1     217.787  -9.253  28.257  1.00  0.00     0.000 C 
BRANCH   4   5
ATOM      5  C   UNL     1     217.913  -8.372  29.512  1.00  0.00     0.000 C 
BRANCH   5   6
ATOM      6  C   UNL     1     218.536  -9.126  30.699  1.00  0.00     0.000 C 
BRANCH   6   7
ATOM      7  C   UNL     1     220.022  -9.463  30.484  1.00  0.00     0.006 C 
BRANCH   7   8
ATOM      8  C   UNL     1     220.881  -8.262  30.051  1.00  0.00     0.053 C 
BRANCH   8   9
ATOM      9  C   UNL     1     221.468  -8.432  28.684  1.00  0.00     0.041 C 
ATOM     10  O   UNL     1     221.332  -9.520  28.064  1.00  0.00    -0.550 OA
ATOM     11  O   UNL     1     222.140  -7.378  28.078  1.00  0.00    -0.550 OA
ENDBRANCH   8   9
ENDBRANCH   7   8
ENDBRANCH   6   7
ENDBRANCH   5   6
ENDBRANCH   4   5
ENDBRANCH   3   4
ENDBRANCH   2   3
ENDBRANCH   1   2
BRANCH   1  12
ATOM     12  C   UNL     1     217.481  -7.559  24.277  1.00  0.00     0.000 C 
BRANCH  12  13
ATOM     13  C   UNL     1     217.926  -7.725  22.812  1.00  0.00    -0.000 C 
BRANCH  13  14
ATOM     14  C   UNL     1     218.058  -9.200  22.394  1.00  0.00    -0.000 C 
BRANCH  14  15
ATOM     15  C   UNL     1     219.037  -9.396  21.225  1.00  0.00    -0.000 C 
BRANCH  15  16
ATOM     16  C   UNL     1     220.183  -8.367  21.235  1.00  0.00    -0.000 C 
BRANCH  16  17
ATOM     17  C   UNL     1     221.363  -8.807  22.117  1.00  0.00    -0.000 C 
BRANCH  17  18
ATOM     18  C   UNL     1     221.541  -7.918  23.358  1.00  0.00    -0.000 C 
BRANCH  18  19
ATOM     19  C   UNL     1     221.679  -8.770  24.625  1.00  0.00    -0.003 C 
ATOM     20  C   UNL     1     220.895 -10.073  24.501  1.00  0.00     0.004 C 
ENDBRANCH  18  19
ENDBRANCH  17  18
ENDBRANCH  16  17
ENDBRANCH  15  16
ENDBRANCH  14  15
ENDBRANCH  13  14
ENDBRANCH  12  13
ENDBRANCH   1  12
TORSDOF 16
ENDMDL
