MODEL 1
REMARK VINA RESULT:    -4.802      0.000      0.000
REMARK INTER + INTRA:          -9.831
REMARK INTER:                  -8.170
REMARK INTRA:                  -1.661
REMARK UNBOUND:                -1.661
REMARK SMILES CCCCCCCCCCCCCC(=O)[O-]
REMARK SMILES IDX 8 1 9 2 10 3 11 4 12 5 13 6 14 7 15 8 16 9 7 10 6 11 5 12
REMARK SMILES IDX 4 13 3 14 2 15 1 16
REMARK H PARENT
REMARK Flexibility Score: inf
ROOT
ATOM      1  C   UNL     1     118.969 176.921 124.814  1.00  0.00     0.000 C 
ENDROOT
BRANCH   1   2
ATOM      2  C   UNL     1     120.321 176.278 125.166  1.00  0.00     0.000 C 
BRANCH   2   3
ATOM      3  C   UNL     1     121.507 177.228 124.925  1.00  0.00     0.000 C 
BRANCH   3   4
ATOM      4  C   UNL     1     122.300 177.534 126.208  1.00  0.00     0.000 C 
BRANCH   4   5
ATOM      5  C   UNL     1     121.582 178.438 127.230  1.00  0.00     0.006 C 
BRANCH   5   6
ATOM      6  C   UNL     1     121.498 177.841 128.646  1.00  0.00     0.053 C 
BRANCH   6   7
ATOM      7  C   UNL     1     120.122 177.348 128.979  1.00  0.00     0.041 C 
ATOM      8  O   UNL     1     119.329 178.075 129.634  1.00  0.00    -0.550 OA
ATOM      9  O   UNL     1     119.698 176.103 128.530  1.00  0.00    -0.550 OA
ENDBRANCH   6   7
ENDBRANCH   5   6
ENDBRANCH   4   5
ENDBRANCH   3   4
ENDBRANCH   2   3
ENDBRANCH   1   2
BRANCH   1  10
ATOM     10  C   UNL     1     119.111 178.373 124.330  1.00  0.00     0.000 C 
BRANCH  10  11
ATOM     11  C   UNL     1     118.761 179.360 125.450  1.00  0.00    -0.000 C 
BRANCH  11  12
ATOM     12  C   UNL     1     117.807 178.722 126.471  1.00  0.00    -0.000 C 
BRANCH  12  13
ATOM     13  C   UNL     1     116.604 179.618 126.802  1.00  0.00    -0.000 C 
BRANCH  13  14
ATOM     14  C   UNL     1     115.392 179.338 125.896  1.00  0.00    -0.000 C 
BRANCH  14  15
ATOM     15  C   UNL     1     115.360 177.887 125.391  1.00  0.00    -0.003 C 
ATOM     16  C   UNL     1     115.171 177.790 123.877  1.00  0.00     0.004 C 
ENDBRANCH  14  15
ENDBRANCH  13  14
ENDBRANCH  12  13
ENDBRANCH  11  12
ENDBRANCH  10  11
ENDBRANCH   1  10
TORSDOF 12
ENDMDL
MODEL 2
REMARK VINA RESULT:    -4.780      2.374      5.180
REMARK INTER + INTRA:          -9.793
REMARK INTER:                  -7.635
REMARK INTRA:                  -2.159
REMARK UNBOUND:                -1.661
REMARK SMILES CCCCCCCCCCCCCC(=O)[O-]
REMARK SMILES IDX 8 1 9 2 10 3 11 4 12 5 13 6 14 7 15 8 16 9 7 10 6 11 5 12
REMARK SMILES IDX 4 13 3 14 2 15 1 16
REMARK H PARENT
REMARK Flexibility Score: inf
ROOT
ATOM      1  C   UNL     1     121.165 177.440 129.208  1.00  0.00     0.000 C 
ENDROOT
BRANCH   1   2
ATOM      2  C   UNL     1     119.703 177.866 129.423  1.00  0.00     0.000 C 
BRANCH   2   3
ATOM      3  C   UNL     1     118.702 176.794 128.955  1.00  0.00     0.000 C 
BRANCH   3   4
ATOM      4  C   UNL     1     118.116 177.089 127.564  1.00  0.00     0.000 C 
BRANCH   4   5
ATOM      5  C   UNL     1     117.806 178.571 127.277  1.00  0.00     0.006 C 
BRANCH   5   6
ATOM      6  C   UNL     1     118.114 179.010 125.833  1.00  0.00     0.053 C 
BRANCH   6   7
ATOM      7  C   UNL     1     117.319 178.242 124.820  1.00  0.00     0.041 C 
ATOM      8  O   UNL     1     116.088 178.043 124.998  1.00  0.00    -0.550 OA
ATOM      9  O   UNL     1     117.927 177.781 123.659  1.00  0.00    -0.550 OA
ENDBRANCH   6   7
ENDBRANCH   5   6
ENDBRANCH   4   5
ENDBRANCH   3   4
ENDBRANCH   2   3
ENDBRANCH   1   2
BRANCH   1  10
ATOM     10  C   UNL     1     121.992 178.507 128.473  1.00  0.00     0.000 C 
BRANCH  10  11
ATOM     11  C   UNL     1     121.586 178.595 126.997  1.00  0.00    -0.000 C 
BRANCH  11  12
ATOM     12  C   UNL     1     122.023 177.339 126.228  1.00  0.00    -0.000 C 
BRANCH  12  13
ATOM     13  C   UNL     1     121.173 177.084 124.974  1.00  0.00    -0.000 C 
BRANCH  13  14
ATOM     14  C   UNL     1     120.412 175.749 125.037  1.00  0.00    -0.000 C 
BRANCH  14  15
ATOM     15  C   UNL     1     121.116 174.713 125.929  1.00  0.00    -0.003 C 
ATOM     16  C   UNL     1     120.149 173.964 126.846  1.00  0.00     0.004 C 
ENDBRANCH  14  15
ENDBRANCH  13  14
ENDBRANCH  12  13
ENDBRANCH  11  12
ENDBRANCH  10  11
ENDBRANCH   1  10
TORSDOF 12
ENDMDL
MODEL 3
REMARK VINA RESULT:    -4.764      5.664      7.258
REMARK INTER + INTRA:          -9.767
REMARK INTER:                  -8.765
REMARK INTRA:                  -1.003
REMARK UNBOUND:                -1.661
REMARK SMILES CCCCCCCCCCCCCC(=O)[O-]
REMARK SMILES IDX 8 1 9 2 10 3 11 4 12 5 13 6 14 7 15 8 16 9 7 10 6 11 5 12
REMARK SMILES IDX 4 13 3 14 2 15 1 16
REMARK H PARENT
REMARK Flexibility Score: inf
ROOT
ATOM      1  C   UNL     1     122.295 176.621 124.008  1.00  0.00     0.000 C 
ENDROOT
BRANCH   1   2
ATOM      2  C   UNL     1     123.100 176.627 122.698  1.00  0.00     0.000 C 
BRANCH   2   3
ATOM      3  C   UNL     1     122.255 177.063 121.488  1.00  0.00     0.000 C 
BRANCH   3   4
ATOM      4  C   UNL     1     123.109 177.429 120.261  1.00  0.00     0.000 C 
BRANCH   4   5
ATOM      5  C   UNL     1     123.547 176.240 119.383  1.00  0.00     0.006 C 
BRANCH   5   6
ATOM      6  C   UNL     1     124.185 176.650 118.043  1.00  0.00     0.053 C 
BRANCH   6   7
ATOM      7  C   UNL     1     123.235 177.410 117.166  1.00  0.00     0.041 C 
ATOM      8  O   UNL     1     123.525 178.571 116.774  1.00  0.00    -0.550 OA
ATOM      9  O   UNL     1     122.049 176.820 116.746  1.00  0.00    -0.550 OA
ENDBRANCH   6   7
ENDBRANCH   5   6
ENDBRANCH   4   5
ENDBRANCH   3   4
ENDBRANCH   2   3
ENDBRANCH   1   2
BRANCH   1  10
ATOM     10  C   UNL     1     123.111 177.122 125.209  1.00  0.00     0.000 C 
BRANCH  10  11
ATOM     11  C   UNL     1     122.194 177.698 126.294  1.00  0.00    -0.000 C 
BRANCH  11  12
ATOM     12  C   UNL     1     120.715 177.486 125.936  1.00  0.00    -0.000 C 
BRANCH  12  13
ATOM     13  C   UNL     1     119.840 178.701 126.282  1.00  0.00    -0.000 C 
BRANCH  13  14
ATOM     14  C   UNL     1     118.713 178.927 125.261  1.00  0.00    -0.000 C 
BRANCH  14  15
ATOM     15  C   UNL     1     118.833 178.003 124.038  1.00  0.00    -0.003 C 
ATOM     16  C   UNL     1     119.286 178.742 122.779  1.00  0.00     0.004 C 
ENDBRANCH  14  15
ENDBRANCH  13  14
ENDBRANCH  12  13
ENDBRANCH  11  12
ENDBRANCH  10  11
ENDBRANCH   1  10
TORSDOF 12
ENDMDL
MODEL 4
REMARK VINA RESULT:    -4.755      2.043      4.848
REMARK INTER + INTRA:          -9.751
REMARK INTER:                  -8.345
REMARK INTRA:                  -1.406
REMARK UNBOUND:                -1.661
REMARK SMILES CCCCCCCCCCCCCC(=O)[O-]
REMARK SMILES IDX 8 1 9 2 10 3 11 4 12 5 13 6 14 7 15 8 16 9 7 10 6 11 5 12
REMARK SMILES IDX 4 13 3 14 2 15 1 16
REMARK H PARENT
REMARK Flexibility Score: inf
ROOT
ATOM      1  C   UNL     1     120.726 177.212 125.888  1.00  0.00     0.000 C 
ENDROOT
BRANCH   1   2
ATOM      2  C   UNL     1     120.284 177.535 124.451  1.00  0.00     0.000 C 
BRANCH   2   3
ATOM      3  C   UNL     1     118.937 178.277 124.401  1.00  0.00     0.000 C 
BRANCH   3   4
ATOM      4  C   UNL     1     118.770 179.293 125.544  1.00  0.00     0.000 C 
BRANCH   4   5
ATOM      5  C   UNL     1     117.420 179.238 126.287  1.00  0.00     0.006 C 
BRANCH   5   6
ATOM      6  C   UNL     1     117.362 178.185 127.408  1.00  0.00     0.053 C 
BRANCH   6   7
ATOM      7  C   UNL     1     116.312 177.143 127.162  1.00  0.00     0.041 C 
ATOM      8  O   UNL     1     115.842 176.477 128.122  1.00  0.00    -0.550 OA
ATOM      9  O   UNL     1     115.821 176.937 125.879  1.00  0.00    -0.550 OA
ENDBRANCH   6   7
ENDBRANCH   5   6
ENDBRANCH   4   5
ENDBRANCH   3   4
ENDBRANCH   2   3
ENDBRANCH   1   2
BRANCH   1  10
ATOM     10  C   UNL     1     122.062 177.872 126.260  1.00  0.00     0.000 C 
BRANCH  10  11
ATOM     11  C   UNL     1     122.000 178.483 127.665  1.00  0.00    -0.000 C 
BRANCH  11  12
ATOM     12  C   UNL     1     120.856 177.868 128.484  1.00  0.00    -0.000 C 
BRANCH  12  13
ATOM     13  C   UNL     1     121.060 178.023 130.000  1.00  0.00    -0.000 C 
BRANCH  13  14
ATOM     14  C   UNL     1     121.070 176.672 130.735  1.00  0.00    -0.000 C 
BRANCH  14  15
ATOM     15  C   UNL     1     120.059 175.675 130.148  1.00  0.00    -0.003 C 
ATOM     16  C   UNL     1     118.649 175.860 130.709  1.00  0.00     0.004 C 
ENDBRANCH  14  15
ENDBRANCH  13  14
ENDBRANCH  12  13
ENDBRANCH  11  12
ENDBRANCH  10  11
ENDBRANCH   1  10
TORSDOF 12
ENDMDL
MODEL 5
REMARK VINA RESULT:    -4.747      4.466      6.074
REMARK INTER + INTRA:          -9.739
REMARK INTER:                  -8.428
REMARK INTRA:                  -1.311
REMARK UNBOUND:                -1.661
REMARK SMILES CCCCCCCCCCCCCC(=O)[O-]
REMARK SMILES IDX 8 1 9 2 10 3 11 4 12 5 13 6 14 7 15 8 16 9 7 10 6 11 5 12
REMARK SMILES IDX 4 13 3 14 2 15 1 16
REMARK H PARENT
REMARK Flexibility Score: inf
ROOT
ATOM      1  C   UNL     1     122.578 177.843 126.364  1.00  0.00     0.000 C 
ENDROOT
BRANCH   1   2
ATOM      2  C   UNL     1     122.103 176.763 125.379  1.00  0.00     0.000 C 
BRANCH   2   3
ATOM      3  C   UNL     1     123.027 176.634 124.155  1.00  0.00     0.000 C 
BRANCH   3   4
ATOM      4  C   UNL     1     122.255 176.407 122.843  1.00  0.00     0.000 C 
BRANCH   4   5
ATOM      5  C   UNL     1     122.886 177.038 121.586  1.00  0.00     0.006 C 
BRANCH   5   6
ATOM      6  C   UNL     1     122.147 176.705 120.277  1.00  0.00     0.053 C 
BRANCH   6   7
ATOM      7  C   UNL     1     123.088 176.433 119.142  1.00  0.00     0.041 C 
ATOM      8  O   UNL     1     122.639 176.118 118.008  1.00  0.00    -0.550 OA
ATOM      9  O   UNL     1     124.459 176.568 119.323  1.00  0.00    -0.550 OA
ENDBRANCH   6   7
ENDBRANCH   5   6
ENDBRANCH   4   5
ENDBRANCH   3   4
ENDBRANCH   2   3
ENDBRANCH   1   2
BRANCH   1  10
ATOM     10  C   UNL     1     121.579 178.086 127.506  1.00  0.00     0.000 C 
BRANCH  10  11
ATOM     11  C   UNL     1     120.259 177.350 127.246  1.00  0.00    -0.000 C 
BRANCH  11  12
ATOM     12  C   UNL     1     119.055 178.273 127.495  1.00  0.00    -0.000 C 
BRANCH  12  13
ATOM     13  C   UNL     1     118.206 178.494 126.234  1.00  0.00    -0.000 C 
BRANCH  13  14
ATOM     14  C   UNL     1     119.033 179.028 125.051  1.00  0.00    -0.000 C 
BRANCH  14  15
ATOM     15  C   UNL     1     119.020 178.073 123.847  1.00  0.00    -0.003 C 
ATOM     16  C   UNL     1     119.434 178.756 122.544  1.00  0.00     0.004 C 
ENDBRANCH  14  15
ENDBRANCH  13  14
ENDBRANCH  12  13
ENDBRANCH  11  12
ENDBRANCH  10  11
ENDBRANCH   1  10
TORSDOF 12
ENDMDL
MODEL 6
REMARK VINA RESULT:    -4.741      2.698      5.010
REMARK INTER + INTRA:          -9.727
REMARK INTER:                  -8.090
REMARK INTRA:                  -1.637
REMARK UNBOUND:                -1.661
REMARK SMILES CCCCCCCCCCCCCC(=O)[O-]
REMARK SMILES IDX 8 1 9 2 10 3 11 4 12 5 13 6 14 7 15 8 16 9 7 10 6 11 5 12
REMARK SMILES IDX 4 13 3 14 2 15 1 16
REMARK H PARENT
REMARK Flexibility Score: inf
ROOT
ATOM      1  C   UNL     1     121.596 178.542 127.040  1.00  0.00     0.000 C 
ENDROOT
BRANCH   1   2
ATOM      2  C   UNL     1     120.798 177.421 126.353  1.00  0.00     0.000 C 
BRANCH   2   3
ATOM      3  C   UNL     1     119.669 177.963 125.460  1.00  0.00     0.000 C 
BRANCH   3   4
ATOM      4  C   UNL     1     118.267 177.618 125.991  1.00  0.00     0.000 C 
BRANCH   4   5
ATOM      5  C   UNL     1     117.717 178.567 127.074  1.00  0.00     0.006 C 
BRANCH   5   6
ATOM      6  C   UNL     1     116.502 179.398 126.625  1.00  0.00     0.053 C 
BRANCH   6   7
ATOM      7  C   UNL     1     115.381 178.543 126.114  1.00  0.00     0.041 C 
ATOM      8  O   UNL     1     114.691 177.858 126.914  1.00  0.00    -0.550 OA
ATOM      9  O   UNL     1     115.071 178.534 124.760  1.00  0.00    -0.550 OA
ENDBRANCH   6   7
ENDBRANCH   5   6
ENDBRANCH   4   5
ENDBRANCH   3   4
ENDBRANCH   2   3
ENDBRANCH   1   2
BRANCH   1  10
ATOM     10  C   UNL     1     121.892 178.242 128.517  1.00  0.00     0.000 C 
BRANCH  10  11
ATOM     11  C   UNL     1     120.595 177.988 129.296  1.00  0.00    -0.000 C 
BRANCH  11  12
ATOM     12  C   UNL     1     120.799 176.907 130.368  1.00  0.00    -0.000 C 
BRANCH  12  13
ATOM     13  C   UNL     1     120.198 175.551 129.966  1.00  0.00    -0.000 C 
BRANCH  13  14
ATOM     14  C   UNL     1     118.898 175.698 129.157  1.00  0.00    -0.000 C 
BRANCH  14  15
ATOM     15  C   UNL     1     117.644 175.629 130.042  1.00  0.00    -0.003 C 
ATOM     16  C   UNL     1     116.347 175.793 129.249  1.00  0.00     0.004 C 
ENDBRANCH  14  15
ENDBRANCH  13  14
ENDBRANCH  12  13
ENDBRANCH  11  12
ENDBRANCH  10  11
ENDBRANCH   1  10
TORSDOF 12
ENDMDL
MODEL 7
REMARK VINA RESULT:    -4.721      1.941      4.946
REMARK INTER + INTRA:          -9.694
REMARK INTER:                  -7.760
REMARK INTRA:                  -1.934
REMARK UNBOUND:                -1.661
REMARK SMILES CCCCCCCCCCCCCC(=O)[O-]
REMARK SMILES IDX 8 1 9 2 10 3 11 4 12 5 13 6 14 7 15 8 16 9 7 10 6 11 5 12
REMARK SMILES IDX 4 13 3 14 2 15 1 16
REMARK H PARENT
REMARK Flexibility Score: inf
ROOT
ATOM      1  C   UNL     1     118.793 178.757 125.050  1.00  0.00     0.000 C 
ENDROOT
BRANCH   1   2
ATOM      2  C   UNL     1     117.329 178.442 125.397  1.00  0.00     0.000 C 
BRANCH   2   3
ATOM      3  C   UNL     1     117.021 178.639 126.892  1.00  0.00     0.000 C 
BRANCH   3   4
ATOM      4  C   UNL     1     118.205 178.265 127.801  1.00  0.00     0.000 C 
BRANCH   4   5
ATOM      5  C   UNL     1     118.069 176.921 128.545  1.00  0.00     0.006 C 
BRANCH   5   6
ATOM      6  C   UNL     1     116.841 176.092 128.127  1.00  0.00     0.053 C 
BRANCH   6   7
ATOM      7  C   UNL     1     117.208 174.919 127.269  1.00  0.00     0.041 C 
ATOM      8  O   UNL     1     116.545 174.662 126.230  1.00  0.00    -0.550 OA
ATOM      9  O   UNL     1     118.308 174.133 127.593  1.00  0.00    -0.550 OA
ENDBRANCH   6   7
ENDBRANCH   5   6
ENDBRANCH   4   5
ENDBRANCH   3   4
ENDBRANCH   2   3
ENDBRANCH   1   2
BRANCH   1  10
ATOM     10  C   UNL     1     119.411 177.728 124.092  1.00  0.00     0.000 C 
BRANCH  10  11
ATOM     11  C   UNL     1     119.525 176.354 124.761  1.00  0.00    -0.000 C 
BRANCH  11  12
ATOM     12  C   UNL     1     120.636 176.348 125.823  1.00  0.00    -0.000 C 
BRANCH  12  13
ATOM     13  C   UNL     1     121.999 176.778 125.259  1.00  0.00    -0.000 C 
BRANCH  13  14
ATOM     14  C   UNL     1     122.726 177.780 126.173  1.00  0.00    -0.000 C 
BRANCH  14  15
ATOM     15  C   UNL     1     121.754 178.605 127.031  1.00  0.00    -0.003 C 
ATOM     16  C   UNL     1     121.917 178.346 128.529  1.00  0.00     0.004 C 
ENDBRANCH  14  15
ENDBRANCH  13  14
ENDBRANCH  12  13
ENDBRANCH  11  12
ENDBRANCH  10  11
ENDBRANCH   1  10
TORSDOF 12
ENDMDL
MODEL 8
REMARK VINA RESULT:    -4.711      1.340      3.101
REMARK INTER + INTRA:          -9.677
REMARK INTER:                  -8.020
REMARK INTRA:                  -1.657
REMARK UNBOUND:                -1.661
REMARK SMILES CCCCCCCCCCCCCC(=O)[O-]
REMARK SMILES IDX 8 1 9 2 10 3 11 4 12 5 13 6 14 7 15 8 16 9 7 10 6 11 5 12
REMARK SMILES IDX 4 13 3 14 2 15 1 16
REMARK H PARENT
REMARK Flexibility Score: inf
ROOT
ATOM      1  C   UNL     1     122.404 177.538 126.117  1.00  0.00     0.000 C 
ENDROOT
BRANCH   1   2
ATOM      2  C   UNL     1     121.587 178.463 127.035  1.00  0.00     0.000 C 
BRANCH   2   3
ATOM      3  C   UNL     1     121.969 178.308 128.518  1.00  0.00     0.000 C 
BRANCH   3   4
ATOM      4  C   UNL     1     120.800 177.816 129.389  1.00  0.00     0.000 C 
BRANCH   4   5
ATOM      5  C   UNL     1     119.412 177.857 128.719  1.00  0.00     0.006 C 
BRANCH   5   6
ATOM      6  C   UNL     1     118.766 176.473 128.528  1.00  0.00     0.053 C 
BRANCH   6   7
ATOM      7  C   UNL     1     119.130 175.515 129.622  1.00  0.00     0.041 C 
ATOM      8  O   UNL     1     118.652 175.660 130.778  1.00  0.00    -0.550 OA
ATOM      9  O   UNL     1     119.965 174.436 129.357  1.00  0.00    -0.550 OA
ENDBRANCH   6   7
ENDBRANCH   5   6
ENDBRANCH   4   5
ENDBRANCH   3   4
ENDBRANCH   2   3
ENDBRANCH   1   2
BRANCH   1  10
ATOM     10  C   UNL     1     121.615 177.081 124.881  1.00  0.00     0.000 C 
BRANCH  10  11
ATOM     11  C   UNL     1     120.282 176.441 125.286  1.00  0.00    -0.000 C 
BRANCH  11  12
ATOM     12  C   UNL     1     119.136 176.941 124.392  1.00  0.00    -0.000 C 
BRANCH  12  13
ATOM     13  C   UNL     1     119.167 178.463 124.182  1.00  0.00    -0.000 C 
BRANCH  13  14
ATOM     14  C   UNL     1     118.609 179.237 125.388  1.00  0.00    -0.000 C 
BRANCH  14  15
ATOM     15  C   UNL     1     117.241 178.706 125.845  1.00  0.00    -0.003 C 
ATOM     16  C   UNL     1     116.407 179.761 126.573  1.00  0.00     0.004 C 
ENDBRANCH  14  15
ENDBRANCH  13  14
ENDBRANCH  12  13
ENDBRANCH  11  12
ENDBRANCH  10  11
ENDBRANCH   1  10
TORSDOF 12
ENDMDL
MODEL 9
REMARK VINA RESULT:    -4.678      2.651      4.965
REMARK INTER + INTRA:          -9.620
REMARK INTER:                  -7.760
REMARK INTRA:                  -1.860
REMARK UNBOUND:                -1.661
REMARK SMILES CCCCCCCCCCCCCC(=O)[O-]
REMARK SMILES IDX 8 1 9 2 10 3 11 4 12 5 13 6 14 7 15 8 16 9 7 10 6 11 5 12
REMARK SMILES IDX 4 13 3 14 2 15 1 16
REMARK H PARENT
REMARK Flexibility Score: inf
ROOT
ATOM      1  C   UNL     1     121.180 178.625 127.005  1.00  0.00     0.000 C 
ENDROOT
BRANCH   1   2
ATOM      2  C   UNL     1     121.633 177.587 125.965  1.00  0.00     0.000 C 
BRANCH   2   3
ATOM      3  C   UNL     1     120.599 177.387 124.844  1.00  0.00     0.000 C 
BRANCH   3   4
ATOM      4  C   UNL     1     119.343 178.257 125.025  1.00  0.00     0.000 C 
BRANCH   4   5
ATOM      5  C   UNL     1     118.090 177.777 124.265  1.00  0.00     0.006 C 
BRANCH   5   6
ATOM      6  C   UNL     1     116.923 177.358 125.178  1.00  0.00     0.053 C 
BRANCH   6   7
ATOM      7  C   UNL     1     115.648 178.070 124.838  1.00  0.00     0.041 C 
ATOM      8  O   UNL     1     114.990 177.740 123.816  1.00  0.00    -0.550 OA
ATOM      9  O   UNL     1     115.162 179.069 125.673  1.00  0.00    -0.550 OA
ENDBRANCH   6   7
ENDBRANCH   5   6
ENDBRANCH   4   5
ENDBRANCH   3   4
ENDBRANCH   2   3
ENDBRANCH   1   2
BRANCH   1  10
ATOM     10  C   UNL     1     121.961 178.523 128.325  1.00  0.00     0.000 C 
BRANCH  10  11
ATOM     11  C   UNL     1     121.179 177.709 129.363  1.00  0.00    -0.000 C 
BRANCH  11  12
ATOM     12  C   UNL     1     119.665 177.816 129.122  1.00  0.00    -0.000 C 
BRANCH  12  13
ATOM     13  C   UNL     1     118.953 176.457 129.207  1.00  0.00    -0.000 C 
BRANCH  13  14
ATOM     14  C   UNL     1     118.790 175.789 127.831  1.00  0.00    -0.000 C 
BRANCH  14  15
ATOM     15  C   UNL     1     119.872 174.731 127.561  1.00  0.00    -0.003 C 
ATOM     16  C   UNL     1     119.682 174.017 126.222  1.00  0.00     0.004 C 
ENDBRANCH  14  15
ENDBRANCH  13  14
ENDBRANCH  12  13
ENDBRANCH  11  12
ENDBRANCH  10  11
ENDBRANCH   1  10
TORSDOF 12
ENDMDL
