MODEL 1
REMARK VINA RESULT:    -4.548      0.000      0.000
REMARK INTER + INTRA:          -6.244
REMARK INTER:                  -6.143
REMARK INTRA:                  -0.101
REMARK UNBOUND:                -0.101
REMARK SMILES [NH3+]CCCC[C@@H]([NH3+])C(=O)[O-]
REMARK SMILES IDX 4 1 3 2 2 3 1 4 5 8 6 9 7 10 8 14 9 15 10 16
REMARK H PARENT 1 5 1 6 1 7 7 11 7 12 7 13
REMARK Flexibility Score: inf
ROOT
ATOM      1  C   UNL     1       8.671   0.865  21.881  1.00  0.00     0.012 C 
ENDROOT
BRANCH   1   2
ATOM      2  C   UNL     1       8.870   1.074  23.389  1.00  0.00     0.061 C 
BRANCH   2   3
ATOM      3  C   UNL     1       9.453  -0.167  24.086  1.00  0.00     0.258 C 
BRANCH   3   4
ATOM      4  N   UNL     1       9.651  -1.281  23.157  1.00  0.00    -0.358 N 
ATOM      5  H   UNL     1      10.653  -1.582  23.154  1.00  0.00     0.344 HD
ATOM      6  H   UNL     1       9.394  -0.969  22.193  1.00  0.00     0.344 HD
ATOM      7  H   UNL     1       9.037  -2.086  23.416  1.00  0.00     0.344 HD
ENDBRANCH   3   4
ENDBRANCH   2   3
ENDBRANCH   1   2
BRANCH   1   8
ATOM      8  C   UNL     1       8.143   2.144  21.214  1.00  0.00     0.072 C 
BRANCH   8   9
ATOM      9  C   UNL     1       6.923   1.881  20.302  1.00  0.00     0.227 C 
BRANCH   9  10
ATOM     10  N   UNL     1       5.666   1.865  21.063  1.00  0.00    -0.350 N 
ATOM     11  H   UNL     1       5.017   2.597  20.692  1.00  0.00     0.345 HD
ATOM     12  H   UNL     1       5.844   2.048  22.078  1.00  0.00     0.345 HD
ATOM     13  H   UNL     1       5.191   0.941  20.955  1.00  0.00     0.345 HD
ENDBRANCH   9  10
BRANCH   9  14
ATOM     14  C   UNL     1       6.863   2.936  19.230  1.00  0.00     0.099 C 
ATOM     15  O   UNL     1       7.832   3.094  18.441  1.00  0.00    -0.544 OA
ATOM     16  O   UNL     1       5.746   3.756  19.115  1.00  0.00    -0.544 OA
ENDBRANCH   9  14
ENDBRANCH   8   9
ENDBRANCH   1   8
TORSDOF 7
ENDMDL
MODEL 2
REMARK VINA RESULT:    -4.510      3.401      4.948
REMARK INTER + INTRA:          -6.193
REMARK INTER:                  -5.930
REMARK INTRA:                  -0.263
REMARK UNBOUND:                -0.101
REMARK SMILES [NH3+]CCCC[C@@H]([NH3+])C(=O)[O-]
REMARK SMILES IDX 4 1 3 2 2 3 1 4 5 8 6 9 7 10 8 14 9 15 10 16
REMARK H PARENT 1 5 1 6 1 7 7 11 7 12 7 13
REMARK Flexibility Score: inf
ROOT
ATOM      1  C   UNL     1       7.417   2.585  21.676  1.00  0.00     0.012 C 
ENDROOT
BRANCH   1   2
ATOM      2  C   UNL     1       6.809   2.251  20.305  1.00  0.00     0.061 C 
BRANCH   2   3
ATOM      3  C   UNL     1       7.806   2.456  19.151  1.00  0.00     0.258 C 
BRANCH   3   4
ATOM      4  N   UNL     1       7.997   1.237  18.363  1.00  0.00    -0.358 N 
ATOM      5  H   UNL     1       8.976   0.884  18.466  1.00  0.00     0.344 HD
ATOM      6  H   UNL     1       7.825   1.455  17.355  1.00  0.00     0.344 HD
ATOM      7  H   UNL     1       7.318   0.500  18.660  1.00  0.00     0.344 HD
ENDBRANCH   3   4
ENDBRANCH   2   3
ENDBRANCH   1   2
BRANCH   1   8
ATOM      8  C   UNL     1       8.751   1.850  21.878  1.00  0.00     0.072 C 
BRANCH   8   9
ATOM      9  C   UNL     1       8.562   0.383  22.324  1.00  0.00     0.227 C 
BRANCH   9  10
ATOM     10  N   UNL     1       8.997  -0.563  21.287  1.00  0.00    -0.350 N 
ATOM     11  H   UNL     1       8.236  -0.693  20.582  1.00  0.00     0.345 HD
ATOM     12  H   UNL     1       9.237  -1.491  21.707  1.00  0.00     0.345 HD
ATOM     13  H   UNL     1       9.831  -0.186  20.782  1.00  0.00     0.345 HD
ENDBRANCH   9  10
BRANCH   9  14
ATOM     14  C   UNL     1       9.330   0.143  23.596  1.00  0.00     0.099 C 
ATOM     15  O   UNL     1       9.930  -0.949  23.778  1.00  0.00    -0.544 OA
ATOM     16  O   UNL     1       9.368   1.118  24.586  1.00  0.00    -0.544 OA
ENDBRANCH   9  14
ENDBRANCH   8   9
ENDBRANCH   1   8
TORSDOF 7
ENDMDL
MODEL 3
REMARK VINA RESULT:    -4.507      6.361      7.332
REMARK INTER + INTRA:          -6.188
REMARK INTER:                  -6.081
REMARK INTRA:                  -0.107
REMARK UNBOUND:                -0.101
REMARK SMILES [NH3+]CCCC[C@@H]([NH3+])C(=O)[O-]
REMARK SMILES IDX 4 1 3 2 2 3 1 4 5 8 6 9 7 10 8 14 9 15 10 16
REMARK H PARENT 1 5 1 6 1 7 7 11 7 12 7 13
REMARK Flexibility Score: inf
ROOT
ATOM      1  C   UNL     1       8.429   6.093  25.355  1.00  0.00     0.012 C 
ENDROOT
BRANCH   1   2
ATOM      2  C   UNL     1       7.563   4.832  25.219  1.00  0.00     0.061 C 
BRANCH   2   3
ATOM      3  C   UNL     1       6.238   4.939  25.994  1.00  0.00     0.258 C 
BRANCH   3   4
ATOM      4  N   UNL     1       6.064   6.254  26.612  1.00  0.00    -0.358 N 
ATOM      5  H   UNL     1       6.157   7.011  25.896  1.00  0.00     0.344 HD
ATOM      6  H   UNL     1       6.805   6.389  27.338  1.00  0.00     0.344 HD
ATOM      7  H   UNL     1       5.132   6.317  27.080  1.00  0.00     0.344 HD
ENDBRANCH   3   4
ENDBRANCH   2   3
ENDBRANCH   1   2
BRANCH   1   8
ATOM      8  C   UNL     1       9.622   6.047  24.387  1.00  0.00     0.072 C 
BRANCH   8   9
ATOM      9  C   UNL     1      10.975   6.277  25.097  1.00  0.00     0.227 C 
BRANCH   9  10
ATOM     10  N   UNL     1      11.324   5.158  25.982  1.00  0.00    -0.350 N 
ATOM     11  H   UNL     1      11.841   4.426  25.443  1.00  0.00     0.345 HD
ATOM     12  H   UNL     1      10.463   4.731  26.399  1.00  0.00     0.345 HD
ATOM     13  H   UNL     1      11.953   5.487  26.748  1.00  0.00     0.345 HD
ENDBRANCH   9  10
BRANCH   9  14
ATOM     14  C   UNL     1      12.054   6.474  24.066  1.00  0.00     0.099 C 
ATOM     15  O   UNL     1      11.896   7.306  23.134  1.00  0.00    -0.544 OA
ATOM     16  O   UNL     1      13.224   5.725  24.124  1.00  0.00    -0.544 OA
ENDBRANCH   9  14
ENDBRANCH   8   9
ENDBRANCH   1   8
TORSDOF 7
ENDMDL
MODEL 4
REMARK VINA RESULT:    -4.481      1.339      1.730
REMARK INTER + INTRA:          -6.153
REMARK INTER:                  -6.033
REMARK INTRA:                  -0.120
REMARK UNBOUND:                -0.101
REMARK SMILES [NH3+]CCCC[C@@H]([NH3+])C(=O)[O-]
REMARK SMILES IDX 4 1 3 2 2 3 1 4 5 8 6 9 7 10 8 14 9 15 10 16
REMARK H PARENT 1 5 1 6 1 7 7 11 7 12 7 13
REMARK Flexibility Score: inf
ROOT
ATOM      1  C   UNL     1       7.653   1.856  22.114  1.00  0.00     0.012 C 
ENDROOT
BRANCH   1   2
ATOM      2  C   UNL     1       8.848   0.895  22.207  1.00  0.00     0.061 C 
BRANCH   2   3
ATOM      3  C   UNL     1       9.071   0.366  23.634  1.00  0.00     0.258 C 
BRANCH   3   4
ATOM      4  N   UNL     1       9.600  -0.999  23.642  1.00  0.00    -0.358 N 
ATOM      5  H   UNL     1       9.112  -1.584  22.925  1.00  0.00     0.344 HD
ATOM      6  H   UNL     1       9.437  -1.421  24.585  1.00  0.00     0.344 HD
ATOM      7  H   UNL     1      10.629  -0.993  23.458  1.00  0.00     0.344 HD
ENDBRANCH   3   4
ENDBRANCH   2   3
ENDBRANCH   1   2
BRANCH   1   8
ATOM      8  C   UNL     1       6.923   1.694  20.772  1.00  0.00     0.072 C 
BRANCH   8   9
ATOM      9  C   UNL     1       7.717   2.288  19.586  1.00  0.00     0.227 C 
BRANCH   9  10
ATOM     10  N   UNL     1       7.936   1.296  18.525  1.00  0.00    -0.350 N 
ATOM     11  H   UNL     1       7.328   1.514  17.702  1.00  0.00     0.345 HD
ATOM     12  H   UNL     1       7.716   0.331  18.866  1.00  0.00     0.345 HD
ATOM     13  H   UNL     1       8.928   1.330  18.199  1.00  0.00     0.345 HD
ENDBRANCH   9  10
BRANCH   9  14
ATOM     14  C   UNL     1       6.977   3.477  19.034  1.00  0.00     0.099 C 
ATOM     15  O   UNL     1       5.734   3.584  19.201  1.00  0.00    -0.544 OA
ATOM     16  O   UNL     1       7.659   4.457  18.320  1.00  0.00    -0.544 OA
ENDBRANCH   9  14
ENDBRANCH   8   9
ENDBRANCH   1   8
TORSDOF 7
ENDMDL
MODEL 5
REMARK VINA RESULT:    -4.430      5.442      6.470
REMARK INTER + INTRA:          -6.085
REMARK INTER:                  -5.584
REMARK INTRA:                  -0.501
REMARK UNBOUND:                -0.101
REMARK SMILES [NH3+]CCCC[C@@H]([NH3+])C(=O)[O-]
REMARK SMILES IDX 4 1 3 2 2 3 1 4 5 8 6 9 7 10 8 14 9 15 10 16
REMARK H PARENT 1 5 1 6 1 7 7 11 7 12 7 13
REMARK Flexibility Score: inf
ROOT
ATOM      1  C   UNL     1       7.978   3.375  24.767  1.00  0.00     0.012 C 
ENDROOT
BRANCH   1   2
ATOM      2  C   UNL     1       7.207   3.790  26.029  1.00  0.00     0.061 C 
BRANCH   2   3
ATOM      3  C   UNL     1       6.058   4.767  25.725  1.00  0.00     0.258 C 
BRANCH   3   4
ATOM      4  N   UNL     1       6.177   6.013  26.483  1.00  0.00    -0.358 N 
ATOM      5  H   UNL     1       7.181   6.219  26.694  1.00  0.00     0.344 HD
ATOM      6  H   UNL     1       5.660   5.912  27.387  1.00  0.00     0.344 HD
ATOM      7  H   UNL     1       5.754   6.806  25.951  1.00  0.00     0.344 HD
ENDBRANCH   3   4
ENDBRANCH   2   3
ENDBRANCH   1   2
BRANCH   1   8
ATOM      8  C   UNL     1       9.484   3.630  24.935  1.00  0.00     0.072 C 
BRANCH   8   9
ATOM      9  C   UNL     1       9.789   5.019  25.542  1.00  0.00     0.227 C 
BRANCH   9  10
ATOM     10  N   UNL     1      11.183   5.123  25.995  1.00  0.00    -0.350 N 
ATOM     11  H   UNL     1      11.211   5.447  26.989  1.00  0.00     0.345 HD
ATOM     12  H   UNL     1      11.718   5.797  25.400  1.00  0.00     0.345 HD
ATOM     13  H   UNL     1      11.644   4.186  25.958  1.00  0.00     0.345 HD
ENDBRANCH   9  10
BRANCH   9  14
ATOM     14  C   UNL     1       9.498   6.086  24.521  1.00  0.00     0.099 C 
ATOM     15  O   UNL     1       8.676   7.004  24.780  1.00  0.00    -0.544 OA
ATOM     16  O   UNL     1      10.121   6.055  23.278  1.00  0.00    -0.544 OA
ENDBRANCH   9  14
ENDBRANCH   8   9
ENDBRANCH   1   8
TORSDOF 7
ENDMDL
MODEL 6
REMARK VINA RESULT:    -4.381      3.752      4.905
REMARK INTER + INTRA:          -6.018
REMARK INTER:                  -5.497
REMARK INTRA:                  -0.521
REMARK UNBOUND:                -0.101
REMARK SMILES [NH3+]CCCC[C@@H]([NH3+])C(=O)[O-]
REMARK SMILES IDX 4 1 3 2 2 3 1 4 5 8 6 9 7 10 8 14 9 15 10 16
REMARK H PARENT 1 5 1 6 1 7 7 11 7 12 7 13
REMARK Flexibility Score: inf
ROOT
ATOM      1  C   UNL     1       7.308   2.323  22.425  1.00  0.00     0.012 C 
ENDROOT
BRANCH   1   2
ATOM      2  C   UNL     1       8.429   2.544  21.399  1.00  0.00     0.061 C 
BRANCH   2   3
ATOM      3  C   UNL     1       8.482   1.436  20.333  1.00  0.00     0.258 C 
BRANCH   3   4
ATOM      4  N   UNL     1       8.998   0.176  20.871  1.00  0.00    -0.358 N 
ATOM      5  H   UNL     1       9.330  -0.444  20.096  1.00  0.00     0.344 HD
ATOM      6  H   UNL     1       8.229  -0.314  21.384  1.00  0.00     0.344 HD
ATOM      7  H   UNL     1       9.777   0.357  21.543  1.00  0.00     0.344 HD
ENDBRANCH   3   4
ENDBRANCH   2   3
ENDBRANCH   1   2
BRANCH   1   8
ATOM      8  C   UNL     1       7.795   2.641  23.847  1.00  0.00     0.072 C 
BRANCH   8   9
ATOM      9  C   UNL     1       9.102   1.900  24.209  1.00  0.00     0.227 C 
BRANCH   9  10
ATOM     10  N   UNL     1       9.794   2.536  25.339  1.00  0.00    -0.350 N 
ATOM     11  H   UNL     1      10.492   3.229  24.984  1.00  0.00     0.345 HD
ATOM     12  H   UNL     1      10.288   1.821  25.922  1.00  0.00     0.345 HD
ATOM     13  H   UNL     1       9.110   3.056  25.934  1.00  0.00     0.345 HD
ENDBRANCH   9  10
BRANCH   9  14
ATOM     14  C   UNL     1       8.790   0.465  24.538  1.00  0.00     0.099 C 
ATOM     15  O   UNL     1       9.329  -0.466  23.886  1.00  0.00    -0.544 OA
ATOM     16  O   UNL     1       7.888   0.159  25.552  1.00  0.00    -0.544 OA
ENDBRANCH   9  14
ENDBRANCH   8   9
ENDBRANCH   1   8
TORSDOF 7
ENDMDL
MODEL 7
REMARK VINA RESULT:    -4.355      6.025      6.742
REMARK INTER + INTRA:          -5.983
REMARK INTER:                  -5.905
REMARK INTRA:                  -0.078
REMARK UNBOUND:                -0.101
REMARK SMILES [NH3+]CCCC[C@@H]([NH3+])C(=O)[O-]
REMARK SMILES IDX 4 1 3 2 2 3 1 4 5 8 6 9 7 10 8 14 9 15 10 16
REMARK H PARENT 1 5 1 6 1 7 7 11 7 12 7 13
REMARK Flexibility Score: inf
ROOT
ATOM      1  C   UNL     1       8.432   6.214  25.203  1.00  0.00     0.012 C 
ENDROOT
BRANCH   1   2
ATOM      2  C   UNL     1       9.488   6.534  24.135  1.00  0.00     0.061 C 
BRANCH   2   3
ATOM      3  C   UNL     1      10.812   7.029  24.743  1.00  0.00     0.258 C 
BRANCH   3   4
ATOM      4  N   UNL     1      11.040   8.453  24.488  1.00  0.00    -0.358 N 
ATOM      5  H   UNL     1      10.239   9.022  24.847  1.00  0.00     0.344 HD
ATOM      6  H   UNL     1      11.120   8.604  23.456  1.00  0.00     0.344 HD
ATOM      7  H   UNL     1      11.930   8.766  24.935  1.00  0.00     0.344 HD
ENDBRANCH   3   4
ENDBRANCH   2   3
ENDBRANCH   1   2
BRANCH   1   8
ATOM      8  C   UNL     1       7.957   4.758  25.085  1.00  0.00     0.072 C 
BRANCH   8   9
ATOM      9  C   UNL     1       6.771   4.440  26.024  1.00  0.00     0.227 C 
BRANCH   9  10
ATOM     10  N   UNL     1       5.871   5.592  26.175  1.00  0.00    -0.350 N 
ATOM     11  H   UNL     1       4.878   5.287  26.051  1.00  0.00     0.345 HD
ATOM     12  H   UNL     1       6.093   6.332  25.469  1.00  0.00     0.345 HD
ATOM     13  H   UNL     1       5.958   5.993  27.136  1.00  0.00     0.345 HD
ENDBRANCH   9  10
BRANCH   9  14
ATOM     14  C   UNL     1       6.009   3.259  25.485  1.00  0.00     0.099 C 
ATOM     15  O   UNL     1       6.164   2.896  24.290  1.00  0.00    -0.544 OA
ATOM     16  O   UNL     1       5.114   2.572  26.299  1.00  0.00    -0.544 OA
ENDBRANCH   9  14
ENDBRANCH   8   9
ENDBRANCH   1   8
TORSDOF 7
ENDMDL
MODEL 8
REMARK VINA RESULT:    -4.332      6.337      6.852
REMARK INTER + INTRA:          -5.952
REMARK INTER:                  -5.853
REMARK INTRA:                  -0.099
REMARK UNBOUND:                -0.101
REMARK SMILES [NH3+]CCCC[C@@H]([NH3+])C(=O)[O-]
REMARK SMILES IDX 4 1 3 2 2 3 1 4 5 8 6 9 7 10 8 14 9 15 10 16
REMARK H PARENT 1 5 1 6 1 7 7 11 7 12 7 13
REMARK Flexibility Score: inf
ROOT
ATOM      1  C   UNL     1      10.704   6.259  23.493  1.00  0.00     0.012 C 
ENDROOT
BRANCH   1   2
ATOM      2  C   UNL     1      11.906   5.871  24.366  1.00  0.00     0.061 C 
BRANCH   2   3
ATOM      3  C   UNL     1      13.235   5.909  23.592  1.00  0.00     0.258 C 
BRANCH   3   4
ATOM      4  N   UNL     1      14.333   6.436  24.404  1.00  0.00    -0.358 N 
ATOM      5  H   UNL     1      14.790   7.244  23.922  1.00  0.00     0.344 HD
ATOM      6  H   UNL     1      15.046   5.683  24.542  1.00  0.00     0.344 HD
ATOM      7  H   UNL     1      13.983   6.732  25.343  1.00  0.00     0.344 HD
ENDBRANCH   3   4
ENDBRANCH   2   3
ENDBRANCH   1   2
BRANCH   1   8
ATOM      8  C   UNL     1       9.460   5.441  23.876  1.00  0.00     0.072 C 
BRANCH   8   9
ATOM      9  C   UNL     1       8.812   5.925  25.193  1.00  0.00     0.227 C 
BRANCH   9  10
ATOM     10  N   UNL     1       8.540   7.369  25.170  1.00  0.00    -0.350 N 
ATOM     11  H   UNL     1       8.543   7.747  26.145  1.00  0.00     0.345 HD
ATOM     12  H   UNL     1       7.611   7.565  24.729  1.00  0.00     0.345 HD
ATOM     13  H   UNL     1       9.288   7.868  24.637  1.00  0.00     0.345 HD
ENDBRANCH   9  10
BRANCH   9  14
ATOM     14  C   UNL     1       7.535   5.164  25.432  1.00  0.00     0.099 C 
ATOM     15  O   UNL     1       6.636   5.650  26.167  1.00  0.00    -0.544 OA
ATOM     16  O   UNL     1       7.348   3.912  24.857  1.00  0.00    -0.544 OA
ENDBRANCH   9  14
ENDBRANCH   8   9
ENDBRANCH   1   8
TORSDOF 7
ENDMDL
MODEL 9
REMARK VINA RESULT:    -4.284      5.430      6.320
REMARK INTER + INTRA:          -5.887
REMARK INTER:                  -5.363
REMARK INTRA:                  -0.524
REMARK UNBOUND:                -0.101
REMARK SMILES [NH3+]CCCC[C@@H]([NH3+])C(=O)[O-]
REMARK SMILES IDX 4 1 3 2 2 3 1 4 5 8 6 9 7 10 8 14 9 15 10 16
REMARK H PARENT 1 5 1 6 1 7 7 11 7 12 7 13
REMARK Flexibility Score: inf
ROOT
ATOM      1  C   UNL     1       9.573   4.468  24.809  1.00  0.00     0.012 C 
ENDROOT
BRANCH   1   2
ATOM      2  C   UNL     1       9.523   5.603  23.775  1.00  0.00     0.061 C 
BRANCH   2   3
ATOM      3  C   UNL     1       9.692   6.992  24.414  1.00  0.00     0.258 C 
BRANCH   3   4
ATOM      4  N   UNL     1       8.528   7.378  25.213  1.00  0.00    -0.358 N 
ATOM      5  H   UNL     1       8.287   8.383  25.047  1.00  0.00     0.344 HD
ATOM      6  H   UNL     1       8.755   7.253  26.227  1.00  0.00     0.344 HD
ATOM      7  H   UNL     1       7.709   6.771  24.983  1.00  0.00     0.344 HD
ENDBRANCH   3   4
ENDBRANCH   2   3
ENDBRANCH   1   2
BRANCH   1   8
ATOM      8  C   UNL     1       8.534   3.384  24.485  1.00  0.00     0.072 C 
BRANCH   8   9
ATOM      9  C   UNL     1       7.082   3.910  24.555  1.00  0.00     0.227 C 
BRANCH   9  10
ATOM     10  N   UNL     1       6.122   2.931  24.028  1.00  0.00    -0.350 N 
ATOM     11  H   UNL     1       5.301   3.427  23.610  1.00  0.00     0.345 HD
ATOM     12  H   UNL     1       5.786   2.293  24.787  1.00  0.00     0.345 HD
ATOM     13  H   UNL     1       6.564   2.364  23.270  1.00  0.00     0.345 HD
ENDBRANCH   9  10
BRANCH   9  14
ATOM     14  C   UNL     1       6.741   4.249  25.981  1.00  0.00     0.099 C 
ATOM     15  O   UNL     1       6.444   5.431  26.298  1.00  0.00    -0.544 OA
ATOM     16  O   UNL     1       6.770   3.264  26.962  1.00  0.00    -0.544 OA
ENDBRANCH   9  14
ENDBRANCH   8   9
ENDBRANCH   1   8
TORSDOF 7
ENDMDL
