MODEL 1
REMARK VINA RESULT:     0.000      0.000      0.000
REMARK INTER + INTRA:           0.000
REMARK INTER:                   0.000
REMARK INTRA:                   0.000
REMARK UNBOUND:                 0.000
REMARK SMILES C=C1CCC[C@@]2(C)C=C3OC(=O)C(C)=C3C[C@H]12
REMARK SMILES IDX 14 1 13 2 15 3 16 4 17 5 2 6 1 7 3 8 4 9 5 10 6 11 8 12 9 13
REMARK SMILES IDX 10 14 11 15 12 16 7 17
REMARK H PARENT
REMARK Flexibility Score: inf
ROOT
ATOM      1  C   UNL     1     131.931 127.745 164.420  1.00  0.00     0.053 C 
ATOM      2  C   UNL     1     131.176 128.037 165.677  1.00  0.00     0.041 C 
ATOM      3  C   UNL     1     130.142 128.864 165.806  1.00  0.00     0.005 C 
ATOM      4  C   UNL     1     129.515 129.761 164.783  1.00  0.00     0.049 C 
ATOM      5  C   UNL     1     128.080 130.148 165.246  1.00  0.00     0.029 C 
ATOM      6  C   UNL     1     127.383 131.194 164.378  1.00  0.00    -0.073 C 
ATOM      7  C   UNL     1     127.833 131.574 163.168  1.00  0.00     0.008 C 
ATOM      8  C   UNL     1     126.096 131.801 164.892  1.00  0.00     0.031 C 
ATOM      9  C   UNL     1     125.525 131.001 166.068  1.00  0.00     0.005 C 
ATOM     10  C   UNL     1     126.535 130.796 167.217  1.00  0.00     0.012 C 
ATOM     11  C   UNL     1     128.023 130.589 166.762  1.00  0.00    -0.004 C 
ATOM     12  C   UNL     1     128.671 129.529 167.648  1.00  0.00     0.027 C 
ATOM     13  C   UNL     1     129.676 128.794 167.180  1.00  0.00     0.131 C 
ATOM     14  O   UNL     1     130.421 127.867 167.893  1.00  0.00    -0.423 OA
ATOM     15  C   UNL     1     131.349 127.386 166.979  1.00  0.00     0.339 C 
ATOM     16  O   UNL     1     132.211 126.509 167.248  1.00  0.00    -0.246 OA
ATOM     17  C   UNL     1     128.813 131.904 166.981  1.00  0.00     0.016 C 
ENDROOT
TORSDOF 0
ENDMDL
MODEL 2
REMARK VINA RESULT:     0.000      1.428      2.233
REMARK INTER + INTRA:           0.000
REMARK INTER:                   0.000
REMARK INTRA:                   0.000
REMARK UNBOUND:                 0.000
REMARK SMILES C=C1CCC[C@@]2(C)C=C3OC(=O)C(C)=C3C[C@H]12
REMARK SMILES IDX 14 1 13 2 15 3 16 4 17 5 2 6 1 7 3 8 4 9 5 10 6 11 8 12 9 13
REMARK SMILES IDX 10 14 11 15 12 16 7 17
REMARK H PARENT
REMARK Flexibility Score: inf
ROOT
ATOM      1  C   UNL     1     130.679 128.719 166.191  1.00  0.00     0.053 C 
ATOM      2  C   UNL     1     129.524 128.712 167.140  1.00  0.00     0.041 C 
ATOM      3  C   UNL     1     128.365 129.347 166.984  1.00  0.00     0.005 C 
ATOM      4  C   UNL     1     127.936 130.275 165.890  1.00  0.00     0.049 C 
ATOM      5  C   UNL     1     126.382 130.371 165.875  1.00  0.00     0.029 C 
ATOM      6  C   UNL     1     125.810 131.413 164.915  1.00  0.00    -0.073 C 
ATOM      7  C   UNL     1     126.539 132.025 163.963  1.00  0.00     0.008 C 
ATOM      8  C   UNL     1     124.336 131.739 165.016  1.00  0.00     0.031 C 
ATOM      9  C   UNL     1     123.586 130.703 165.859  1.00  0.00     0.005 C 
ATOM     10  C   UNL     1     124.200 130.491 167.258  1.00  0.00     0.012 C 
ATOM     11  C   UNL     1     125.766 130.578 167.315  1.00  0.00    -0.004 C 
ATOM     12  C   UNL     1     126.289 129.513 168.274  1.00  0.00     0.027 C 
ATOM     13  C   UNL     1     127.511 129.012 168.110  1.00  0.00     0.131 C 
ATOM     14  O   UNL     1     128.154 128.116 168.951  1.00  0.00    -0.423 OA
ATOM     15  C   UNL     1     129.397 127.916 168.365  1.00  0.00     0.339 C 
ATOM     16  O   UNL     1     130.279 127.149 168.833  1.00  0.00    -0.246 OA
ATOM     17  C   UNL     1     126.182 131.952 167.897  1.00  0.00     0.016 C 
ENDROOT
TORSDOF 0
ENDMDL
MODEL 3
REMARK VINA RESULT:     0.000      2.312      3.368
REMARK INTER + INTRA:           0.000
REMARK INTER:                   0.000
REMARK INTRA:                   0.000
REMARK UNBOUND:                 0.000
REMARK SMILES C=C1CCC[C@@]2(C)C=C3OC(=O)C(C)=C3C[C@H]12
REMARK SMILES IDX 14 1 13 2 15 3 16 4 17 5 2 6 1 7 3 8 4 9 5 10 6 11 8 12 9 13
REMARK SMILES IDX 10 14 11 15 12 16 7 17
REMARK H PARENT
REMARK Flexibility Score: inf
ROOT
ATOM      1  C   UNL     1     130.569 129.904 166.226  1.00  0.00     0.053 C 
ATOM      2  C   UNL     1     129.328 130.332 166.941  1.00  0.00     0.041 C 
ATOM      3  C   UNL     1     128.547 131.362 166.626  1.00  0.00     0.005 C 
ATOM      4  C   UNL     1     128.726 132.391 165.553  1.00  0.00     0.049 C 
ATOM      5  C   UNL     1     127.357 133.072 165.258  1.00  0.00     0.029 C 
ATOM      6  C   UNL     1     127.422 134.259 164.298  1.00  0.00    -0.073 C 
ATOM      7  C   UNL     1     128.503 134.553 163.552  1.00  0.00     0.008 C 
ATOM      8  C   UNL     1     126.188 135.123 164.152  1.00  0.00     0.031 C 
ATOM      9  C   UNL     1     124.952 134.446 164.752  1.00  0.00     0.005 C 
ATOM     10  C   UNL     1     125.146 134.008 166.219  1.00  0.00     0.012 C 
ATOM     11  C   UNL     1     126.585 133.489 166.571  1.00  0.00    -0.004 C 
ATOM     12  C   UNL     1     126.467 132.300 167.519  1.00  0.00     0.027 C 
ATOM     13  C   UNL     1     127.421 131.371 167.543  1.00  0.00     0.131 C 
ATOM     14  O   UNL     1     127.499 130.293 168.411  1.00  0.00    -0.423 OA
ATOM     15  C   UNL     1     128.669 129.637 168.050  1.00  0.00     0.339 C 
ATOM     16  O   UNL     1     129.087 128.589 168.608  1.00  0.00    -0.246 OA
ATOM     17  C   UNL     1     127.355 134.598 167.332  1.00  0.00     0.016 C 
ENDROOT
TORSDOF 0
ENDMDL
MODEL 4
REMARK VINA RESULT:     0.000      2.164      3.004
REMARK INTER + INTRA:           0.000
REMARK INTER:                   0.000
REMARK INTRA:                   0.000
REMARK UNBOUND:                 0.000
REMARK SMILES C=C1CCC[C@@]2(C)C=C3OC(=O)C(C)=C3C[C@H]12
REMARK SMILES IDX 14 1 13 2 15 3 16 4 17 5 2 6 1 7 3 8 4 9 5 10 6 11 8 12 9 13
REMARK SMILES IDX 10 14 11 15 12 16 7 17
REMARK H PARENT
REMARK Flexibility Score: inf
ROOT
ATOM      1  C   UNL     1     130.586 129.198 166.675  1.00  0.00     0.053 C 
ATOM      2  C   UNL     1     129.588 129.380 167.773  1.00  0.00     0.041 C 
ATOM      3  C   UNL     1     128.686 130.353 167.871  1.00  0.00     0.005 C 
ATOM      4  C   UNL     1     128.474 131.539 166.981  1.00  0.00     0.049 C 
ATOM      5  C   UNL     1     127.040 132.102 167.205  1.00  0.00     0.029 C 
ATOM      6  C   UNL     1     126.743 133.415 166.481  1.00  0.00    -0.073 C 
ATOM      7  C   UNL     1     127.534 133.929 165.521  1.00  0.00     0.008 C 
ATOM      8  C   UNL     1     125.470 134.151 166.838  1.00  0.00     0.031 C 
ATOM      9  C   UNL     1     124.512 133.264 167.640  1.00  0.00     0.005 C 
ATOM     10  C   UNL     1     125.159 132.643 168.895  1.00  0.00     0.012 C 
ATOM     11  C   UNL     1     126.667 132.240 168.734  1.00  0.00    -0.004 C 
ATOM     12  C   UNL     1     126.910 130.921 169.460  1.00  0.00     0.027 C 
ATOM     13  C   UNL     1     127.884 130.108 169.056  1.00  0.00     0.131 C 
ATOM     14  O   UNL     1     128.283 128.932 169.672  1.00  0.00    -0.423 OA
ATOM     15  C   UNL     1     129.332 128.465 168.889  1.00  0.00     0.339 C 
ATOM     16  O   UNL     1     129.961 127.400 169.121  1.00  0.00    -0.246 OA
ATOM     17  C   UNL     1     127.558 133.305 169.422  1.00  0.00     0.016 C 
ENDROOT
TORSDOF 0
ENDMDL
MODEL 5
REMARK VINA RESULT:     0.000      9.382     11.339
REMARK INTER + INTRA:           0.000
REMARK INTER:                   0.000
REMARK INTRA:                   0.000
REMARK UNBOUND:                 0.000
REMARK SMILES C=C1CCC[C@@]2(C)C=C3OC(=O)C(C)=C3C[C@H]12
REMARK SMILES IDX 14 1 13 2 15 3 16 4 17 5 2 6 1 7 3 8 4 9 5 10 6 11 8 12 9 13
REMARK SMILES IDX 10 14 11 15 12 16 7 17
REMARK H PARENT
REMARK Flexibility Score: inf
ROOT
ATOM      1  C   UNL     1     135.421 125.734 155.044  1.00  0.00     0.053 C 
ATOM      2  C   UNL     1     135.032 127.178 155.030  1.00  0.00     0.041 C 
ATOM      3  C   UNL     1     133.849 127.684 155.367  1.00  0.00     0.005 C 
ATOM      4  C   UNL     1     132.595 126.969 155.768  1.00  0.00     0.049 C 
ATOM      5  C   UNL     1     131.658 127.957 156.523  1.00  0.00     0.029 C 
ATOM      6  C   UNL     1     130.270 127.407 156.847  1.00  0.00    -0.073 C 
ATOM      7  C   UNL     1     129.943 126.106 156.739  1.00  0.00     0.008 C 
ATOM      8  C   UNL     1     129.222 128.374 157.354  1.00  0.00     0.031 C 
ATOM      9  C   UNL     1     129.847 129.706 157.783  1.00  0.00     0.005 C 
ATOM     10  C   UNL     1     130.712 130.358 156.684  1.00  0.00     0.012 C 
ATOM     11  C   UNL     1     131.522 129.352 155.794  1.00  0.00    -0.004 C 
ATOM     12  C   UNL     1     132.902 129.938 155.509  1.00  0.00     0.027 C 
ATOM     13  C   UNL     1     133.932 129.130 155.270  1.00  0.00     0.131 C 
ATOM     14  O   UNL     1     135.212 129.515 154.903  1.00  0.00    -0.423 OA
ATOM     15  C   UNL     1     135.908 128.321 154.756  1.00  0.00     0.339 C 
ATOM     16  O   UNL     1     137.123 128.251 154.434  1.00  0.00    -0.246 OA
ATOM     17  C   UNL     1     130.810 129.190 154.427  1.00  0.00     0.016 C 
ENDROOT
TORSDOF 0
ENDMDL
MODEL 6
REMARK VINA RESULT:     0.000     10.733     12.349
REMARK INTER + INTRA:           0.000
REMARK INTER:                   0.000
REMARK INTRA:                   0.000
REMARK UNBOUND:                 0.000
REMARK SMILES C=C1CCC[C@@]2(C)C=C3OC(=O)C(C)=C3C[C@H]12
REMARK SMILES IDX 14 1 13 2 15 3 16 4 17 5 2 6 1 7 3 8 4 9 5 10 6 11 8 12 9 13
REMARK SMILES IDX 10 14 11 15 12 16 7 17
REMARK H PARENT
REMARK Flexibility Score: inf
ROOT
ATOM      1  C   UNL     1     133.326 125.048 153.807  1.00  0.00     0.053 C 
ATOM      2  C   UNL     1     133.429 126.535 153.688  1.00  0.00     0.041 C 
ATOM      3  C   UNL     1     132.475 127.421 153.959  1.00  0.00     0.005 C 
ATOM      4  C   UNL     1     131.054 127.183 154.372  1.00  0.00     0.049 C 
ATOM      5  C   UNL     1     130.487 128.472 155.035  1.00  0.00     0.029 C 
ATOM      6  C   UNL     1     128.994 128.428 155.357  1.00  0.00    -0.073 C 
ATOM      7  C   UNL     1     128.261 127.299 155.326  1.00  0.00     0.008 C 
ATOM      8  C   UNL     1     128.318 129.716 155.771  1.00  0.00     0.031 C 
ATOM      9  C   UNL     1     129.340 130.800 156.128  1.00  0.00     0.005 C 
ATOM     10  C   UNL     1     130.375 131.056 155.013  1.00  0.00     0.012 C 
ATOM     11  C   UNL     1     130.817 129.780 154.213  1.00  0.00    -0.004 C 
ATOM     12  C   UNL     1     132.313 129.865 153.927  1.00  0.00     0.027 C 
ATOM     13  C   UNL     1     133.025 128.751 153.769  1.00  0.00     0.131 C 
ATOM     14  O   UNL     1     134.362 128.672 153.413  1.00  0.00    -0.423 OA
ATOM     15  C   UNL     1     134.631 127.310 153.363  1.00  0.00     0.339 C 
ATOM     16  O   UNL     1     135.758 126.826 153.080  1.00  0.00    -0.246 OA
ATOM     17  C   UNL     1     130.097 129.762 152.841  1.00  0.00     0.016 C 
ENDROOT
TORSDOF 0
ENDMDL
MODEL 7
REMARK VINA RESULT:     0.000      9.925     11.862
REMARK INTER + INTRA:           0.000
REMARK INTER:                   0.000
REMARK INTRA:                   0.000
REMARK UNBOUND:                 0.000
REMARK SMILES C=C1CCC[C@@]2(C)C=C3OC(=O)C(C)=C3C[C@H]12
REMARK SMILES IDX 14 1 13 2 15 3 16 4 17 5 2 6 1 7 3 8 4 9 5 10 6 11 8 12 9 13
REMARK SMILES IDX 10 14 11 15 12 16 7 17
REMARK H PARENT
REMARK Flexibility Score: inf
ROOT
ATOM      1  C   UNL     1     133.433 123.399 154.084  1.00  0.00     0.053 C 
ATOM      2  C   UNL     1     133.421 124.893 154.028  1.00  0.00     0.041 C 
ATOM      3  C   UNL     1     132.576 125.703 154.661  1.00  0.00     0.005 C 
ATOM      4  C   UNL     1     131.397 125.357 155.517  1.00  0.00     0.049 C 
ATOM      5  C   UNL     1     131.032 126.578 156.411  1.00  0.00     0.029 C 
ATOM      6  C   UNL     1     129.744 126.424 157.217  1.00  0.00    -0.073 C 
ATOM      7  C   UNL     1     129.098 125.253 157.369  1.00  0.00     0.008 C 
ATOM      8  C   UNL     1     129.191 127.648 157.915  1.00  0.00     0.031 C 
ATOM      9  C   UNL     1     130.223 128.780 157.969  1.00  0.00     0.005 C 
ATOM     10  C   UNL     1     130.800 129.148 156.586  1.00  0.00     0.012 C 
ATOM     11  C   UNL     1     130.999 127.938 155.607  1.00  0.00    -0.004 C 
ATOM     12  C   UNL     1     132.301 128.131 154.836  1.00  0.00     0.027 C 
ATOM     13  C   UNL     1     132.966 127.073 154.377  1.00  0.00     0.131 C 
ATOM     14  O   UNL     1     134.102 127.095 153.584  1.00  0.00    -0.423 OA
ATOM     15  C   UNL     1     134.401 125.756 153.362  1.00  0.00     0.339 C 
ATOM     16  O   UNL     1     135.383 125.359 152.683  1.00  0.00    -0.246 OA
ATOM     17  C   UNL     1     129.853 127.931 154.563  1.00  0.00     0.016 C 
ENDROOT
TORSDOF 0
ENDMDL
MODEL 8
REMARK VINA RESULT:     0.000      9.031     11.494
REMARK INTER + INTRA:           0.000
REMARK INTER:                   0.000
REMARK INTRA:                   0.000
REMARK UNBOUND:                 0.000
REMARK SMILES C=C1CCC[C@@]2(C)C=C3OC(=O)C(C)=C3C[C@H]12
REMARK SMILES IDX 14 1 13 2 15 3 16 4 17 5 2 6 1 7 3 8 4 9 5 10 6 11 8 12 9 13
REMARK SMILES IDX 10 14 11 15 12 16 7 17
REMARK H PARENT
REMARK Flexibility Score: inf
ROOT
ATOM      1  C   UNL     1     133.433 123.399 154.084  1.00  0.00     0.053 C 
ATOM      2  C   UNL     1     133.983 124.739 154.455  1.00  0.00     0.041 C 
ATOM      3  C   UNL     1     133.616 125.487 155.492  1.00  0.00     0.005 C 
ATOM      4  C   UNL     1     132.535 125.242 156.499  1.00  0.00     0.049 C 
ATOM      5  C   UNL     1     132.801 126.110 157.763  1.00  0.00     0.029 C 
ATOM      6  C   UNL     1     131.686 126.085 158.808  1.00  0.00    -0.073 C 
ATOM      7  C   UNL     1     130.673 125.200 158.791  1.00  0.00     0.008 C 
ATOM      8  C   UNL     1     131.753 127.085 159.943  1.00  0.00     0.031 C 
ATOM      9  C   UNL     1     133.134 127.742 160.034  1.00  0.00     0.005 C 
ATOM     10  C   UNL     1     133.596 128.383 158.708  1.00  0.00     0.012 C 
ATOM     11  C   UNL     1     133.170 127.606 157.413  1.00  0.00    -0.004 C 
ATOM     12  C   UNL     1     134.317 127.648 156.408  1.00  0.00     0.027 C 
ATOM     13  C   UNL     1     134.452 126.674 155.511  1.00  0.00     0.131 C 
ATOM     14  O   UNL     1     135.379 126.626 154.481  1.00  0.00    -0.423 OA
ATOM     15  C   UNL     1     135.108 125.434 153.822  1.00  0.00     0.339 C 
ATOM     16  O   UNL     1     135.752 125.022 152.822  1.00  0.00    -0.246 OA
ATOM     17  C   UNL     1     131.967 128.329 156.755  1.00  0.00     0.016 C 
ENDROOT
TORSDOF 0
ENDMDL
MODEL 9
REMARK VINA RESULT:     0.000      9.656     10.843
REMARK INTER + INTRA:           0.000
REMARK INTER:                   0.000
REMARK INTRA:                   0.000
REMARK UNBOUND:                 0.000
REMARK SMILES C=C1CCC[C@@]2(C)C=C3OC(=O)C(C)=C3C[C@H]12
REMARK SMILES IDX 14 1 13 2 15 3 16 4 17 5 2 6 1 7 3 8 4 9 5 10 6 11 8 12 9 13
REMARK SMILES IDX 10 14 11 15 12 16 7 17
REMARK H PARENT
REMARK Flexibility Score: inf
ROOT
ATOM      1  C   UNL     1     121.183 123.250 159.188  1.00  0.00     0.053 C 
ATOM      2  C   UNL     1     121.654 123.931 160.434  1.00  0.00     0.041 C 
ATOM      3  C   UNL     1     122.414 123.400 161.389  1.00  0.00     0.005 C 
ATOM      4  C   UNL     1     122.929 121.999 161.517  1.00  0.00     0.049 C 
ATOM      5  C   UNL     1     124.138 121.983 162.498  1.00  0.00     0.029 C 
ATOM      6  C   UNL     1     124.661 120.592 162.852  1.00  0.00    -0.073 C 
ATOM      7  C   UNL     1     124.305 119.474 162.192  1.00  0.00     0.008 C 
ATOM      8  C   UNL     1     125.665 120.475 163.979  1.00  0.00     0.031 C 
ATOM      9  C   UNL     1     126.248 121.840 164.357  1.00  0.00     0.005 C 
ATOM     10  C   UNL     1     125.172 122.896 164.685  1.00  0.00     0.012 C 
ATOM     11  C   UNL     1     123.866 122.803 163.820  1.00  0.00    -0.004 C 
ATOM     12  C   UNL     1     123.391 124.213 163.482  1.00  0.00     0.027 C 
ATOM     13  C   UNL     1     122.683 124.429 162.376  1.00  0.00     0.131 C 
ATOM     14  O   UNL     1     122.106 125.629 161.990  1.00  0.00    -0.423 OA
ATOM     15  C   UNL     1     121.470 125.341 160.789  1.00  0.00     0.339 C 
ATOM     16  O   UNL     1     120.831 126.188 160.111  1.00  0.00    -0.246 OA
ATOM     17  C   UNL     1     122.745 122.138 164.657  1.00  0.00     0.016 C 
ENDROOT
TORSDOF 0
ENDMDL
