MODEL 1
REMARK VINA RESULT:    -5.481      0.000      0.000
REMARK INTER + INTRA:          -9.623
REMARK INTER:                  -8.045
REMARK INTRA:                  -1.578
REMARK UNBOUND:                -1.578
REMARK SMILES Cc1cc2c(C(C)C)c(O)c(O)c(C=O)c2c(O)c1-c1c(C)cc2c(C(C)C)c(O)c(O)c(C=O)c2c1O
REMARK SMILES IDX 1 1 2 2 3 3 4 4 16 5 13 6 11 7 9 8 5 9 17 10 19 11 20 12
REMARK SMILES IDX 37 13 21 14 36 15 23 16 22 17 24 18 33 19 25 20 31 21 29 22
REMARK SMILES IDX 38 23 34 25 35 26 26 27 27 28 28 29 32 30 30 32 18 34 6 36
REMARK SMILES IDX 7 37 8 38 14 39 15 40 10 41 12 43
REMARK H PARENT 38 24 32 31 30 33 18 35 10 42 12 44
REMARK Flexibility Score: inf
ROOT
ATOM      1  C   UNL     1      68.354  28.856  62.361  1.00  0.00     0.045 C 
ATOM      2  C   UNL     1      68.617  29.094  60.893  1.00  0.00    -0.039 A 
ATOM      3  C   UNL     1      69.863  29.577  60.490  1.00  0.00     0.013 A 
ATOM      4  C   UNL     1      70.167  29.808  59.130  1.00  0.00    -0.006 A 
ATOM      5  C   UNL     1      69.228  29.394  58.139  1.00  0.00     0.039 A 
ATOM      6  C   UNL     1      69.621  29.410  56.767  1.00  0.00     0.072 A 
ATOM      7  C   UNL     1      70.921  29.834  56.416  1.00  0.00     0.169 A 
ATOM      8  C   UNL     1      71.791  30.339  57.389  1.00  0.00     0.162 A 
ATOM      9  C   UNL     1      71.399  30.416  58.742  1.00  0.00     0.008 A 
ATOM     10  C   UNL     1      67.923  28.994  58.556  1.00  0.00     0.132 A 
ATOM     11  C   UNL     1      67.627  28.845  59.929  1.00  0.00     0.031 A 
ENDROOT
BRANCH  11  12
ATOM     12  C   UNL     1      66.272  28.408  60.357  1.00  0.00     0.031 A 
ATOM     13  C   UNL     1      65.267  29.364  60.615  1.00  0.00     0.132 A 
ATOM     14  C   UNL     1      65.986  27.040  60.480  1.00  0.00    -0.039 A 
ATOM     15  C   UNL     1      63.984  28.953  61.081  1.00  0.00     0.039 A 
ATOM     16  C   UNL     1      64.698  26.635  60.832  1.00  0.00     0.013 A 
ATOM     17  C   UNL     1      67.045  25.997  60.211  1.00  0.00     0.045 C 
ATOM     18  C   UNL     1      63.684  27.558  61.157  1.00  0.00    -0.006 A 
ATOM     19  C   UNL     1      62.971  29.894  61.423  1.00  0.00     0.072 A 
ATOM     20  C   UNL     1      62.368  27.128  61.525  1.00  0.00     0.008 A 
ATOM     21  C   UNL     1      61.650  29.463  61.586  1.00  0.00     0.169 A 
ATOM     22  C   UNL     1      61.338  28.099  61.583  1.00  0.00     0.162 A 
BRANCH  13  23
ATOM     23  O   UNL     1      65.524  30.716  60.359  1.00  0.00    -0.507 OA
ATOM     24  H   UNL     1      66.217  31.262  60.852  1.00  0.00     0.293 HD
ENDBRANCH  13  23
BRANCH  19  25
ATOM     25  C   UNL     1      63.244  31.326  61.683  1.00  0.00     0.264 C 
ATOM     26  O   UNL     1      62.897  32.208  60.853  1.00  0.00    -0.298 OA
ENDBRANCH  19  25
BRANCH  20  27
ATOM     27  C   UNL     1      62.024  25.678  61.922  1.00  0.00     0.017 C 
ATOM     28  C   UNL     1      61.513  25.574  63.366  1.00  0.00     0.012 C 
ATOM     29  C   UNL     1      61.125  24.936  60.912  1.00  0.00     0.012 C 
ENDBRANCH  20  27
BRANCH  21  30
ATOM     30  O   UNL     1      60.639  30.411  61.778  1.00  0.00    -0.504 OA
ATOM     31  H   UNL     1      60.080  30.454  62.622  1.00  0.00     0.293 HD
ENDBRANCH  21  30
BRANCH  22  32
ATOM     32  O   UNL     1      59.985  27.745  61.644  1.00  0.00    -0.504 OA
ATOM     33  H   UNL     1      59.575  27.209  62.397  1.00  0.00     0.293 HD
ENDBRANCH  22  32
ENDBRANCH  11  12
BRANCH  10  34
ATOM     34  O   UNL     1      66.914  28.771  57.612  1.00  0.00    -0.507 OA
ATOM     35  H   UNL     1      66.603  27.852  57.323  1.00  0.00     0.293 HD
ENDBRANCH  10  34
BRANCH   9  36
ATOM     36  C   UNL     1      72.298  31.141  59.758  1.00  0.00     0.017 C 
ATOM     37  C   UNL     1      71.550  32.296  60.431  1.00  0.00     0.012 C 
ATOM     38  C   UNL     1      72.930  30.199  60.800  1.00  0.00     0.012 C 
ENDBRANCH   9  36
BRANCH   6  39
ATOM     39  C   UNL     1      68.740  28.902  55.697  1.00  0.00     0.264 C 
ATOM     40  O   UNL     1      68.200  29.697  54.882  1.00  0.00    -0.298 OA
ENDBRANCH   6  39
BRANCH   8  41
ATOM     41  O   UNL     1      73.074  30.747  57.012  1.00  0.00    -0.504 OA
ATOM     42  H   UNL     1      73.632  31.390  57.560  1.00  0.00     0.293 HD
ENDBRANCH   8  41
BRANCH   7  43
ATOM     43  O   UNL     1      71.389  29.747  55.100  1.00  0.00    -0.504 OA
ATOM     44  H   UNL     1      71.160  30.411  54.372  1.00  0.00     0.293 HD
ENDBRANCH   7  43
TORSDOF 11
ENDMDL
MODEL 2
REMARK VINA RESULT:    -5.104      0.580      9.038
REMARK INTER + INTRA:          -9.069
REMARK INTER:                  -7.484
REMARK INTRA:                  -1.585
REMARK UNBOUND:                -1.578
REMARK SMILES Cc1cc2c(C(C)C)c(O)c(O)c(C=O)c2c(O)c1-c1c(C)cc2c(C(C)C)c(O)c(O)c(C=O)c2c1O
REMARK SMILES IDX 1 1 2 2 3 3 4 4 16 5 13 6 11 7 9 8 5 9 17 10 19 11 20 12
REMARK SMILES IDX 37 13 21 14 36 15 23 16 22 17 24 18 33 19 25 20 31 21 29 22
REMARK SMILES IDX 38 23 34 25 35 26 26 27 27 28 28 29 32 30 30 32 18 34 6 36
REMARK SMILES IDX 7 37 8 38 14 39 15 40 10 41 12 43
REMARK H PARENT 38 24 32 31 30 33 18 35 10 42 12 44
REMARK Flexibility Score: inf
ROOT
ATOM      1  C   UNL     1      67.063  26.034  60.129  1.00  0.00     0.045 C 
ATOM      2  C   UNL     1      65.963  27.057  60.279  1.00  0.00    -0.039 A 
ATOM      3  C   UNL     1      64.665  26.633  60.566  1.00  0.00     0.013 A 
ATOM      4  C   UNL     1      63.601  27.547  60.727  1.00  0.00    -0.006 A 
ATOM      5  C   UNL     1      63.895  28.943  60.745  1.00  0.00     0.039 A 
ATOM      6  C   UNL     1      62.871  29.858  61.135  1.00  0.00     0.072 A 
ATOM      7  C   UNL     1      61.595  29.372  61.491  1.00  0.00     0.169 A 
ATOM      8  C   UNL     1      61.292  28.011  61.364  1.00  0.00     0.162 A 
ATOM      9  C   UNL     1      62.258  27.094  60.899  1.00  0.00     0.008 A 
ATOM     10  C   UNL     1      65.199  29.374  60.355  1.00  0.00     0.132 A 
ATOM     11  C   UNL     1      66.224  28.429  60.128  1.00  0.00     0.031 A 
ENDROOT
BRANCH  11  12
ATOM     12  C   UNL     1      67.585  28.885  59.742  1.00  0.00     0.031 A 
ATOM     13  C   UNL     1      67.901  29.108  58.385  1.00  0.00     0.132 A 
ATOM     14  C   UNL     1      68.550  29.117  60.734  1.00  0.00    -0.039 A 
ATOM     15  C   UNL     1      69.221  29.489  58.007  1.00  0.00     0.039 A 
ATOM     16  C   UNL     1      69.811  29.593  60.370  1.00  0.00     0.013 A 
ATOM     17  C   UNL     1      68.237  28.883  62.193  1.00  0.00     0.045 C 
ATOM     18  C   UNL     1      70.184  29.771  59.024  1.00  0.00    -0.006 A 
ATOM     19  C   UNL     1      69.596  29.649  56.642  1.00  0.00     0.072 A 
ATOM     20  C   UNL     1      71.485  30.252  58.664  1.00  0.00     0.008 A 
ATOM     21  C   UNL     1      70.791  30.303  56.322  1.00  0.00     0.169 A 
ATOM     22  C   UNL     1      71.704  30.653  57.322  1.00  0.00     0.162 A 
BRANCH  13  23
ATOM     23  O   UNL     1      66.893  29.004  57.420  1.00  0.00    -0.507 OA
ATOM     24  H   UNL     1      66.987  29.333  56.468  1.00  0.00     0.293 HD
ENDBRANCH  13  23
BRANCH  19  25
ATOM     25  C   UNL     1      68.810  29.101  55.512  1.00  0.00     0.264 C 
ATOM     26  O   UNL     1      68.095  29.856  54.801  1.00  0.00    -0.298 OA
ENDBRANCH  19  25
BRANCH  20  27
ATOM     27  C   UNL     1      72.677  30.302  59.641  1.00  0.00     0.017 C 
ATOM     28  C   UNL     1      72.485  31.351  60.744  1.00  0.00     0.012 C 
ATOM     29  C   UNL     1      73.112  28.927  60.188  1.00  0.00     0.012 C 
ENDBRANCH  20  27
BRANCH  21  30
ATOM     30  O   UNL     1      71.080  30.585  54.982  1.00  0.00    -0.504 OA
ATOM     31  H   UNL     1      71.868  30.177  54.493  1.00  0.00     0.293 HD
ENDBRANCH  21  30
BRANCH  22  32
ATOM     32  O   UNL     1      72.826  31.398  56.942  1.00  0.00    -0.504 OA
ATOM     33  H   UNL     1      73.393  31.191  56.131  1.00  0.00     0.293 HD
ENDBRANCH  22  32
ENDBRANCH  11  12
BRANCH  10  34
ATOM     34  O   UNL     1      65.469  30.734  60.169  1.00  0.00    -0.507 OA
ATOM     35  H   UNL     1      64.894  31.354  59.612  1.00  0.00     0.293 HD
ENDBRANCH  10  34
BRANCH   9  36
ATOM     36  C   UNL     1      61.849  25.643  60.593  1.00  0.00     0.017 C 
ATOM     37  C   UNL     1      61.547  24.872  61.883  1.00  0.00     0.012 C 
ATOM     38  C   UNL     1      60.688  25.531  59.588  1.00  0.00     0.012 C 
ENDBRANCH   9  36
BRANCH   6  39
ATOM     39  C   UNL     1      63.130  31.305  61.273  1.00  0.00     0.264 C 
ATOM     40  O   UNL     1      62.621  32.126  60.464  1.00  0.00    -0.298 OA
ENDBRANCH   6  39
BRANCH   8  41
ATOM     41  O   UNL     1      60.021  27.558  61.728  1.00  0.00    -0.504 OA
ATOM     42  H   UNL     1      59.171  28.065  61.515  1.00  0.00     0.293 HD
ENDBRANCH   8  41
BRANCH   7  43
ATOM     43  O   UNL     1      60.603  30.219  61.998  1.00  0.00    -0.504 OA
ATOM     44  H   UNL     1      60.762  30.905  62.725  1.00  0.00     0.293 HD
ENDBRANCH   7  43
TORSDOF 11
ENDMDL
MODEL 3
REMARK VINA RESULT:    -4.968      3.703     11.326
REMARK INTER + INTRA:          -8.870
REMARK INTER:                  -7.499
REMARK INTRA:                  -1.371
REMARK UNBOUND:                -1.578
REMARK SMILES Cc1cc2c(C(C)C)c(O)c(O)c(C=O)c2c(O)c1-c1c(C)cc2c(C(C)C)c(O)c(O)c(C=O)c2c1O
REMARK SMILES IDX 1 1 2 2 3 3 4 4 16 5 13 6 11 7 9 8 5 9 17 10 19 11 20 12
REMARK SMILES IDX 37 13 21 14 36 15 23 16 22 17 24 18 33 19 25 20 31 21 29 22
REMARK SMILES IDX 38 23 34 25 35 26 26 27 27 28 28 29 32 30 30 32 18 34 6 36
REMARK SMILES IDX 7 37 8 38 14 39 15 40 10 41 12 43
REMARK H PARENT 38 24 32 31 30 33 18 35 10 42 12 44
REMARK Flexibility Score: inf
ROOT
ATOM      1  C   UNL     1      59.824  25.333  59.225  1.00  0.00     0.045 C 
ATOM      2  C   UNL     1      59.534  24.775  60.598  1.00  0.00    -0.039 A 
ATOM      3  C   UNL     1      58.299  24.175  60.847  1.00  0.00     0.013 A 
ATOM      4  C   UNL     1      57.978  23.627  62.108  1.00  0.00    -0.006 A 
ATOM      5  C   UNL     1      58.999  23.554  63.102  1.00  0.00     0.039 A 
ATOM      6  C   UNL     1      58.753  22.799  64.289  1.00  0.00     0.072 A 
ATOM      7  C   UNL     1      57.514  22.146  64.459  1.00  0.00     0.169 A 
ATOM      8  C   UNL     1      56.486  22.317  63.525  1.00  0.00     0.162 A 
ATOM      9  C   UNL     1      56.670  23.127  62.385  1.00  0.00     0.008 A 
ATOM     10  C   UNL     1      60.223  24.253  62.880  1.00  0.00     0.132 A 
ATOM     11  C   UNL     1      60.483  24.856  61.630  1.00  0.00     0.031 A 
ENDROOT
BRANCH  11  12
ATOM     12  C   UNL     1      61.769  25.566  61.397  1.00  0.00     0.031 A 
ATOM     13  C   UNL     1      61.845  26.966  61.554  1.00  0.00     0.132 A 
ATOM     14  C   UNL     1      62.915  24.836  61.045  1.00  0.00    -0.039 A 
ATOM     15  C   UNL     1      63.061  27.656  61.276  1.00  0.00     0.039 A 
ATOM     16  C   UNL     1      64.130  25.501  60.877  1.00  0.00     0.013 A 
ATOM     17  C   UNL     1      62.858  23.337  60.868  1.00  0.00     0.045 C 
ATOM     18  C   UNL     1      64.235  26.903  60.966  1.00  0.00    -0.006 A 
ATOM     19  C   UNL     1      63.154  29.075  61.351  1.00  0.00     0.072 A 
ATOM     20  C   UNL     1      65.488  27.574  60.783  1.00  0.00     0.008 A 
ATOM     21  C   UNL     1      64.412  29.689  61.366  1.00  0.00     0.169 A 
ATOM     22  C   UNL     1      65.573  28.943  61.140  1.00  0.00     0.162 A 
BRANCH  13  23
ATOM     23  O   UNL     1      60.733  27.664  62.036  1.00  0.00    -0.507 OA
ATOM     24  H   UNL     1      60.759  28.629  62.339  1.00  0.00     0.293 HD
ENDBRANCH  13  23
BRANCH  19  25
ATOM     25  C   UNL     1      61.974  29.970  61.353  1.00  0.00     0.264 C 
ATOM     26  O   UNL     1      61.612  30.554  62.409  1.00  0.00    -0.298 OA
ENDBRANCH  19  25
BRANCH  20  27
ATOM     27  C   UNL     1      66.732  26.906  60.163  1.00  0.00     0.017 C 
ATOM     28  C   UNL     1      66.903  27.255  58.678  1.00  0.00     0.012 C 
ATOM     29  C   UNL     1      68.029  27.092  60.977  1.00  0.00     0.012 C 
ENDBRANCH  20  27
BRANCH  21  30
ATOM     30  O   UNL     1      64.498  31.068  61.586  1.00  0.00    -0.504 OA
ATOM     31  H   UNL     1      63.700  31.687  61.506  1.00  0.00     0.293 HD
ENDBRANCH  21  30
BRANCH  22  32
ATOM     32  O   UNL     1      66.801  29.601  61.276  1.00  0.00    -0.504 OA
ATOM     33  H   UNL     1      67.665  29.138  61.526  1.00  0.00     0.293 HD
ENDBRANCH  22  32
ENDBRANCH  11  12
BRANCH  10  34
ATOM     34  O   UNL     1      61.168  24.372  63.906  1.00  0.00    -0.507 OA
ATOM     35  H   UNL     1      62.092  23.960  63.874  1.00  0.00     0.293 HD
ENDBRANCH  10  34
BRANCH   9  36
ATOM     36  C   UNL     1      55.472  23.447  61.473  1.00  0.00     0.017 C 
ATOM     37  C   UNL     1      55.042  22.212  60.675  1.00  0.00     0.012 C 
ATOM     38  C   UNL     1      54.282  24.074  62.222  1.00  0.00     0.012 C 
ENDBRANCH   9  36
BRANCH   6  39
ATOM     39  C   UNL     1      59.796  22.596  65.314  1.00  0.00     0.264 C 
ATOM     40  O   UNL     1      60.489  21.544  65.322  1.00  0.00    -0.298 OA
ENDBRANCH   6  39
BRANCH   8  41
ATOM     41  O   UNL     1      55.271  21.653  63.718  1.00  0.00    -0.504 OA
ATOM     42  H   UNL     1      55.194  20.775  64.217  1.00  0.00     0.293 HD
ENDBRANCH   8  41
BRANCH   7  43
ATOM     43  O   UNL     1      57.278  21.295  65.545  1.00  0.00    -0.504 OA
ATOM     44  H   UNL     1      56.419  21.283  66.079  1.00  0.00     0.293 HD
ENDBRANCH   7  43
TORSDOF 11
ENDMDL
MODEL 4
REMARK VINA RESULT:    -4.960      9.335     14.146
REMARK INTER + INTRA:          -8.857
REMARK INTER:                  -7.491
REMARK INTRA:                  -1.366
REMARK UNBOUND:                -1.578
REMARK SMILES Cc1cc2c(C(C)C)c(O)c(O)c(C=O)c2c(O)c1-c1c(C)cc2c(C(C)C)c(O)c(O)c(C=O)c2c1O
REMARK SMILES IDX 1 1 2 2 3 3 4 4 16 5 13 6 11 7 9 8 5 9 17 10 19 11 20 12
REMARK SMILES IDX 37 13 21 14 36 15 23 16 22 17 24 18 33 19 25 20 31 21 29 22
REMARK SMILES IDX 38 23 34 25 35 26 26 27 27 28 28 29 32 30 30 32 18 34 6 36
REMARK SMILES IDX 7 37 8 38 14 39 15 40 10 41 12 43
REMARK H PARENT 38 24 32 31 30 33 18 35 10 42 12 44
REMARK Flexibility Score: inf
ROOT
ATOM      1  C   UNL     1      58.827  29.249  48.886  1.00  0.00     0.045 C 
ATOM      2  C   UNL     1      58.912  28.291  50.050  1.00  0.00    -0.039 A 
ATOM      3  C   UNL     1      57.801  27.512  50.380  1.00  0.00     0.013 A 
ATOM      4  C   UNL     1      57.829  26.593  51.451  1.00  0.00    -0.006 A 
ATOM      5  C   UNL     1      59.069  26.351  52.114  1.00  0.00     0.039 A 
ATOM      6  C   UNL     1      59.157  25.265  53.036  1.00  0.00     0.072 A 
ATOM      7  C   UNL     1      58.025  24.457  53.277  1.00  0.00     0.169 A 
ATOM      8  C   UNL     1      56.790  24.775  52.702  1.00  0.00     0.162 A 
ATOM      9  C   UNL     1      56.651  25.893  51.854  1.00  0.00     0.008 A 
ATOM     10  C   UNL     1      60.171  27.216  51.842  1.00  0.00     0.132 A 
ATOM     11  C   UNL     1      60.086  28.178  50.812  1.00  0.00     0.031 A 
ENDROOT
BRANCH  11  12
ATOM     12  C   UNL     1      61.245  29.062  50.519  1.00  0.00     0.031 A 
ATOM     13  C   UNL     1      62.217  28.670  49.574  1.00  0.00     0.132 A 
ATOM     14  C   UNL     1      61.358  30.301  51.167  1.00  0.00    -0.039 A 
ATOM     15  C   UNL     1      63.359  29.488  49.334  1.00  0.00     0.039 A 
ATOM     16  C   UNL     1      62.420  31.149  50.852  1.00  0.00     0.013 A 
ATOM     17  C   UNL     1      60.332  30.743  52.185  1.00  0.00     0.045 C 
ATOM     18  C   UNL     1      63.443  30.769  49.960  1.00  0.00    -0.006 A 
ATOM     19  C   UNL     1      64.396  29.088  48.444  1.00  0.00     0.072 A 
ATOM     20  C   UNL     1      64.532  31.647  49.651  1.00  0.00     0.008 A 
ATOM     21  C   UNL     1      65.337  30.028  48.007  1.00  0.00     0.169 A 
ATOM     22  C   UNL     1      65.374  31.311  48.561  1.00  0.00     0.162 A 
BRANCH  13  23
ATOM     23  O   UNL     1      62.022  27.496  48.837  1.00  0.00    -0.507 OA
ATOM     24  H   UNL     1      62.583  27.232  48.038  1.00  0.00     0.293 HD
ENDBRANCH  13  23
BRANCH  19  25
ATOM     25  C   UNL     1      64.584  27.693  47.986  1.00  0.00     0.264 C 
ATOM     26  O   UNL     1      65.027  26.813  48.771  1.00  0.00    -0.298 OA
ENDBRANCH  19  25
BRANCH  20  27
ATOM     27  C   UNL     1      64.877  32.903  50.476  1.00  0.00     0.017 C 
ATOM     28  C   UNL     1      66.286  32.836  51.081  1.00  0.00     0.012 C 
ATOM     29  C   UNL     1      64.597  34.238  49.754  1.00  0.00     0.012 C 
ENDBRANCH  20  27
BRANCH  21  30
ATOM     30  O   UNL     1      66.262  29.664  47.023  1.00  0.00    -0.504 OA
ATOM     31  H   UNL     1      66.544  30.289  46.277  1.00  0.00     0.293 HD
ENDBRANCH  21  30
BRANCH  22  32
ATOM     32  O   UNL     1      66.270  32.232  48.003  1.00  0.00    -0.504 OA
ATOM     33  H   UNL     1      66.005  32.942  47.334  1.00  0.00     0.293 HD
ENDBRANCH  22  32
ENDBRANCH  11  12
BRANCH  10  34
ATOM     34  O   UNL     1      61.339  27.138  52.610  1.00  0.00    -0.507 OA
ATOM     35  H   UNL     1      61.719  26.274  52.975  1.00  0.00     0.293 HD
ENDBRANCH  10  34
BRANCH   9  36
ATOM     36  C   UNL     1      55.252  26.327  51.383  1.00  0.00     0.017 C 
ATOM     37  C   UNL     1      54.964  27.780  51.776  1.00  0.00     0.012 C 
ATOM     38  C   UNL     1      55.010  26.093  49.881  1.00  0.00     0.012 C 
ENDBRANCH   9  36
BRANCH   6  39
ATOM     39  C   UNL     1      60.431  24.893  53.683  1.00  0.00     0.264 C 
ATOM     40  O   UNL     1      61.154  23.983  53.196  1.00  0.00    -0.298 OA
ENDBRANCH   6  39
BRANCH   8  41
ATOM     41  O   UNL     1      55.687  23.953  52.955  1.00  0.00    -0.504 OA
ATOM     42  H   UNL     1      54.953  23.788  52.277  1.00  0.00     0.293 HD
ENDBRANCH   8  41
BRANCH   7  43
ATOM     43  O   UNL     1      58.101  23.310  54.075  1.00  0.00    -0.504 OA
ATOM     44  H   UNL     1      58.894  22.683  54.092  1.00  0.00     0.293 HD
ENDBRANCH   7  43
TORSDOF 11
ENDMDL
MODEL 5
REMARK VINA RESULT:    -4.914      9.339     11.408
REMARK INTER + INTRA:          -8.791
REMARK INTER:                  -7.246
REMARK INTRA:                  -1.544
REMARK UNBOUND:                -1.578
REMARK SMILES Cc1cc2c(C(C)C)c(O)c(O)c(C=O)c2c(O)c1-c1c(C)cc2c(C(C)C)c(O)c(O)c(C=O)c2c1O
REMARK SMILES IDX 1 1 2 2 3 3 4 4 16 5 13 6 11 7 9 8 5 9 17 10 19 11 20 12
REMARK SMILES IDX 37 13 21 14 36 15 23 16 22 17 24 18 33 19 25 20 31 21 29 22
REMARK SMILES IDX 38 23 34 25 35 26 26 27 27 28 28 29 32 30 30 32 18 34 6 36
REMARK SMILES IDX 7 37 8 38 14 39 15 40 10 41 12 43
REMARK H PARENT 38 24 32 31 30 33 18 35 10 42 12 44
REMARK Flexibility Score: inf
ROOT
ATOM      1  C   UNL     1      60.676  26.239  49.657  1.00  0.00     0.045 C 
ATOM      2  C   UNL     1      61.440  27.540  49.729  1.00  0.00    -0.039 A 
ATOM      3  C   UNL     1      62.759  27.586  49.275  1.00  0.00     0.013 A 
ATOM      4  C   UNL     1      63.516  28.777  49.309  1.00  0.00    -0.006 A 
ATOM      5  C   UNL     1      62.865  29.992  49.677  1.00  0.00     0.039 A 
ATOM      6  C   UNL     1      63.555  31.228  49.492  1.00  0.00     0.072 A 
ATOM      7  C   UNL     1      64.861  31.228  48.956  1.00  0.00     0.169 A 
ATOM      8  C   UNL     1      65.525  30.022  48.703  1.00  0.00     0.162 A 
ATOM      9  C   UNL     1      64.900  28.783  48.956  1.00  0.00     0.008 A 
ATOM     10  C   UNL     1      61.552  29.925  50.231  1.00  0.00     0.132 A 
ATOM     11  C   UNL     1      60.848  28.701  50.252  1.00  0.00     0.031 A 
ENDROOT
BRANCH  11  12
ATOM     12  C   UNL     1      59.472  28.640  50.812  1.00  0.00     0.031 A 
ATOM     13  C   UNL     1      59.271  28.294  52.165  1.00  0.00     0.132 A 
ATOM     14  C   UNL     1      58.373  28.954  49.998  1.00  0.00    -0.039 A 
ATOM     15  C   UNL     1      57.952  28.180  52.691  1.00  0.00     0.039 A 
ATOM     16  C   UNL     1      57.088  28.945  50.543  1.00  0.00     0.013 A 
ATOM     17  C   UNL     1      58.561  29.325  48.546  1.00  0.00     0.045 C 
ATOM     18  C   UNL     1      56.840  28.547  51.872  1.00  0.00    -0.006 A 
ATOM     19  C   UNL     1      57.710  27.760  54.030  1.00  0.00     0.072 A 
ATOM     20  C   UNL     1      55.515  28.534  52.415  1.00  0.00     0.008 A 
ATOM     21  C   UNL     1      56.443  27.943  54.597  1.00  0.00     0.169 A 
ATOM     22  C   UNL     1      55.368  28.378  53.817  1.00  0.00     0.162 A 
BRANCH  13  23
ATOM     23  O   UNL     1      60.381  28.117  53.000  1.00  0.00    -0.507 OA
ATOM     24  H   UNL     1      60.446  27.398  53.708  1.00  0.00     0.293 HD
ENDBRANCH  13  23
BRANCH  19  25
ATOM     25  C   UNL     1      58.721  27.069  54.862  1.00  0.00     0.264 C 
ATOM     26  O   UNL     1      59.307  27.676  55.798  1.00  0.00    -0.298 OA
ENDBRANCH  19  25
BRANCH  20  27
ATOM     27  C   UNL     1      54.238  28.621  51.556  1.00  0.00     0.017 C 
ATOM     28  C   UNL     1      53.863  30.068  51.210  1.00  0.00     0.012 C 
ATOM     29  C   UNL     1      54.232  27.689  50.326  1.00  0.00     0.012 C 
ENDBRANCH  20  27
BRANCH  21  30
ATOM     30  O   UNL     1      56.254  27.663  55.955  1.00  0.00    -0.504 OA
ATOM     31  H   UNL     1      56.595  26.815  56.393  1.00  0.00     0.293 HD
ENDBRANCH  21  30
BRANCH  22  32
ATOM     32  O   UNL     1      54.158  28.642  54.471  1.00  0.00    -0.504 OA
ATOM     33  H   UNL     1      54.080  28.815  55.464  1.00  0.00     0.293 HD
ENDBRANCH  22  32
ENDBRANCH  11  12
BRANCH  10  34
ATOM     34  O   UNL     1      60.957  31.065  50.785  1.00  0.00    -0.507 OA
ATOM     35  H   UNL     1      60.278  31.040  51.535  1.00  0.00     0.293 HD
ENDBRANCH  10  34
BRANCH   9  36
ATOM     36  C   UNL     1      65.711  27.481  48.845  1.00  0.00     0.017 C 
ATOM     37  C   UNL     1      66.010  27.141  47.381  1.00  0.00     0.012 C 
ATOM     38  C   UNL     1      66.995  27.483  49.694  1.00  0.00     0.012 C 
ENDBRANCH   9  36
BRANCH   6  39
ATOM     39  C   UNL     1      62.909  32.529  49.756  1.00  0.00     0.264 C 
ATOM     40  O   UNL     1      62.361  33.172  48.821  1.00  0.00    -0.298 OA
ENDBRANCH   6  39
BRANCH   8  41
ATOM     41  O   UNL     1      66.816  30.053  48.168  1.00  0.00    -0.504 OA
ATOM     42  H   UNL     1      67.401  29.231  48.087  1.00  0.00     0.293 HD
ENDBRANCH   8  41
BRANCH   7  43
ATOM     43  O   UNL     1      65.524  32.420  48.643  1.00  0.00    -0.504 OA
ATOM     44  H   UNL     1      65.858  32.656  47.718  1.00  0.00     0.293 HD
ENDBRANCH   7  43
TORSDOF 11
ENDMDL
MODEL 6
REMARK VINA RESULT:    -4.914      9.411     13.859
REMARK INTER + INTRA:          -8.790
REMARK INTER:                  -7.341
REMARK INTRA:                  -1.449
REMARK UNBOUND:                -1.578
REMARK SMILES Cc1cc2c(C(C)C)c(O)c(O)c(C=O)c2c(O)c1-c1c(C)cc2c(C(C)C)c(O)c(O)c(C=O)c2c1O
REMARK SMILES IDX 1 1 2 2 3 3 4 4 16 5 13 6 11 7 9 8 5 9 17 10 19 11 20 12
REMARK SMILES IDX 37 13 21 14 36 15 23 16 22 17 24 18 33 19 25 20 31 21 29 22
REMARK SMILES IDX 38 23 34 25 35 26 26 27 27 28 28 29 32 30 30 32 18 34 6 36
REMARK SMILES IDX 7 37 8 38 14 39 15 40 10 41 12 43
REMARK H PARENT 38 24 32 31 30 33 18 35 10 42 12 44
REMARK Flexibility Score: inf
ROOT
ATOM      1  C   UNL     1      63.537  27.208  52.761  1.00  0.00     0.045 C 
ATOM      2  C   UNL     1      62.179  26.977  52.142  1.00  0.00    -0.039 A 
ATOM      3  C   UNL     1      61.334  26.008  52.685  1.00  0.00     0.013 A 
ATOM      4  C   UNL     1      60.050  25.759  52.153  1.00  0.00    -0.006 A 
ATOM      5  C   UNL     1      59.551  26.623  51.133  1.00  0.00     0.039 A 
ATOM      6  C   UNL     1      58.179  26.523  50.755  1.00  0.00     0.072 A 
ATOM      7  C   UNL     1      57.344  25.578  51.389  1.00  0.00     0.169 A 
ATOM      8  C   UNL     1      57.874  24.666  52.309  1.00  0.00     0.162 A 
ATOM      9  C   UNL     1      59.245  24.684  52.639  1.00  0.00     0.008 A 
ATOM     10  C   UNL     1      60.450  27.544  50.516  1.00  0.00     0.132 A 
ATOM     11  C   UNL     1      61.756  27.717  51.026  1.00  0.00     0.031 A 
ENDROOT
BRANCH  11  12
ATOM     12  C   UNL     1      62.681  28.693  50.392  1.00  0.00     0.031 A 
ATOM     13  C   UNL     1      63.627  28.259  49.440  1.00  0.00     0.132 A 
ATOM     14  C   UNL     1      62.594  30.054  50.724  1.00  0.00    -0.039 A 
ATOM     15  C   UNL     1      64.553  29.182  48.873  1.00  0.00     0.039 A 
ATOM     16  C   UNL     1      63.430  30.973  50.088  1.00  0.00     0.013 A 
ATOM     17  C   UNL     1      61.590  30.543  51.742  1.00  0.00     0.045 C 
ATOM     18  C   UNL     1      64.428  30.572  49.178  1.00  0.00    -0.006 A 
ATOM     19  C   UNL     1      65.570  28.766  47.967  1.00  0.00     0.072 A 
ATOM     20  C   UNL     1      65.285  31.526  48.539  1.00  0.00     0.008 A 
ATOM     21  C   UNL     1      66.259  29.721  47.210  1.00  0.00     0.169 A 
ATOM     22  C   UNL     1      66.081  31.087  47.451  1.00  0.00     0.162 A 
BRANCH  13  23
ATOM     23  O   UNL     1      63.613  26.925  49.018  1.00  0.00    -0.507 OA
ATOM     24  H   UNL     1      64.301  26.237  49.296  1.00  0.00     0.293 HD
ENDBRANCH  13  23
BRANCH  19  25
ATOM     25  C   UNL     1      65.998  27.357  47.814  1.00  0.00     0.264 C 
ATOM     26  O   UNL     1      65.740  26.717  46.760  1.00  0.00    -0.298 OA
ENDBRANCH  19  25
BRANCH  20  27
ATOM     27  C   UNL     1      65.436  32.987  49.007  1.00  0.00     0.017 C 
ATOM     28  C   UNL     1      64.141  33.792  48.836  1.00  0.00     0.012 C 
ATOM     29  C   UNL     1      66.063  33.148  50.407  1.00  0.00     0.012 C 
ENDBRANCH  20  27
BRANCH  21  30
ATOM     30  O   UNL     1      67.151  29.296  46.220  1.00  0.00    -0.504 OA
ATOM     31  H   UNL     1      68.095  29.655  46.141  1.00  0.00     0.293 HD
ENDBRANCH  21  30
BRANCH  22  32
ATOM     32  O   UNL     1      66.719  31.985  46.587  1.00  0.00    -0.504 OA
ATOM     33  H   UNL     1      66.234  32.685  46.042  1.00  0.00     0.293 HD
ENDBRANCH  22  32
ENDBRANCH  11  12
BRANCH  10  34
ATOM     34  O   UNL     1      60.057  28.267  49.384  1.00  0.00    -0.507 OA
ATOM     35  H   UNL     1      60.376  28.065  48.445  1.00  0.00     0.293 HD
ENDBRANCH  10  34
BRANCH   9  36
ATOM     36  C   UNL     1      59.837  23.560  53.508  1.00  0.00     0.017 C 
ATOM     37  C   UNL     1      59.535  23.793  54.992  1.00  0.00     0.012 C 
ATOM     38  C   UNL     1      59.409  22.150  53.062  1.00  0.00     0.012 C 
ENDBRANCH   9  36
BRANCH   6  39
ATOM     39  C   UNL     1      57.569  27.450  49.780  1.00  0.00     0.264 C 
ATOM     40  O   UNL     1      56.965  28.484  50.171  1.00  0.00    -0.298 OA
ENDBRANCH   6  39
BRANCH   8  41
ATOM     41  O   UNL     1      57.022  23.744  52.925  1.00  0.00    -0.504 OA
ATOM     42  H   UNL     1      57.139  22.742  52.841  1.00  0.00     0.293 HD
ENDBRANCH   8  41
BRANCH   7  43
ATOM     43  O   UNL     1      55.967  25.532  51.140  1.00  0.00    -0.504 OA
ATOM     44  H   UNL     1      55.561  25.245  50.259  1.00  0.00     0.293 HD
ENDBRANCH   7  43
TORSDOF 11
ENDMDL
MODEL 7
REMARK VINA RESULT:    -4.908      9.480     11.018
REMARK INTER + INTRA:          -8.782
REMARK INTER:                  -7.469
REMARK INTRA:                  -1.313
REMARK UNBOUND:                -1.578
REMARK SMILES Cc1cc2c(C(C)C)c(O)c(O)c(C=O)c2c(O)c1-c1c(C)cc2c(C(C)C)c(O)c(O)c(C=O)c2c1O
REMARK SMILES IDX 1 1 2 2 3 3 4 4 16 5 13 6 11 7 9 8 5 9 17 10 19 11 20 12
REMARK SMILES IDX 37 13 21 14 36 15 23 16 22 17 24 18 33 19 25 20 31 21 29 22
REMARK SMILES IDX 38 23 34 25 35 26 26 27 27 28 28 29 32 30 30 32 18 34 6 36
REMARK SMILES IDX 7 37 8 38 14 39 15 40 10 41 12 43
REMARK H PARENT 38 24 32 31 30 33 18 35 10 42 12 44
REMARK Flexibility Score: inf
ROOT
ATOM      1  C   UNL     1      62.383  30.668  51.974  1.00  0.00     0.045 C 
ATOM      2  C   UNL     1      63.179  30.314  50.740  1.00  0.00    -0.039 A 
ATOM      3  C   UNL     1      63.949  31.296  50.115  1.00  0.00     0.013 A 
ATOM      4  C   UNL     1      64.720  31.017  48.966  1.00  0.00    -0.006 A 
ATOM      5  C   UNL     1      64.829  29.664  48.526  1.00  0.00     0.039 A 
ATOM      6  C   UNL     1      65.783  29.343  47.514  1.00  0.00     0.072 A 
ATOM      7  C   UNL     1      66.594  30.360  46.967  1.00  0.00     0.169 A 
ATOM      8  C   UNL     1      66.399  31.698  47.332  1.00  0.00     0.162 A 
ATOM      9  C   UNL     1      65.405  32.056  48.267  1.00  0.00     0.008 A 
ATOM     10  C   UNL     1      63.967  28.684  49.104  1.00  0.00     0.132 A 
ATOM     11  C   UNL     1      63.150  29.015  50.207  1.00  0.00     0.031 A 
ENDROOT
BRANCH  11  12
ATOM     12  C   UNL     1      62.269  27.984  50.818  1.00  0.00     0.031 A 
ATOM     13  C   UNL     1      60.930  27.853  50.393  1.00  0.00     0.132 A 
ATOM     14  C   UNL     1      62.780  27.124  51.802  1.00  0.00    -0.039 A 
ATOM     15  C   UNL     1      60.067  26.906  51.016  1.00  0.00     0.039 A 
ATOM     16  C   UNL     1      61.963  26.126  52.336  1.00  0.00     0.013 A 
ATOM     17  C   UNL     1      64.209  27.247  52.276  1.00  0.00     0.045 C 
ATOM     18  C   UNL     1      60.605  26.001  51.982  1.00  0.00    -0.006 A 
ATOM     19  C   UNL     1      58.691  26.797  50.664  1.00  0.00     0.072 A 
ATOM     20  C   UNL     1      59.776  24.976  52.544  1.00  0.00     0.008 A 
ATOM     21  C   UNL     1      57.956  25.677  51.070  1.00  0.00     0.169 A 
ATOM     22  C   UNL     1      58.507  24.745  51.956  1.00  0.00     0.162 A 
BRANCH  13  23
ATOM     23  O   UNL     1      60.473  28.624  49.318  1.00  0.00    -0.507 OA
ATOM     24  H   UNL     1      61.015  28.807  48.484  1.00  0.00     0.293 HD
ENDBRANCH  13  23
BRANCH  19  25
ATOM     25  C   UNL     1      57.953  27.850  49.929  1.00  0.00     0.264 C 
ATOM     26  O   UNL     1      56.957  28.420  50.450  1.00  0.00    -0.298 OA
ENDBRANCH  19  25
BRANCH  20  27
ATOM     27  C   UNL     1      60.161  24.153  53.789  1.00  0.00     0.017 C 
ATOM     28  C   UNL     1      59.216  24.407  54.972  1.00  0.00     0.012 C 
ATOM     29  C   UNL     1      60.392  22.652  53.516  1.00  0.00     0.012 C 
ENDBRANCH  20  27
BRANCH  21  30
ATOM     30  O   UNL     1      56.649  25.508  50.600  1.00  0.00    -0.504 OA
ATOM     31  H   UNL     1      56.116  24.661  50.755  1.00  0.00     0.293 HD
ENDBRANCH  21  30
BRANCH  22  32
ATOM     32  O   UNL     1      57.757  23.596  52.235  1.00  0.00    -0.504 OA
ATOM     33  H   UNL     1      56.821  23.612  52.619  1.00  0.00     0.293 HD
ENDBRANCH  22  32
ENDBRANCH  11  12
BRANCH  10  34
ATOM     34  O   UNL     1      63.902  27.393  48.567  1.00  0.00    -0.507 OA
ATOM     35  H   UNL     1      63.711  26.563  49.114  1.00  0.00     0.293 HD
ENDBRANCH  10  34
BRANCH   9  36
ATOM     36  C   UNL     1      65.088  33.542  48.512  1.00  0.00     0.017 C 
ATOM     37  C   UNL     1      63.575  33.786  48.532  1.00  0.00     0.012 C 
ATOM     38  C   UNL     1      65.765  34.114  49.771  1.00  0.00     0.012 C 
ENDBRANCH   9  36
BRANCH   6  39
ATOM     39  C   UNL     1      66.021  27.951  47.080  1.00  0.00     0.264 C 
ATOM     40  O   UNL     1      65.750  27.593  45.904  1.00  0.00    -0.298 OA
ENDBRANCH   6  39
BRANCH   8  41
ATOM     41  O   UNL     1      67.221  32.683  46.778  1.00  0.00    -0.504 OA
ATOM     42  H   UNL     1      68.216  32.738  46.958  1.00  0.00     0.293 HD
ENDBRANCH   8  41
BRANCH   7  43
ATOM     43  O   UNL     1      67.625  30.070  46.067  1.00  0.00    -0.504 OA
ATOM     44  H   UNL     1      67.545  30.169  45.063  1.00  0.00     0.293 HD
ENDBRANCH   7  43
TORSDOF 11
ENDMDL
MODEL 8
REMARK VINA RESULT:    -4.884      9.384     11.439
REMARK INTER + INTRA:          -8.747
REMARK INTER:                  -7.176
REMARK INTRA:                  -1.570
REMARK UNBOUND:                -1.578
REMARK SMILES Cc1cc2c(C(C)C)c(O)c(O)c(C=O)c2c(O)c1-c1c(C)cc2c(C(C)C)c(O)c(O)c(C=O)c2c1O
REMARK SMILES IDX 1 1 2 2 3 3 4 4 16 5 13 6 11 7 9 8 5 9 17 10 19 11 20 12
REMARK SMILES IDX 37 13 21 14 36 15 23 16 22 17 24 18 33 19 25 20 31 21 29 22
REMARK SMILES IDX 38 23 34 25 35 26 26 27 27 28 28 29 32 30 30 32 18 34 6 36
REMARK SMILES IDX 7 37 8 38 14 39 15 40 10 41 12 43
REMARK H PARENT 38 24 32 31 30 33 18 35 10 42 12 44
REMARK Flexibility Score: inf
ROOT
ATOM      1  C   UNL     1      59.710  30.347  52.504  1.00  0.00     0.045 C 
ATOM      2  C   UNL     1      60.796  29.534  51.842  1.00  0.00    -0.039 A 
ATOM      3  C   UNL     1      62.110  30.005  51.856  1.00  0.00     0.013 A 
ATOM      4  C   UNL     1      63.167  29.281  51.262  1.00  0.00    -0.006 A 
ATOM      5  C   UNL     1      62.904  27.967  50.770  1.00  0.00     0.039 A 
ATOM      6  C   UNL     1      64.004  27.144  50.382  1.00  0.00     0.072 A 
ATOM      7  C   UNL     1      65.321  27.639  50.488  1.00  0.00     0.169 A 
ATOM      8  C   UNL     1      65.554  28.966  50.868  1.00  0.00     0.162 A 
ATOM      9  C   UNL     1      64.482  29.830  51.175  1.00  0.00     0.008 A 
ATOM     10  C   UNL     1      61.549  27.531  50.669  1.00  0.00     0.132 A 
ATOM     11  C   UNL     1      60.505  28.316  51.208  1.00  0.00     0.031 A 
ENDROOT
BRANCH  11  12
ATOM     12  C   UNL     1      59.097  27.847  51.118  1.00  0.00     0.031 A 
ATOM     13  C   UNL     1      58.584  26.953  52.081  1.00  0.00     0.132 A 
ATOM     14  C   UNL     1      58.271  28.315  50.085  1.00  0.00    -0.039 A 
ATOM     15  C   UNL     1      57.253  26.457  51.965  1.00  0.00     0.039 A 
ATOM     16  C   UNL     1      56.936  27.912  50.034  1.00  0.00     0.013 A 
ATOM     17  C   UNL     1      58.798  29.270  49.040  1.00  0.00     0.045 C 
ATOM     18  C   UNL     1      56.402  26.975  50.941  1.00  0.00    -0.006 A 
ATOM     19  C   UNL     1      56.726  25.498  52.876  1.00  0.00     0.072 A 
ATOM     20  C   UNL     1      55.031  26.563  50.872  1.00  0.00     0.008 A 
ATOM     21  C   UNL     1      55.347  25.261  52.916  1.00  0.00     0.169 A 
ATOM     22  C   UNL     1      54.498  25.828  51.961  1.00  0.00     0.162 A 
BRANCH  13  23
ATOM     23  O   UNL     1      59.375  26.601  53.180  1.00  0.00    -0.507 OA
ATOM     24  H   UNL     1      60.386  26.633  53.182  1.00  0.00     0.293 HD
ENDBRANCH  13  23
BRANCH  19  25
ATOM     25  C   UNL     1      57.572  24.669  53.765  1.00  0.00     0.264 C 
ATOM     26  O   UNL     1      57.639  24.912  55.000  1.00  0.00    -0.298 OA
ENDBRANCH  19  25
BRANCH  20  27
ATOM     27  C   UNL     1      54.122  26.822  49.655  1.00  0.00     0.017 C 
ATOM     28  C   UNL     1      53.584  25.522  49.041  1.00  0.00     0.012 C 
ATOM     29  C   UNL     1      53.019  27.874  49.893  1.00  0.00     0.012 C 
ENDBRANCH  20  27
BRANCH  21  30
ATOM     30  O   UNL     1      54.824  24.426  53.910  1.00  0.00    -0.504 OA
ATOM     31  H   UNL     1      54.946  23.420  53.902  1.00  0.00     0.293 HD
ENDBRANCH  21  30
BRANCH  22  32
ATOM     32  O   UNL     1      53.120  25.636  52.124  1.00  0.00    -0.504 OA
ATOM     33  H   UNL     1      52.586  26.010  52.897  1.00  0.00     0.293 HD
ENDBRANCH  22  32
ENDBRANCH  11  12
BRANCH  10  34
ATOM     34  O   UNL     1      61.237  26.335  50.013  1.00  0.00    -0.507 OA
ATOM     35  H   UNL     1      60.869  26.287  49.071  1.00  0.00     0.293 HD
ENDBRANCH  10  34
BRANCH   9  36
ATOM     36  C   UNL     1      64.750  31.327  51.411  1.00  0.00     0.017 C 
ATOM     37  C   UNL     1      65.544  31.548  52.702  1.00  0.00     0.012 C 
ATOM     38  C   UNL     1      65.419  32.026  50.214  1.00  0.00     0.012 C 
ENDBRANCH   9  36
BRANCH   6  39
ATOM     39  C   UNL     1      63.817  25.741  49.959  1.00  0.00     0.264 C 
ATOM     40  O   UNL     1      63.954  24.801  50.786  1.00  0.00    -0.298 OA
ENDBRANCH   6  39
BRANCH   8  41
ATOM     41  O   UNL     1      66.869  29.427  50.968  1.00  0.00    -0.504 OA
ATOM     42  H   UNL     1      67.396  29.413  51.833  1.00  0.00     0.293 HD
ENDBRANCH   8  41
BRANCH   7  43
ATOM     43  O   UNL     1      66.432  26.825  50.238  1.00  0.00    -0.504 OA
ATOM     44  H   UNL     1      67.334  27.173  49.941  1.00  0.00     0.293 HD
ENDBRANCH   7  43
TORSDOF 11
ENDMDL
MODEL 9
REMARK VINA RESULT:    -4.856      6.956     10.466
REMARK INTER + INTRA:          -8.705
REMARK INTER:                  -7.079
REMARK INTRA:                  -1.625
REMARK UNBOUND:                -1.578
REMARK SMILES Cc1cc2c(C(C)C)c(O)c(O)c(C=O)c2c(O)c1-c1c(C)cc2c(C(C)C)c(O)c(O)c(C=O)c2c1O
REMARK SMILES IDX 1 1 2 2 3 3 4 4 16 5 13 6 11 7 9 8 5 9 17 10 19 11 20 12
REMARK SMILES IDX 37 13 21 14 36 15 23 16 22 17 24 18 33 19 25 20 31 21 29 22
REMARK SMILES IDX 38 23 34 25 35 26 26 27 27 28 28 29 32 30 30 32 18 34 6 36
REMARK SMILES IDX 7 37 8 38 14 39 15 40 10 41 12 43
REMARK H PARENT 38 24 32 31 30 33 18 35 10 42 12 44
REMARK Flexibility Score: inf
ROOT
ATOM      1  C   UNL     1      60.078  31.393  55.288  1.00  0.00     0.045 C 
ATOM      2  C   UNL     1      60.306  30.366  56.372  1.00  0.00    -0.039 A 
ATOM      3  C   UNL     1      60.748  30.782  57.628  1.00  0.00     0.013 A 
ATOM      4  C   UNL     1      60.967  29.867  58.681  1.00  0.00    -0.006 A 
ATOM      5  C   UNL     1      60.583  28.506  58.495  1.00  0.00     0.039 A 
ATOM      6  C   UNL     1      60.585  27.629  59.622  1.00  0.00     0.072 A 
ATOM      7  C   UNL     1      60.967  28.119  60.890  1.00  0.00     0.169 A 
ATOM      8  C   UNL     1      61.444  29.427  61.032  1.00  0.00     0.162 A 
ATOM      9  C   UNL     1      61.535  30.290  59.921  1.00  0.00     0.008 A 
ATOM     10  C   UNL     1      60.226  28.067  57.185  1.00  0.00     0.132 A 
ATOM     11  C   UNL     1      60.087  29.000  56.133  1.00  0.00     0.031 A 
ENDROOT
BRANCH  11  12
ATOM     12  C   UNL     1      59.696  28.539  54.775  1.00  0.00     0.031 A 
ATOM     13  C   UNL     1      60.684  28.237  53.815  1.00  0.00     0.132 A 
ATOM     14  C   UNL     1      58.338  28.381  54.457  1.00  0.00    -0.039 A 
ATOM     15  C   UNL     1      60.312  27.851  52.495  1.00  0.00     0.039 A 
ATOM     16  C   UNL     1      57.978  27.900  53.197  1.00  0.00     0.013 A 
ATOM     17  C   UNL     1      57.261  28.700  55.466  1.00  0.00     0.045 C 
ATOM     18  C   UNL     1      58.931  27.645  52.192  1.00  0.00    -0.006 A 
ATOM     19  C   UNL     1      61.282  27.612  51.480  1.00  0.00     0.072 A 
ATOM     20  C   UNL     1      58.546  27.160  50.900  1.00  0.00     0.008 A 
ATOM     21  C   UNL     1      60.907  26.955  50.302  1.00  0.00     0.169 A 
ATOM     22  C   UNL     1      59.562  26.680  50.035  1.00  0.00     0.162 A 
BRANCH  13  23
ATOM     23  O   UNL     1      62.033  28.269  54.187  1.00  0.00    -0.507 OA
ATOM     24  H   UNL     1      62.504  29.093  54.537  1.00  0.00     0.293 HD
ENDBRANCH  13  23
BRANCH  19  25
ATOM     25  C   UNL     1      62.684  28.079  51.567  1.00  0.00     0.264 C 
ATOM     26  O   UNL     1      63.619  27.266  51.797  1.00  0.00    -0.298 OA
ENDBRANCH  19  25
BRANCH  20  27
ATOM     27  C   UNL     1      57.097  27.186  50.375  1.00  0.00     0.017 C 
ATOM     28  C   UNL     1      56.233  26.076  50.990  1.00  0.00     0.012 C 
ATOM     29  C   UNL     1      56.422  28.572  50.430  1.00  0.00     0.012 C 
ENDBRANCH  20  27
BRANCH  21  30
ATOM     30  O   UNL     1      61.891  26.595  49.375  1.00  0.00    -0.504 OA
ATOM     31  H   UNL     1      61.774  25.833  48.718  1.00  0.00     0.293 HD
ENDBRANCH  21  30
BRANCH  22  32
ATOM     32  O   UNL     1      59.270  25.927  48.891  1.00  0.00    -0.504 OA
ATOM     33  H   UNL     1      59.648  25.007  48.710  1.00  0.00     0.293 HD
ENDBRANCH  22  32
ENDBRANCH  11  12
BRANCH  10  34
ATOM     34  O   UNL     1      60.034  26.706  56.921  1.00  0.00    -0.507 OA
ATOM     35  H   UNL     1      60.789  26.042  56.802  1.00  0.00     0.293 HD
ENDBRANCH  10  34
BRANCH   9  36
ATOM     36  C   UNL     1      62.232  31.654  60.068  1.00  0.00     0.017 C 
ATOM     37  C   UNL     1      61.376  32.625  60.888  1.00  0.00     0.012 C 
ATOM     38  C   UNL     1      63.662  31.555  60.628  1.00  0.00     0.012 C 
ENDBRANCH   9  36
BRANCH   6  39
ATOM     39  C   UNL     1      60.104  26.236  59.527  1.00  0.00     0.264 C 
ATOM     40  O   UNL     1      60.912  25.274  59.618  1.00  0.00    -0.298 OA
ENDBRANCH   6  39
BRANCH   8  41
ATOM     41  O   UNL     1      61.811  29.885  62.301  1.00  0.00    -0.504 OA
ATOM     42  H   UNL     1      62.692  29.649  62.741  1.00  0.00     0.293 HD
ENDBRANCH   8  41
BRANCH   7  43
ATOM     43  O   UNL     1      60.863  27.329  62.041  1.00  0.00    -0.504 OA
ATOM     44  H   UNL     1      61.250  27.585  62.940  1.00  0.00     0.293 HD
ENDBRANCH   7  43
TORSDOF 11
ENDMDL
