MODEL 1
REMARK VINA RESULT:    -4.463      0.000      0.000
REMARK INTER + INTRA:         -15.370
REMARK INTER:                 -11.247
REMARK INTRA:                  -4.123
REMARK UNBOUND:                -4.123
REMARK SMILES CCCCCCCCCCCCCCCCCCCCCCCCCCCC(=O)[O-]
REMARK SMILES IDX 15 1 16 2 17 3 18 4 19 5 20 6 21 7 22 8 23 9 24 10 25 11
REMARK SMILES IDX 26 12 27 13 28 14 29 15 30 16 14 17 13 18 12 19 11 20 10 21
REMARK SMILES IDX 9 22 8 23 7 24 6 25 5 26 4 27 3 28 2 29 1 30
REMARK H PARENT
REMARK Flexibility Score: inf
ROOT
ATOM      1  C   UNL     1     -26.634 -16.952  17.146  1.00  0.00     0.000 C 
ENDROOT
BRANCH   1   2
ATOM      2  C   UNL     1     -28.041 -16.621  16.613  1.00  0.00     0.000 C 
BRANCH   2   3
ATOM      3  C   UNL     1     -29.120 -17.587  17.132  1.00  0.00     0.000 C 
BRANCH   3   4
ATOM      4  C   UNL     1     -30.444 -17.462  16.360  1.00  0.00     0.000 C 
BRANCH   4   5
ATOM      5  C   UNL     1     -30.455 -18.275  15.056  1.00  0.00     0.000 C 
BRANCH   5   6
ATOM      6  C   UNL     1     -30.755 -17.376  13.850  1.00  0.00     0.000 C 
BRANCH   6   7
ATOM      7  C   UNL     1     -29.598 -17.406  12.840  1.00  0.00     0.000 C 
BRANCH   7   8
ATOM      8  C   UNL     1     -28.322 -18.036  13.421  1.00  0.00     0.000 C 
BRANCH   8   9
ATOM      9  C   UNL     1     -27.773 -19.179  12.546  1.00  0.00     0.000 C 
BRANCH   9  10
ATOM     10  C   UNL     1     -27.031 -20.243  13.382  1.00  0.00     0.000 C 
BRANCH  10  11
ATOM     11  C   UNL     1     -27.795 -20.679  14.644  1.00  0.00     0.000 C 
BRANCH  11  12
ATOM     12  C   UNL     1     -26.995 -20.458  15.935  1.00  0.00     0.006 C 
BRANCH  12  13
ATOM     13  C   UNL     1     -25.531 -20.124  15.625  1.00  0.00     0.053 C 
BRANCH  13  14
ATOM     14  C   UNL     1     -24.633 -20.581  16.731  1.00  0.00     0.041 C 
ATOM     15  O   UNL     1     -23.388 -20.401  16.652  1.00  0.00    -0.550 OA
ATOM     16  O   UNL     1     -25.171 -21.190  17.859  1.00  0.00    -0.550 OA
ENDBRANCH  13  14
ENDBRANCH  12  13
ENDBRANCH  11  12
ENDBRANCH  10  11
ENDBRANCH   9  10
ENDBRANCH   8   9
ENDBRANCH   7   8
ENDBRANCH   6   7
ENDBRANCH   5   6
ENDBRANCH   4   5
ENDBRANCH   3   4
ENDBRANCH   2   3
ENDBRANCH   1   2
BRANCH   1  17
ATOM     17  C   UNL     1     -25.936 -15.808  17.909  1.00  0.00     0.000 C 
BRANCH  17  18
ATOM     18  C   UNL     1     -26.383 -14.384  17.520  1.00  0.00     0.000 C 
BRANCH  18  19
ATOM     19  C   UNL     1     -25.526 -13.246  18.106  1.00  0.00     0.000 C 
BRANCH  19  20
ATOM     20  C   UNL     1     -25.488 -12.001  17.203  1.00  0.00     0.000 C 
BRANCH  20  21
ATOM     21  C   UNL     1     -26.875 -11.640  16.643  1.00  0.00     0.000 C 
BRANCH  21  22
ATOM     22  C   UNL     1     -27.801 -11.024  17.704  1.00  0.00    -0.000 C 
BRANCH  22  23
ATOM     23  C   UNL     1     -29.273 -11.304  17.378  1.00  0.00    -0.000 C 
BRANCH  23  24
ATOM     24  C   UNL     1     -29.408 -12.534  16.470  1.00  0.00    -0.000 C 
BRANCH  24  25
ATOM     25  C   UNL     1     -30.042 -13.734  17.192  1.00  0.00    -0.000 C 
BRANCH  25  26
ATOM     26  C   UNL     1     -31.429 -13.414  17.766  1.00  0.00    -0.000 C 
BRANCH  26  27
ATOM     27  C   UNL     1     -32.451 -14.484  17.355  1.00  0.00    -0.000 C 
BRANCH  27  28
ATOM     28  C   UNL     1     -32.710 -14.516  15.837  1.00  0.00    -0.000 C 
BRANCH  28  29
ATOM     29  C   UNL     1     -33.617 -15.665  15.361  1.00  0.00    -0.003 C 
ATOM     30  C   UNL     1     -35.065 -15.524  15.834  1.00  0.00     0.004 C 
ENDBRANCH  28  29
ENDBRANCH  27  28
ENDBRANCH  26  27
ENDBRANCH  25  26
ENDBRANCH  24  25
ENDBRANCH  23  24
ENDBRANCH  22  23
ENDBRANCH  21  22
ENDBRANCH  20  21
ENDBRANCH  19  20
ENDBRANCH  18  19
ENDBRANCH  17  18
ENDBRANCH   1  17
TORSDOF 26
ENDMDL
MODEL 2
REMARK VINA RESULT:    -4.463      2.932      7.769
REMARK INTER + INTRA:         -15.369
REMARK INTER:                 -11.044
REMARK INTRA:                  -4.326
REMARK UNBOUND:                -4.123
REMARK SMILES CCCCCCCCCCCCCCCCCCCCCCCCCCCC(=O)[O-]
REMARK SMILES IDX 15 1 16 2 17 3 18 4 19 5 20 6 21 7 22 8 23 9 24 10 25 11
REMARK SMILES IDX 26 12 27 13 28 14 29 15 30 16 14 17 13 18 12 19 11 20 10 21
REMARK SMILES IDX 9 22 8 23 7 24 6 25 5 26 4 27 3 28 2 29 1 30
REMARK H PARENT
REMARK Flexibility Score: inf
ROOT
ATOM      1  C   UNL     1     -28.560 -16.614  16.325  1.00  0.00     0.000 C 
ENDROOT
BRANCH   1   2
ATOM      2  C   UNL     1     -28.196 -16.025  17.700  1.00  0.00     0.000 C 
BRANCH   2   3
ATOM      3  C   UNL     1     -26.750 -15.506  17.766  1.00  0.00     0.000 C 
BRANCH   3   4
ATOM      4  C   UNL     1     -26.677 -13.999  18.061  1.00  0.00     0.000 C 
BRANCH   4   5
ATOM      5  C   UNL     1     -25.425 -13.333  17.468  1.00  0.00     0.000 C 
BRANCH   5   6
ATOM      6  C   UNL     1     -25.587 -11.808  17.414  1.00  0.00     0.000 C 
BRANCH   6   7
ATOM      7  C   UNL     1     -26.853 -11.418  16.636  1.00  0.00     0.000 C 
BRANCH   7   8
ATOM      8  C   UNL     1     -27.734 -10.420  17.404  1.00  0.00     0.000 C 
BRANCH   8   9
ATOM      9  C   UNL     1     -29.163 -10.945  17.635  1.00  0.00     0.000 C 
BRANCH   9  10
ATOM     10  C   UNL     1     -29.517 -12.103  16.678  1.00  0.00     0.000 C 
BRANCH  10  11
ATOM     11  C   UNL     1     -30.453 -13.153  17.298  1.00  0.00     0.000 C 
BRANCH  11  12
ATOM     12  C   UNL     1     -31.237 -13.952  16.248  1.00  0.00     0.006 C 
BRANCH  12  13
ATOM     13  C   UNL     1     -32.741 -13.918  16.540  1.00  0.00     0.053 C 
BRANCH  13  14
ATOM     14  C   UNL     1     -33.348 -15.277  16.381  1.00  0.00     0.041 C 
ATOM     15  O   UNL     1     -34.054 -15.541  15.372  1.00  0.00    -0.550 OA
ATOM     16  O   UNL     1     -33.120 -16.258  17.340  1.00  0.00    -0.550 OA
ENDBRANCH  13  14
ENDBRANCH  12  13
ENDBRANCH  11  12
ENDBRANCH  10  11
ENDBRANCH   9  10
ENDBRANCH   8   9
ENDBRANCH   7   8
ENDBRANCH   6   7
ENDBRANCH   5   6
ENDBRANCH   4   5
ENDBRANCH   3   4
ENDBRANCH   2   3
ENDBRANCH   1   2
BRANCH   1  17
ATOM     17  C   UNL     1     -29.880 -17.410  16.279  1.00  0.00     0.000 C 
BRANCH  17  18
ATOM     18  C   UNL     1     -30.646 -17.344  14.941  1.00  0.00     0.000 C 
BRANCH  18  19
ATOM     19  C   UNL     1     -29.950 -16.539  13.828  1.00  0.00     0.000 C 
BRANCH  19  20
ATOM     20  C   UNL     1     -29.661 -17.380  12.573  1.00  0.00     0.000 C 
BRANCH  20  21
ATOM     21  C   UNL     1     -28.168 -17.390  12.204  1.00  0.00     0.000 C 
BRANCH  21  22
ATOM     22  C   UNL     1     -27.604 -18.811  12.048  1.00  0.00    -0.000 C 
BRANCH  22  23
ATOM     23  C   UNL     1     -26.421 -19.041  12.995  1.00  0.00    -0.000 C 
BRANCH  23  24
ATOM     24  C   UNL     1     -26.658 -20.274  13.879  1.00  0.00    -0.000 C 
BRANCH  24  25
ATOM     25  C   UNL     1     -27.972 -20.190  14.670  1.00  0.00    -0.000 C 
BRANCH  25  26
ATOM     26  C   UNL     1     -27.763 -20.338  16.183  1.00  0.00    -0.000 C 
BRANCH  26  27
ATOM     27  C   UNL     1     -29.026 -20.893  16.858  1.00  0.00    -0.000 C 
BRANCH  27  28
ATOM     28  C   UNL     1     -30.115 -21.304  15.850  1.00  0.00    -0.000 C 
BRANCH  28  29
ATOM     29  C   UNL     1     -31.558 -21.170  16.368  1.00  0.00    -0.003 C 
ATOM     30  C   UNL     1     -31.666 -20.328  17.641  1.00  0.00     0.004 C 
ENDBRANCH  28  29
ENDBRANCH  27  28
ENDBRANCH  26  27
ENDBRANCH  25  26
ENDBRANCH  24  25
ENDBRANCH  23  24
ENDBRANCH  22  23
ENDBRANCH  21  22
ENDBRANCH  20  21
ENDBRANCH  19  20
ENDBRANCH  18  19
ENDBRANCH  17  18
ENDBRANCH   1  17
TORSDOF 26
ENDMDL
MODEL 3
REMARK VINA RESULT:    -4.435      2.323      5.318
REMARK INTER + INTRA:         -15.298
REMARK INTER:                 -11.077
REMARK INTRA:                  -4.221
REMARK UNBOUND:                -4.123
REMARK SMILES CCCCCCCCCCCCCCCCCCCCCCCCCCCC(=O)[O-]
REMARK SMILES IDX 15 1 16 2 17 3 18 4 19 5 20 6 21 7 22 8 23 9 24 10 25 11
REMARK SMILES IDX 26 12 27 13 28 14 29 15 30 16 14 17 13 18 12 19 11 20 10 21
REMARK SMILES IDX 9 22 8 23 7 24 6 25 5 26 4 27 3 28 2 29 1 30
REMARK H PARENT
REMARK Flexibility Score: inf
ROOT
ATOM      1  C   UNL     1     -34.236 -15.332  15.491  1.00  0.00     0.000 C 
ENDROOT
BRANCH   1   2
ATOM      2  C   UNL     1     -34.760 -15.995  16.777  1.00  0.00     0.000 C 
BRANCH   2   3
ATOM      3  C   UNL     1     -33.732 -15.982  17.921  1.00  0.00     0.000 C 
BRANCH   3   4
ATOM      4  C   UNL     1     -32.865 -17.252  17.948  1.00  0.00     0.000 C 
BRANCH   4   5
ATOM      5  C   UNL     1     -33.540 -18.451  17.265  1.00  0.00     0.000 C 
BRANCH   5   6
ATOM      6  C   UNL     1     -32.697 -18.957  16.086  1.00  0.00     0.000 C 
BRANCH   6   7
ATOM      7  C   UNL     1     -31.249 -18.457  16.191  1.00  0.00     0.000 C 
BRANCH   7   8
ATOM      8  C   UNL     1     -30.463 -18.642  14.884  1.00  0.00     0.000 C 
BRANCH   8   9
ATOM      9  C   UNL     1     -29.116 -17.895  14.890  1.00  0.00     0.000 C 
BRANCH   9  10
ATOM     10  C   UNL     1     -28.432 -17.924  13.508  1.00  0.00     0.000 C 
BRANCH  10  11
ATOM     11  C   UNL     1     -26.991 -18.460  13.543  1.00  0.00     0.000 C 
BRANCH  11  12
ATOM     12  C   UNL     1     -26.853 -19.851  12.908  1.00  0.00     0.006 C 
BRANCH  12  13
ATOM     13  C   UNL     1     -27.329 -19.840  11.451  1.00  0.00     0.053 C 
BRANCH  13  14
ATOM     14  C   UNL     1     -26.170 -19.939  10.509  1.00  0.00     0.041 C 
ATOM     15  O   UNL     1     -24.993 -19.986  10.956  1.00  0.00    -0.550 OA
ATOM     16  O   UNL     1     -26.390 -19.996   9.138  1.00  0.00    -0.550 OA
ENDBRANCH  13  14
ENDBRANCH  12  13
ENDBRANCH  11  12
ENDBRANCH  10  11
ENDBRANCH   9  10
ENDBRANCH   8   9
ENDBRANCH   7   8
ENDBRANCH   6   7
ENDBRANCH   5   6
ENDBRANCH   4   5
ENDBRANCH   3   4
ENDBRANCH   2   3
ENDBRANCH   1   2
BRANCH   1  17
ATOM     17  C   UNL     1     -32.993 -14.437  15.673  1.00  0.00     0.000 C 
BRANCH  17  18
ATOM     18  C   UNL     1     -31.677 -15.013  15.112  1.00  0.00     0.000 C 
BRANCH  18  19
ATOM     19  C   UNL     1     -30.398 -14.537  15.826  1.00  0.00     0.000 C 
BRANCH  19  20
ATOM     20  C   UNL     1     -30.604 -14.309  17.333  1.00  0.00     0.000 C 
BRANCH  20  21
ATOM     21  C   UNL     1     -30.400 -12.839  17.737  1.00  0.00     0.000 C 
BRANCH  21  22
ATOM     22  C   UNL     1     -29.640 -12.031  16.673  1.00  0.00    -0.000 C 
BRANCH  22  23
ATOM     23  C   UNL     1     -28.453 -11.285  17.293  1.00  0.00    -0.000 C 
BRANCH  23  24
ATOM     24  C   UNL     1     -27.137 -11.693  16.616  1.00  0.00    -0.000 C 
BRANCH  24  25
ATOM     25  C   UNL     1     -26.071 -12.150  17.623  1.00  0.00    -0.000 C 
BRANCH  25  26
ATOM     26  C   UNL     1     -25.829 -13.666  17.582  1.00  0.00    -0.000 C 
BRANCH  26  27
ATOM     27  C   UNL     1     -27.067 -14.431  18.068  1.00  0.00    -0.000 C 
BRANCH  27  28
ATOM     28  C   UNL     1     -27.216 -15.815  17.409  1.00  0.00    -0.000 C 
BRANCH  28  29
ATOM     29  C   UNL     1     -25.901 -16.428  16.892  1.00  0.00    -0.003 C 
ATOM     30  C   UNL     1     -25.793 -17.931  17.156  1.00  0.00     0.004 C 
ENDBRANCH  28  29
ENDBRANCH  27  28
ENDBRANCH  26  27
ENDBRANCH  25  26
ENDBRANCH  24  25
ENDBRANCH  23  24
ENDBRANCH  22  23
ENDBRANCH  21  22
ENDBRANCH  20  21
ENDBRANCH  19  20
ENDBRANCH  18  19
ENDBRANCH  17  18
ENDBRANCH   1  17
TORSDOF 26
ENDMDL
MODEL 4
REMARK VINA RESULT:    -4.386      4.476      9.603
REMARK INTER + INTRA:         -15.175
REMARK INTER:                 -12.613
REMARK INTRA:                  -2.562
REMARK UNBOUND:                -4.123
REMARK SMILES CCCCCCCCCCCCCCCCCCCCCCCCCCCC(=O)[O-]
REMARK SMILES IDX 15 1 16 2 17 3 18 4 19 5 20 6 21 7 22 8 23 9 24 10 25 11
REMARK SMILES IDX 26 12 27 13 28 14 29 15 30 16 14 17 13 18 12 19 11 20 10 21
REMARK SMILES IDX 9 22 8 23 7 24 6 25 5 26 4 27 3 28 2 29 1 30
REMARK H PARENT
REMARK Flexibility Score: inf
ROOT
ATOM      1  C   UNL     1     -29.695 -17.105  13.532  1.00  0.00     0.000 C 
ENDROOT
BRANCH   1   2
ATOM      2  C   UNL     1     -29.735 -16.233  14.800  1.00  0.00     0.000 C 
BRANCH   2   3
ATOM      3  C   UNL     1     -29.130 -16.933  16.029  1.00  0.00     0.000 C 
BRANCH   3   4
ATOM      4  C   UNL     1     -28.256 -15.992  16.873  1.00  0.00     0.000 C 
BRANCH   4   5
ATOM      5  C   UNL     1     -26.824 -16.517  17.065  1.00  0.00     0.000 C 
BRANCH   5   6
ATOM      6  C   UNL     1     -25.920 -15.436  17.673  1.00  0.00     0.000 C 
BRANCH   6   7
ATOM      7  C   UNL     1     -26.680 -14.112  17.837  1.00  0.00     0.000 C 
BRANCH   7   8
ATOM      8  C   UNL     1     -25.854 -12.896  17.386  1.00  0.00     0.000 C 
BRANCH   8   9
ATOM      9  C   UNL     1     -26.733 -11.734  16.886  1.00  0.00     0.000 C 
BRANCH   9  10
ATOM     10  C   UNL     1     -27.937 -11.477  17.817  1.00  0.00     0.000 C 
BRANCH  10  11
ATOM     11  C   UNL     1     -29.278 -11.363  17.073  1.00  0.00     0.000 C 
BRANCH  11  12
ATOM     12  C   UNL     1     -29.861 -12.725  16.674  1.00  0.00     0.006 C 
BRANCH  12  13
ATOM     13  C   UNL     1     -30.895 -13.203  17.700  1.00  0.00     0.053 C 
BRANCH  13  14
ATOM     14  C   UNL     1     -31.866 -14.155  17.076  1.00  0.00     0.041 C 
ATOM     15  O   UNL     1     -32.586 -13.784  16.109  1.00  0.00    -0.550 OA
ATOM     16  O   UNL     1     -31.967 -15.458  17.549  1.00  0.00    -0.550 OA
ENDBRANCH  13  14
ENDBRANCH  12  13
ENDBRANCH  11  12
ENDBRANCH  10  11
ENDBRANCH   9  10
ENDBRANCH   8   9
ENDBRANCH   7   8
ENDBRANCH   6   7
ENDBRANCH   5   6
ENDBRANCH   4   5
ENDBRANCH   3   4
ENDBRANCH   2   3
ENDBRANCH   1   2
BRANCH   1  17
ATOM     17  C   UNL     1     -28.650 -18.239  13.548  1.00  0.00     0.000 C 
BRANCH  17  18
ATOM     18  C   UNL     1     -27.589 -18.175  12.430  1.00  0.00     0.000 C 
BRANCH  18  19
ATOM     19  C   UNL     1     -28.114 -17.727  11.054  1.00  0.00     0.000 C 
BRANCH  19  20
ATOM     20  C   UNL     1     -27.669 -18.658   9.913  1.00  0.00     0.000 C 
BRANCH  20  21
ATOM     21  C   UNL     1     -26.303 -19.310  10.186  1.00  0.00     0.000 C 
BRANCH  21  22
ATOM     22  C   UNL     1     -26.259 -20.790   9.778  1.00  0.00    -0.000 C 
BRANCH  22  23
ATOM     23  C   UNL     1     -27.574 -21.497  10.127  1.00  0.00    -0.000 C 
BRANCH  23  24
ATOM     24  C   UNL     1     -28.276 -22.003   8.859  1.00  0.00    -0.000 C 
BRANCH  24  25
ATOM     25  C   UNL     1     -28.985 -23.349   9.073  1.00  0.00    -0.000 C 
BRANCH  25  26
ATOM     26  C   UNL     1     -30.462 -23.314   8.656  1.00  0.00    -0.000 C 
BRANCH  26  27
ATOM     27  C   UNL     1     -30.638 -22.550   7.336  1.00  0.00    -0.000 C 
BRANCH  27  28
ATOM     28  C   UNL     1     -30.144 -23.343   6.112  1.00  0.00    -0.000 C 
BRANCH  28  29
ATOM     29  C   UNL     1     -30.057 -22.530   4.807  1.00  0.00    -0.003 C 
ATOM     30  C   UNL     1     -31.033 -21.353   4.765  1.00  0.00     0.004 C 
ENDBRANCH  28  29
ENDBRANCH  27  28
ENDBRANCH  26  27
ENDBRANCH  25  26
ENDBRANCH  24  25
ENDBRANCH  23  24
ENDBRANCH  22  23
ENDBRANCH  21  22
ENDBRANCH  20  21
ENDBRANCH  19  20
ENDBRANCH  18  19
ENDBRANCH  17  18
ENDBRANCH   1  17
TORSDOF 26
ENDMDL
MODEL 5
REMARK VINA RESULT:    -4.371      3.168      7.834
REMARK INTER + INTRA:         -15.138
REMARK INTER:                 -10.904
REMARK INTRA:                  -4.234
REMARK UNBOUND:                -4.123
REMARK SMILES CCCCCCCCCCCCCCCCCCCCCCCCCCCC(=O)[O-]
REMARK SMILES IDX 15 1 16 2 17 3 18 4 19 5 20 6 21 7 22 8 23 9 24 10 25 11
REMARK SMILES IDX 26 12 27 13 28 14 29 15 30 16 14 17 13 18 12 19 11 20 10 21
REMARK SMILES IDX 9 22 8 23 7 24 6 25 5 26 4 27 3 28 2 29 1 30
REMARK H PARENT
REMARK Flexibility Score: inf
ROOT
ATOM      1  C   UNL     1     -27.496 -16.281  17.233  1.00  0.00     0.000 C 
ENDROOT
BRANCH   1   2
ATOM      2  C   UNL     1     -27.305 -15.038  18.121  1.00  0.00     0.000 C 
BRANCH   2   3
ATOM      3  C   UNL     1     -25.887 -14.449  18.030  1.00  0.00     0.000 C 
BRANCH   3   4
ATOM      4  C   UNL     1     -25.788 -13.305  17.008  1.00  0.00     0.000 C 
BRANCH   4   5
ATOM      5  C   UNL     1     -25.412 -11.960  17.650  1.00  0.00     0.000 C 
BRANCH   5   6
ATOM      6  C   UNL     1     -26.479 -10.896  17.361  1.00  0.00     0.000 C 
BRANCH   6   7
ATOM      7  C   UNL     1     -27.716 -11.524  16.701  1.00  0.00     0.000 C 
BRANCH   7   8
ATOM      8  C   UNL     1     -28.956 -11.482  17.608  1.00  0.00     0.000 C 
BRANCH   8   9
ATOM      9  C   UNL     1     -29.987 -12.570  17.254  1.00  0.00     0.000 C 
BRANCH   9  10
ATOM     10  C   UNL     1     -29.612 -13.324  15.961  1.00  0.00     0.000 C 
BRANCH  10  11
ATOM     11  C   UNL     1     -30.499 -14.548  15.681  1.00  0.00     0.000 C 
BRANCH  11  12
ATOM     12  C   UNL     1     -30.943 -15.273  16.959  1.00  0.00     0.006 C 
BRANCH  12  13
ATOM     13  C   UNL     1     -32.064 -16.275  16.662  1.00  0.00     0.053 C 
BRANCH  13  14
ATOM     14  C   UNL     1     -33.362 -15.571  16.421  1.00  0.00     0.041 C 
ATOM     15  O   UNL     1     -33.648 -14.529  17.070  1.00  0.00    -0.550 OA
ATOM     16  O   UNL     1     -34.250 -16.055  15.467  1.00  0.00    -0.550 OA
ENDBRANCH  13  14
ENDBRANCH  12  13
ENDBRANCH  11  12
ENDBRANCH  10  11
ENDBRANCH   9  10
ENDBRANCH   8   9
ENDBRANCH   7   8
ENDBRANCH   6   7
ENDBRANCH   5   6
ENDBRANCH   4   5
ENDBRANCH   3   4
ENDBRANCH   2   3
ENDBRANCH   1   2
BRANCH   1  17
ATOM     17  C   UNL     1     -26.196 -17.002  16.823  1.00  0.00     0.000 C 
BRANCH  17  18
ATOM     18  C   UNL     1     -25.930 -18.342  17.538  1.00  0.00     0.000 C 
BRANCH  18  19
ATOM     19  C   UNL     1     -26.386 -19.596  16.769  1.00  0.00     0.000 C 
BRANCH  19  20
ATOM     20  C   UNL     1     -27.075 -19.261  15.435  1.00  0.00     0.000 C 
BRANCH  20  21
ATOM     21  C   UNL     1     -28.450 -19.938  15.299  1.00  0.00     0.000 C 
BRANCH  21  22
ATOM     22  C   UNL     1     -29.562 -18.951  14.910  1.00  0.00    -0.000 C 
BRANCH  22  23
ATOM     23  C   UNL     1     -28.975 -17.677  14.291  1.00  0.00    -0.000 C 
BRANCH  23  24
ATOM     24  C   UNL     1     -29.608 -17.392  12.922  1.00  0.00    -0.000 C 
BRANCH  24  25
ATOM     25  C   UNL     1     -28.561 -17.204  11.814  1.00  0.00    -0.000 C 
BRANCH  25  26
ATOM     26  C   UNL     1     -27.321 -18.087  12.016  1.00  0.00    -0.000 C 
BRANCH  26  27
ATOM     27  C   UNL     1     -27.434 -19.383  11.202  1.00  0.00    -0.000 C 
BRANCH  27  28
ATOM     28  C   UNL     1     -26.865 -20.608  11.941  1.00  0.00    -0.000 C 
BRANCH  28  29
ATOM     29  C   UNL     1     -27.059 -21.950  11.211  1.00  0.00    -0.003 C 
ATOM     30  C   UNL     1     -26.904 -23.164  12.130  1.00  0.00     0.004 C 
ENDBRANCH  28  29
ENDBRANCH  27  28
ENDBRANCH  26  27
ENDBRANCH  25  26
ENDBRANCH  24  25
ENDBRANCH  23  24
ENDBRANCH  22  23
ENDBRANCH  21  22
ENDBRANCH  20  21
ENDBRANCH  19  20
ENDBRANCH  18  19
ENDBRANCH  17  18
ENDBRANCH   1  17
TORSDOF 26
ENDMDL
MODEL 6
REMARK VINA RESULT:    -4.345      2.756      4.417
REMARK INTER + INTRA:         -15.072
REMARK INTER:                 -12.413
REMARK INTRA:                  -2.659
REMARK UNBOUND:                -4.123
REMARK SMILES CCCCCCCCCCCCCCCCCCCCCCCCCCCC(=O)[O-]
REMARK SMILES IDX 15 1 16 2 17 3 18 4 19 5 20 6 21 7 22 8 23 9 24 10 25 11
REMARK SMILES IDX 26 12 27 13 28 14 29 15 30 16 14 17 13 18 12 19 11 20 10 21
REMARK SMILES IDX 9 22 8 23 7 24 6 25 5 26 4 27 3 28 2 29 1 30
REMARK H PARENT
REMARK Flexibility Score: inf
ROOT
ATOM      1  C   UNL     1     -25.354 -13.152  18.118  1.00  0.00     0.000 C 
ENDROOT
BRANCH   1   2
ATOM      2  C   UNL     1     -26.437 -14.239  17.993  1.00  0.00     0.000 C 
BRANCH   2   3
ATOM      3  C   UNL     1     -25.905 -15.549  17.387  1.00  0.00     0.000 C 
BRANCH   3   4
ATOM      4  C   UNL     1     -27.027 -16.553  17.075  1.00  0.00     0.000 C 
BRANCH   4   5
ATOM      5  C   UNL     1     -28.400 -15.883  16.909  1.00  0.00     0.000 C 
BRANCH   5   6
ATOM      6  C   UNL     1     -29.383 -16.815  16.189  1.00  0.00     0.000 C 
BRANCH   6   7
ATOM      7  C   UNL     1     -29.546 -16.409  14.716  1.00  0.00     0.000 C 
BRANCH   7   8
ATOM      8  C   UNL     1     -29.902 -17.599  13.811  1.00  0.00     0.000 C 
BRANCH   8   9
ATOM      9  C   UNL     1     -28.864 -18.735  13.888  1.00  0.00     0.000 C 
BRANCH   9  10
ATOM     10  C   UNL     1     -27.719 -18.542  12.871  1.00  0.00     0.000 C 
BRANCH  10  11
ATOM     11  C   UNL     1     -28.138 -17.770  11.609  1.00  0.00     0.000 C 
BRANCH  11  12
ATOM     12  C   UNL     1     -27.696 -18.459  10.311  1.00  0.00     0.006 C 
BRANCH  12  13
ATOM     13  C   UNL     1     -26.428 -19.291  10.533  1.00  0.00     0.053 C 
BRANCH  13  14
ATOM     14  C   UNL     1     -26.587 -20.669   9.971  1.00  0.00     0.041 C 
ATOM     15  O   UNL     1     -27.737 -21.130   9.739  1.00  0.00    -0.550 OA
ATOM     16  O   UNL     1     -25.465 -21.439   9.686  1.00  0.00    -0.550 OA
ENDBRANCH  13  14
ENDBRANCH  12  13
ENDBRANCH  11  12
ENDBRANCH  10  11
ENDBRANCH   9  10
ENDBRANCH   8   9
ENDBRANCH   7   8
ENDBRANCH   6   7
ENDBRANCH   5   6
ENDBRANCH   4   5
ENDBRANCH   3   4
ENDBRANCH   2   3
ENDBRANCH   1   2
BRANCH   1  17
ATOM     17  C   UNL     1     -25.483 -11.980  17.124  1.00  0.00     0.000 C 
BRANCH  17  18
ATOM     18  C   UNL     1     -26.912 -11.697  16.617  1.00  0.00     0.000 C 
BRANCH  18  19
ATOM     19  C   UNL     1     -27.677 -10.607  17.390  1.00  0.00     0.000 C 
BRANCH  19  20
ATOM     20  C   UNL     1     -29.142 -10.985  17.665  1.00  0.00     0.000 C 
BRANCH  20  21
ATOM     21  C   UNL     1     -29.621 -12.153  16.785  1.00  0.00     0.000 C 
BRANCH  21  22
ATOM     22  C   UNL     1     -30.736 -12.977  17.447  1.00  0.00    -0.000 C 
BRANCH  22  23
ATOM     23  C   UNL     1     -31.480 -13.829  16.412  1.00  0.00    -0.000 C 
BRANCH  23  24
ATOM     24  C   UNL     1     -32.966 -13.958  16.777  1.00  0.00    -0.000 C 
BRANCH  24  25
ATOM     25  C   UNL     1     -33.884 -13.895  15.547  1.00  0.00    -0.000 C 
BRANCH  25  26
ATOM     26  C   UNL     1     -35.233 -14.591  15.777  1.00  0.00    -0.000 C 
BRANCH  26  27
ATOM     27  C   UNL     1     -36.396 -13.685  15.351  1.00  0.00    -0.000 C 
BRANCH  27  28
ATOM     28  C   UNL     1     -36.186 -12.211  15.746  1.00  0.00    -0.000 C 
BRANCH  28  29
ATOM     29  C   UNL     1     -36.611 -11.861  17.184  1.00  0.00    -0.003 C 
ATOM     30  C   UNL     1     -36.357 -10.397  17.547  1.00  0.00     0.004 C 
ENDBRANCH  28  29
ENDBRANCH  27  28
ENDBRANCH  26  27
ENDBRANCH  25  26
ENDBRANCH  24  25
ENDBRANCH  23  24
ENDBRANCH  22  23
ENDBRANCH  21  22
ENDBRANCH  20  21
ENDBRANCH  19  20
ENDBRANCH  18  19
ENDBRANCH  17  18
ENDBRANCH   1  17
TORSDOF 26
ENDMDL
MODEL 7
REMARK VINA RESULT:    -4.266      1.763      2.466
REMARK INTER + INTRA:         -14.873
REMARK INTER:                 -10.511
REMARK INTRA:                  -4.363
REMARK UNBOUND:                -4.123
REMARK SMILES CCCCCCCCCCCCCCCCCCCCCCCCCCCC(=O)[O-]
REMARK SMILES IDX 15 1 16 2 17 3 18 4 19 5 20 6 21 7 22 8 23 9 24 10 25 11
REMARK SMILES IDX 26 12 27 13 28 14 29 15 30 16 14 17 13 18 12 19 11 20 10 21
REMARK SMILES IDX 9 22 8 23 7 24 6 25 5 26 4 27 3 28 2 29 1 30
REMARK H PARENT
REMARK Flexibility Score: inf
ROOT
ATOM      1  C   UNL     1     -26.477 -16.717  17.128  1.00  0.00     0.000 C 
ENDROOT
BRANCH   1   2
ATOM      2  C   UNL     1     -27.897 -16.427  16.608  1.00  0.00     0.000 C 
BRANCH   2   3
ATOM      3  C   UNL     1     -28.996 -16.840  17.601  1.00  0.00     0.000 C 
BRANCH   3   4
ATOM      4  C   UNL     1     -30.351 -17.081  16.915  1.00  0.00     0.000 C 
BRANCH   4   5
ATOM      5  C   UNL     1     -30.288 -16.905  15.390  1.00  0.00     0.000 C 
BRANCH   5   6
ATOM      6  C   UNL     1     -31.234 -17.886  14.685  1.00  0.00     0.000 C 
BRANCH   6   7
ATOM      7  C   UNL     1     -32.554 -18.028  15.457  1.00  0.00     0.000 C 
BRANCH   7   8
ATOM      8  C   UNL     1     -32.644 -19.349  16.238  1.00  0.00     0.000 C 
BRANCH   8   9
ATOM      9  C   UNL     1     -31.907 -20.504  15.534  1.00  0.00     0.000 C 
BRANCH   9  10
ATOM     10  C   UNL     1     -30.878 -21.184  16.462  1.00  0.00     0.000 C 
BRANCH  10  11
ATOM     11  C   UNL     1     -29.515 -20.471  16.500  1.00  0.00     0.000 C 
BRANCH  11  12
ATOM     12  C   UNL     1     -28.634 -20.797  15.287  1.00  0.00     0.006 C 
BRANCH  12  13
ATOM     13  C   UNL     1     -27.247 -20.162  15.428  1.00  0.00     0.053 C 
BRANCH  13  14
ATOM     14  C   UNL     1     -26.761 -19.640  14.112  1.00  0.00     0.041 C 
ATOM     15  O   UNL     1     -26.268 -18.483  14.032  1.00  0.00    -0.550 OA
ATOM     16  O   UNL     1     -26.838 -20.436  12.976  1.00  0.00    -0.550 OA
ENDBRANCH  13  14
ENDBRANCH  12  13
ENDBRANCH  11  12
ENDBRANCH  10  11
ENDBRANCH   9  10
ENDBRANCH   8   9
ENDBRANCH   7   8
ENDBRANCH   6   7
ENDBRANCH   5   6
ENDBRANCH   4   5
ENDBRANCH   3   4
ENDBRANCH   2   3
ENDBRANCH   1   2
BRANCH   1  17
ATOM     17  C   UNL     1     -25.898 -15.656  18.085  1.00  0.00     0.000 C 
BRANCH  17  18
ATOM     18  C   UNL     1     -26.371 -14.209  17.831  1.00  0.00     0.000 C 
BRANCH  18  19
ATOM     19  C   UNL     1     -25.316 -13.120  18.096  1.00  0.00     0.000 C 
BRANCH  19  20
ATOM     20  C   UNL     1     -25.413 -11.941  17.113  1.00  0.00     0.000 C 
BRANCH  20  21
ATOM     21  C   UNL     1     -26.852 -11.703  16.623  1.00  0.00     0.000 C 
BRANCH  21  22
ATOM     22  C   UNL     1     -27.626 -10.718  17.513  1.00  0.00    -0.000 C 
BRANCH  22  23
ATOM     23  C   UNL     1     -29.132 -11.007  17.473  1.00  0.00    -0.000 C 
BRANCH  23  24
ATOM     24  C   UNL     1     -29.420 -12.307  16.710  1.00  0.00    -0.000 C 
BRANCH  24  25
ATOM     25  C   UNL     1     -29.933 -13.429  17.626  1.00  0.00    -0.000 C 
BRANCH  25  26
ATOM     26  C   UNL     1     -31.455 -13.611  17.543  1.00  0.00    -0.000 C 
BRANCH  26  27
ATOM     27  C   UNL     1     -31.908 -13.772  16.085  1.00  0.00    -0.000 C 
BRANCH  27  28
ATOM     28  C   UNL     1     -33.181 -14.625  15.942  1.00  0.00    -0.000 C 
BRANCH  28  29
ATOM     29  C   UNL     1     -33.933 -14.890  17.260  1.00  0.00    -0.003 C 
ATOM     30  C   UNL     1     -35.124 -15.836  17.094  1.00  0.00     0.004 C 
ENDBRANCH  28  29
ENDBRANCH  27  28
ENDBRANCH  26  27
ENDBRANCH  25  26
ENDBRANCH  24  25
ENDBRANCH  23  24
ENDBRANCH  22  23
ENDBRANCH  21  22
ENDBRANCH  20  21
ENDBRANCH  19  20
ENDBRANCH  18  19
ENDBRANCH  17  18
ENDBRANCH   1  17
TORSDOF 26
ENDMDL
MODEL 8
REMARK VINA RESULT:    -4.239      2.111      3.870
REMARK INTER + INTRA:         -14.804
REMARK INTER:                 -11.526
REMARK INTRA:                  -3.278
REMARK UNBOUND:                -4.123
REMARK SMILES CCCCCCCCCCCCCCCCCCCCCCCCCCCC(=O)[O-]
REMARK SMILES IDX 15 1 16 2 17 3 18 4 19 5 20 6 21 7 22 8 23 9 24 10 25 11
REMARK SMILES IDX 26 12 27 13 28 14 29 15 30 16 14 17 13 18 12 19 11 20 10 21
REMARK SMILES IDX 9 22 8 23 7 24 6 25 5 26 4 27 3 28 2 29 1 30
REMARK H PARENT
REMARK Flexibility Score: inf
ROOT
ATOM      1  C   UNL     1     -25.147 -12.987  17.934  1.00  0.00     0.000 C 
ENDROOT
BRANCH   1   2
ATOM      2  C   UNL     1     -26.270 -14.034  18.046  1.00  0.00     0.000 C 
BRANCH   2   3
ATOM      3  C   UNL     1     -25.889 -15.390  17.427  1.00  0.00     0.000 C 
BRANCH   3   4
ATOM      4  C   UNL     1     -27.080 -16.360  17.353  1.00  0.00     0.000 C 
BRANCH   4   5
ATOM      5  C   UNL     1     -28.401 -15.659  17.001  1.00  0.00     0.000 C 
BRANCH   5   6
ATOM      6  C   UNL     1     -29.467 -16.678  16.575  1.00  0.00     0.000 C 
BRANCH   6   7
ATOM      7  C   UNL     1     -29.645 -16.681  15.049  1.00  0.00     0.000 C 
BRANCH   7   8
ATOM      8  C   UNL     1     -30.113 -18.042  14.512  1.00  0.00     0.000 C 
BRANCH   8   9
ATOM      9  C   UNL     1     -28.991 -19.097  14.510  1.00  0.00     0.000 C 
BRANCH   9  10
ATOM     10  C   UNL     1     -27.644 -18.509  14.039  1.00  0.00     0.000 C 
BRANCH  10  11
ATOM     11  C   UNL     1     -27.553 -18.317  12.516  1.00  0.00     0.000 C 
BRANCH  11  12
ATOM     12  C   UNL     1     -27.438 -19.642  11.750  1.00  0.00     0.006 C 
BRANCH  12  13
ATOM     13  C   UNL     1     -26.437 -20.584  12.428  1.00  0.00     0.053 C 
BRANCH  13  14
ATOM     14  C   UNL     1     -25.398 -21.049  11.456  1.00  0.00     0.041 C 
ATOM     15  O   UNL     1     -24.813 -22.151  11.633  1.00  0.00    -0.550 OA
ATOM     16  O   UNL     1     -25.087 -20.274  10.345  1.00  0.00    -0.550 OA
ENDBRANCH  13  14
ENDBRANCH  12  13
ENDBRANCH  11  12
ENDBRANCH  10  11
ENDBRANCH   9  10
ENDBRANCH   8   9
ENDBRANCH   7   8
ENDBRANCH   6   7
ENDBRANCH   5   6
ENDBRANCH   4   5
ENDBRANCH   3   4
ENDBRANCH   2   3
ENDBRANCH   1   2
BRANCH   1  17
ATOM     17  C   UNL     1     -25.488 -11.746  17.085  1.00  0.00     0.000 C 
BRANCH  17  18
ATOM     18  C   UNL     1     -26.957 -11.643  16.626  1.00  0.00     0.000 C 
BRANCH  18  19
ATOM     19  C   UNL     1     -27.799 -10.581  17.358  1.00  0.00     0.000 C 
BRANCH  19  20
ATOM     20  C   UNL     1     -29.225 -11.062  17.674  1.00  0.00     0.000 C 
BRANCH  20  21
ATOM     21  C   UNL     1     -29.632 -12.283  16.831  1.00  0.00     0.000 C 
BRANCH  21  22
ATOM     22  C   UNL     1     -30.848 -13.024  17.409  1.00  0.00    -0.000 C 
BRANCH  22  23
ATOM     23  C   UNL     1     -31.608 -13.777  16.310  1.00  0.00    -0.000 C 
BRANCH  23  24
ATOM     24  C   UNL     1     -33.108 -13.841  16.628  1.00  0.00    -0.000 C 
BRANCH  24  25
ATOM     25  C   UNL     1     -33.946 -14.317  15.431  1.00  0.00    -0.000 C 
BRANCH  25  26
ATOM     26  C   UNL     1     -35.243 -15.018  15.858  1.00  0.00    -0.000 C 
BRANCH  26  27
ATOM     27  C   UNL     1     -34.942 -16.223  16.760  1.00  0.00    -0.000 C 
BRANCH  27  28
ATOM     28  C   UNL     1     -33.884 -17.170  16.164  1.00  0.00    -0.000 C 
BRANCH  28  29
ATOM     29  C   UNL     1     -32.936 -17.811  17.195  1.00  0.00    -0.003 C 
ATOM     30  C   UNL     1     -32.563 -19.255  16.855  1.00  0.00     0.004 C 
ENDBRANCH  28  29
ENDBRANCH  27  28
ENDBRANCH  26  27
ENDBRANCH  25  26
ENDBRANCH  24  25
ENDBRANCH  23  24
ENDBRANCH  22  23
ENDBRANCH  21  22
ENDBRANCH  20  21
ENDBRANCH  19  20
ENDBRANCH  18  19
ENDBRANCH  17  18
ENDBRANCH   1  17
TORSDOF 26
ENDMDL
MODEL 9
REMARK VINA RESULT:    -4.215      2.883      7.937
REMARK INTER + INTRA:         -14.745
REMARK INTER:                 -11.658
REMARK INTRA:                  -3.086
REMARK UNBOUND:                -4.123
REMARK SMILES CCCCCCCCCCCCCCCCCCCCCCCCCCCC(=O)[O-]
REMARK SMILES IDX 15 1 16 2 17 3 18 4 19 5 20 6 21 7 22 8 23 9 24 10 25 11
REMARK SMILES IDX 26 12 27 13 28 14 29 15 30 16 14 17 13 18 12 19 11 20 10 21
REMARK SMILES IDX 9 22 8 23 7 24 6 25 5 26 4 27 3 28 2 29 1 30
REMARK H PARENT
REMARK Flexibility Score: inf
ROOT
ATOM      1  C   UNL     1     -27.011 -17.364  16.308  1.00  0.00     0.000 C 
ENDROOT
BRANCH   1   2
ATOM      2  C   UNL     1     -27.216 -16.261  17.362  1.00  0.00     0.000 C 
BRANCH   2   3
ATOM      3  C   UNL     1     -25.991 -15.344  17.516  1.00  0.00     0.000 C 
BRANCH   3   4
ATOM      4  C   UNL     1     -26.371 -13.920  17.954  1.00  0.00     0.000 C 
BRANCH   4   5
ATOM      5  C   UNL     1     -25.181 -12.948  17.928  1.00  0.00     0.000 C 
BRANCH   5   6
ATOM      6  C   UNL     1     -25.561 -11.632  17.236  1.00  0.00     0.000 C 
BRANCH   6   7
ATOM      7  C   UNL     1     -26.985 -11.704  16.664  1.00  0.00     0.000 C 
BRANCH   7   8
ATOM      8  C   UNL     1     -27.961 -10.764  17.389  1.00  0.00     0.000 C 
BRANCH   8   9
ATOM      9  C   UNL     1     -29.366 -11.375  17.547  1.00  0.00     0.000 C 
BRANCH   9  10
ATOM     10  C   UNL     1     -29.578 -12.587  16.616  1.00  0.00     0.000 C 
BRANCH  10  11
ATOM     11  C   UNL     1     -30.769 -13.473  17.017  1.00  0.00     0.000 C 
BRANCH  11  12
ATOM     12  C   UNL     1     -31.145 -14.498  15.938  1.00  0.00     0.006 C 
BRANCH  12  13
ATOM     13  C   UNL     1     -32.592 -14.303  15.473  1.00  0.00     0.053 C 
BRANCH  13  14
ATOM     14  C   UNL     1     -33.462 -15.425  15.947  1.00  0.00     0.041 C 
ATOM     15  O   UNL     1     -33.233 -15.980  17.055  1.00  0.00    -0.550 OA
ATOM     16  O   UNL     1     -34.536 -15.848  15.173  1.00  0.00    -0.550 OA
ENDBRANCH  13  14
ENDBRANCH  12  13
ENDBRANCH  11  12
ENDBRANCH  10  11
ENDBRANCH   9  10
ENDBRANCH   8   9
ENDBRANCH   7   8
ENDBRANCH   6   7
ENDBRANCH   5   6
ENDBRANCH   4   5
ENDBRANCH   3   4
ENDBRANCH   2   3
ENDBRANCH   1   2
BRANCH   1  17
ATOM     17  C   UNL     1     -25.588 -17.954  16.242  1.00  0.00     0.000 C 
BRANCH  17  18
ATOM     18  C   UNL     1     -25.217 -18.916  17.389  1.00  0.00     0.000 C 
BRANCH  18  19
ATOM     19  C   UNL     1     -25.318 -20.414  17.045  1.00  0.00     0.000 C 
BRANCH  19  20
ATOM     20  C   UNL     1     -24.008 -20.987  16.478  1.00  0.00     0.000 C 
BRANCH  20  21
ATOM     21  C   UNL     1     -24.242 -21.876  15.245  1.00  0.00     0.000 C 
BRANCH  21  22
ATOM     22  C   UNL     1     -25.523 -21.506  14.481  1.00  0.00    -0.000 C 
BRANCH  22  23
ATOM     23  C   UNL     1     -25.196 -20.707  13.214  1.00  0.00    -0.000 C 
BRANCH  23  24
ATOM     24  C   UNL     1     -26.389 -20.703  12.247  1.00  0.00    -0.000 C 
BRANCH  24  25
ATOM     25  C   UNL     1     -27.608 -19.960  12.815  1.00  0.00    -0.000 C 
BRANCH  25  26
ATOM     26  C   UNL     1     -27.376 -18.447  12.933  1.00  0.00    -0.000 C 
BRANCH  26  27
ATOM     27  C   UNL     1     -28.389 -17.671  12.079  1.00  0.00    -0.000 C 
BRANCH  27  28
ATOM     28  C   UNL     1     -29.463 -16.957  12.920  1.00  0.00    -0.000 C 
BRANCH  28  29
ATOM     29  C   UNL     1     -29.912 -17.722  14.178  1.00  0.00    -0.003 C 
ATOM     30  C   UNL     1     -31.425 -17.936  14.245  1.00  0.00     0.004 C 
ENDBRANCH  28  29
ENDBRANCH  27  28
ENDBRANCH  26  27
ENDBRANCH  25  26
ENDBRANCH  24  25
ENDBRANCH  23  24
ENDBRANCH  22  23
ENDBRANCH  21  22
ENDBRANCH  20  21
ENDBRANCH  19  20
ENDBRANCH  18  19
ENDBRANCH  17  18
ENDBRANCH   1  17
TORSDOF 26
ENDMDL
