MODEL 1
REMARK VINA RESULT:    -5.785      0.000      0.000
REMARK INTER + INTRA:         -14.422
REMARK INTER:                 -13.225
REMARK INTRA:                  -1.197
REMARK UNBOUND:                -1.197
REMARK SMILES CCCCCCCCCCCCCCCCCCCCCCCC(=O)[O-]
REMARK SMILES IDX 13 1 14 2 15 3 16 4 17 5 18 6 19 7 20 8 21 9 22 10 23 11
REMARK SMILES IDX 24 12 25 13 26 14 12 15 11 16 10 17 9 18 8 19 7 20 6 21 5 22
REMARK SMILES IDX 4 23 3 24 2 25 1 26
REMARK H PARENT
REMARK Flexibility Score: inf
ROOT
ATOM      1  C   UNL     1      46.488  24.478  53.970  1.00  0.00     0.000 C 
ENDROOT
BRANCH   1   2
ATOM      2  C   UNL     1      45.475  24.527  55.127  1.00  0.00     0.000 C 
BRANCH   2   3
ATOM      3  C   UNL     1      44.121  25.125  54.708  1.00  0.00     0.000 C 
BRANCH   3   4
ATOM      4  C   UNL     1      43.000  24.903  55.746  1.00  0.00     0.000 C 
BRANCH   4   5
ATOM      5  C   UNL     1      41.600  25.083  55.135  1.00  0.00     0.000 C 
BRANCH   5   6
ATOM      6  C   UNL     1      40.801  23.770  55.089  1.00  0.00     0.000 C 
BRANCH   6   7
ATOM      7  C   UNL     1      41.707  22.531  54.984  1.00  0.00     0.000 C 
BRANCH   7   8
ATOM      8  C   UNL     1      41.015  21.346  54.292  1.00  0.00     0.000 C 
BRANCH   8   9
ATOM      9  C   UNL     1      41.772  20.022  54.493  1.00  0.00     0.000 C 
BRANCH   9  10
ATOM     10  C   UNL     1      42.446  19.515  53.202  1.00  0.00     0.006 C 
BRANCH  10  11
ATOM     11  C   UNL     1      43.496  18.415  53.437  1.00  0.00     0.053 C 
BRANCH  11  12
ATOM     12  C   UNL     1      44.265  18.080  52.197  1.00  0.00     0.041 C 
ATOM     13  O   UNL     1      43.662  17.906  51.105  1.00  0.00    -0.550 OA
ATOM     14  O   UNL     1      45.648  17.944  52.248  1.00  0.00    -0.550 OA
ENDBRANCH  11  12
ENDBRANCH  10  11
ENDBRANCH   9  10
ENDBRANCH   8   9
ENDBRANCH   7   8
ENDBRANCH   6   7
ENDBRANCH   5   6
ENDBRANCH   4   5
ENDBRANCH   3   4
ENDBRANCH   2   3
ENDBRANCH   1   2
BRANCH   1  15
ATOM     15  C   UNL     1      47.335  23.195  53.987  1.00  0.00     0.000 C 
BRANCH  15  16
ATOM     16  C   UNL     1      48.008  22.916  52.631  1.00  0.00     0.000 C 
BRANCH  16  17
ATOM     17  C   UNL     1      47.724  21.497  52.112  1.00  0.00     0.000 C 
BRANCH  17  18
ATOM     18  C   UNL     1      48.030  21.345  50.615  1.00  0.00    -0.000 C 
BRANCH  18  19
ATOM     19  C   UNL     1      48.398  19.896  50.273  1.00  0.00    -0.000 C 
BRANCH  19  20
ATOM     20  C   UNL     1      49.906  19.656  50.440  1.00  0.00    -0.000 C 
BRANCH  20  21
ATOM     21  C   UNL     1      50.725  20.959  50.420  1.00  0.00    -0.000 C 
BRANCH  21  22
ATOM     22  C   UNL     1      51.984  20.951  51.311  1.00  0.00    -0.000 C 
BRANCH  22  23
ATOM     23  C   UNL     1      53.314  21.173  50.565  1.00  0.00    -0.000 C 
BRANCH  23  24
ATOM     24  C   UNL     1      53.569  20.210  49.388  1.00  0.00    -0.000 C 
BRANCH  24  25
ATOM     25  C   UNL     1      55.014  20.208  48.858  1.00  0.00    -0.003 C 
ATOM     26  C   UNL     1      55.297  21.359  47.894  1.00  0.00     0.004 C 
ENDBRANCH  24  25
ENDBRANCH  23  24
ENDBRANCH  22  23
ENDBRANCH  21  22
ENDBRANCH  20  21
ENDBRANCH  19  20
ENDBRANCH  18  19
ENDBRANCH  17  18
ENDBRANCH  16  17
ENDBRANCH  15  16
ENDBRANCH   1  15
TORSDOF 22
ENDMDL
MODEL 2
REMARK VINA RESULT:    -5.647      0.935      1.895
REMARK INTER + INTRA:         -14.106
REMARK INTER:                 -12.624
REMARK INTRA:                  -1.482
REMARK UNBOUND:                -1.197
REMARK SMILES CCCCCCCCCCCCCCCCCCCCCCCC(=O)[O-]
REMARK SMILES IDX 13 1 14 2 15 3 16 4 17 5 18 6 19 7 20 8 21 9 22 10 23 11
REMARK SMILES IDX 24 12 25 13 26 14 12 15 11 16 10 17 9 18 8 19 7 20 6 21 5 22
REMARK SMILES IDX 4 23 3 24 2 25 1 26
REMARK H PARENT
REMARK Flexibility Score: inf
ROOT
ATOM      1  C   UNL     1      44.858  25.078  54.764  1.00  0.00     0.000 C 
ENDROOT
BRANCH   1   2
ATOM      2  C   UNL     1      43.742  24.279  55.459  1.00  0.00     0.000 C 
BRANCH   2   3
ATOM      3  C   UNL     1      42.356  24.925  55.296  1.00  0.00     0.000 C 
BRANCH   3   4
ATOM      4  C   UNL     1      41.200  23.903  55.248  1.00  0.00     0.000 C 
BRANCH   4   5
ATOM      5  C   UNL     1      41.709  22.458  55.111  1.00  0.00     0.000 C 
BRANCH   5   6
ATOM      6  C   UNL     1      40.980  21.676  54.006  1.00  0.00     0.000 C 
BRANCH   6   7
ATOM      7  C   UNL     1      41.405  20.199  53.948  1.00  0.00     0.000 C 
BRANCH   7   8
ATOM      8  C   UNL     1      42.160  19.747  55.208  1.00  0.00     0.000 C 
BRANCH   8   9
ATOM      9  C   UNL     1      43.638  19.424  54.927  1.00  0.00     0.000 C 
BRANCH   9  10
ATOM     10  C   UNL     1      43.827  18.093  54.173  1.00  0.00     0.006 C 
BRANCH  10  11
ATOM     11  C   UNL     1      44.716  18.206  52.922  1.00  0.00     0.053 C 
BRANCH  11  12
ATOM     12  C   UNL     1      43.981  17.865  51.663  1.00  0.00     0.041 C 
ATOM     13  O   UNL     1      44.295  16.837  51.005  1.00  0.00    -0.550 OA
ATOM     14  O   UNL     1      42.959  18.688  51.204  1.00  0.00    -0.550 OA
ENDBRANCH  11  12
ENDBRANCH  10  11
ENDBRANCH   9  10
ENDBRANCH   8   9
ENDBRANCH   7   8
ENDBRANCH   6   7
ENDBRANCH   5   6
ENDBRANCH   4   5
ENDBRANCH   3   4
ENDBRANCH   2   3
ENDBRANCH   1   2
BRANCH   1  15
ATOM     15  C   UNL     1      46.252  24.488  55.027  1.00  0.00     0.000 C 
BRANCH  15  16
ATOM     16  C   UNL     1      47.084  24.345  53.740  1.00  0.00     0.000 C 
BRANCH  16  17
ATOM     17  C   UNL     1      47.347  22.876  53.368  1.00  0.00     0.000 C 
BRANCH  17  18
ATOM     18  C   UNL     1      48.272  22.734  52.150  1.00  0.00    -0.000 C 
BRANCH  18  19
ATOM     19  C   UNL     1      47.769  21.636  51.204  1.00  0.00    -0.000 C 
BRANCH  19  20
ATOM     20  C   UNL     1      48.921  20.724  50.758  1.00  0.00    -0.000 C 
BRANCH  20  21
ATOM     21  C   UNL     1      50.274  21.455  50.694  1.00  0.00    -0.000 C 
BRANCH  21  22
ATOM     22  C   UNL     1      51.445  20.719  51.377  1.00  0.00    -0.000 C 
BRANCH  22  23
ATOM     23  C   UNL     1      52.724  21.558  51.561  1.00  0.00    -0.000 C 
BRANCH  23  24
ATOM     24  C   UNL     1      53.724  21.487  50.388  1.00  0.00    -0.000 C 
BRANCH  24  25
ATOM     25  C   UNL     1      53.536  20.280  49.452  1.00  0.00    -0.003 C 
ATOM     26  C   UNL     1      54.823  19.874  48.737  1.00  0.00     0.004 C 
ENDBRANCH  24  25
ENDBRANCH  23  24
ENDBRANCH  22  23
ENDBRANCH  21  22
ENDBRANCH  20  21
ENDBRANCH  19  20
ENDBRANCH  18  19
ENDBRANCH  17  18
ENDBRANCH  16  17
ENDBRANCH  15  16
ENDBRANCH   1  15
TORSDOF 22
ENDMDL
MODEL 3
REMARK VINA RESULT:    -5.444      2.584      5.234
REMARK INTER + INTRA:         -13.643
REMARK INTER:                 -10.374
REMARK INTRA:                  -3.269
REMARK UNBOUND:                -1.197
REMARK SMILES CCCCCCCCCCCCCCCCCCCCCCCC(=O)[O-]
REMARK SMILES IDX 13 1 14 2 15 3 16 4 17 5 18 6 19 7 20 8 21 9 22 10 23 11
REMARK SMILES IDX 24 12 25 13 26 14 12 15 11 16 10 17 9 18 8 19 7 20 6 21 5 22
REMARK SMILES IDX 4 23 3 24 2 25 1 26
REMARK H PARENT
REMARK Flexibility Score: inf
ROOT
ATOM      1  C   UNL     1      47.357  20.989  50.313  1.00  0.00     0.000 C 
ENDROOT
BRANCH   1   2
ATOM      2  C   UNL     1      47.703  21.304  51.778  1.00  0.00     0.000 C 
BRANCH   2   3
ATOM      3  C   UNL     1      48.662  22.498  51.920  1.00  0.00     0.000 C 
BRANCH   3   4
ATOM      4  C   UNL     1      49.843  22.231  52.878  1.00  0.00     0.000 C 
BRANCH   4   5
ATOM      5  C   UNL     1      49.791  23.128  54.127  1.00  0.00     0.000 C 
BRANCH   5   6
ATOM      6  C   UNL     1      48.792  22.619  55.180  1.00  0.00     0.000 C 
BRANCH   6   7
ATOM      7  C   UNL     1      47.500  23.453  55.219  1.00  0.00     0.000 C 
BRANCH   7   8
ATOM      8  C   UNL     1      46.233  22.585  55.261  1.00  0.00     0.000 C 
BRANCH   8   9
ATOM      9  C   UNL     1      46.547  21.090  55.444  1.00  0.00     0.000 C 
BRANCH   9  10
ATOM     10  C   UNL     1      45.595  20.176  54.649  1.00  0.00     0.006 C 
BRANCH  10  11
ATOM     11  C   UNL     1      44.242  19.933  55.341  1.00  0.00     0.053 C 
BRANCH  11  12
ATOM     12  C   UNL     1      43.367  18.987  54.578  1.00  0.00     0.041 C 
ATOM     13  O   UNL     1      43.601  17.749  54.601  1.00  0.00    -0.550 OA
ATOM     14  O   UNL     1      42.302  19.471  53.827  1.00  0.00    -0.550 OA
ENDBRANCH  11  12
ENDBRANCH  10  11
ENDBRANCH   9  10
ENDBRANCH   8   9
ENDBRANCH   7   8
ENDBRANCH   6   7
ENDBRANCH   5   6
ENDBRANCH   4   5
ENDBRANCH   3   4
ENDBRANCH   2   3
ENDBRANCH   1   2
BRANCH   1  15
ATOM     15  C   UNL     1      48.589  20.565  49.498  1.00  0.00     0.000 C 
BRANCH  15  16
ATOM     16  C   UNL     1      49.204  19.247  50.001  1.00  0.00     0.000 C 
BRANCH  16  17
ATOM     17  C   UNL     1      50.678  19.400  50.408  1.00  0.00     0.000 C 
BRANCH  17  18
ATOM     18  C   UNL     1      51.303  20.700  49.880  1.00  0.00    -0.000 C 
BRANCH  18  19
ATOM     19  C   UNL     1      52.742  20.465  49.403  1.00  0.00    -0.000 C 
BRANCH  19  20
ATOM     20  C   UNL     1      53.755  20.988  50.432  1.00  0.00    -0.000 C 
BRANCH  20  21
ATOM     21  C   UNL     1      53.084  21.639  51.656  1.00  0.00    -0.000 C 
BRANCH  21  22
ATOM     22  C   UNL     1      53.614  23.041  52.020  1.00  0.00    -0.000 C 
BRANCH  22  23
ATOM     23  C   UNL     1      53.460  23.432  53.503  1.00  0.00    -0.000 C 
BRANCH  23  24
ATOM     24  C   UNL     1      54.000  22.396  54.509  1.00  0.00    -0.000 C 
BRANCH  24  25
ATOM     25  C   UNL     1      52.927  21.737  55.396  1.00  0.00    -0.003 C 
ATOM     26  C   UNL     1      52.380  20.439  54.805  1.00  0.00     0.004 C 
ENDBRANCH  24  25
ENDBRANCH  23  24
ENDBRANCH  22  23
ENDBRANCH  21  22
ENDBRANCH  20  21
ENDBRANCH  19  20
ENDBRANCH  18  19
ENDBRANCH  17  18
ENDBRANCH  16  17
ENDBRANCH  15  16
ENDBRANCH   1  15
TORSDOF 22
ENDMDL
MODEL 4
REMARK VINA RESULT:    -5.434      2.475      4.091
REMARK INTER + INTRA:         -13.619
REMARK INTER:                 -10.487
REMARK INTRA:                  -3.131
REMARK UNBOUND:                -1.197
REMARK SMILES CCCCCCCCCCCCCCCCCCCCCCCC(=O)[O-]
REMARK SMILES IDX 13 1 14 2 15 3 16 4 17 5 18 6 19 7 20 8 21 9 22 10 23 11
REMARK SMILES IDX 24 12 25 13 26 14 12 15 11 16 10 17 9 18 8 19 7 20 6 21 5 22
REMARK SMILES IDX 4 23 3 24 2 25 1 26
REMARK H PARENT
REMARK Flexibility Score: inf
ROOT
ATOM      1  C   UNL     1      48.798  22.789  51.760  1.00  0.00     0.000 C 
ENDROOT
BRANCH   1   2
ATOM      2  C   UNL     1      48.740  24.057  52.628  1.00  0.00     0.000 C 
BRANCH   2   3
ATOM      3  C   UNL     1      47.408  24.814  52.489  1.00  0.00     0.000 C 
BRANCH   3   4
ATOM      4  C   UNL     1      46.595  24.879  53.800  1.00  0.00     0.000 C 
BRANCH   4   5
ATOM      5  C   UNL     1      47.354  24.254  54.984  1.00  0.00     0.000 C 
BRANCH   5   6
ATOM      6  C   UNL     1      46.513  23.214  55.742  1.00  0.00     0.000 C 
BRANCH   6   7
ATOM      7  C   UNL     1      47.212  21.847  55.841  1.00  0.00     0.000 C 
BRANCH   7   8
ATOM      8  C   UNL     1      46.227  20.690  56.072  1.00  0.00     0.000 C 
BRANCH   8   9
ATOM      9  C   UNL     1      45.476  20.289  54.791  1.00  0.00     0.000 C 
BRANCH   9  10
ATOM     10  C   UNL     1      44.165  19.530  55.077  1.00  0.00     0.006 C 
BRANCH  10  11
ATOM     11  C   UNL     1      42.916  20.428  55.092  1.00  0.00     0.053 C 
BRANCH  11  12
ATOM     12  C   UNL     1      41.728  19.772  54.460  1.00  0.00     0.041 C 
ATOM     13  O   UNL     1      41.274  20.202  53.366  1.00  0.00    -0.550 OA
ATOM     14  O   UNL     1      41.111  18.694  55.083  1.00  0.00    -0.550 OA
ENDBRANCH  11  12
ENDBRANCH  10  11
ENDBRANCH   9  10
ENDBRANCH   8   9
ENDBRANCH   7   8
ENDBRANCH   6   7
ENDBRANCH   5   6
ENDBRANCH   4   5
ENDBRANCH   3   4
ENDBRANCH   2   3
ENDBRANCH   1   2
BRANCH   1  15
ATOM     15  C   UNL     1      47.820  21.704  52.240  1.00  0.00     0.000 C 
BRANCH  15  16
ATOM     16  C   UNL     1      47.349  20.788  51.098  1.00  0.00     0.000 C 
BRANCH  16  17
ATOM     17  C   UNL     1      48.407  20.627  49.995  1.00  0.00     0.000 C 
BRANCH  17  18
ATOM     18  C   UNL     1      48.986  19.205  49.937  1.00  0.00    -0.000 C 
BRANCH  18  19
ATOM     19  C   UNL     1      50.495  19.215  50.214  1.00  0.00    -0.000 C 
BRANCH  19  20
ATOM     20  C   UNL     1      51.079  20.624  50.030  1.00  0.00    -0.000 C 
BRANCH  20  21
ATOM     21  C   UNL     1      52.566  20.609  49.631  1.00  0.00    -0.000 C 
BRANCH  21  22
ATOM     22  C   UNL     1      53.537  21.117  50.716  1.00  0.00    -0.000 C 
BRANCH  22  23
ATOM     23  C   UNL     1      52.898  22.013  51.795  1.00  0.00    -0.000 C 
BRANCH  23  24
ATOM     24  C   UNL     1      53.026  21.486  53.239  1.00  0.00    -0.000 C 
BRANCH  24  25
ATOM     25  C   UNL     1      51.833  20.642  53.726  1.00  0.00    -0.003 C 
ATOM     26  C   UNL     1      50.798  21.461  54.494  1.00  0.00     0.004 C 
ENDBRANCH  24  25
ENDBRANCH  23  24
ENDBRANCH  22  23
ENDBRANCH  21  22
ENDBRANCH  20  21
ENDBRANCH  19  20
ENDBRANCH  18  19
ENDBRANCH  17  18
ENDBRANCH  16  17
ENDBRANCH  15  16
ENDBRANCH   1  15
TORSDOF 22
ENDMDL
MODEL 5
REMARK VINA RESULT:    -5.425      2.611      6.335
REMARK INTER + INTRA:         -13.598
REMARK INTER:                 -10.785
REMARK INTRA:                  -2.813
REMARK UNBOUND:                -1.197
REMARK SMILES CCCCCCCCCCCCCCCCCCCCCCCC(=O)[O-]
REMARK SMILES IDX 13 1 14 2 15 3 16 4 17 5 18 6 19 7 20 8 21 9 22 10 23 11
REMARK SMILES IDX 24 12 25 13 26 14 12 15 11 16 10 17 9 18 8 19 7 20 6 21 5 22
REMARK SMILES IDX 4 23 3 24 2 25 1 26
REMARK H PARENT
REMARK Flexibility Score: inf
ROOT
ATOM      1  C   UNL     1      49.495  19.446  50.272  1.00  0.00     0.000 C 
ENDROOT
BRANCH   1   2
ATOM      2  C   UNL     1      48.649  20.558  49.628  1.00  0.00     0.000 C 
BRANCH   2   3
ATOM      3  C   UNL     1      47.288  20.747  50.320  1.00  0.00     0.000 C 
BRANCH   3   4
ATOM      4  C   UNL     1      46.956  19.640  51.343  1.00  0.00     0.000 C 
BRANCH   4   5
ATOM      5  C   UNL     1      45.631  18.929  51.017  1.00  0.00     0.000 C 
BRANCH   5   6
ATOM      6  C   UNL     1      45.349  17.745  51.958  1.00  0.00     0.000 C 
BRANCH   6   7
ATOM      7  C   UNL     1      44.012  17.889  52.705  1.00  0.00     0.000 C 
BRANCH   7   8
ATOM      8  C   UNL     1      44.175  18.504  54.104  1.00  0.00     0.000 C 
BRANCH   8   9
ATOM      9  C   UNL     1      42.984  18.197  55.027  1.00  0.00     0.000 C 
BRANCH   9  10
ATOM     10  C   UNL     1      42.152  19.449  55.369  1.00  0.00     0.006 C 
BRANCH  10  11
ATOM     11  C   UNL     1      41.380  20.029  54.172  1.00  0.00     0.053 C 
BRANCH  11  12
ATOM     12  C   UNL     1      41.127  21.499  54.309  1.00  0.00     0.041 C 
ATOM     13  O   UNL     1      41.864  22.202  55.051  1.00  0.00    -0.550 OA
ATOM     14  O   UNL     1      40.069  22.093  53.630  1.00  0.00    -0.550 OA
ENDBRANCH  11  12
ENDBRANCH  10  11
ENDBRANCH   9  10
ENDBRANCH   8   9
ENDBRANCH   7   8
ENDBRANCH   6   7
ENDBRANCH   5   6
ENDBRANCH   4   5
ENDBRANCH   3   4
ENDBRANCH   2   3
ENDBRANCH   1   2
BRANCH   1  15
ATOM     15  C   UNL     1      50.976  19.531  49.872  1.00  0.00     0.000 C 
BRANCH  15  16
ATOM     16  C   UNL     1      51.537  20.959  49.987  1.00  0.00     0.000 C 
BRANCH  16  17
ATOM     17  C   UNL     1      52.951  20.992  50.589  1.00  0.00     0.000 C 
BRANCH  17  18
ATOM     18  C   UNL     1      53.020  21.813  51.886  1.00  0.00    -0.000 C 
BRANCH  18  19
ATOM     19  C   UNL     1      51.898  21.410  52.852  1.00  0.00    -0.000 C 
BRANCH  19  20
ATOM     20  C   UNL     1      51.518  22.581  53.771  1.00  0.00    -0.000 C 
BRANCH  20  21
ATOM     21  C   UNL     1      50.600  23.608  53.083  1.00  0.00    -0.000 C 
BRANCH  21  22
ATOM     22  C   UNL     1      49.457  23.002  52.245  1.00  0.00    -0.000 C 
BRANCH  22  23
ATOM     23  C   UNL     1      48.060  23.591  52.524  1.00  0.00    -0.000 C 
BRANCH  23  24
ATOM     24  C   UNL     1      47.433  23.172  53.869  1.00  0.00    -0.000 C 
BRANCH  24  25
ATOM     25  C   UNL     1      47.722  21.720  54.291  1.00  0.00    -0.003 C 
ATOM     26  C   UNL     1      46.580  21.092  55.089  1.00  0.00     0.004 C 
ENDBRANCH  24  25
ENDBRANCH  23  24
ENDBRANCH  22  23
ENDBRANCH  21  22
ENDBRANCH  20  21
ENDBRANCH  19  20
ENDBRANCH  18  19
ENDBRANCH  17  18
ENDBRANCH  16  17
ENDBRANCH  15  16
ENDBRANCH   1  15
TORSDOF 22
ENDMDL
MODEL 6
REMARK VINA RESULT:    -5.406      4.560      8.725
REMARK INTER + INTRA:         -13.556
REMARK INTER:                  -9.809
REMARK INTRA:                  -3.747
REMARK UNBOUND:                -1.197
REMARK SMILES CCCCCCCCCCCCCCCCCCCCCCCC(=O)[O-]
REMARK SMILES IDX 13 1 14 2 15 3 16 4 17 5 18 6 19 7 20 8 21 9 22 10 23 11
REMARK SMILES IDX 24 12 25 13 26 14 12 15 11 16 10 17 9 18 8 19 7 20 6 21 5 22
REMARK SMILES IDX 4 23 3 24 2 25 1 26
REMARK H PARENT
REMARK Flexibility Score: inf
ROOT
ATOM      1  C   UNL     1      50.730  23.952  52.137  1.00  0.00     0.000 C 
ENDROOT
BRANCH   1   2
ATOM      2  C   UNL     1      49.370  24.644  52.323  1.00  0.00     0.000 C 
BRANCH   2   3
ATOM      3  C   UNL     1      48.190  23.658  52.289  1.00  0.00     0.000 C 
BRANCH   3   4
ATOM      4  C   UNL     1      48.618  22.179  52.397  1.00  0.00     0.000 C 
BRANCH   4   5
ATOM      5  C   UNL     1      47.690  21.247  51.598  1.00  0.00     0.000 C 
BRANCH   5   6
ATOM      6  C   UNL     1      48.256  20.897  50.211  1.00  0.00     0.000 C 
BRANCH   6   7
ATOM      7  C   UNL     1      49.520  20.025  50.292  1.00  0.00     0.000 C 
BRANCH   7   8
ATOM      8  C   UNL     1      50.793  20.785  49.886  1.00  0.00     0.000 C 
BRANCH   8   9
ATOM      9  C   UNL     1      51.886  20.724  50.967  1.00  0.00     0.000 C 
BRANCH   9  10
ATOM     10  C   UNL     1      53.292  21.032  50.415  1.00  0.00     0.006 C 
BRANCH  10  11
ATOM     11  C   UNL     1      53.609  20.325  49.086  1.00  0.00     0.053 C 
BRANCH  11  12
ATOM     12  C   UNL     1      55.055  20.424  48.712  1.00  0.00     0.041 C 
ATOM     13  O   UNL     1      55.869  19.540  49.091  1.00  0.00    -0.550 OA
ATOM     14  O   UNL     1      55.511  21.499  47.957  1.00  0.00    -0.550 OA
ENDBRANCH  11  12
ENDBRANCH  10  11
ENDBRANCH   9  10
ENDBRANCH   8   9
ENDBRANCH   7   8
ENDBRANCH   6   7
ENDBRANCH   5   6
ENDBRANCH   4   5
ENDBRANCH   3   4
ENDBRANCH   2   3
ENDBRANCH   1   2
BRANCH   1  15
ATOM     15  C   UNL     1      51.910  24.920  52.315  1.00  0.00     0.000 C 
BRANCH  15  16
ATOM     16  C   UNL     1      53.273  24.212  52.221  1.00  0.00     0.000 C 
BRANCH  16  17
ATOM     17  C   UNL     1      53.819  23.796  53.596  1.00  0.00     0.000 C 
BRANCH  17  18
ATOM     18  C   UNL     1      53.597  22.305  53.892  1.00  0.00    -0.000 C 
BRANCH  18  19
ATOM     19  C   UNL     1      53.408  22.065  55.395  1.00  0.00    -0.000 C 
BRANCH  19  20
ATOM     20  C   UNL     1      52.259  22.921  55.949  1.00  0.00    -0.000 C 
BRANCH  20  21
ATOM     21  C   UNL     1      50.876  22.462  55.452  1.00  0.00    -0.000 C 
BRANCH  21  22
ATOM     22  C   UNL     1      49.742  23.488  55.645  1.00  0.00    -0.000 C 
BRANCH  22  23
ATOM     23  C   UNL     1      48.676  23.095  56.687  1.00  0.00    -0.000 C 
BRANCH  23  24
ATOM     24  C   UNL     1      47.243  23.563  56.361  1.00  0.00    -0.000 C 
BRANCH  24  25
ATOM     25  C   UNL     1      46.468  22.647  55.397  1.00  0.00    -0.003 C 
ATOM     26  C   UNL     1      46.878  21.179  55.511  1.00  0.00     0.004 C 
ENDBRANCH  24  25
ENDBRANCH  23  24
ENDBRANCH  22  23
ENDBRANCH  21  22
ENDBRANCH  20  21
ENDBRANCH  19  20
ENDBRANCH  18  19
ENDBRANCH  17  18
ENDBRANCH  16  17
ENDBRANCH  15  16
ENDBRANCH   1  15
TORSDOF 22
ENDMDL
MODEL 7
REMARK VINA RESULT:    -5.375      2.673      4.879
REMARK INTER + INTRA:         -13.485
REMARK INTER:                 -11.571
REMARK INTRA:                  -1.914
REMARK UNBOUND:                -1.197
REMARK SMILES CCCCCCCCCCCCCCCCCCCCCCCC(=O)[O-]
REMARK SMILES IDX 13 1 14 2 15 3 16 4 17 5 18 6 19 7 20 8 21 9 22 10 23 11
REMARK SMILES IDX 24 12 25 13 26 14 12 15 11 16 10 17 9 18 8 19 7 20 6 21 5 22
REMARK SMILES IDX 4 23 3 24 2 25 1 26
REMARK H PARENT
REMARK Flexibility Score: inf
ROOT
ATOM      1  C   UNL     1      49.035  21.004  50.678  1.00  0.00     0.000 C 
ENDROOT
BRANCH   1   2
ATOM      2  C   UNL     1      48.262  19.674  50.686  1.00  0.00     0.000 C 
BRANCH   2   3
ATOM      3  C   UNL     1      46.751  19.865  50.900  1.00  0.00     0.000 C 
BRANCH   3   4
ATOM      4  C   UNL     1      46.093  18.725  51.707  1.00  0.00     0.000 C 
BRANCH   4   5
ATOM      5  C   UNL     1      44.679  18.394  51.197  1.00  0.00     0.000 C 
BRANCH   5   6
ATOM      6  C   UNL     1      43.736  17.941  52.323  1.00  0.00     0.000 C 
BRANCH   6   7
ATOM      7  C   UNL     1      44.205  18.409  53.711  1.00  0.00     0.000 C 
BRANCH   7   8
ATOM      8  C   UNL     1      43.099  19.125  54.503  1.00  0.00     0.000 C 
BRANCH   8   9
ATOM      9  C   UNL     1      41.854  19.415  53.648  1.00  0.00     0.000 C 
BRANCH   9  10
ATOM     10  C   UNL     1      41.025  20.601  54.179  1.00  0.00     0.006 C 
BRANCH  10  11
ATOM     11  C   UNL     1      41.872  21.716  54.818  1.00  0.00     0.053 C 
BRANCH  11  12
ATOM     12  C   UNL     1      41.102  22.987  55.005  1.00  0.00     0.041 C 
ATOM     13  O   UNL     1      40.007  23.158  54.405  1.00  0.00    -0.550 OA
ATOM     14  O   UNL     1      41.599  23.990  55.828  1.00  0.00    -0.550 OA
ENDBRANCH  11  12
ENDBRANCH  10  11
ENDBRANCH   9  10
ENDBRANCH   8   9
ENDBRANCH   7   8
ENDBRANCH   6   7
ENDBRANCH   5   6
ENDBRANCH   4   5
ENDBRANCH   3   4
ENDBRANCH   2   3
ENDBRANCH   1   2
BRANCH   1  15
ATOM     15  C   UNL     1      48.269  22.132  51.389  1.00  0.00     0.000 C 
BRANCH  15  16
ATOM     16  C   UNL     1      48.369  22.036  52.921  1.00  0.00     0.000 C 
BRANCH  16  17
ATOM     17  C   UNL     1      49.080  23.250  53.543  1.00  0.00     0.000 C 
BRANCH  17  18
ATOM     18  C   UNL     1      50.317  22.852  54.362  1.00  0.00    -0.000 C 
BRANCH  18  19
ATOM     19  C   UNL     1      50.469  21.326  54.423  1.00  0.00    -0.000 C 
BRANCH  19  20
ATOM     20  C   UNL     1      51.788  20.878  53.775  1.00  0.00    -0.000 C 
BRANCH  20  21
ATOM     21  C   UNL     1      52.513  22.021  53.041  1.00  0.00    -0.000 C 
BRANCH  21  22
ATOM     22  C   UNL     1      52.542  21.892  51.504  1.00  0.00    -0.000 C 
BRANCH  22  23
ATOM     23  C   UNL     1      53.691  21.032  50.943  1.00  0.00    -0.000 C 
BRANCH  23  24
ATOM     24  C   UNL     1      53.458  20.481  49.522  1.00  0.00    -0.000 C 
BRANCH  24  25
ATOM     25  C   UNL     1      54.742  20.186  48.725  1.00  0.00    -0.003 C 
ATOM     26  C   UNL     1      55.204  21.372  47.879  1.00  0.00     0.004 C 
ENDBRANCH  24  25
ENDBRANCH  23  24
ENDBRANCH  22  23
ENDBRANCH  21  22
ENDBRANCH  20  21
ENDBRANCH  19  20
ENDBRANCH  18  19
ENDBRANCH  17  18
ENDBRANCH  16  17
ENDBRANCH  15  16
ENDBRANCH   1  15
TORSDOF 22
ENDMDL
MODEL 8
REMARK VINA RESULT:    -5.357      2.691      4.237
REMARK INTER + INTRA:         -13.443
REMARK INTER:                 -10.440
REMARK INTRA:                  -3.003
REMARK UNBOUND:                -1.197
REMARK SMILES CCCCCCCCCCCCCCCCCCCCCCCC(=O)[O-]
REMARK SMILES IDX 13 1 14 2 15 3 16 4 17 5 18 6 19 7 20 8 21 9 22 10 23 11
REMARK SMILES IDX 24 12 25 13 26 14 12 15 11 16 10 17 9 18 8 19 7 20 6 21 5 22
REMARK SMILES IDX 4 23 3 24 2 25 1 26
REMARK H PARENT
REMARK Flexibility Score: inf
ROOT
ATOM      1  C   UNL     1      50.557  24.545  52.137  1.00  0.00     0.000 C 
ENDROOT
BRANCH   1   2
ATOM      2  C   UNL     1      49.416  23.972  52.994  1.00  0.00     0.000 C 
BRANCH   2   3
ATOM      3  C   UNL     1      48.367  23.215  52.160  1.00  0.00     0.000 C 
BRANCH   3   4
ATOM      4  C   UNL     1      47.845  21.933  52.842  1.00  0.00     0.000 C 
BRANCH   4   5
ATOM      5  C   UNL     1      48.084  21.946  54.363  1.00  0.00     0.000 C 
BRANCH   5   6
ATOM      6  C   UNL     1      46.786  22.141  55.163  1.00  0.00     0.000 C 
BRANCH   6   7
ATOM      7  C   UNL     1      46.173  20.808  55.629  1.00  0.00     0.000 C 
BRANCH   7   8
ATOM      8  C   UNL     1      45.144  20.247  54.634  1.00  0.00     0.000 C 
BRANCH   8   9
ATOM      9  C   UNL     1      44.078  19.373  55.316  1.00  0.00     0.000 C 
BRANCH   9  10
ATOM     10  C   UNL     1      43.596  18.212  54.425  1.00  0.00     0.006 C 
BRANCH  10  11
ATOM     11  C   UNL     1      43.526  18.561  52.929  1.00  0.00     0.053 C 
BRANCH  11  12
ATOM     12  C   UNL     1      44.367  17.653  52.086  1.00  0.00     0.041 C 
ATOM     13  O   UNL     1      45.570  17.437  52.393  1.00  0.00    -0.550 OA
ATOM     14  O   UNL     1      43.830  17.055  50.952  1.00  0.00    -0.550 OA
ENDBRANCH  11  12
ENDBRANCH  10  11
ENDBRANCH   9  10
ENDBRANCH   8   9
ENDBRANCH   7   8
ENDBRANCH   6   7
ENDBRANCH   5   6
ENDBRANCH   4   5
ENDBRANCH   3   4
ENDBRANCH   2   3
ENDBRANCH   1   2
BRANCH   1  15
ATOM     15  C   UNL     1      51.844  24.766  52.947  1.00  0.00     0.000 C 
BRANCH  15  16
ATOM     16  C   UNL     1      53.111  24.412  52.149  1.00  0.00     0.000 C 
BRANCH  16  17
ATOM     17  C   UNL     1      54.099  23.556  52.958  1.00  0.00     0.000 C 
BRANCH  17  18
ATOM     18  C   UNL     1      53.415  22.782  54.095  1.00  0.00    -0.000 C 
BRANCH  18  19
ATOM     19  C   UNL     1      53.069  21.353  53.656  1.00  0.00    -0.000 C 
BRANCH  19  20
ATOM     20  C   UNL     1      51.558  21.200  53.423  1.00  0.00    -0.000 C 
BRANCH  20  21
ATOM     21  C   UNL     1      51.227  20.406  52.146  1.00  0.00    -0.000 C 
BRANCH  21  22
ATOM     22  C   UNL     1      51.408  21.187  50.828  1.00  0.00    -0.000 C 
BRANCH  22  23
ATOM     23  C   UNL     1      52.497  20.635  49.888  1.00  0.00    -0.000 C 
BRANCH  23  24
ATOM     24  C   UNL     1      53.842  21.388  49.935  1.00  0.00    -0.000 C 
BRANCH  24  25
ATOM     25  C   UNL     1      54.775  21.118  48.741  1.00  0.00    -0.003 C 
ATOM     26  C   UNL     1      55.377  19.714  48.761  1.00  0.00     0.004 C 
ENDBRANCH  24  25
ENDBRANCH  23  24
ENDBRANCH  22  23
ENDBRANCH  21  22
ENDBRANCH  20  21
ENDBRANCH  19  20
ENDBRANCH  18  19
ENDBRANCH  17  18
ENDBRANCH  16  17
ENDBRANCH  15  16
ENDBRANCH   1  15
TORSDOF 22
ENDMDL
MODEL 9
REMARK VINA RESULT:    -5.295      3.150      5.953
REMARK INTER + INTRA:         -13.302
REMARK INTER:                 -10.602
REMARK INTRA:                  -2.699
REMARK UNBOUND:                -1.197
REMARK SMILES CCCCCCCCCCCCCCCCCCCCCCCC(=O)[O-]
REMARK SMILES IDX 13 1 14 2 15 3 16 4 17 5 18 6 19 7 20 8 21 9 22 10 23 11
REMARK SMILES IDX 24 12 25 13 26 14 12 15 11 16 10 17 9 18 8 19 7 20 6 21 5 22
REMARK SMILES IDX 4 23 3 24 2 25 1 26
REMARK H PARENT
REMARK Flexibility Score: inf
ROOT
ATOM      1  C   UNL     1      43.213  18.710  53.606  1.00  0.00     0.000 C 
ENDROOT
BRANCH   1   2
ATOM      2  C   UNL     1      43.411  19.633  54.820  1.00  0.00     0.000 C 
BRANCH   2   3
ATOM      3  C   UNL     1      44.891  19.810  55.200  1.00  0.00     0.000 C 
BRANCH   3   4
ATOM      4  C   UNL     1      45.367  21.278  55.159  1.00  0.00     0.000 C 
BRANCH   4   5
ATOM      5  C   UNL     1      46.885  21.401  55.380  1.00  0.00     0.000 C 
BRANCH   5   6
ATOM      6  C   UNL     1      47.646  21.729  54.084  1.00  0.00     0.000 C 
BRANCH   6   7
ATOM      7  C   UNL     1      47.906  23.237  53.917  1.00  0.00     0.000 C 
BRANCH   7   8
ATOM      8  C   UNL     1      48.301  23.616  52.481  1.00  0.00     0.000 C 
BRANCH   8   9
ATOM      9  C   UNL     1      49.571  24.482  52.427  1.00  0.00     0.000 C 
BRANCH   9  10
ATOM     10  C   UNL     1      50.786  23.729  51.851  1.00  0.00     0.006 C 
BRANCH  10  11
ATOM     11  C   UNL     1      52.005  23.702  52.789  1.00  0.00     0.053 C 
BRANCH  11  12
ATOM     12  C   UNL     1      52.053  22.466  53.634  1.00  0.00     0.041 C 
ATOM     13  O   UNL     1      51.108  21.633  53.593  1.00  0.00    -0.550 OA
ATOM     14  O   UNL     1      53.132  22.239  54.480  1.00  0.00    -0.550 OA
ENDBRANCH  11  12
ENDBRANCH  10  11
ENDBRANCH   9  10
ENDBRANCH   8   9
ENDBRANCH   7   8
ENDBRANCH   6   7
ENDBRANCH   5   6
ENDBRANCH   4   5
ENDBRANCH   3   4
ENDBRANCH   2   3
ENDBRANCH   1   2
BRANCH   1  15
ATOM     15  C   UNL     1      44.513  18.002  53.191  1.00  0.00     0.000 C 
BRANCH  15  16
ATOM     16  C   UNL     1      44.966  18.388  51.771  1.00  0.00     0.000 C 
BRANCH  16  17
ATOM     17  C   UNL     1      46.318  19.120  51.761  1.00  0.00     0.000 C 
BRANCH  17  18
ATOM     18  C   UNL     1      46.441  20.114  50.597  1.00  0.00    -0.000 C 
BRANCH  18  19
ATOM     19  C   UNL     1      47.835  20.753  50.566  1.00  0.00    -0.000 C 
BRANCH  19  20
ATOM     20  C   UNL     1      48.729  20.074  49.518  1.00  0.00    -0.000 C 
BRANCH  20  21
ATOM     21  C   UNL     1      49.781  19.140  50.143  1.00  0.00    -0.000 C 
BRANCH  21  22
ATOM     22  C   UNL     1      50.963  19.856  50.827  1.00  0.00    -0.000 C 
BRANCH  22  23
ATOM     23  C   UNL     1      51.784  20.783  49.909  1.00  0.00    -0.000 C 
BRANCH  23  24
ATOM     24  C   UNL     1      53.267  20.940  50.301  1.00  0.00    -0.000 C 
BRANCH  24  25
ATOM     25  C   UNL     1      54.259  20.193  49.390  1.00  0.00    -0.003 C 
ATOM     26  C   UNL     1      54.907  21.101  48.346  1.00  0.00     0.004 C 
ENDBRANCH  24  25
ENDBRANCH  23  24
ENDBRANCH  22  23
ENDBRANCH  21  22
ENDBRANCH  20  21
ENDBRANCH  19  20
ENDBRANCH  18  19
ENDBRANCH  17  18
ENDBRANCH  16  17
ENDBRANCH  15  16
ENDBRANCH   1  15
TORSDOF 22
ENDMDL
