MODEL 1
REMARK VINA RESULT:    -3.613      0.000      0.000
REMARK INTER + INTRA:          -7.626
REMARK INTER:                  -6.570
REMARK INTRA:                  -1.055
REMARK UNBOUND:                -1.055
REMARK SMILES CCCCCCCCCCCCCCCC(=O)[O-]
REMARK SMILES IDX 9 1 10 2 11 3 12 4 13 5 14 6 15 7 16 8 17 9 18 10 8 11 7 12
REMARK SMILES IDX 6 13 5 14 4 15 3 16 2 17 1 18
REMARK H PARENT
REMARK Flexibility Score: inf
ROOT
ATOM      1  C   UNL     1      34.714  28.646  17.038  1.00  0.00     0.000 C 
ENDROOT
BRANCH   1   2
ATOM      2  C   UNL     1      36.157  28.878  16.551  1.00  0.00     0.000 C 
BRANCH   2   3
ATOM      3  C   UNL     1      36.526  28.142  15.249  1.00  0.00     0.000 C 
BRANCH   3   4
ATOM      4  C   UNL     1      35.439  27.152  14.794  1.00  0.00     0.000 C 
BRANCH   4   5
ATOM      5  C   UNL     1      35.484  26.879  13.282  1.00  0.00     0.000 C 
BRANCH   5   6
ATOM      6  C   UNL     1      34.177  27.273  12.572  1.00  0.00     0.006 C 
BRANCH   6   7
ATOM      7  C   UNL     1      34.074  28.788  12.347  1.00  0.00     0.053 C 
BRANCH   7   8
ATOM      8  C   UNL     1      32.939  29.389  13.119  1.00  0.00     0.041 C 
ATOM      9  O   UNL     1      32.354  28.719  14.010  1.00  0.00    -0.550 OA
ATOM     10  O   UNL     1      32.546  30.698  12.872  1.00  0.00    -0.550 OA
ENDBRANCH   7   8
ENDBRANCH   6   7
ENDBRANCH   5   6
ENDBRANCH   4   5
ENDBRANCH   3   4
ENDBRANCH   2   3
ENDBRANCH   1   2
BRANCH   1  11
ATOM     11  C   UNL     1      34.558  28.499  18.563  1.00  0.00     0.000 C 
BRANCH  11  12
ATOM     12  C   UNL     1      34.937  27.100  19.094  1.00  0.00    -0.000 C 
BRANCH  12  13
ATOM     13  C   UNL     1      35.630  27.163  20.467  1.00  0.00    -0.000 C 
BRANCH  13  14
ATOM     14  C   UNL     1      35.778  28.599  20.992  1.00  0.00    -0.000 C 
BRANCH  14  15
ATOM     15  C   UNL     1      36.657  28.686  22.248  1.00  0.00    -0.000 C 
BRANCH  15  16
ATOM     16  C   UNL     1      36.079  29.692  23.254  1.00  0.00    -0.000 C 
BRANCH  16  17
ATOM     17  C   UNL     1      34.885  29.125  24.037  1.00  0.00    -0.003 C 
ATOM     18  C   UNL     1      35.297  28.064  25.057  1.00  0.00     0.004 C 
ENDBRANCH  16  17
ENDBRANCH  15  16
ENDBRANCH  14  15
ENDBRANCH  13  14
ENDBRANCH  12  13
ENDBRANCH  11  12
ENDBRANCH   1  11
TORSDOF 14
ENDMDL
MODEL 2
REMARK VINA RESULT:    -3.596      4.038      8.725
REMARK INTER + INTRA:          -7.595
REMARK INTER:                  -6.506
REMARK INTRA:                  -1.089
REMARK UNBOUND:                -1.055
REMARK SMILES CCCCCCCCCCCCCCCC(=O)[O-]
REMARK SMILES IDX 9 1 10 2 11 3 12 4 13 5 14 6 15 7 16 8 17 9 18 10 8 11 7 12
REMARK SMILES IDX 6 13 5 14 4 15 3 16 2 17 1 18
REMARK H PARENT
REMARK Flexibility Score: inf
ROOT
ATOM      1  C   UNL     1      35.813  28.627  16.668  1.00  0.00     0.000 C 
ENDROOT
BRANCH   1   2
ATOM      2  C   UNL     1      34.889  29.061  17.823  1.00  0.00     0.000 C 
BRANCH   2   3
ATOM      3  C   UNL     1      34.492  27.931  18.791  1.00  0.00     0.000 C 
BRANCH   3   4
ATOM      4  C   UNL     1      35.514  27.726  19.922  1.00  0.00     0.000 C 
BRANCH   4   5
ATOM      5  C   UNL     1      36.125  29.048  20.413  1.00  0.00     0.000 C 
BRANCH   5   6
ATOM      6  C   UNL     1      36.396  29.047  21.928  1.00  0.00     0.006 C 
BRANCH   6   7
ATOM      7  C   UNL     1      35.100  29.094  22.748  1.00  0.00     0.053 C 
BRANCH   7   8
ATOM      8  C   UNL     1      35.375  29.179  24.218  1.00  0.00     0.041 C 
ATOM      9  O   UNL     1      34.784  28.409  25.019  1.00  0.00    -0.550 OA
ATOM     10  O   UNL     1      36.304  30.093  24.701  1.00  0.00    -0.550 OA
ENDBRANCH   7   8
ENDBRANCH   6   7
ENDBRANCH   5   6
ENDBRANCH   4   5
ENDBRANCH   3   4
ENDBRANCH   2   3
ENDBRANCH   1   2
BRANCH   1  11
ATOM     11  C   UNL     1      35.732  27.135  16.296  1.00  0.00     0.000 C 
BRANCH  11  12
ATOM     12  C   UNL     1      35.122  26.875  14.902  1.00  0.00    -0.000 C 
BRANCH  12  13
ATOM     13  C   UNL     1      36.166  26.978  13.777  1.00  0.00    -0.000 C 
BRANCH  13  14
ATOM     14  C   UNL     1      35.541  26.878  12.376  1.00  0.00    -0.000 C 
BRANCH  14  15
ATOM     15  C   UNL     1      34.087  27.370  12.336  1.00  0.00    -0.000 C 
BRANCH  15  16
ATOM     16  C   UNL     1      34.018  28.846  11.922  1.00  0.00    -0.000 C 
BRANCH  16  17
ATOM     17  C   UNL     1      33.166  29.692  12.881  1.00  0.00    -0.003 C 
ATOM     18  C   UNL     1      32.366  28.841  13.867  1.00  0.00     0.004 C 
ENDBRANCH  16  17
ENDBRANCH  15  16
ENDBRANCH  14  15
ENDBRANCH  13  14
ENDBRANCH  12  13
ENDBRANCH  11  12
ENDBRANCH   1  11
TORSDOF 14
ENDMDL
MODEL 3
REMARK VINA RESULT:    -3.523      3.935      8.657
REMARK INTER + INTRA:          -7.461
REMARK INTER:                  -6.340
REMARK INTRA:                  -1.122
REMARK UNBOUND:                -1.055
REMARK SMILES CCCCCCCCCCCCCCCC(=O)[O-]
REMARK SMILES IDX 9 1 10 2 11 3 12 4 13 5 14 6 15 7 16 8 17 9 18 10 8 11 7 12
REMARK SMILES IDX 6 13 5 14 4 15 3 16 2 17 1 18
REMARK H PARENT
REMARK Flexibility Score: inf
ROOT
ATOM      1  C   UNL     1      34.514  28.813  18.462  1.00  0.00     0.000 C 
ENDROOT
BRANCH   1   2
ATOM      2  C   UNL     1      34.569  27.447  19.172  1.00  0.00     0.000 C 
BRANCH   2   3
ATOM      3  C   UNL     1      35.990  26.928  19.464  1.00  0.00     0.000 C 
BRANCH   3   4
ATOM      4  C   UNL     1      36.591  27.524  20.748  1.00  0.00     0.000 C 
BRANCH   4   5
ATOM      5  C   UNL     1      36.026  26.875  22.022  1.00  0.00     0.000 C 
BRANCH   5   6
ATOM      6  C   UNL     1      36.211  27.760  23.268  1.00  0.00     0.006 C 
BRANCH   6   7
ATOM      7  C   UNL     1      35.537  29.129  23.111  1.00  0.00     0.053 C 
BRANCH   7   8
ATOM      8  C   UNL     1      34.941  29.606  24.400  1.00  0.00     0.041 C 
ATOM      9  O   UNL     1      35.503  30.522  25.057  1.00  0.00    -0.550 OA
ATOM     10  O   UNL     1      33.753  29.057  24.864  1.00  0.00    -0.550 OA
ENDBRANCH   7   8
ENDBRANCH   6   7
ENDBRANCH   5   6
ENDBRANCH   4   5
ENDBRANCH   3   4
ENDBRANCH   2   3
ENDBRANCH   1   2
BRANCH   1  11
ATOM     11  C   UNL     1      34.866  28.781  16.963  1.00  0.00     0.000 C 
BRANCH  11  12
ATOM     12  C   UNL     1      36.363  29.015  16.671  1.00  0.00    -0.000 C 
BRANCH  12  13
ATOM     13  C   UNL     1      36.931  27.995  15.670  1.00  0.00    -0.000 C 
BRANCH  13  14
ATOM     14  C   UNL     1      35.852  27.069  15.088  1.00  0.00    -0.000 C 
BRANCH  14  15
ATOM     15  C   UNL     1      35.707  27.206  13.566  1.00  0.00    -0.000 C 
BRANCH  15  16
ATOM     16  C   UNL     1      34.233  27.371  13.167  1.00  0.00    -0.000 C 
BRANCH  16  17
ATOM     17  C   UNL     1      33.953  28.714  12.476  1.00  0.00    -0.003 C 
ATOM     18  C   UNL     1      32.812  29.490  13.133  1.00  0.00     0.004 C 
ENDBRANCH  16  17
ENDBRANCH  15  16
ENDBRANCH  14  15
ENDBRANCH  13  14
ENDBRANCH  12  13
ENDBRANCH  11  12
ENDBRANCH   1  11
TORSDOF 14
ENDMDL
MODEL 4
REMARK VINA RESULT:    -3.436      3.786      8.529
REMARK INTER + INTRA:          -7.303
REMARK INTER:                  -6.338
REMARK INTRA:                  -0.965
REMARK UNBOUND:                -1.055
REMARK SMILES CCCCCCCCCCCCCCCC(=O)[O-]
REMARK SMILES IDX 9 1 10 2 11 3 12 4 13 5 14 6 15 7 16 8 17 9 18 10 8 11 7 12
REMARK SMILES IDX 6 13 5 14 4 15 3 16 2 17 1 18
REMARK H PARENT
REMARK Flexibility Score: inf
ROOT
ATOM      1  C   UNL     1      35.163  28.884  17.481  1.00  0.00     0.000 C 
ENDROOT
BRANCH   1   2
ATOM      2  C   UNL     1      36.589  29.038  18.044  1.00  0.00     0.000 C 
BRANCH   2   3
ATOM      3  C   UNL     1      37.077  27.855  18.901  1.00  0.00     0.000 C 
BRANCH   3   4
ATOM      4  C   UNL     1      37.061  28.163  20.408  1.00  0.00     0.000 C 
BRANCH   4   5
ATOM      5  C   UNL     1      35.646  28.438  20.941  1.00  0.00     0.000 C 
BRANCH   5   6
ATOM      6  C   UNL     1      35.607  29.611  21.936  1.00  0.00     0.006 C 
BRANCH   6   7
ATOM      7  C   UNL     1      36.946  30.358  22.004  1.00  0.00     0.053 C 
BRANCH   7   8
ATOM      8  C   UNL     1      36.835  31.629  22.789  1.00  0.00     0.041 C 
ATOM      9  O   UNL     1      37.029  32.739  22.229  1.00  0.00    -0.550 OA
ATOM     10  O   UNL     1      36.491  31.588  24.135  1.00  0.00    -0.550 OA
ENDBRANCH   7   8
ENDBRANCH   6   7
ENDBRANCH   5   6
ENDBRANCH   4   5
ENDBRANCH   3   4
ENDBRANCH   2   3
ENDBRANCH   1   2
BRANCH   1  11
ATOM     11  C   UNL     1      35.085  28.274  16.069  1.00  0.00     0.000 C 
BRANCH  11  12
ATOM     12  C   UNL     1      36.464  28.004  15.431  1.00  0.00    -0.000 C 
BRANCH  12  13
ATOM     13  C   UNL     1      36.368  27.105  14.186  1.00  0.00    -0.000 C 
BRANCH  13  14
ATOM     14  C   UNL     1      34.919  26.875  13.730  1.00  0.00    -0.000 C 
BRANCH  14  15
ATOM     15  C   UNL     1      34.724  27.109  12.225  1.00  0.00    -0.000 C 
BRANCH  15  16
ATOM     16  C   UNL     1      33.859  28.352  11.971  1.00  0.00    -0.000 C 
BRANCH  16  17
ATOM     17  C   UNL     1      33.212  28.896  13.254  1.00  0.00    -0.003 C 
ATOM     18  C   UNL     1      32.637  30.301  13.077  1.00  0.00     0.004 C 
ENDBRANCH  16  17
ENDBRANCH  15  16
ENDBRANCH  14  15
ENDBRANCH  13  14
ENDBRANCH  12  13
ENDBRANCH  11  12
ENDBRANCH   1  11
TORSDOF 14
ENDMDL
MODEL 5
REMARK VINA RESULT:    -3.427      1.135      1.611
REMARK INTER + INTRA:          -7.288
REMARK INTER:                  -6.260
REMARK INTRA:                  -1.028
REMARK UNBOUND:                -1.055
REMARK SMILES CCCCCCCCCCCCCCCC(=O)[O-]
REMARK SMILES IDX 9 1 10 2 11 3 12 4 13 5 14 6 15 7 16 8 17 9 18 10 8 11 7 12
REMARK SMILES IDX 6 13 5 14 4 15 3 16 2 17 1 18
REMARK H PARENT
REMARK Flexibility Score: inf
ROOT
ATOM      1  C   UNL     1      34.522  28.459  18.384  1.00  0.00     0.000 C 
ENDROOT
BRANCH   1   2
ATOM      2  C   UNL     1      35.570  29.140  17.483  1.00  0.00     0.000 C 
BRANCH   2   3
ATOM      3  C   UNL     1      36.694  28.212  16.985  1.00  0.00     0.000 C 
BRANCH   3   4
ATOM      4  C   UNL     1      36.205  27.183  15.952  1.00  0.00     0.000 C 
BRANCH   4   5
ATOM      5  C   UNL     1      36.480  27.621  14.504  1.00  0.00     0.000 C 
BRANCH   5   6
ATOM      6  C   UNL     1      35.355  27.211  13.538  1.00  0.00     0.006 C 
BRANCH   6   7
ATOM      7  C   UNL     1      34.017  27.873  13.893  1.00  0.00     0.053 C 
BRANCH   7   8
ATOM      8  C   UNL     1      33.421  28.587  12.719  1.00  0.00     0.041 C 
ATOM      9  O   UNL     1      32.817  29.680  12.882  1.00  0.00    -0.550 OA
ATOM     10  O   UNL     1      33.555  28.059  11.441  1.00  0.00    -0.550 OA
ENDBRANCH   7   8
ENDBRANCH   6   7
ENDBRANCH   5   6
ENDBRANCH   4   5
ENDBRANCH   3   4
ENDBRANCH   2   3
ENDBRANCH   1   2
BRANCH   1  11
ATOM     11  C   UNL     1      35.068  27.328  19.276  1.00  0.00     0.000 C 
BRANCH  11  12
ATOM     12  C   UNL     1      35.816  27.831  20.529  1.00  0.00    -0.000 C 
BRANCH  12  13
ATOM     13  C   UNL     1      35.105  29.020  21.199  1.00  0.00    -0.000 C 
BRANCH  13  14
ATOM     14  C   UNL     1      36.087  30.048  21.782  1.00  0.00    -0.000 C 
BRANCH  14  15
ATOM     15  C   UNL     1      36.660  29.619  23.141  1.00  0.00    -0.000 C 
BRANCH  15  16
ATOM     16  C   UNL     1      35.910  30.301  24.293  1.00  0.00    -0.000 C 
BRANCH  16  17
ATOM     17  C   UNL     1      34.754  29.447  24.835  1.00  0.00    -0.003 C 
ATOM     18  C   UNL     1      35.133  27.975  24.999  1.00  0.00     0.004 C 
ENDBRANCH  16  17
ENDBRANCH  15  16
ENDBRANCH  14  15
ENDBRANCH  13  14
ENDBRANCH  12  13
ENDBRANCH  11  12
ENDBRANCH   1  11
TORSDOF 14
ENDMDL
MODEL 6
REMARK VINA RESULT:    -3.418      1.270      2.520
REMARK INTER + INTRA:          -7.271
REMARK INTER:                  -6.075
REMARK INTRA:                  -1.196
REMARK UNBOUND:                -1.055
REMARK SMILES CCCCCCCCCCCCCCCC(=O)[O-]
REMARK SMILES IDX 9 1 10 2 11 3 12 4 13 5 14 6 15 7 16 8 17 9 18 10 8 11 7 12
REMARK SMILES IDX 6 13 5 14 4 15 3 16 2 17 1 18
REMARK H PARENT
REMARK Flexibility Score: inf
ROOT
ATOM      1  C   UNL     1      35.389  28.949  19.081  1.00  0.00     0.000 C 
ENDROOT
BRANCH   1   2
ATOM      2  C   UNL     1      34.889  27.526  18.762  1.00  0.00     0.000 C 
BRANCH   2   3
ATOM      3  C   UNL     1      35.279  27.003  17.367  1.00  0.00     0.000 C 
BRANCH   3   4
ATOM      4  C   UNL     1      36.129  28.006  16.569  1.00  0.00     0.000 C 
BRANCH   4   5
ATOM      5  C   UNL     1      36.061  27.764  15.052  1.00  0.00     0.000 C 
BRANCH   5   6
ATOM      6  C   UNL     1      34.871  26.875  14.648  1.00  0.00     0.006 C 
BRANCH   6   7
ATOM      7  C   UNL     1      34.458  27.091  13.187  1.00  0.00     0.053 C 
BRANCH   7   8
ATOM      8  C   UNL     1      33.692  28.367  13.008  1.00  0.00     0.041 C 
ATOM      9  O   UNL     1      32.701  28.619  13.743  1.00  0.00    -0.550 OA
ATOM     10  O   UNL     1      34.087  29.288  12.047  1.00  0.00    -0.550 OA
ENDBRANCH   7   8
ENDBRANCH   6   7
ENDBRANCH   5   6
ENDBRANCH   4   5
ENDBRANCH   3   4
ENDBRANCH   2   3
ENDBRANCH   1   2
BRANCH   1  11
ATOM     11  C   UNL     1      36.115  29.094  20.432  1.00  0.00     0.000 C 
BRANCH  11  12
ATOM     12  C   UNL     1      35.251  28.700  21.648  1.00  0.00    -0.000 C 
BRANCH  12  13
ATOM     13  C   UNL     1      35.979  27.730  22.595  1.00  0.00    -0.000 C 
BRANCH  13  14
ATOM     14  C   UNL     1      35.933  28.187  24.062  1.00  0.00    -0.000 C 
BRANCH  14  15
ATOM     15  C   UNL     1      35.008  29.392  24.282  1.00  0.00    -0.000 C 
BRANCH  15  16
ATOM     16  C   UNL     1      35.776  30.566  24.905  1.00  0.00    -0.000 C 
BRANCH  16  17
ATOM     17  C   UNL     1      37.042  30.931  24.115  1.00  0.00    -0.003 C 
ATOM     18  C   UNL     1      36.752  31.831  22.914  1.00  0.00     0.004 C 
ENDBRANCH  16  17
ENDBRANCH  15  16
ENDBRANCH  14  15
ENDBRANCH  13  14
ENDBRANCH  12  13
ENDBRANCH  11  12
ENDBRANCH   1  11
TORSDOF 14
ENDMDL
MODEL 7
REMARK VINA RESULT:    -3.401      0.858      1.407
REMARK INTER + INTRA:          -7.240
REMARK INTER:                  -6.146
REMARK INTRA:                  -1.094
REMARK UNBOUND:                -1.055
REMARK SMILES CCCCCCCCCCCCCCCC(=O)[O-]
REMARK SMILES IDX 9 1 10 2 11 3 12 4 13 5 14 6 15 7 16 8 17 9 18 10 8 11 7 12
REMARK SMILES IDX 6 13 5 14 4 15 3 16 2 17 1 18
REMARK H PARENT
REMARK Flexibility Score: inf
ROOT
ATOM      1  C   UNL     1      35.218  28.689  16.325  1.00  0.00     0.000 C 
ENDROOT
BRANCH   1   2
ATOM      2  C   UNL     1      35.182  27.260  15.748  1.00  0.00     0.000 C 
BRANCH   2   3
ATOM      3  C   UNL     1      36.371  26.902  14.837  1.00  0.00     0.000 C 
BRANCH   3   4
ATOM      4  C   UNL     1      36.326  27.630  13.483  1.00  0.00     0.000 C 
BRANCH   4   5
ATOM      5  C   UNL     1      35.493  26.877  12.433  1.00  0.00     0.000 C 
BRANCH   5   6
ATOM      6  C   UNL     1      34.089  27.479  12.249  1.00  0.00     0.006 C 
BRANCH   6   7
ATOM      7  C   UNL     1      34.102  29.012  12.322  1.00  0.00     0.053 C 
BRANCH   7   8
ATOM      8  C   UNL     1      32.934  29.542  13.097  1.00  0.00     0.041 C 
ATOM      9  O   UNL     1      32.549  30.729  12.930  1.00  0.00    -0.550 OA
ATOM     10  O   UNL     1      32.255  28.716  13.984  1.00  0.00    -0.550 OA
ENDBRANCH   7   8
ENDBRANCH   6   7
ENDBRANCH   5   6
ENDBRANCH   4   5
ENDBRANCH   3   4
ENDBRANCH   2   3
ENDBRANCH   1   2
BRANCH   1  11
ATOM     11  C   UNL     1      35.527  28.773  17.832  1.00  0.00     0.000 C 
BRANCH  11  12
ATOM     12  C   UNL     1      34.641  27.855  18.700  1.00  0.00    -0.000 C 
BRANCH  12  13
ATOM     13  C   UNL     1      35.121  27.788  20.160  1.00  0.00    -0.000 C 
BRANCH  13  14
ATOM     14  C   UNL     1      35.057  29.150  20.869  1.00  0.00    -0.000 C 
BRANCH  14  15
ATOM     15  C   UNL     1      35.650  29.113  22.285  1.00  0.00    -0.000 C 
BRANCH  15  16
ATOM     16  C   UNL     1      36.422  27.807  22.522  1.00  0.00    -0.000 C 
BRANCH  16  17
ATOM     17  C   UNL     1      36.196  27.233  23.930  1.00  0.00    -0.003 C 
ATOM     18  C   UNL     1      35.260  28.094  24.776  1.00  0.00     0.004 C 
ENDBRANCH  16  17
ENDBRANCH  15  16
ENDBRANCH  14  15
ENDBRANCH  13  14
ENDBRANCH  12  13
ENDBRANCH  11  12
ENDBRANCH   1  11
TORSDOF 14
ENDMDL
MODEL 8
REMARK VINA RESULT:    -3.046      3.847      8.903
REMARK INTER + INTRA:          -6.595
REMARK INTER:                  -5.662
REMARK INTRA:                  -0.933
REMARK UNBOUND:                -1.055
REMARK SMILES CCCCCCCCCCCCCCCC(=O)[O-]
REMARK SMILES IDX 9 1 10 2 11 3 12 4 13 5 14 6 15 7 16 8 17 9 18 10 8 11 7 12
REMARK SMILES IDX 6 13 5 14 4 15 3 16 2 17 1 18
REMARK H PARENT
REMARK Flexibility Score: inf
ROOT
ATOM      1  C   UNL     1      35.633  29.022  17.544  1.00  0.00     0.000 C 
ENDROOT
BRANCH   1   2
ATOM      2  C   UNL     1      35.293  27.779  18.389  1.00  0.00     0.000 C 
BRANCH   2   3
ATOM      3  C   UNL     1      35.796  27.829  19.844  1.00  0.00     0.000 C 
BRANCH   3   4
ATOM      4  C   UNL     1      35.026  28.844  20.707  1.00  0.00     0.000 C 
BRANCH   4   5
ATOM      5  C   UNL     1      35.954  29.854  21.402  1.00  0.00     0.000 C 
BRANCH   5   6
ATOM      6  C   UNL     1      35.903  29.745  22.936  1.00  0.00     0.006 C 
BRANCH   6   7
ATOM      7  C   UNL     1      37.077  28.933  23.498  1.00  0.00     0.053 C 
BRANCH   7   8
ATOM      8  C   UNL     1      36.630  27.607  24.033  1.00  0.00     0.041 C 
ATOM      9  O   UNL     1      37.125  27.154  25.099  1.00  0.00    -0.550 OA
ATOM     10  O   UNL     1      35.648  26.883  23.369  1.00  0.00    -0.550 OA
ENDBRANCH   7   8
ENDBRANCH   6   7
ENDBRANCH   5   6
ENDBRANCH   4   5
ENDBRANCH   3   4
ENDBRANCH   2   3
ENDBRANCH   1   2
BRANCH   1  11
ATOM     11  C   UNL     1      36.687  28.791  16.444  1.00  0.00     0.000 C 
BRANCH  11  12
ATOM     12  C   UNL     1      36.742  27.336  15.933  1.00  0.00    -0.000 C 
BRANCH  12  13
ATOM     13  C   UNL     1      36.559  27.243  14.408  1.00  0.00    -0.000 C 
BRANCH  13  14
ATOM     14  C   UNL     1      35.080  27.184  13.991  1.00  0.00    -0.000 C 
BRANCH  14  15
ATOM     15  C   UNL     1      34.884  27.314  12.474  1.00  0.00    -0.000 C 
BRANCH  15  16
ATOM     16  C   UNL     1      33.734  28.279  12.150  1.00  0.00    -0.000 C 
BRANCH  16  17
ATOM     17  C   UNL     1      33.264  29.073  13.379  1.00  0.00    -0.003 C 
ATOM     18  C   UNL     1      32.560  30.377  13.006  1.00  0.00     0.004 C 
ENDBRANCH  16  17
ENDBRANCH  15  16
ENDBRANCH  14  15
ENDBRANCH  13  14
ENDBRANCH  12  13
ENDBRANCH  11  12
ENDBRANCH   1  11
TORSDOF 14
ENDMDL
MODEL 9
REMARK VINA RESULT:    -2.795      3.921      9.198
REMARK INTER + INTRA:          -6.138
REMARK INTER:                  -5.288
REMARK INTRA:                  -0.850
REMARK UNBOUND:                -1.055
REMARK SMILES CCCCCCCCCCCCCCCC(=O)[O-]
REMARK SMILES IDX 9 1 10 2 11 3 12 4 13 5 14 6 15 7 16 8 17 9 18 10 8 11 7 12
REMARK SMILES IDX 6 13 5 14 4 15 3 16 2 17 1 18
REMARK H PARENT
REMARK Flexibility Score: inf
ROOT
ATOM      1  C   UNL     1      35.466  29.132  19.982  1.00  0.00     0.000 C 
ENDROOT
BRANCH   1   2
ATOM      2  C   UNL     1      36.254  28.167  20.889  1.00  0.00     0.000 C 
BRANCH   2   3
ATOM      3  C   UNL     1      35.656  27.967  22.293  1.00  0.00     0.000 C 
BRANCH   3   4
ATOM      4  C   UNL     1      36.658  27.356  23.288  1.00  0.00     0.000 C 
BRANCH   4   5
ATOM      5  C   UNL     1      36.417  27.824  24.732  1.00  0.00     0.000 C 
BRANCH   5   6
ATOM      6  C   UNL     1      35.841  29.249  24.804  1.00  0.00     0.006 C 
BRANCH   6   7
ATOM      7  C   UNL     1      36.933  30.305  25.019  1.00  0.00     0.053 C 
BRANCH   7   8
ATOM      8  C   UNL     1      36.726  31.506  24.147  1.00  0.00     0.041 C 
ATOM      9  O   UNL     1      36.433  31.362  22.931  1.00  0.00    -0.550 OA
ATOM     10  O   UNL     1      36.832  32.783  24.683  1.00  0.00    -0.550 OA
ENDBRANCH   7   8
ENDBRANCH   6   7
ENDBRANCH   5   6
ENDBRANCH   4   5
ENDBRANCH   3   4
ENDBRANCH   2   3
ENDBRANCH   1   2
BRANCH   1  11
ATOM     11  C   UNL     1      35.053  28.550  18.617  1.00  0.00     0.000 C 
BRANCH  11  12
ATOM     12  C   UNL     1      36.033  28.888  17.474  1.00  0.00    -0.000 C 
BRANCH  12  13
ATOM     13  C   UNL     1      35.467  28.526  16.091  1.00  0.00    -0.000 C 
BRANCH  13  14
ATOM     14  C   UNL     1      36.553  28.051  15.111  1.00  0.00    -0.000 C 
BRANCH  14  15
ATOM     15  C   UNL     1      35.977  27.299  13.903  1.00  0.00    -0.000 C 
BRANCH  15  16
ATOM     16  C   UNL     1      34.447  27.202  13.995  1.00  0.00    -0.000 C 
BRANCH  16  17
ATOM     17  C   UNL     1      33.737  27.916  12.835  1.00  0.00    -0.003 C 
ATOM     18  C   UNL     1      32.917  29.121  13.294  1.00  0.00     0.004 C 
ENDBRANCH  16  17
ENDBRANCH  15  16
ENDBRANCH  14  15
ENDBRANCH  13  14
ENDBRANCH  12  13
ENDBRANCH  11  12
ENDBRANCH   1  11
TORSDOF 14
ENDMDL
