MODEL 1
REMARK VINA RESULT:    -4.768      0.000      0.000
REMARK INTER + INTRA:          -7.083
REMARK INTER:                  -6.440
REMARK INTRA:                  -0.643
REMARK UNBOUND:                -0.643
REMARK SMILES COc1ccc(-c2cc(=O)c3c(OC)c(OC)c(OC)c(OC)c3o2)cc1
REMARK SMILES IDX 7 1 8 2 9 3 10 4 11 5 24 6 25 7 21 8 18 9 15 10 12 11 6 12
REMARK SMILES IDX 3 13 4 14 27 15 5 16 26 17 2 18 1 19 22 20 23 21 13 22 14 23
REMARK SMILES IDX 19 24 20 25 16 26 17 27
REMARK H PARENT
REMARK Flexibility Score: inf
ROOT
ATOM      1  C   UNL     1       6.893   6.265  32.275  1.00  0.00     0.138 A 
ATOM      2  C   UNL     1       5.643   6.359  32.902  1.00  0.00     0.100 A 
ATOM      3  C   UNL     1       5.525   7.071  34.094  1.00  0.00     0.197 A 
ATOM      4  O   UNL     1       4.395   7.146  34.647  1.00  0.00    -0.289 OA
ATOM      5  C   UNL     1       6.663   7.691  34.653  1.00  0.00     0.115 A 
ATOM      6  C   UNL     1       7.884   7.572  33.952  1.00  0.00     0.188 A 
ATOM      7  O   UNL     1       7.943   6.876  32.819  1.00  0.00    -0.452 OA
ATOM      8  C   UNL     1       9.050   8.161  34.461  1.00  0.00     0.209 A 
ATOM      9  C   UNL     1       9.025   8.867  35.670  1.00  0.00     0.211 A 
ATOM     10  C   UNL     1       7.799   9.024  36.362  1.00  0.00     0.208 A 
ATOM     11  C   UNL     1       6.632   8.391  35.881  1.00  0.00     0.179 A 
ENDROOT
BRANCH   1  12
ATOM     12  C   UNL     1       7.078   5.504  31.013  1.00  0.00     0.018 A 
ATOM     13  C   UNL     1       7.368   4.044  28.612  1.00  0.00     0.118 A 
ATOM     14  C   UNL     1       8.195   5.152  28.876  1.00  0.00     0.047 A 
ATOM     15  C   UNL     1       6.396   3.683  29.548  1.00  0.00     0.047 A 
ATOM     16  C   UNL     1       8.048   5.876  30.062  1.00  0.00     0.016 A 
ATOM     17  C   UNL     1       6.247   4.406  30.735  1.00  0.00     0.016 A 
BRANCH  13  18
ATOM     18  O   UNL     1       7.479   3.286  27.437  1.00  0.00    -0.497 OA
ATOM     19  C   UNL     1       8.444   2.259  27.232  1.00  0.00     0.278 C 
ENDBRANCH  13  18
ENDBRANCH   1  12
BRANCH   8  20
ATOM     20  O   UNL     1      10.263   8.042  33.777  1.00  0.00    -0.490 OA
ATOM     21  C   UNL     1      10.610   8.903  32.700  1.00  0.00     0.278 C 
ENDBRANCH   8  20
BRANCH  11  22
ATOM     22  O   UNL     1       5.447   8.436  36.623  1.00  0.00    -0.492 OA
ATOM     23  C   UNL     1       5.271   7.688  37.822  1.00  0.00     0.278 C 
ENDBRANCH  11  22
BRANCH   9  24
ATOM     24  O   UNL     1      10.249   9.404  36.114  1.00  0.00    -0.490 OA
ATOM     25  C   UNL     1      10.706  10.740  35.930  1.00  0.00     0.279 C 
ENDBRANCH   9  24
BRANCH  10  26
ATOM     26  O   UNL     1       7.743   9.818  37.512  1.00  0.00    -0.490 OA
ATOM     27  C   UNL     1       7.363  11.191  37.478  1.00  0.00     0.278 C 
ENDBRANCH  10  26
TORSDOF 6
ENDMDL
MODEL 2
REMARK VINA RESULT:    -4.742     10.772     12.826
REMARK INTER + INTRA:          -7.049
REMARK INTER:                  -6.427
REMARK INTRA:                  -0.622
REMARK UNBOUND:                -0.643
REMARK SMILES COc1ccc(-c2cc(=O)c3c(OC)c(OC)c(OC)c(OC)c3o2)cc1
REMARK SMILES IDX 7 1 8 2 9 3 10 4 11 5 24 6 25 7 21 8 18 9 15 10 12 11 6 12
REMARK SMILES IDX 3 13 4 14 27 15 5 16 26 17 2 18 1 19 22 20 23 21 13 22 14 23
REMARK SMILES IDX 19 24 20 25 16 26 17 27
REMARK H PARENT
REMARK Flexibility Score: inf
ROOT
ATOM      1  C   UNL     1       0.801  15.562  30.800  1.00  0.00     0.138 A 
ATOM      2  C   UNL     1       1.030  14.191  30.619  1.00  0.00     0.100 A 
ATOM      3  C   UNL     1       0.225  13.267  31.286  1.00  0.00     0.197 A 
ATOM      4  O   UNL     1       0.444  12.038  31.115  1.00  0.00    -0.289 OA
ATOM      5  C   UNL     1      -0.811  13.723  32.128  1.00  0.00     0.115 A 
ATOM      6  C   UNL     1      -0.996  15.119  32.241  1.00  0.00     0.188 A 
ATOM      7  O   UNL     1      -0.197  15.959  31.587  1.00  0.00    -0.452 OA
ATOM      8  C   UNL     1      -2.006  15.632  33.068  1.00  0.00     0.209 A 
ATOM      9  C   UNL     1      -2.838  14.773  33.797  1.00  0.00     0.211 A 
ATOM     10  C   UNL     1      -2.686  13.372  33.662  1.00  0.00     0.208 A 
ATOM     11  C   UNL     1      -1.638  12.850  32.870  1.00  0.00     0.179 A 
ENDROOT
BRANCH   1  12
ATOM     12  C   UNL     1       1.639  16.588  30.129  1.00  0.00     0.018 A 
ATOM     13  C   UNL     1       3.271  18.494  28.831  1.00  0.00     0.118 A 
ATOM     14  C   UNL     1       1.891  18.722  28.979  1.00  0.00     0.047 A 
ATOM     15  C   UNL     1       3.822  17.309  29.326  1.00  0.00     0.047 A 
ATOM     16  C   UNL     1       1.083  17.776  29.618  1.00  0.00     0.016 A 
ATOM     17  C   UNL     1       3.016  16.361  29.964  1.00  0.00     0.016 A 
BRANCH  13  18
ATOM     18  O   UNL     1       4.122  19.413  28.200  1.00  0.00    -0.497 OA
ATOM     19  C   UNL     1       5.330  19.062  27.531  1.00  0.00     0.278 C 
ENDBRANCH  13  18
ENDBRANCH   1  12
BRANCH   8  20
ATOM     20  O   UNL     1      -2.191  17.012  33.191  1.00  0.00    -0.490 OA
ATOM     21  C   UNL     1      -1.481  17.785  34.150  1.00  0.00     0.278 C 
ENDBRANCH   8  20
BRANCH  11  22
ATOM     22  O   UNL     1      -1.403  11.471  32.831  1.00  0.00    -0.492 OA
ATOM     23  C   UNL     1      -0.791  10.773  33.910  1.00  0.00     0.278 C 
ENDBRANCH  11  22
BRANCH   9  24
ATOM     24  O   UNL     1      -3.808  15.380  34.618  1.00  0.00    -0.490 OA
ATOM     25  C   UNL     1      -5.157  15.669  34.267  1.00  0.00     0.279 C 
ENDBRANCH   9  24
BRANCH  10  26
ATOM     26  O   UNL     1      -3.580  12.507  34.299  1.00  0.00    -0.490 OA
ATOM     27  C   UNL     1      -4.788  12.064  33.687  1.00  0.00     0.278 C 
ENDBRANCH  10  26
TORSDOF 6
ENDMDL
MODEL 3
REMARK VINA RESULT:    -4.677      9.058     11.464
REMARK INTER + INTRA:          -6.960
REMARK INTER:                  -6.330
REMARK INTRA:                  -0.630
REMARK UNBOUND:                -0.643
REMARK SMILES COc1ccc(-c2cc(=O)c3c(OC)c(OC)c(OC)c(OC)c3o2)cc1
REMARK SMILES IDX 7 1 8 2 9 3 10 4 11 5 24 6 25 7 21 8 18 9 15 10 12 11 6 12
REMARK SMILES IDX 3 13 4 14 27 15 5 16 26 17 2 18 1 19 22 20 23 21 13 22 14 23
REMARK SMILES IDX 19 24 20 25 16 26 17 27
REMARK H PARENT
REMARK Flexibility Score: inf
ROOT
ATOM      1  C   UNL     1       4.795   9.285  41.770  1.00  0.00     0.138 A 
ATOM      2  C   UNL     1       5.244  10.366  40.998  1.00  0.00     0.100 A 
ATOM      3  C   UNL     1       4.398  11.452  40.781  1.00  0.00     0.197 A 
ATOM      4  O   UNL     1       4.816  12.416  40.085  1.00  0.00    -0.289 OA
ATOM      5  C   UNL     1       3.104  11.453  41.344  1.00  0.00     0.115 A 
ATOM      6  C   UNL     1       2.731  10.339  42.129  1.00  0.00     0.188 A 
ATOM      7  O   UNL     1       3.575   9.325  42.301  1.00  0.00    -0.452 OA
ATOM      8  C   UNL     1       1.456  10.281  42.709  1.00  0.00     0.209 A 
ATOM      9  C   UNL     1       0.533  11.316  42.513  1.00  0.00     0.211 A 
ATOM     10  C   UNL     1       0.910  12.454  41.759  1.00  0.00     0.208 A 
ATOM     11  C   UNL     1       2.174  12.497  41.131  1.00  0.00     0.179 A 
ENDROOT
BRANCH   1  12
ATOM     12  C   UNL     1       5.648   8.095  42.017  1.00  0.00     0.018 A 
ATOM     13  C   UNL     1       7.251   5.829  42.545  1.00  0.00     0.118 A 
ATOM     14  C   UNL     1       6.761   6.068  41.248  1.00  0.00     0.047 A 
ATOM     15  C   UNL     1       6.927   6.722  43.570  1.00  0.00     0.047 A 
ATOM     16  C   UNL     1       5.965   7.187  40.988  1.00  0.00     0.016 A 
ATOM     17  C   UNL     1       6.130   7.842  43.312  1.00  0.00     0.016 A 
BRANCH  13  18
ATOM     18  O   UNL     1       8.054   4.722  42.854  1.00  0.00    -0.497 OA
ATOM     19  C   UNL     1       7.773   3.789  43.893  1.00  0.00     0.278 C 
ENDBRANCH  13  18
ENDBRANCH   1  12
BRANCH   8  20
ATOM     20  O   UNL     1       1.076   9.179  43.480  1.00  0.00    -0.490 OA
ATOM     21  C   UNL     1       0.568   7.987  42.895  1.00  0.00     0.278 C 
ENDBRANCH   8  20
BRANCH  11  22
ATOM     22  O   UNL     1       2.507  13.559  40.283  1.00  0.00    -0.492 OA
ATOM     23  C   UNL     1       1.941  13.700  38.984  1.00  0.00     0.278 C 
ENDBRANCH  11  22
BRANCH   9  24
ATOM     24  O   UNL     1      -0.731  11.159  43.115  1.00  0.00    -0.490 OA
ATOM     25  C   UNL     1      -1.936  10.767  42.467  1.00  0.00     0.279 C 
ENDBRANCH   9  24
BRANCH  10  26
ATOM     26  O   UNL     1       0.036  13.541  41.650  1.00  0.00    -0.490 OA
ATOM     27  C   UNL     1       0.005  14.599  42.603  1.00  0.00     0.278 C 
ENDBRANCH  10  26
TORSDOF 6
ENDMDL
MODEL 4
REMARK VINA RESULT:    -4.672     10.385     12.558
REMARK INTER + INTRA:          -6.953
REMARK INTER:                  -6.316
REMARK INTRA:                  -0.638
REMARK UNBOUND:                -0.643
REMARK SMILES COc1ccc(-c2cc(=O)c3c(OC)c(OC)c(OC)c(OC)c3o2)cc1
REMARK SMILES IDX 7 1 8 2 9 3 10 4 11 5 24 6 25 7 21 8 18 9 15 10 12 11 6 12
REMARK SMILES IDX 3 13 4 14 27 15 5 16 26 17 2 18 1 19 22 20 23 21 13 22 14 23
REMARK SMILES IDX 19 24 20 25 16 26 17 27
REMARK H PARENT
REMARK Flexibility Score: inf
ROOT
ATOM      1  C   UNL     1       0.092  13.970  31.870  1.00  0.00     0.138 A 
ATOM      2  C   UNL     1       0.213  12.581  32.019  1.00  0.00     0.100 A 
ATOM      3  C   UNL     1      -0.783  11.874  32.692  1.00  0.00     0.197 A 
ATOM      4  O   UNL     1      -0.660  10.627  32.820  1.00  0.00    -0.289 OA
ATOM      5  C   UNL     1      -1.900  12.564  33.210  1.00  0.00     0.115 A 
ATOM      6  C   UNL     1      -1.963  13.959  33.001  1.00  0.00     0.188 A 
ATOM      7  O   UNL     1      -0.983  14.587  32.355  1.00  0.00    -0.452 OA
ATOM      8  C   UNL     1      -3.045  14.699  33.497  1.00  0.00     0.209 A 
ATOM      9  C   UNL     1      -4.073  14.071  34.213  1.00  0.00     0.211 A 
ATOM     10  C   UNL     1      -4.038  12.667  34.397  1.00  0.00     0.208 A 
ATOM     11  C   UNL     1      -2.926  11.924  33.943  1.00  0.00     0.179 A 
ENDROOT
BRANCH   1  12
ATOM     12  C   UNL     1       1.132  14.773  31.178  1.00  0.00     0.018 A 
ATOM     13  C   UNL     1       3.087  16.351  29.886  1.00  0.00     0.118 A 
ATOM     14  C   UNL     1       3.375  15.025  30.258  1.00  0.00     0.047 A 
ATOM     15  C   UNL     1       1.825  16.879  30.172  1.00  0.00     0.047 A 
ATOM     16  C   UNL     1       2.408  14.246  30.900  1.00  0.00     0.016 A 
ATOM     17  C   UNL     1       0.857  16.102  30.816  1.00  0.00     0.016 A 
BRANCH  13  18
ATOM     18  O   UNL     1       4.022  17.171  29.238  1.00  0.00    -0.497 OA
ATOM     19  C   UNL     1       3.719  18.020  28.135  1.00  0.00     0.278 C 
ENDBRANCH  13  18
ENDBRANCH   1  12
BRANCH   8  20
ATOM     20  O   UNL     1      -3.112  16.082  33.300  1.00  0.00    -0.490 OA
ATOM     21  C   UNL     1      -2.513  17.002  34.204  1.00  0.00     0.278 C 
ENDBRANCH   8  20
BRANCH  11  22
ATOM     22  O   UNL     1      -2.825  10.558  34.229  1.00  0.00    -0.492 OA
ATOM     23  C   UNL     1      -2.518  10.076  35.534  1.00  0.00     0.278 C 
ENDBRANCH  11  22
BRANCH   9  24
ATOM     24  O   UNL     1      -5.106  14.899  34.693  1.00  0.00    -0.490 OA
ATOM     25  C   UNL     1      -6.343  15.175  34.044  1.00  0.00     0.279 C 
ENDBRANCH   9  24
BRANCH  10  26
ATOM     26  O   UNL     1      -5.112  12.017  35.013  1.00  0.00    -0.490 OA
ATOM     27  C   UNL     1      -6.190  11.447  34.276  1.00  0.00     0.278 C 
ENDBRANCH  10  26
TORSDOF 6
ENDMDL
MODEL 5
REMARK VINA RESULT:    -4.649     10.767     12.735
REMARK INTER + INTRA:          -6.923
REMARK INTER:                  -6.389
REMARK INTRA:                  -0.534
REMARK UNBOUND:                -0.643
REMARK SMILES COc1ccc(-c2cc(=O)c3c(OC)c(OC)c(OC)c(OC)c3o2)cc1
REMARK SMILES IDX 7 1 8 2 9 3 10 4 11 5 24 6 25 7 21 8 18 9 15 10 12 11 6 12
REMARK SMILES IDX 3 13 4 14 27 15 5 16 26 17 2 18 1 19 22 20 23 21 13 22 14 23
REMARK SMILES IDX 19 24 20 25 16 26 17 27
REMARK H PARENT
REMARK Flexibility Score: inf
ROOT
ATOM      1  C   UNL     1       0.161  13.985  31.798  1.00  0.00     0.138 A 
ATOM      2  C   UNL     1       1.467  13.796  31.324  1.00  0.00     0.100 A 
ATOM      3  C   UNL     1       2.127  14.850  30.696  1.00  0.00     0.197 A 
ATOM      4  O   UNL     1       3.300  14.665  30.274  1.00  0.00    -0.289 OA
ATOM      5  C   UNL     1       1.478  16.094  30.549  1.00  0.00     0.115 A 
ATOM      6  C   UNL     1       0.171  16.216  31.074  1.00  0.00     0.188 A 
ATOM      7  O   UNL     1      -0.417  15.176  31.660  1.00  0.00    -0.452 OA
ATOM      8  C   UNL     1      -0.527  17.425  30.953  1.00  0.00     0.209 A 
ATOM      9  C   UNL     1       0.053  18.525  30.307  1.00  0.00     0.211 A 
ATOM     10  C   UNL     1       1.376  18.425  29.811  1.00  0.00     0.208 A 
ATOM     11  C   UNL     1       2.065  17.195  29.885  1.00  0.00     0.179 A 
ENDROOT
BRANCH   1  12
ATOM     12  C   UNL     1      -0.595  12.890  32.459  1.00  0.00     0.018 A 
ATOM     13  C   UNL     1      -1.980  10.785  33.735  1.00  0.00     0.118 A 
ATOM     14  C   UNL     1      -2.578  12.051  33.600  1.00  0.00     0.047 A 
ATOM     15  C   UNL     1      -0.689  10.586  33.238  1.00  0.00     0.047 A 
ATOM     16  C   UNL     1      -1.891  13.093  32.972  1.00  0.00     0.016 A 
ATOM     17  C   UNL     1       0.000  11.627  32.611  1.00  0.00     0.016 A 
BRANCH  13  18
ATOM     18  O   UNL     1      -2.630   9.708  34.356  1.00  0.00    -0.497 OA
ATOM     19  C   UNL     1      -2.776   8.415  33.776  1.00  0.00     0.278 C 
ENDBRANCH  13  18
ENDBRANCH   1  12
BRANCH   8  20
ATOM     20  O   UNL     1      -1.823  17.551  31.462  1.00  0.00    -0.490 OA
ATOM     21  C   UNL     1      -2.071  17.950  32.804  1.00  0.00     0.278 C 
ENDBRANCH   8  20
BRANCH  11  22
ATOM     22  O   UNL     1       3.322  17.053  29.287  1.00  0.00    -0.492 OA
ATOM     23  C   UNL     1       4.495  17.650  29.831  1.00  0.00     0.278 C 
ENDBRANCH  11  22
BRANCH   9  24
ATOM     24  O   UNL     1      -0.734  19.689  30.213  1.00  0.00    -0.490 OA
ATOM     25  C   UNL     1      -1.550  20.076  29.112  1.00  0.00     0.279 C 
ENDBRANCH   9  24
BRANCH  10  26
ATOM     26  O   UNL     1       2.003  19.549  29.263  1.00  0.00    -0.490 OA
ATOM     27  C   UNL     1       1.960  19.849  27.871  1.00  0.00     0.278 C 
ENDBRANCH  10  26
TORSDOF 6
ENDMDL
MODEL 6
REMARK VINA RESULT:    -4.592      8.487     11.662
REMARK INTER + INTRA:          -6.846
REMARK INTER:                  -6.236
REMARK INTRA:                  -0.611
REMARK UNBOUND:                -0.643
REMARK SMILES COc1ccc(-c2cc(=O)c3c(OC)c(OC)c(OC)c(OC)c3o2)cc1
REMARK SMILES IDX 7 1 8 2 9 3 10 4 11 5 24 6 25 7 21 8 18 9 15 10 12 11 6 12
REMARK SMILES IDX 3 13 4 14 27 15 5 16 26 17 2 18 1 19 22 20 23 21 13 22 14 23
REMARK SMILES IDX 19 24 20 25 16 26 17 27
REMARK H PARENT
REMARK Flexibility Score: inf
ROOT
ATOM      1  C   UNL     1      -0.824  10.549  33.488  1.00  0.00     0.138 A 
ATOM      2  C   UNL     1       0.254  10.128  34.279  1.00  0.00     0.100 A 
ATOM      3  C   UNL     1       0.243   8.847  34.828  1.00  0.00     0.197 A 
ATOM      4  O   UNL     1       1.219   8.483  35.538  1.00  0.00    -0.289 OA
ATOM      5  C   UNL     1      -0.848   7.989  34.577  1.00  0.00     0.115 A 
ATOM      6  C   UNL     1      -1.887   8.475  33.750  1.00  0.00     0.188 A 
ATOM      7  O   UNL     1      -1.830   9.709  33.255  1.00  0.00    -0.452 OA
ATOM      8  C   UNL     1      -3.000   7.670  33.470  1.00  0.00     0.209 A 
ATOM      9  C   UNL     1      -3.105   6.381  34.008  1.00  0.00     0.211 A 
ATOM     10  C   UNL     1      -2.053   5.870  34.806  1.00  0.00     0.208 A 
ATOM     11  C   UNL     1      -0.953   6.694  35.134  1.00  0.00     0.179 A 
ENDROOT
BRANCH   1  12
ATOM     12  C   UNL     1      -0.871  11.910  32.894  1.00  0.00     0.018 A 
ATOM     13  C   UNL     1      -0.980  14.520  31.819  1.00  0.00     0.118 A 
ATOM     14  C   UNL     1      -0.037  13.592  31.341  1.00  0.00     0.047 A 
ATOM     15  C   UNL     1      -1.855  14.136  32.839  1.00  0.00     0.047 A 
ATOM     16  C   UNL     1       0.019  12.302  31.876  1.00  0.00     0.016 A 
ATOM     17  C   UNL     1      -1.800  12.847  33.376  1.00  0.00     0.016 A 
BRANCH  13  18
ATOM     18  O   UNL     1      -1.076  15.824  31.313  1.00  0.00    -0.497 OA
ATOM     19  C   UNL     1      -1.885  16.849  31.880  1.00  0.00     0.278 C 
ENDBRANCH  13  18
ENDBRANCH   1  12
BRANCH   8  20
ATOM     20  O   UNL     1      -4.035   8.147  32.660  1.00  0.00    -0.490 OA
ATOM     21  C   UNL     1      -5.170   8.812  33.199  1.00  0.00     0.278 C 
ENDBRANCH   8  20
BRANCH  11  22
ATOM     22  O   UNL     1       0.029   6.241  36.022  1.00  0.00    -0.492 OA
ATOM     23  C   UNL     1      -0.203   6.139  37.424  1.00  0.00     0.278 C 
ENDBRANCH  11  22
BRANCH   9  24
ATOM     24  O   UNL     1      -4.270   5.657  33.690  1.00  0.00    -0.490 OA
ATOM     25  C   UNL     1      -4.430   4.735  32.617  1.00  0.00     0.279 C 
ENDBRANCH   9  24
BRANCH  10  26
ATOM     26  O   UNL     1      -2.097   4.547  35.257  1.00  0.00    -0.490 OA
ATOM     27  C   UNL     1      -1.477   3.476  34.552  1.00  0.00     0.278 C 
ENDBRANCH  10  26
TORSDOF 6
ENDMDL
MODEL 7
REMARK VINA RESULT:    -4.591      8.009      9.994
REMARK INTER + INTRA:          -6.845
REMARK INTER:                  -6.322
REMARK INTRA:                  -0.523
REMARK UNBOUND:                -0.643
REMARK SMILES COc1ccc(-c2cc(=O)c3c(OC)c(OC)c(OC)c(OC)c3o2)cc1
REMARK SMILES IDX 7 1 8 2 9 3 10 4 11 5 24 6 25 7 21 8 18 9 15 10 12 11 6 12
REMARK SMILES IDX 3 13 4 14 27 15 5 16 26 17 2 18 1 19 22 20 23 21 13 22 14 23
REMARK SMILES IDX 19 24 20 25 16 26 17 27
REMARK H PARENT
REMARK Flexibility Score: inf
ROOT
ATOM      1  C   UNL     1       1.430  14.046  31.860  1.00  0.00     0.138 A 
ATOM      2  C   UNL     1       0.347  13.225  31.515  1.00  0.00     0.100 A 
ATOM      3  C   UNL     1       0.030  12.133  32.322  1.00  0.00     0.197 A 
ATOM      4  O   UNL     1      -0.945  11.403  31.999  1.00  0.00    -0.289 OA
ATOM      5  C   UNL     1       0.797  11.872  33.477  1.00  0.00     0.115 A 
ATOM      6  C   UNL     1       1.858  12.758  33.772  1.00  0.00     0.188 A 
ATOM      7  O   UNL     1       2.122  13.783  32.966  1.00  0.00    -0.452 OA
ATOM      8  C   UNL     1       2.659  12.546  34.903  1.00  0.00     0.209 A 
ATOM      9  C   UNL     1       2.428  11.454  35.749  1.00  0.00     0.211 A 
ATOM     10  C   UNL     1       1.345  10.582  35.483  1.00  0.00     0.208 A 
ATOM     11  C   UNL     1       0.565  10.760  34.319  1.00  0.00     0.179 A 
ENDROOT
BRANCH   1  12
ATOM     12  C   UNL     1       1.822  15.211  31.026  1.00  0.00     0.018 A 
ATOM     13  C   UNL     1       2.523  17.460  29.466  1.00  0.00     0.118 A 
ATOM     14  C   UNL     1       3.500  16.519  29.839  1.00  0.00     0.047 A 
ATOM     15  C   UNL     1       1.203  17.271  29.885  1.00  0.00     0.047 A 
ATOM     16  C   UNL     1       3.153  15.409  30.614  1.00  0.00     0.016 A 
ATOM     17  C   UNL     1       0.854  16.162  30.661  1.00  0.00     0.016 A 
BRANCH  13  18
ATOM     18  O   UNL     1       2.821  18.588  28.688  1.00  0.00    -0.497 OA
ATOM     19  C   UNL     1       1.870  19.294  27.898  1.00  0.00     0.278 C 
ENDBRANCH  13  18
ENDBRANCH   1  12
BRANCH   8  20
ATOM     20  O   UNL     1       3.715  13.413  35.198  1.00  0.00    -0.490 OA
ATOM     21  C   UNL     1       3.531  14.587  35.979  1.00  0.00     0.278 C 
ENDBRANCH   8  20
BRANCH  11  22
ATOM     22  O   UNL     1      -0.426   9.832  33.983  1.00  0.00    -0.492 OA
ATOM     23  C   UNL     1      -1.652   9.736  34.700  1.00  0.00     0.278 C 
ENDBRANCH  11  22
BRANCH   9  24
ATOM     24  O   UNL     1       3.299  11.310  36.847  1.00  0.00    -0.490 OA
ATOM     25  C   UNL     1       4.471  10.503  36.900  1.00  0.00     0.279 C 
ENDBRANCH   9  24
BRANCH  10  26
ATOM     26  O   UNL     1       1.038   9.554  36.381  1.00  0.00    -0.490 OA
ATOM     27  C   UNL     1       1.578   8.241  36.258  1.00  0.00     0.278 C 
ENDBRANCH  10  26
TORSDOF 6
ENDMDL
MODEL 8
REMARK VINA RESULT:    -4.538     12.140     16.498
REMARK INTER + INTRA:          -6.773
REMARK INTER:                  -6.138
REMARK INTRA:                  -0.636
REMARK UNBOUND:                -0.643
REMARK SMILES COc1ccc(-c2cc(=O)c3c(OC)c(OC)c(OC)c(OC)c3o2)cc1
REMARK SMILES IDX 7 1 8 2 9 3 10 4 11 5 24 6 25 7 21 8 18 9 15 10 12 11 6 12
REMARK SMILES IDX 3 13 4 14 27 15 5 16 26 17 2 18 1 19 22 20 23 21 13 22 14 23
REMARK SMILES IDX 19 24 20 25 16 26 17 27
REMARK H PARENT
REMARK Flexibility Score: inf
ROOT
ATOM      1  C   UNL     1      -2.393  15.670  43.031  1.00  0.00     0.138 A 
ATOM      2  C   UNL     1      -3.549  14.948  43.363  1.00  0.00     0.100 A 
ATOM      3  C   UNL     1      -3.512  13.555  43.355  1.00  0.00     0.197 A 
ATOM      4  O   UNL     1      -4.558  12.919  43.655  1.00  0.00    -0.289 OA
ATOM      5  C   UNL     1      -2.314  12.889  43.020  1.00  0.00     0.115 A 
ATOM      6  C   UNL     1      -1.185  13.684  42.720  1.00  0.00     0.188 A 
ATOM      7  O   UNL     1      -1.275  15.012  42.737  1.00  0.00    -0.452 OA
ATOM      8  C   UNL     1       0.032  13.080  42.374  1.00  0.00     0.209 A 
ATOM      9  C   UNL     1       0.145  11.685  42.311  1.00  0.00     0.211 A 
ATOM     10  C   UNL     1      -0.969  10.878  42.646  1.00  0.00     0.208 A 
ATOM     11  C   UNL     1      -2.211  11.481  42.947  1.00  0.00     0.179 A 
ENDROOT
BRANCH   1  12
ATOM     12  C   UNL     1      -2.383  17.155  43.006  1.00  0.00     0.018 A 
ATOM     13  C   UNL     1      -2.309  19.978  42.927  1.00  0.00     0.118 A 
ATOM     14  C   UNL     1      -3.540  19.298  42.933  1.00  0.00     0.047 A 
ATOM     15  C   UNL     1      -1.123  19.239  42.952  1.00  0.00     0.047 A 
ATOM     16  C   UNL     1      -3.576  17.902  42.968  1.00  0.00     0.016 A 
ATOM     17  C   UNL     1      -1.157  17.841  42.986  1.00  0.00     0.016 A 
BRANCH  13  18
ATOM     18  O   UNL     1      -2.222  21.378  42.895  1.00  0.00    -0.497 OA
ATOM     19  C   UNL     1      -1.061  22.120  43.257  1.00  0.00     0.278 C 
ENDBRANCH  13  18
ENDBRANCH   1  12
BRANCH   8  20
ATOM     20  O   UNL     1       1.151  13.860  42.068  1.00  0.00    -0.490 OA
ATOM     21  C   UNL     1       1.407  14.328  40.751  1.00  0.00     0.278 C 
ENDBRANCH   8  20
BRANCH  11  22
ATOM     22  O   UNL     1      -3.347  10.692  43.156  1.00  0.00    -0.492 OA
ATOM     23  C   UNL     1      -4.001  10.004  42.095  1.00  0.00     0.278 C 
ENDBRANCH  11  22
BRANCH   9  24
ATOM     24  O   UNL     1       1.400  11.170  41.931  1.00  0.00    -0.490 OA
ATOM     25  C   UNL     1       2.472  10.820  42.800  1.00  0.00     0.279 C 
ENDBRANCH   9  24
BRANCH  10  26
ATOM     26  O   UNL     1      -0.836   9.487  42.694  1.00  0.00    -0.490 OA
ATOM     27  C   UNL     1      -0.433   8.794  43.872  1.00  0.00     0.278 C 
ENDBRANCH  10  26
TORSDOF 6
ENDMDL
MODEL 9
REMARK VINA RESULT:    -4.436      6.911      9.558
REMARK INTER + INTRA:          -6.636
REMARK INTER:                  -6.035
REMARK INTRA:                  -0.601
REMARK UNBOUND:                -0.643
REMARK SMILES COc1ccc(-c2cc(=O)c3c(OC)c(OC)c(OC)c(OC)c3o2)cc1
REMARK SMILES IDX 7 1 8 2 9 3 10 4 11 5 24 6 25 7 21 8 18 9 15 10 12 11 6 12
REMARK SMILES IDX 3 13 4 14 27 15 5 16 26 17 2 18 1 19 22 20 23 21 13 22 14 23
REMARK SMILES IDX 19 24 20 25 16 26 17 27
REMARK H PARENT
REMARK Flexibility Score: inf
ROOT
ATOM      1  C   UNL     1      -0.421  10.913  33.330  1.00  0.00     0.138 A 
ATOM      2  C   UNL     1      -1.566  10.105  33.281  1.00  0.00     0.100 A 
ATOM      3  C   UNL     1      -1.584   8.900  33.981  1.00  0.00     0.197 A 
ATOM      4  O   UNL     1      -2.619   8.183  33.927  1.00  0.00    -0.289 OA
ATOM      5  C   UNL     1      -0.455   8.511  34.732  1.00  0.00     0.115 A 
ATOM      6  C   UNL     1       0.652   9.389  34.753  1.00  0.00     0.188 A 
ATOM      7  O   UNL     1       0.620  10.527  34.063  1.00  0.00    -0.452 OA
ATOM      8  C   UNL     1       1.805   9.055  35.477  1.00  0.00     0.209 A 
ATOM      9  C   UNL     1       1.881   7.847  36.183  1.00  0.00     0.211 A 
ATOM     10  C   UNL     1       0.764   6.977  36.200  1.00  0.00     0.208 A 
ATOM     11  C   UNL     1      -0.381   7.285  35.431  1.00  0.00     0.179 A 
ENDROOT
BRANCH   1  12
ATOM     12  C   UNL     1      -0.342  12.198  32.588  1.00  0.00     0.018 A 
ATOM     13  C   UNL     1      -0.169  14.612  31.130  1.00  0.00     0.118 A 
ATOM     14  C   UNL     1      -1.180  14.433  32.093  1.00  0.00     0.047 A 
ATOM     15  C   UNL     1       0.741  13.577  30.899  1.00  0.00     0.047 A 
ATOM     16  C   UNL     1      -1.267  13.237  32.811  1.00  0.00     0.016 A 
ATOM     17  C   UNL     1       0.655  12.380  31.616  1.00  0.00     0.016 A 
BRANCH  13  18
ATOM     18  O   UNL     1      -0.039  15.794  30.386  1.00  0.00    -0.497 OA
ATOM     19  C   UNL     1       1.149  16.576  30.321  1.00  0.00     0.278 C 
ENDBRANCH  13  18
ENDBRANCH   1  12
BRANCH   8  20
ATOM     20  O   UNL     1       2.907   9.915  35.496  1.00  0.00    -0.490 OA
ATOM     21  C   UNL     1       3.041  10.948  36.464  1.00  0.00     0.278 C 
ENDBRANCH   8  20
BRANCH  11  22
ATOM     22  O   UNL     1      -1.438   6.372  35.343  1.00  0.00    -0.492 OA
ATOM     23  C   UNL     1      -1.298   5.105  34.708  1.00  0.00     0.278 C 
ENDBRANCH  11  22
BRANCH   9  24
ATOM     24  O   UNL     1       3.087   7.587  36.861  1.00  0.00    -0.490 OA
ATOM     25  C   UNL     1       4.168   6.785  36.394  1.00  0.00     0.279 C 
ENDBRANCH   9  24
BRANCH  10  26
ATOM     26  O   UNL     1       0.789   5.823  36.988  1.00  0.00    -0.490 OA
ATOM     27  C   UNL     1       0.376   5.816  38.352  1.00  0.00     0.278 C 
ENDBRANCH  10  26
TORSDOF 6
ENDMDL
