MODEL 1
REMARK VINA RESULT:    -3.543      0.000      0.000
REMARK INTER + INTRA:          -8.473
REMARK INTER:                  -5.406
REMARK INTRA:                  -3.067
REMARK UNBOUND:                -3.067
REMARK SMILES CC(=O)CCC=C(C)CCC=C(C)CCC=C(C)C
REMARK SMILES IDX 10 1 11 2 12 3 13 4 14 5 15 6 16 7 18 8 17 9 19 10 9 11 7 12
REMARK SMILES IDX 6 13 8 14 5 15 4 16 2 17 3 18 1 19
REMARK H PARENT
REMARK Flexibility Score: inf
ROOT
ATOM      1  C   UNL     1       2.346   5.772  -1.717  1.00  0.00     0.032 C 
ENDROOT
BRANCH   1   2
ATOM      2  C   UNL     1       1.434   4.662  -1.251  1.00  0.00    -0.028 C 
ATOM      3  C   UNL     1       0.083   4.656  -1.322  1.00  0.00    -0.077 C 
ATOM      4  C   UNL     1      -0.647   3.443  -0.802  1.00  0.00     0.039 C 
BRANCH   3   5
ATOM      5  C   UNL     1      -0.732   5.802  -1.896  1.00  0.00     0.034 C 
BRANCH   5   6
ATOM      6  C   UNL     1      -1.587   5.332  -3.079  1.00  0.00     0.032 C 
BRANCH   6   7
ATOM      7  C   UNL     1      -0.796   5.383  -4.363  1.00  0.00    -0.028 C 
ATOM      8  C   UNL     1       0.496   4.473  -6.268  1.00  0.00     0.039 C 
ATOM      9  C   UNL     1      -0.302   4.297  -5.001  1.00  0.00    -0.080 C 
ATOM     10  C   UNL     1      -0.571   2.895  -4.517  1.00  0.00     0.039 C 
ENDBRANCH   6   7
ENDBRANCH   5   6
ENDBRANCH   3   5
ENDBRANCH   1   2
BRANCH   1  11
ATOM     11  C   UNL     1       2.817   5.511  -3.153  1.00  0.00     0.034 C 
BRANCH  11  12
ATOM     12  C   UNL     1       2.578   6.719  -4.037  1.00  0.00    -0.077 C 
ATOM     13  C   UNL     1       1.808   7.730  -3.577  1.00  0.00    -0.028 C 
ATOM     14  C   UNL     1       3.193   6.755  -5.415  1.00  0.00     0.039 C 
BRANCH  13  15
ATOM     15  C   UNL     1       1.436   8.953  -4.378  1.00  0.00     0.035 C 
BRANCH  15  16
ATOM     16  C   UNL     1      -0.085   9.125  -4.411  1.00  0.00     0.079 C 
BRANCH  16  17
ATOM     17  C   UNL     1      -0.577   9.251  -5.830  1.00  0.00     0.130 C 
ATOM     18  O   UNL     1      -1.029  10.319  -6.217  1.00  0.00    -0.300 OA
ATOM     19  C   UNL     1      -0.510   8.095  -6.786  1.00  0.00     0.087 C 
ENDBRANCH  16  17
ENDBRANCH  15  16
ENDBRANCH  13  15
ENDBRANCH  11  12
ENDBRANCH   1  11
TORSDOF 9
ENDMDL
MODEL 2
REMARK VINA RESULT:    -3.526     11.032     12.741
REMARK INTER + INTRA:          -8.447
REMARK INTER:                  -5.560
REMARK INTRA:                  -2.887
REMARK UNBOUND:                -3.067
REMARK SMILES CC(=O)CCC=C(C)CCC=C(C)CCC=C(C)C
REMARK SMILES IDX 10 1 11 2 12 3 13 4 14 5 15 6 16 7 18 8 17 9 19 10 9 11 7 12
REMARK SMILES IDX 6 13 8 14 5 15 4 16 2 17 3 18 1 19
REMARK H PARENT
REMARK Flexibility Score: inf
ROOT
ATOM      1  C   UNL     1      -3.888  12.198   5.636  1.00  0.00     0.032 C 
ENDROOT
BRANCH   1   2
ATOM      2  C   UNL     1      -4.678  12.706   6.819  1.00  0.00    -0.028 C 
ATOM      3  C   UNL     1      -5.378  13.864   6.873  1.00  0.00    -0.077 C 
ATOM      4  C   UNL     1      -6.106  14.189   8.153  1.00  0.00     0.039 C 
BRANCH   3   5
ATOM      5  C   UNL     1      -5.470  14.843   5.716  1.00  0.00     0.034 C 
BRANCH   5   6
ATOM      6  C   UNL     1      -4.992  16.239   6.136  1.00  0.00     0.032 C 
BRANCH   6   7
ATOM      7  C   UNL     1      -3.641  16.543   5.534  1.00  0.00    -0.028 C 
ATOM      8  C   UNL     1      -1.176  16.765   5.492  1.00  0.00     0.039 C 
ATOM      9  C   UNL     1      -2.464  16.408   6.188  1.00  0.00    -0.080 C 
ATOM     10  C   UNL     1      -2.387  15.851   7.588  1.00  0.00     0.039 C 
ENDBRANCH   6   7
ENDBRANCH   5   6
ENDBRANCH   3   5
ENDBRANCH   1   2
BRANCH   1  11
ATOM     11  C   UNL     1      -2.388  12.431   5.854  1.00  0.00     0.034 C 
BRANCH  11  12
ATOM     12  C   UNL     1      -1.764  13.138   4.668  1.00  0.00    -0.077 C 
ATOM     13  C   UNL     1      -2.566  13.619   3.692  1.00  0.00    -0.028 C 
ATOM     14  C   UNL     1      -0.262  13.271   4.598  1.00  0.00     0.039 C 
BRANCH  13  15
ATOM     15  C   UNL     1      -2.071  14.280   2.429  1.00  0.00     0.035 C 
BRANCH  15  16
ATOM     16  C   UNL     1      -2.564  13.513   1.199  1.00  0.00     0.079 C 
BRANCH  16  17
ATOM     17  C   UNL     1      -1.797  12.228   1.029  1.00  0.00     0.130 C 
ATOM     18  O   UNL     1      -0.582  12.230   1.165  1.00  0.00    -0.300 OA
ATOM     19  C   UNL     1      -2.494  10.937   0.709  1.00  0.00     0.087 C 
ENDBRANCH  16  17
ENDBRANCH  15  16
ENDBRANCH  13  15
ENDBRANCH  11  12
ENDBRANCH   1  11
TORSDOF 9
ENDMDL
MODEL 3
REMARK VINA RESULT:    -3.478     11.083     12.813
REMARK INTER + INTRA:          -8.375
REMARK INTER:                  -5.627
REMARK INTRA:                  -2.748
REMARK UNBOUND:                -3.067
REMARK SMILES CC(=O)CCC=C(C)CCC=C(C)CCC=C(C)C
REMARK SMILES IDX 10 1 11 2 12 3 13 4 14 5 15 6 16 7 18 8 17 9 19 10 9 11 7 12
REMARK SMILES IDX 6 13 8 14 5 15 4 16 2 17 3 18 1 19
REMARK H PARENT
REMARK Flexibility Score: inf
ROOT
ATOM      1  C   UNL     1      -5.495  14.166   6.432  1.00  0.00     0.032 C 
ENDROOT
BRANCH   1   2
ATOM      2  C   UNL     1      -5.529  13.204   7.597  1.00  0.00    -0.028 C 
ATOM      3  C   UNL     1      -5.045  11.940   7.601  1.00  0.00    -0.077 C 
ATOM      4  C   UNL     1      -5.174  11.140   8.873  1.00  0.00     0.039 C 
BRANCH   3   5
ATOM      5  C   UNL     1      -4.380  11.292   6.400  1.00  0.00     0.034 C 
BRANCH   5   6
ATOM      6  C   UNL     1      -2.932  10.899   6.716  1.00  0.00     0.032 C 
BRANCH   6   7
ATOM      7  C   UNL     1      -2.008  12.079   6.537  1.00  0.00    -0.028 C 
ATOM      8  C   UNL     1      -0.532  13.932   7.254  1.00  0.00     0.039 C 
ATOM      9  C   UNL     1      -1.419  12.751   7.553  1.00  0.00    -0.080 C 
ATOM     10  C   UNL     1      -1.573  12.321   8.990  1.00  0.00     0.039 C 
ENDBRANCH   6   7
ENDBRANCH   5   6
ENDBRANCH   3   5
ENDBRANCH   1   2
BRANCH   1  11
ATOM     11  C   UNL     1      -4.376  15.197   6.622  1.00  0.00     0.034 C 
BRANCH  11  12
ATOM     12  C   UNL     1      -3.504  15.294   5.386  1.00  0.00    -0.077 C 
ATOM     13  C   UNL     1      -3.655  14.381   4.401  1.00  0.00    -0.028 C 
ATOM     14  C   UNL     1      -2.479  16.397   5.295  1.00  0.00     0.039 C 
BRANCH  13  15
ATOM     15  C   UNL     1      -2.808  14.323   3.154  1.00  0.00     0.035 C 
BRANCH  15  16
ATOM     16  C   UNL     1      -2.153  12.946   3.018  1.00  0.00     0.079 C 
BRANCH  16  17
ATOM     17  C   UNL     1      -2.102  12.519   1.574  1.00  0.00     0.130 C 
ATOM     18  O   UNL     1      -1.737  11.386   1.295  1.00  0.00    -0.300 OA
ATOM     19  C   UNL     1      -2.505  13.451   0.468  1.00  0.00     0.087 C 
ENDBRANCH  16  17
ENDBRANCH  15  16
ENDBRANCH  13  15
ENDBRANCH  11  12
ENDBRANCH   1  11
TORSDOF 9
ENDMDL
MODEL 4
REMARK VINA RESULT:    -3.446      2.396      4.753
REMARK INTER + INTRA:          -8.325
REMARK INTER:                  -5.372
REMARK INTRA:                  -2.953
REMARK UNBOUND:                -3.067
REMARK SMILES CC(=O)CCC=C(C)CCC=C(C)CCC=C(C)C
REMARK SMILES IDX 10 1 11 2 12 3 13 4 14 5 15 6 16 7 18 8 17 9 19 10 9 11 7 12
REMARK SMILES IDX 6 13 8 14 5 15 4 16 2 17 3 18 1 19
REMARK H PARENT
REMARK Flexibility Score: inf
ROOT
ATOM      1  C   UNL     1       2.391   8.647  -3.620  1.00  0.00     0.032 C 
ENDROOT
BRANCH   1   2
ATOM      2  C   UNL     1       1.649   9.102  -4.855  1.00  0.00    -0.028 C 
ATOM      3  C   UNL     1       0.323   8.957  -5.086  1.00  0.00    -0.077 C 
ATOM      4  C   UNL     1      -0.228   9.486  -6.387  1.00  0.00     0.039 C 
BRANCH   3   5
ATOM      5  C   UNL     1      -0.633   8.298  -4.108  1.00  0.00     0.034 C 
BRANCH   5   6
ATOM      6  C   UNL     1      -1.550   7.297  -4.822  1.00  0.00     0.032 C 
BRANCH   6   7
ATOM      7  C   UNL     1      -1.058   5.884  -4.618  1.00  0.00    -0.028 C 
ATOM      8  C   UNL     1       0.074   3.768  -5.222  1.00  0.00     0.039 C 
ATOM      9  C   UNL     1      -0.342   5.184  -5.527  1.00  0.00    -0.080 C 
ATOM     10  C   UNL     1       0.110   5.795  -6.830  1.00  0.00     0.039 C 
ENDBRANCH   6   7
ENDBRANCH   5   6
ENDBRANCH   3   5
ENDBRANCH   1   2
BRANCH   1  11
ATOM     11  C   UNL     1       3.352   7.502  -3.965  1.00  0.00     0.034 C 
BRANCH  11  12
ATOM     12  C   UNL     1       2.816   6.172  -3.475  1.00  0.00    -0.077 C 
ATOM     13  C   UNL     1       1.879   6.157  -2.501  1.00  0.00    -0.028 C 
ATOM     14  C   UNL     1       3.356   4.896  -4.077  1.00  0.00     0.039 C 
BRANCH  13  15
ATOM     15  C   UNL     1       1.315   4.903  -1.879  1.00  0.00     0.035 C 
BRANCH  15  16
ATOM     16  C   UNL     1      -0.016   5.206  -1.185  1.00  0.00     0.079 C 
BRANCH  16  17
ATOM     17  C   UNL     1      -0.821   3.946  -1.001  1.00  0.00     0.130 C 
ATOM     18  O   UNL     1      -0.650   3.264  -0.001  1.00  0.00    -0.300 OA
ATOM     19  C   UNL     1      -1.842   3.516  -2.015  1.00  0.00     0.087 C 
ENDBRANCH  16  17
ENDBRANCH  15  16
ENDBRANCH  13  15
ENDBRANCH  11  12
ENDBRANCH   1  11
TORSDOF 9
ENDMDL
MODEL 5
REMARK VINA RESULT:    -3.417      1.283      3.075
REMARK INTER + INTRA:          -8.282
REMARK INTER:                  -5.505
REMARK INTRA:                  -2.777
REMARK UNBOUND:                -3.067
REMARK SMILES CC(=O)CCC=C(C)CCC=C(C)CCC=C(C)C
REMARK SMILES IDX 10 1 11 2 12 3 13 4 14 5 15 6 16 7 18 8 17 9 19 10 9 11 7 12
REMARK SMILES IDX 6 13 8 14 5 15 4 16 2 17 3 18 1 19
REMARK H PARENT
REMARK Flexibility Score: inf
ROOT
ATOM      1  C   UNL     1      -1.694   4.280  -2.508  1.00  0.00     0.032 C 
ENDROOT
BRANCH   1   2
ATOM      2  C   UNL     1      -1.395   3.468  -1.270  1.00  0.00    -0.028 C 
ATOM      3  C   UNL     1      -0.681   3.882  -0.197  1.00  0.00    -0.077 C 
ATOM      4  C   UNL     1      -0.498   2.915   0.945  1.00  0.00     0.039 C 
BRANCH   3   5
ATOM      5  C   UNL     1      -0.063   5.265  -0.084  1.00  0.00     0.034 C 
BRANCH   5   6
ATOM      6  C   UNL     1       1.453   5.175   0.127  1.00  0.00     0.032 C 
BRANCH   6   7
ATOM      7  C   UNL     1       2.190   5.561  -1.133  1.00  0.00    -0.028 C 
ATOM      8  C   UNL     1       3.414   5.180  -3.250  1.00  0.00     0.039 C 
ATOM      9  C   UNL     1       2.672   4.678  -2.038  1.00  0.00    -0.080 C 
ATOM     10  C   UNL     1       2.442   3.194  -1.908  1.00  0.00     0.039 C 
ENDBRANCH   6   7
ENDBRANCH   5   6
ENDBRANCH   3   5
ENDBRANCH   1   2
BRANCH   1  11
ATOM     11  C   UNL     1      -0.854   3.784  -3.691  1.00  0.00     0.034 C 
BRANCH  11  12
ATOM     12  C   UNL     1      -0.165   4.935  -4.395  1.00  0.00    -0.077 C 
ATOM     13  C   UNL     1      -0.128   6.146  -3.798  1.00  0.00    -0.028 C 
ATOM     14  C   UNL     1       0.449   4.702  -5.755  1.00  0.00     0.039 C 
BRANCH  13  15
ATOM     15  C   UNL     1       0.464   7.387  -4.419  1.00  0.00     0.035 C 
BRANCH  15  16
ATOM     16  C   UNL     1      -0.549   8.535  -4.383  1.00  0.00     0.079 C 
BRANCH  16  17
ATOM     17  C   UNL     1      -0.878   9.000  -5.778  1.00  0.00     0.130 C 
ATOM     18  O   UNL     1      -0.894  10.197  -6.024  1.00  0.00    -0.300 OA
ATOM     19  C   UNL     1      -1.171   8.023  -6.880  1.00  0.00     0.087 C 
ENDBRANCH  16  17
ENDBRANCH  15  16
ENDBRANCH  13  15
ENDBRANCH  11  12
ENDBRANCH   1  11
TORSDOF 9
ENDMDL
MODEL 6
REMARK VINA RESULT:    -3.378      9.968     12.120
REMARK INTER + INTRA:          -8.221
REMARK INTER:                  -5.467
REMARK INTRA:                  -2.754
REMARK UNBOUND:                -3.067
REMARK SMILES CC(=O)CCC=C(C)CCC=C(C)CCC=C(C)C
REMARK SMILES IDX 10 1 11 2 12 3 13 4 14 5 15 6 16 7 18 8 17 9 19 10 9 11 7 12
REMARK SMILES IDX 6 13 8 14 5 15 4 16 2 17 3 18 1 19
REMARK H PARENT
REMARK Flexibility Score: inf
ROOT
ATOM      1  C   UNL     1       1.331  13.645   4.278  1.00  0.00     0.032 C 
ENDROOT
BRANCH   1   2
ATOM      2  C   UNL     1       2.151  14.895   4.501  1.00  0.00    -0.028 C 
ATOM      3  C   UNL     1       2.037  16.057   3.817  1.00  0.00    -0.077 C 
ATOM      4  C   UNL     1       2.951  17.194   4.198  1.00  0.00     0.039 C 
BRANCH   3   5
ATOM      5  C   UNL     1       1.038  16.274   2.693  1.00  0.00     0.034 C 
BRANCH   5   6
ATOM      6  C   UNL     1       0.134  17.477   2.983  1.00  0.00     0.032 C 
BRANCH   6   7
ATOM      7  C   UNL     1      -1.275  17.024   3.284  1.00  0.00    -0.028 C 
ATOM      8  C   UNL     1      -3.190  16.368   4.708  1.00  0.00     0.039 C 
ATOM      9  C   UNL     1      -1.772  16.847   4.530  1.00  0.00    -0.080 C 
ATOM     10  C   UNL     1      -0.968  17.169   5.764  1.00  0.00     0.039 C 
ENDBRANCH   6   7
ENDBRANCH   5   6
ENDBRANCH   3   5
ENDBRANCH   1   2
BRANCH   1  11
ATOM     11  C   UNL     1       0.128  13.617   5.228  1.00  0.00     0.034 C 
BRANCH  11  12
ATOM     12  C   UNL     1      -1.147  13.264   4.489  1.00  0.00    -0.077 C 
ATOM     13  C   UNL     1      -1.176  13.365   3.141  1.00  0.00    -0.028 C 
ATOM     14  C   UNL     1      -2.356  12.825   5.278  1.00  0.00     0.039 C 
BRANCH  13  15
ATOM     15  C   UNL     1      -2.397  13.112   2.293  1.00  0.00     0.035 C 
BRANCH  15  16
ATOM     16  C   UNL     1      -2.123  11.991   1.287  1.00  0.00     0.079 C 
BRANCH  16  17
ATOM     17  C   UNL     1      -1.912  12.553  -0.095  1.00  0.00     0.130 C 
ATOM     18  O   UNL     1      -1.506  11.822  -0.986  1.00  0.00    -0.300 OA
ATOM     19  C   UNL     1      -2.205  13.993  -0.406  1.00  0.00     0.087 C 
ENDBRANCH  16  17
ENDBRANCH  15  16
ENDBRANCH  13  15
ENDBRANCH  11  12
ENDBRANCH   1  11
TORSDOF 9
ENDMDL
MODEL 7
REMARK VINA RESULT:    -3.354      2.508      5.480
REMARK INTER + INTRA:          -8.185
REMARK INTER:                  -5.438
REMARK INTRA:                  -2.746
REMARK UNBOUND:                -3.067
REMARK SMILES CC(=O)CCC=C(C)CCC=C(C)CCC=C(C)C
REMARK SMILES IDX 10 1 11 2 12 3 13 4 14 5 15 6 16 7 18 8 17 9 19 10 9 11 7 12
REMARK SMILES IDX 6 13 8 14 5 15 4 16 2 17 3 18 1 19
REMARK H PARENT
REMARK Flexibility Score: inf
ROOT
ATOM      1  C   UNL     1       0.204   5.079  -5.861  1.00  0.00     0.032 C 
ENDROOT
BRANCH   1   2
ATOM      2  C   UNL     1      -0.301   6.070  -6.884  1.00  0.00    -0.028 C 
ATOM      3  C   UNL     1      -0.956   7.224  -6.621  1.00  0.00    -0.077 C 
ATOM      4  C   UNL     1      -1.375   8.080  -7.790  1.00  0.00     0.039 C 
BRANCH   3   5
ATOM      5  C   UNL     1      -1.286   7.700  -5.217  1.00  0.00     0.034 C 
BRANCH   5   6
ATOM      6  C   UNL     1      -0.724   9.104  -4.965  1.00  0.00     0.032 C 
BRANCH   6   7
ATOM      7  C   UNL     1       0.480   9.041  -4.056  1.00  0.00    -0.028 C 
ATOM      8  C   UNL     1       2.886   8.947  -3.483  1.00  0.00     0.039 C 
ATOM      9  C   UNL     1       1.763   9.037  -4.485  1.00  0.00    -0.080 C 
ATOM     10  C   UNL     1       2.119   9.179  -5.943  1.00  0.00     0.039 C 
ENDBRANCH   6   7
ENDBRANCH   5   6
ENDBRANCH   3   5
ENDBRANCH   1   2
BRANCH   1  11
ATOM     11  C   UNL     1       1.703   5.287  -5.609  1.00  0.00     0.034 C 
BRANCH  11  12
ATOM     12  C   UNL     1       2.010   5.317  -4.126  1.00  0.00    -0.077 C 
ATOM     13  C   UNL     1       0.990   5.385  -3.243  1.00  0.00    -0.028 C 
ATOM     14  C   UNL     1       3.450   5.287  -3.673  1.00  0.00     0.039 C 
BRANCH  13  15
ATOM     15  C   UNL     1       1.161   5.490  -1.747  1.00  0.00     0.035 C 
BRANCH  15  16
ATOM     16  C   UNL     1      -0.171   5.225  -1.040  1.00  0.00     0.079 C 
BRANCH  16  17
ATOM     17  C   UNL     1      -0.638   3.815  -1.290  1.00  0.00     0.130 C 
ATOM     18  O   UNL     1      -0.002   2.879  -0.827  1.00  0.00    -0.300 OA
ATOM     19  C   UNL     1      -1.879   3.532  -2.087  1.00  0.00     0.087 C 
ENDBRANCH  16  17
ENDBRANCH  15  16
ENDBRANCH  13  15
ENDBRANCH  11  12
ENDBRANCH   1  11
TORSDOF 9
ENDMDL
MODEL 8
REMARK VINA RESULT:    -3.342      1.869      2.469
REMARK INTER + INTRA:          -8.167
REMARK INTER:                  -5.304
REMARK INTRA:                  -2.863
REMARK UNBOUND:                -3.067
REMARK SMILES CC(=O)CCC=C(C)CCC=C(C)CCC=C(C)C
REMARK SMILES IDX 10 1 11 2 12 3 13 4 14 5 15 6 16 7 18 8 17 9 19 10 9 11 7 12
REMARK SMILES IDX 6 13 8 14 5 15 4 16 2 17 3 18 1 19
REMARK H PARENT
REMARK Flexibility Score: inf
ROOT
ATOM      1  C   UNL     1       2.342   5.762  -1.358  1.00  0.00     0.032 C 
ENDROOT
BRANCH   1   2
ATOM      2  C   UNL     1       1.687   5.210  -0.113  1.00  0.00    -0.028 C 
ATOM      3  C   UNL     1       0.387   4.857   0.015  1.00  0.00    -0.077 C 
ATOM      4  C   UNL     1      -0.071   4.320   1.348  1.00  0.00     0.039 C 
BRANCH   3   5
ATOM      5  C   UNL     1      -0.628   4.970  -1.109  1.00  0.00     0.034 C 
BRANCH   5   6
ATOM      6  C   UNL     1      -1.382   3.650  -1.308  1.00  0.00     0.032 C 
BRANCH   6   7
ATOM      7  C   UNL     1      -1.396   3.258  -2.766  1.00  0.00    -0.028 C 
ATOM      8  C   UNL     1      -0.619   2.101  -4.810  1.00  0.00     0.039 C 
ATOM      9  C   UNL     1      -0.521   2.399  -3.336  1.00  0.00    -0.080 C 
ATOM     10  C   UNL     1       0.528   1.675  -2.531  1.00  0.00     0.039 C 
ENDBRANCH   6   7
ENDBRANCH   5   6
ENDBRANCH   3   5
ENDBRANCH   1   2
BRANCH   1  11
ATOM     11  C   UNL     1       2.836   4.620  -2.254  1.00  0.00     0.034 C 
BRANCH  11  12
ATOM     12  C   UNL     1       2.345   4.789  -3.678  1.00  0.00    -0.077 C 
ATOM     13  C   UNL     1       1.524   5.820  -3.974  1.00  0.00    -0.028 C 
ATOM     14  C   UNL     1       2.774   3.790  -4.726  1.00  0.00     0.039 C 
BRANCH  13  15
ATOM     15  C   UNL     1       0.911   6.061  -5.331  1.00  0.00     0.035 C 
BRANCH  15  16
ATOM     16  C   UNL     1      -0.582   5.721  -5.309  1.00  0.00     0.079 C 
BRANCH  16  17
ATOM     17  C   UNL     1      -1.391   6.900  -4.833  1.00  0.00     0.130 C 
ATOM     18  O   UNL     1      -1.984   6.830  -3.767  1.00  0.00    -0.300 OA
ATOM     19  C   UNL     1      -1.471   8.168  -5.634  1.00  0.00     0.087 C 
ENDBRANCH  16  17
ENDBRANCH  15  16
ENDBRANCH  13  15
ENDBRANCH  11  12
ENDBRANCH   1  11
TORSDOF 9
ENDMDL
MODEL 9
REMARK VINA RESULT:    -3.283      1.426      4.068
REMARK INTER + INTRA:          -8.077
REMARK INTER:                  -5.040
REMARK INTRA:                  -3.037
REMARK UNBOUND:                -3.067
REMARK SMILES CC(=O)CCC=C(C)CCC=C(C)CCC=C(C)C
REMARK SMILES IDX 10 1 11 2 12 3 13 4 14 5 15 6 16 7 18 8 17 9 19 10 9 11 7 12
REMARK SMILES IDX 6 13 8 14 5 15 4 16 2 17 3 18 1 19
REMARK H PARENT
REMARK Flexibility Score: inf
ROOT
ATOM      1  C   UNL     1      -1.365   2.530  -3.285  1.00  0.00     0.032 C 
ENDROOT
BRANCH   1   2
ATOM      2  C   UNL     1      -0.444   1.624  -4.068  1.00  0.00    -0.028 C 
ATOM      3  C   UNL     1       0.239   1.957  -5.188  1.00  0.00    -0.077 C 
ATOM      4  C   UNL     1       1.113   0.904  -5.821  1.00  0.00     0.039 C 
BRANCH   3   5
ATOM      5  C   UNL     1       0.174   3.330  -5.834  1.00  0.00     0.034 C 
BRANCH   5   6
ATOM      6  C   UNL     1       1.578   3.914  -6.032  1.00  0.00     0.032 C 
BRANCH   6   7
ATOM      7  C   UNL     1       1.779   5.128  -5.157  1.00  0.00    -0.028 C 
ATOM      8  C   UNL     1       2.462   6.375  -3.132  1.00  0.00     0.039 C 
ATOM      9  C   UNL     1       2.334   5.099  -3.924  1.00  0.00    -0.080 C 
ATOM     10  C   UNL     1       2.889   3.831  -3.327  1.00  0.00     0.039 C 
ENDBRANCH   6   7
ENDBRANCH   5   6
ENDBRANCH   3   5
ENDBRANCH   1   2
BRANCH   1  11
ATOM     11  C   UNL     1      -0.633   3.116  -2.071  1.00  0.00     0.034 C 
BRANCH  11  12
ATOM     12  C   UNL     1      -0.731   4.628  -2.050  1.00  0.00    -0.077 C 
ATOM     13  C   UNL     1      -1.245   5.270  -3.123  1.00  0.00    -0.028 C 
ATOM     14  C   UNL     1      -0.235   5.380  -0.838  1.00  0.00     0.039 C 
BRANCH  13  15
ATOM     15  C   UNL     1      -1.334   6.771  -3.258  1.00  0.00     0.035 C 
BRANCH  15  16
ATOM     16  C   UNL     1      -1.538   7.162  -4.724  1.00  0.00     0.079 C 
BRANCH  16  17
ATOM     17  C   UNL     1      -0.943   8.518  -5.002  1.00  0.00     0.130 C 
ATOM     18  O   UNL     1      -1.377   9.186  -5.929  1.00  0.00    -0.300 OA
ATOM     19  C   UNL     1       0.163   9.076  -4.153  1.00  0.00     0.087 C 
ENDBRANCH  16  17
ENDBRANCH  15  16
ENDBRANCH  13  15
ENDBRANCH  11  12
ENDBRANCH   1  11
TORSDOF 9
ENDMDL
