MODEL 1
REMARK VINA RESULT:    -5.770      0.000      0.000
REMARK INTER + INTRA:          -6.591
REMARK INTER:                  -6.445
REMARK INTRA:                  -0.146
REMARK UNBOUND:                -0.146
REMARK SMILES COc1cc2ccc(=O)oc2cc1OC
REMARK SMILES IDX 3 1 13 2 12 3 11 4 5 5 4 6 6 7 7 8 8 9 9 10 10 11 2 12 1 13
REMARK SMILES IDX 14 14 15 15
REMARK H PARENT
REMARK Flexibility Score: inf
ROOT
ATOM      1  C   UNL     1       7.700  11.184   5.726  1.00  0.00     0.161 A 
ATOM      2  C   UNL     1       8.194  11.369   7.029  1.00  0.00     0.164 A 
ATOM      3  C   UNL     1       7.326  11.240   8.131  1.00  0.00     0.098 A 
ATOM      4  C   UNL     1       5.978  10.929   7.938  1.00  0.00     0.142 A 
ATOM      5  C   UNL     1       5.482  10.742   6.632  1.00  0.00     0.022 A 
ATOM      6  C   UNL     1       6.340  10.870   5.533  1.00  0.00     0.062 A 
ATOM      7  C   UNL     1       4.127  10.432   6.472  1.00  0.00     0.019 A 
ATOM      8  C   UNL     1       3.313  10.316   7.597  1.00  0.00     0.094 A 
ATOM      9  C   UNL     1       3.875  10.514   8.863  1.00  0.00     0.336 A 
ATOM     10  O   UNL     1       3.158  10.414   9.893  1.00  0.00    -0.246 OA
ATOM     11  O   UNL     1       5.167  10.809   8.987  1.00  0.00    -0.423 OA
ENDROOT
BRANCH   1  12
ATOM     12  O   UNL     1       8.592  11.320   4.651  1.00  0.00    -0.493 OA
ATOM     13  C   UNL     1       8.628  12.437   3.768  1.00  0.00     0.278 C 
ENDBRANCH   1  12
BRANCH   2  14
ATOM     14  O   UNL     1       9.554  11.681   7.186  1.00  0.00    -0.493 OA
ATOM     15  C   UNL     1      10.044  12.875   7.785  1.00  0.00     0.278 C 
ENDBRANCH   2  14
TORSDOF 2
ENDMDL
MODEL 2
REMARK VINA RESULT:    -5.462      1.112      2.685
REMARK INTER + INTRA:          -6.247
REMARK INTER:                  -6.127
REMARK INTRA:                  -0.120
REMARK UNBOUND:                -0.146
REMARK SMILES COc1cc2ccc(=O)oc2cc1OC
REMARK SMILES IDX 3 1 13 2 12 3 11 4 5 5 4 6 6 7 7 8 8 9 9 10 10 11 2 12 1 13
REMARK SMILES IDX 14 14 15 15
REMARK H PARENT
REMARK Flexibility Score: inf
ROOT
ATOM      1  C   UNL     1       8.296  11.604   7.039  1.00  0.00     0.161 A 
ATOM      2  C   UNL     1       7.841  11.325   5.738  1.00  0.00     0.164 A 
ATOM      3  C   UNL     1       6.495  10.965   5.530  1.00  0.00     0.098 A 
ATOM      4  C   UNL     1       5.609  10.883   6.607  1.00  0.00     0.142 A 
ATOM      5  C   UNL     1       6.065  11.162   7.911  1.00  0.00     0.022 A 
ATOM      6  C   UNL     1       7.401  11.520   8.124  1.00  0.00     0.062 A 
ATOM      7  C   UNL     1       5.153  11.071   8.969  1.00  0.00     0.019 A 
ATOM      8  C   UNL     1       3.832  10.710   8.707  1.00  0.00     0.094 A 
ATOM      9  C   UNL     1       3.452  10.448   7.385  1.00  0.00     0.336 A 
ATOM     10  O   UNL     1       2.264  10.120   7.127  1.00  0.00    -0.246 OA
ATOM     11  O   UNL     1       4.340  10.541   6.398  1.00  0.00    -0.423 OA
ENDROOT
BRANCH   1  12
ATOM     12  O   UNL     1       9.642  11.959   7.210  1.00  0.00    -0.493 OA
ATOM     13  C   UNL     1      10.110  12.923   8.147  1.00  0.00     0.278 C 
ENDBRANCH   1  12
BRANCH   2  14
ATOM     14  O   UNL     1       8.758  11.417   4.679  1.00  0.00    -0.493 OA
ATOM     15  C   UNL     1       8.648  12.332   3.594  1.00  0.00     0.278 C 
ENDBRANCH   2  14
TORSDOF 2
ENDMDL
MODEL 3
REMARK VINA RESULT:    -4.734      1.418      5.047
REMARK INTER + INTRA:          -5.434
REMARK INTER:                  -5.529
REMARK INTRA:                   0.095
REMARK UNBOUND:                -0.146
REMARK SMILES COc1cc2ccc(=O)oc2cc1OC
REMARK SMILES IDX 3 1 13 2 12 3 11 4 5 5 4 6 6 7 7 8 8 9 9 10 10 11 2 12 1 13
REMARK SMILES IDX 14 14 15 15
REMARK H PARENT
REMARK Flexibility Score: inf
ROOT
ATOM      1  C   UNL     1       4.712  10.368   6.782  1.00  0.00     0.161 A 
ATOM      2  C   UNL     1       5.568  10.386   7.898  1.00  0.00     0.164 A 
ATOM      3  C   UNL     1       6.846  10.968   7.790  1.00  0.00     0.098 A 
ATOM      4  C   UNL     1       7.269  11.528   6.582  1.00  0.00     0.142 A 
ATOM      5  C   UNL     1       6.412  11.510   5.463  1.00  0.00     0.022 A 
ATOM      6  C   UNL     1       5.141  10.933   5.565  1.00  0.00     0.062 A 
ATOM      7  C   UNL     1       6.866  12.079   4.267  1.00  0.00     0.019 A 
ATOM      8  C   UNL     1       8.140  12.641   4.216  1.00  0.00     0.094 A 
ATOM      9  C   UNL     1       8.935  12.622   5.367  1.00  0.00     0.336 A 
ATOM     10  O   UNL     1      10.089  13.125   5.342  1.00  0.00    -0.246 OA
ATOM     11  O   UNL     1       8.480  12.075   6.492  1.00  0.00    -0.423 OA
ENDROOT
BRANCH   1  12
ATOM     12  O   UNL     1       3.446   9.780   6.926  1.00  0.00    -0.493 OA
ATOM     13  C   UNL     1       2.253  10.497   7.225  1.00  0.00     0.278 C 
ENDBRANCH   1  12
BRANCH   2  14
ATOM     14  O   UNL     1       5.110   9.815   9.096  1.00  0.00    -0.493 OA
ATOM     15  C   UNL     1       4.230  10.458  10.012  1.00  0.00     0.278 C 
ENDBRANCH   2  14
TORSDOF 2
ENDMDL
MODEL 4
REMARK VINA RESULT:    -4.724      1.863      5.090
REMARK INTER + INTRA:          -5.422
REMARK INTER:                  -5.272
REMARK INTRA:                  -0.150
REMARK UNBOUND:                -0.146
REMARK SMILES COc1cc2ccc(=O)oc2cc1OC
REMARK SMILES IDX 3 1 13 2 12 3 11 4 5 5 4 6 6 7 7 8 8 9 9 10 10 11 2 12 1 13
REMARK SMILES IDX 14 14 15 15
REMARK H PARENT
REMARK Flexibility Score: inf
ROOT
ATOM      1  C   UNL     1       4.565  10.458   7.747  1.00  0.00     0.161 A 
ATOM      2  C   UNL     1       4.543  11.314   8.862  1.00  0.00     0.164 A 
ATOM      3  C   UNL     1       5.707  12.020   9.225  1.00  0.00     0.098 A 
ATOM      4  C   UNL     1       6.882  11.875   8.484  1.00  0.00     0.142 A 
ATOM      5  C   UNL     1       6.904  11.018   7.365  1.00  0.00     0.022 A 
ATOM      6  C   UNL     1       5.751  10.314   7.000  1.00  0.00     0.062 A 
ATOM      7  C   UNL     1       8.098  10.895   6.644  1.00  0.00     0.019 A 
ATOM      8  C   UNL     1       9.220  11.616   7.047  1.00  0.00     0.094 A 
ATOM      9  C   UNL     1       9.123  12.449   8.168  1.00  0.00     0.336 A 
ATOM     10  O   UNL     1      10.125  13.109   8.549  1.00  0.00    -0.246 OA
ATOM     11  O   UNL     1       7.976  12.547   8.836  1.00  0.00    -0.423 OA
ENDROOT
BRANCH   1  12
ATOM     12  O   UNL     1       3.387   9.771   7.414  1.00  0.00    -0.493 OA
ATOM     13  C   UNL     1       2.520  10.127   6.343  1.00  0.00     0.278 C 
ENDBRANCH   1  12
BRANCH   2  14
ATOM     14  O   UNL     1       3.345  11.435   9.584  1.00  0.00    -0.493 OA
ATOM     15  C   UNL     1       2.366  12.444   9.359  1.00  0.00     0.278 C 
ENDBRANCH   2  14
TORSDOF 2
ENDMDL
MODEL 5
REMARK VINA RESULT:    -4.699      1.647      5.626
REMARK INTER + INTRA:          -5.394
REMARK INTER:                  -5.615
REMARK INTRA:                   0.221
REMARK UNBOUND:                -0.146
REMARK SMILES COc1cc2ccc(=O)oc2cc1OC
REMARK SMILES IDX 3 1 13 2 12 3 11 4 5 5 4 6 6 7 7 8 8 9 9 10 10 11 2 12 1 13
REMARK SMILES IDX 14 14 15 15
REMARK H PARENT
REMARK Flexibility Score: inf
ROOT
ATOM      1  C   UNL     1       5.875  11.584   7.758  1.00  0.00     0.161 A 
ATOM      2  C   UNL     1       5.272  10.890   6.695  1.00  0.00     0.164 A 
ATOM      3  C   UNL     1       5.846  10.942   5.409  1.00  0.00     0.098 A 
ATOM      4  C   UNL     1       7.011  11.680   5.185  1.00  0.00     0.142 A 
ATOM      5  C   UNL     1       7.617  12.376   6.250  1.00  0.00     0.022 A 
ATOM      6  C   UNL     1       7.050  12.328   7.529  1.00  0.00     0.062 A 
ATOM      7  C   UNL     1       8.783  13.106   5.992  1.00  0.00     0.019 A 
ATOM      8  C   UNL     1       9.308  13.124   4.701  1.00  0.00     0.094 A 
ATOM      9  C   UNL     1       8.652  12.408   3.692  1.00  0.00     0.336 A 
ATOM     10  O   UNL     1       9.110  12.411   2.520  1.00  0.00    -0.246 OA
ATOM     11  O   UNL     1       7.544  11.723   3.965  1.00  0.00    -0.423 OA
ENDROOT
BRANCH   1  12
ATOM     12  O   UNL     1       5.277  11.510   9.025  1.00  0.00    -0.493 OA
ATOM     13  C   UNL     1       4.130  12.255   9.421  1.00  0.00     0.278 C 
ENDBRANCH   1  12
BRANCH   2  14
ATOM     14  O   UNL     1       4.103  10.159   6.957  1.00  0.00    -0.493 OA
ATOM     15  C   UNL     1       4.049   8.979   7.753  1.00  0.00     0.278 C 
ENDBRANCH   2  14
TORSDOF 2
ENDMDL
MODEL 6
REMARK VINA RESULT:    -4.654      1.515      5.548
REMARK INTER + INTRA:          -5.344
REMARK INTER:                  -5.337
REMARK INTRA:                  -0.007
REMARK UNBOUND:                -0.146
REMARK SMILES COc1cc2ccc(=O)oc2cc1OC
REMARK SMILES IDX 3 1 13 2 12 3 11 4 5 5 4 6 6 7 7 8 8 9 9 10 10 11 2 12 1 13
REMARK SMILES IDX 14 14 15 15
REMARK H PARENT
REMARK Flexibility Score: inf
ROOT
ATOM      1  C   UNL     1       5.114  11.508   8.508  1.00  0.00     0.161 A 
ATOM      2  C   UNL     1       5.036  10.585   7.450  1.00  0.00     0.164 A 
ATOM      3  C   UNL     1       6.075  10.520   6.501  1.00  0.00     0.098 A 
ATOM      4  C   UNL     1       7.182  11.366   6.604  1.00  0.00     0.142 A 
ATOM      5  C   UNL     1       7.260  12.291   7.664  1.00  0.00     0.022 A 
ATOM      6  C   UNL     1       6.231  12.361   8.610  1.00  0.00     0.062 A 
ATOM      7  C   UNL     1       8.382  13.125   7.739  1.00  0.00     0.019 A 
ATOM      8  C   UNL     1       9.381  13.019   6.772  1.00  0.00     0.094 A 
ATOM      9  C   UNL     1       9.235  12.076   5.748  1.00  0.00     0.336 A 
ATOM     10  O   UNL     1      10.125  11.963   4.865  1.00  0.00    -0.246 OA
ATOM     11  O   UNL     1       8.157  11.296   5.700  1.00  0.00    -0.423 OA
ENDROOT
BRANCH   1  12
ATOM     12  O   UNL     1       4.061  11.546   9.435  1.00  0.00    -0.493 OA
ATOM     13  C   UNL     1       2.854  12.278   9.256  1.00  0.00     0.278 C 
ENDBRANCH   1  12
BRANCH   2  14
ATOM     14  O   UNL     1       3.910   9.750   7.378  1.00  0.00    -0.493 OA
ATOM     15  C   UNL     1       3.757   8.535   8.105  1.00  0.00     0.278 C 
ENDBRANCH   2  14
TORSDOF 2
ENDMDL
MODEL 7
REMARK VINA RESULT:    -4.616      2.082      3.441
REMARK INTER + INTRA:          -5.302
REMARK INTER:                  -5.284
REMARK INTRA:                  -0.018
REMARK UNBOUND:                -0.146
REMARK SMILES COc1cc2ccc(=O)oc2cc1OC
REMARK SMILES IDX 3 1 13 2 12 3 11 4 5 5 4 6 6 7 7 8 8 9 9 10 10 11 2 12 1 13
REMARK SMILES IDX 14 14 15 15
REMARK H PARENT
REMARK Flexibility Score: inf
ROOT
ATOM      1  C   UNL     1       6.433  11.743   8.259  1.00  0.00     0.161 A 
ATOM      2  C   UNL     1       5.972  10.755   7.371  1.00  0.00     0.164 A 
ATOM      3  C   UNL     1       4.592  10.492   7.273  1.00  0.00     0.098 A 
ATOM      4  C   UNL     1       3.678  11.205   8.053  1.00  0.00     0.142 A 
ATOM      5  C   UNL     1       4.140  12.195   8.944  1.00  0.00     0.022 A 
ATOM      6  C   UNL     1       5.510  12.461   9.045  1.00  0.00     0.062 A 
ATOM      7  C   UNL     1       3.199  12.892   9.711  1.00  0.00     0.019 A 
ATOM      8  C   UNL     1       1.845  12.590   9.575  1.00  0.00     0.094 A 
ATOM      9  C   UNL     1       1.460  11.594   8.670  1.00  0.00     0.336 A 
ATOM     10  O   UNL     1       0.243  11.307   8.532  1.00  0.00    -0.246 OA
ATOM     11  O   UNL     1       2.376  10.947   7.953  1.00  0.00    -0.423 OA
ENDROOT
BRANCH   1  12
ATOM     12  O   UNL     1       7.815  11.979   8.331  1.00  0.00    -0.493 OA
ATOM     13  C   UNL     1       8.407  13.125   8.934  1.00  0.00     0.278 C 
ENDBRANCH   1  12
BRANCH   2  14
ATOM     14  O   UNL     1       6.918  10.059   6.603  1.00  0.00    -0.493 OA
ATOM     15  C   UNL     1       7.509  10.554   5.406  1.00  0.00     0.278 C 
ENDBRANCH   2  14
TORSDOF 2
ENDMDL
