MODEL 1
REMARK VINA RESULT:    -4.157      0.000      0.000
REMARK INTER + INTRA:          -9.849
REMARK INTER:                  -7.560
REMARK INTRA:                  -2.289
REMARK UNBOUND:                -2.289
REMARK SMILES CCCCCCCCCCCCCC[C@@H](C)C(=O)[O-]
REMARK SMILES IDX 9 1 10 2 11 3 12 4 13 5 14 6 15 7 16 8 17 9 18 10 19 11 8 12
REMARK SMILES IDX 7 13 6 14 5 15 4 16 3 17 2 18 1 19
REMARK H PARENT
REMARK Flexibility Score: inf
ROOT
ATOM      1  C   UNL     1     173.934 174.851 150.794  1.00  0.00     0.000 C 
ENDROOT
BRANCH   1   2
ATOM      2  C   UNL     1     173.575 176.342 150.883  1.00  0.00     0.000 C 
BRANCH   2   3
ATOM      3  C   UNL     1     174.698 177.260 150.370  1.00  0.00     0.000 C 
BRANCH   3   4
ATOM      4  C   UNL     1     175.432 178.068 151.460  1.00  0.00     0.000 C 
BRANCH   4   5
ATOM      5  C   UNL     1     174.720 178.121 152.822  1.00  0.00     0.001 C 
BRANCH   5   6
ATOM      6  C   UNL     1     175.664 177.838 154.004  1.00  0.00     0.009 C 
BRANCH   6   7
ATOM      7  C   UNL     1     174.905 177.317 155.241  1.00  0.00     0.032 C 
ATOM      8  C   UNL     1     173.447 177.010 154.888  1.00  0.00     0.014 C 
BRANCH   7   9
ATOM      9  C   UNL     1     175.560 176.084 155.805  1.00  0.00     0.044 C 
ATOM     10  O   UNL     1     176.513 175.538 155.190  1.00  0.00    -0.550 OA
ATOM     11  O   UNL     1     175.122 175.543 157.008  1.00  0.00    -0.550 OA
ENDBRANCH   7   9
ENDBRANCH   6   7
ENDBRANCH   5   6
ENDBRANCH   4   5
ENDBRANCH   3   4
ENDBRANCH   2   3
ENDBRANCH   1   2
BRANCH   1  12
ATOM     12  C   UNL     1     174.452 174.330 152.143  1.00  0.00     0.000 C 
BRANCH  12  13
ATOM     13  C   UNL     1     175.985 174.361 152.241  1.00  0.00    -0.000 C 
BRANCH  13  14
ATOM     14  C   UNL     1     176.664 174.410 150.860  1.00  0.00    -0.000 C 
BRANCH  14  15
ATOM     15  C   UNL     1     177.380 173.098 150.504  1.00  0.00    -0.000 C 
BRANCH  15  16
ATOM     16  C   UNL     1     176.495 172.150 149.674  1.00  0.00    -0.000 C 
BRANCH  16  17
ATOM     17  C   UNL     1     176.008 170.938 150.485  1.00  0.00    -0.000 C 
BRANCH  17  18
ATOM     18  C   UNL     1     174.491 170.723 150.376  1.00  0.00    -0.003 C 
ATOM     19  C   UNL     1     173.931 171.392 149.125  1.00  0.00     0.004 C 
ENDBRANCH  17  18
ENDBRANCH  16  17
ENDBRANCH  15  16
ENDBRANCH  14  15
ENDBRANCH  13  14
ENDBRANCH  12  13
ENDBRANCH   1  12
TORSDOF 14
ENDMDL
MODEL 2
REMARK VINA RESULT:    -3.933      1.493      2.633
REMARK INTER + INTRA:          -9.440
REMARK INTER:                  -7.538
REMARK INTRA:                  -1.902
REMARK UNBOUND:                -2.289
REMARK SMILES CCCCCCCCCCCCCC[C@@H](C)C(=O)[O-]
REMARK SMILES IDX 9 1 10 2 11 3 12 4 13 5 14 6 15 7 16 8 17 9 18 10 19 11 8 12
REMARK SMILES IDX 7 13 6 14 5 15 4 16 3 17 2 18 1 19
REMARK H PARENT
REMARK Flexibility Score: inf
ROOT
ATOM      1  C   UNL     1     173.704 176.950 150.620  1.00  0.00     0.000 C 
ENDROOT
BRANCH   1   2
ATOM      2  C   UNL     1     173.861 178.123 151.598  1.00  0.00     0.000 C 
BRANCH   2   3
ATOM      3  C   UNL     1     175.135 178.020 152.456  1.00  0.00     0.000 C 
BRANCH   3   4
ATOM      4  C   UNL     1     174.911 177.549 153.907  1.00  0.00     0.000 C 
BRANCH   4   5
ATOM      5  C   UNL     1     175.893 176.472 154.401  1.00  0.00     0.001 C 
BRANCH   5   6
ATOM      6  C   UNL     1     175.489 175.871 155.759  1.00  0.00     0.009 C 
BRANCH   6   7
ATOM      7  C   UNL     1     176.443 174.741 156.199  1.00  0.00     0.032 C 
ATOM      8  C   UNL     1     176.147 174.317 157.640  1.00  0.00     0.014 C 
BRANCH   7   9
ATOM      9  C   UNL     1     176.335 173.548 155.287  1.00  0.00     0.044 C 
ATOM     10  O   UNL     1     175.241 172.935 155.175  1.00  0.00    -0.550 OA
ATOM     11  O   UNL     1     177.439 173.118 154.560  1.00  0.00    -0.550 OA
ENDBRANCH   7   9
ENDBRANCH   6   7
ENDBRANCH   5   6
ENDBRANCH   4   5
ENDBRANCH   3   4
ENDBRANCH   2   3
ENDBRANCH   1   2
BRANCH   1  12
ATOM     12  C   UNL     1     173.007 175.760 151.296  1.00  0.00     0.000 C 
BRANCH  12  13
ATOM     13  C   UNL     1     173.627 174.410 150.904  1.00  0.00    -0.000 C 
BRANCH  13  14
ATOM     14  C   UNL     1     174.808 174.017 151.809  1.00  0.00    -0.000 C 
BRANCH  14  15
ATOM     15  C   UNL     1     176.164 174.470 151.244  1.00  0.00    -0.000 C 
BRANCH  15  16
ATOM     16  C   UNL     1     177.144 173.299 151.053  1.00  0.00    -0.000 C 
BRANCH  16  17
ATOM     17  C   UNL     1     176.943 172.576 149.712  1.00  0.00    -0.000 C 
BRANCH  17  18
ATOM     18  C   UNL     1     176.322 171.181 149.877  1.00  0.00    -0.003 C 
ATOM     19  C   UNL     1     174.878 171.162 149.387  1.00  0.00     0.004 C 
ENDBRANCH  17  18
ENDBRANCH  16  17
ENDBRANCH  15  16
ENDBRANCH  14  15
ENDBRANCH  13  14
ENDBRANCH  12  13
ENDBRANCH   1  12
TORSDOF 14
ENDMDL
MODEL 3
REMARK VINA RESULT:    -3.925      2.428      6.103
REMARK INTER + INTRA:          -9.426
REMARK INTER:                  -7.138
REMARK INTRA:                  -2.288
REMARK UNBOUND:                -2.289
REMARK SMILES CCCCCCCCCCCCCC[C@@H](C)C(=O)[O-]
REMARK SMILES IDX 9 1 10 2 11 3 12 4 13 5 14 6 15 7 16 8 17 9 18 10 19 11 8 12
REMARK SMILES IDX 7 13 6 14 5 15 4 16 3 17 2 18 1 19
REMARK H PARENT
REMARK Flexibility Score: inf
ROOT
ATOM      1  C   UNL     1     173.349 174.361 150.787  1.00  0.00     0.000 C 
ENDROOT
BRANCH   1   2
ATOM      2  C   UNL     1     173.943 175.775 150.884  1.00  0.00     0.000 C 
BRANCH   2   3
ATOM      3  C   UNL     1     175.481 175.781 150.855  1.00  0.00     0.000 C 
BRANCH   3   4
ATOM      4  C   UNL     1     176.152 174.511 151.417  1.00  0.00     0.000 C 
BRANCH   4   5
ATOM      5  C   UNL     1     177.283 173.932 150.549  1.00  0.00     0.001 C 
BRANCH   5   6
ATOM      6  C   UNL     1     176.905 172.597 149.885  1.00  0.00     0.009 C 
BRANCH   6   7
ATOM      7  C   UNL     1     175.904 171.789 150.736  1.00  0.00     0.032 C 
ATOM      8  C   UNL     1     174.903 171.056 149.839  1.00  0.00     0.014 C 
BRANCH   7   9
ATOM      9  C   UNL     1     176.613 170.797 151.620  1.00  0.00     0.044 C 
ATOM     10  O   UNL     1     176.964 171.127 152.784  1.00  0.00    -0.550 OA
ATOM     11  O   UNL     1     176.884 169.514 151.160  1.00  0.00    -0.550 OA
ENDBRANCH   7   9
ENDBRANCH   6   7
ENDBRANCH   5   6
ENDBRANCH   4   5
ENDBRANCH   3   4
ENDBRANCH   2   3
ENDBRANCH   1   2
BRANCH   1  12
ATOM     12  C   UNL     1     172.081 174.239 151.644  1.00  0.00     0.000 C 
BRANCH  12  13
ATOM     13  C   UNL     1     172.243 174.871 153.036  1.00  0.00    -0.000 C 
BRANCH  13  14
ATOM     14  C   UNL     1     171.251 176.022 153.282  1.00  0.00    -0.000 C 
BRANCH  14  15
ATOM     15  C   UNL     1     171.948 177.327 153.697  1.00  0.00    -0.000 C 
BRANCH  15  16
ATOM     16  C   UNL     1     173.327 177.081 154.335  1.00  0.00    -0.000 C 
BRANCH  16  17
ATOM     17  C   UNL     1     174.438 177.915 153.676  1.00  0.00    -0.000 C 
BRANCH  17  18
ATOM     18  C   UNL     1     175.839 177.541 154.182  1.00  0.00    -0.003 C 
ATOM     19  C   UNL     1     175.848 176.141 154.788  1.00  0.00     0.004 C 
ENDBRANCH  17  18
ENDBRANCH  16  17
ENDBRANCH  15  16
ENDBRANCH  14  15
ENDBRANCH  13  14
ENDBRANCH  12  13
ENDBRANCH   1  12
TORSDOF 14
ENDMDL
MODEL 4
REMARK VINA RESULT:    -3.916      2.285      6.055
REMARK INTER + INTRA:          -9.410
REMARK INTER:                  -7.378
REMARK INTRA:                  -2.032
REMARK UNBOUND:                -2.289
REMARK SMILES CCCCCCCCCCCCCC[C@@H](C)C(=O)[O-]
REMARK SMILES IDX 9 1 10 2 11 3 12 4 13 5 14 6 15 7 16 8 17 9 18 10 19 11 8 12
REMARK SMILES IDX 7 13 6 14 5 15 4 16 3 17 2 18 1 19
REMARK H PARENT
REMARK Flexibility Score: inf
ROOT
ATOM      1  C   UNL     1     174.608 174.661 151.175  1.00  0.00     0.000 C 
ENDROOT
BRANCH   1   2
ATOM      2  C   UNL     1     176.120 174.921 151.123  1.00  0.00     0.000 C 
BRANCH   2   3
ATOM      3  C   UNL     1     176.933 173.658 150.788  1.00  0.00     0.000 C 
BRANCH   3   4
ATOM      4  C   UNL     1     176.159 172.565 150.024  1.00  0.00     0.000 C 
BRANCH   4   5
ATOM      5  C   UNL     1     176.641 171.126 150.278  1.00  0.00     0.001 C 
BRANCH   5   6
ATOM      6  C   UNL     1     175.545 170.223 150.870  1.00  0.00     0.009 C 
BRANCH   6   7
ATOM      7  C   UNL     1     175.462 170.342 152.406  1.00  0.00     0.032 C 
ATOM      8  C   UNL     1     174.649 169.186 152.993  1.00  0.00     0.014 C 
BRANCH   7   9
ATOM      9  C   UNL     1     176.834 170.364 153.027  1.00  0.00     0.044 C 
ATOM     10  O   UNL     1     177.534 169.318 153.049  1.00  0.00    -0.550 OA
ATOM     11  O   UNL     1     177.338 171.537 153.576  1.00  0.00    -0.550 OA
ENDBRANCH   7   9
ENDBRANCH   6   7
ENDBRANCH   5   6
ENDBRANCH   4   5
ENDBRANCH   3   4
ENDBRANCH   2   3
ENDBRANCH   1   2
BRANCH   1  12
ATOM     12  C   UNL     1     173.821 175.910 150.749  1.00  0.00     0.000 C 
BRANCH  12  13
ATOM     13  C   UNL     1     174.558 177.216 151.085  1.00  0.00    -0.000 C 
BRANCH  13  14
ATOM     14  C   UNL     1     173.756 178.118 152.041  1.00  0.00    -0.000 C 
BRANCH  14  15
ATOM     15  C   UNL     1     174.327 178.124 153.468  1.00  0.00    -0.000 C 
BRANCH  15  16
ATOM     16  C   UNL     1     175.824 177.767 153.506  1.00  0.00    -0.000 C 
BRANCH  16  17
ATOM     17  C   UNL     1     176.144 176.682 154.546  1.00  0.00    -0.000 C 
BRANCH  17  18
ATOM     18  C   UNL     1     175.027 175.636 154.675  1.00  0.00    -0.003 C 
ATOM     19  C   UNL     1     175.603 174.248 154.937  1.00  0.00     0.004 C 
ENDBRANCH  17  18
ENDBRANCH  16  17
ENDBRANCH  15  16
ENDBRANCH  14  15
ENDBRANCH  13  14
ENDBRANCH  12  13
ENDBRANCH   1  12
TORSDOF 14
ENDMDL
MODEL 5
REMARK VINA RESULT:    -3.905     10.207     11.972
REMARK INTER + INTRA:          -9.391
REMARK INTER:                  -7.232
REMARK INTRA:                  -2.158
REMARK UNBOUND:                -2.289
REMARK SMILES CCCCCCCCCCCCCC[C@@H](C)C(=O)[O-]
REMARK SMILES IDX 9 1 10 2 11 3 12 4 13 5 14 6 15 7 16 8 17 9 18 10 19 11 8 12
REMARK SMILES IDX 7 13 6 14 5 15 4 16 3 17 2 18 1 19
REMARK H PARENT
REMARK Flexibility Score: inf
ROOT
ATOM      1  C   UNL     1     163.598 175.393 152.823  1.00  0.00     0.000 C 
ENDROOT
BRANCH   1   2
ATOM      2  C   UNL     1     164.183 174.374 151.834  1.00  0.00     0.000 C 
BRANCH   2   3
ATOM      3  C   UNL     1     164.378 174.955 150.422  1.00  0.00     0.000 C 
BRANCH   3   4
ATOM      4  C   UNL     1     165.810 174.842 149.860  1.00  0.00     0.000 C 
BRANCH   4   5
ATOM      5  C   UNL     1     166.603 176.160 149.826  1.00  0.00     0.001 C 
BRANCH   5   6
ATOM      6  C   UNL     1     167.883 176.111 150.678  1.00  0.00     0.009 C 
BRANCH   6   7
ATOM      7  C   UNL     1     167.573 175.970 152.183  1.00  0.00     0.032 C 
ATOM      8  C   UNL     1     168.322 174.775 152.777  1.00  0.00     0.014 C 
BRANCH   7   9
ATOM      9  C   UNL     1     167.938 177.223 152.935  1.00  0.00     0.044 C 
ATOM     10  O   UNL     1     169.143 177.470 153.203  1.00  0.00    -0.550 OA
ATOM     11  O   UNL     1     166.950 178.114 153.336  1.00  0.00    -0.550 OA
ENDBRANCH   7   9
ENDBRANCH   6   7
ENDBRANCH   5   6
ENDBRANCH   4   5
ENDBRANCH   3   4
ENDBRANCH   2   3
ENDBRANCH   1   2
BRANCH   1  12
ATOM     12  C   UNL     1     163.753 176.825 152.291  1.00  0.00     0.000 C 
BRANCH  12  13
ATOM     13  C   UNL     1     162.413 177.574 152.209  1.00  0.00    -0.000 C 
BRANCH  13  14
ATOM     14  C   UNL     1     161.824 177.578 150.787  1.00  0.00    -0.000 C 
BRANCH  14  15
ATOM     15  C   UNL     1     160.638 176.612 150.635  1.00  0.00    -0.000 C 
BRANCH  15  16
ATOM     16  C   UNL     1     160.065 176.164 151.991  1.00  0.00    -0.000 C 
BRANCH  16  17
ATOM     17  C   UNL     1     159.447 174.757 151.934  1.00  0.00    -0.000 C 
BRANCH  17  18
ATOM     18  C   UNL     1     160.506 173.645 151.909  1.00  0.00    -0.003 C 
ATOM     19  C   UNL     1     159.883 172.302 151.541  1.00  0.00     0.004 C 
ENDBRANCH  17  18
ENDBRANCH  16  17
ENDBRANCH  15  16
ENDBRANCH  14  15
ENDBRANCH  13  14
ENDBRANCH  12  13
ENDBRANCH   1  12
TORSDOF 14
ENDMDL
MODEL 6
REMARK VINA RESULT:    -3.900     10.392     12.543
REMARK INTER + INTRA:          -9.380
REMARK INTER:                  -6.690
REMARK INTRA:                  -2.691
REMARK UNBOUND:                -2.289
REMARK SMILES CCCCCCCCCCCCCC[C@@H](C)C(=O)[O-]
REMARK SMILES IDX 9 1 10 2 11 3 12 4 13 5 14 6 15 7 16 8 17 9 18 10 19 11 8 12
REMARK SMILES IDX 7 13 6 14 5 15 4 16 3 17 2 18 1 19
REMARK H PARENT
REMARK Flexibility Score: inf
ROOT
ATOM      1  C   UNL     1     161.510 173.519 153.250  1.00  0.00     0.000 C 
ENDROOT
BRANCH   1   2
ATOM      2  C   UNL     1     162.181 173.542 151.869  1.00  0.00     0.000 C 
BRANCH   2   3
ATOM      3  C   UNL     1     163.709 173.702 151.949  1.00  0.00     0.000 C 
BRANCH   3   4
ATOM      4  C   UNL     1     164.352 174.451 150.764  1.00  0.00     0.000 C 
BRANCH   4   5
ATOM      5  C   UNL     1     165.758 175.013 151.034  1.00  0.00     0.001 C 
BRANCH   5   6
ATOM      6  C   UNL     1     166.395 175.659 149.790  1.00  0.00     0.009 C 
BRANCH   6   7
ATOM      7  C   UNL     1     167.039 177.024 150.111  1.00  0.00     0.032 C 
ATOM      8  C   UNL     1     165.971 178.118 150.188  1.00  0.00     0.014 C 
BRANCH   7   9
ATOM      9  C   UNL     1     167.808 176.974 151.404  1.00  0.00     0.044 C 
ATOM     10  O   UNL     1     167.375 177.577 152.421  1.00  0.00    -0.550 OA
ATOM     11  O   UNL     1     168.998 176.261 151.486  1.00  0.00    -0.550 OA
ENDBRANCH   7   9
ENDBRANCH   6   7
ENDBRANCH   5   6
ENDBRANCH   4   5
ENDBRANCH   3   4
ENDBRANCH   2   3
ENDBRANCH   1   2
BRANCH   1  12
ATOM     12  C   UNL     1     160.452 174.626 153.365  1.00  0.00     0.000 C 
BRANCH  12  13
ATOM     13  C   UNL     1     159.880 175.043 152.001  1.00  0.00    -0.000 C 
BRANCH  13  14
ATOM     14  C   UNL     1     160.135 176.527 151.682  1.00  0.00    -0.000 C 
BRANCH  14  15
ATOM     15  C   UNL     1     161.117 176.723 150.516  1.00  0.00    -0.000 C 
BRANCH  15  16
ATOM     16  C   UNL     1     162.389 177.480 150.938  1.00  0.00    -0.000 C 
BRANCH  16  17
ATOM     17  C   UNL     1     162.436 177.756 152.450  1.00  0.00    -0.000 C 
BRANCH  17  18
ATOM     18  C   UNL     1     163.784 177.374 153.080  1.00  0.00    -0.003 C 
ATOM     19  C   UNL     1     163.585 176.480 154.301  1.00  0.00     0.004 C 
ENDBRANCH  17  18
ENDBRANCH  16  17
ENDBRANCH  15  16
ENDBRANCH  14  15
ENDBRANCH  13  14
ENDBRANCH  12  13
ENDBRANCH   1  12
TORSDOF 14
ENDMDL
MODEL 7
REMARK VINA RESULT:    -3.873     10.208     12.001
REMARK INTER + INTRA:          -9.332
REMARK INTER:                  -7.427
REMARK INTRA:                  -1.905
REMARK UNBOUND:                -2.289
REMARK SMILES CCCCCCCCCCCCCC[C@@H](C)C(=O)[O-]
REMARK SMILES IDX 9 1 10 2 11 3 12 4 13 5 14 6 15 7 16 8 17 9 18 10 19 11 8 12
REMARK SMILES IDX 7 13 6 14 5 15 4 16 3 17 2 18 1 19
REMARK H PARENT
REMARK Flexibility Score: inf
ROOT
ATOM      1  C   UNL     1     165.087 174.519 150.894  1.00  0.00     0.000 C 
ENDROOT
BRANCH   1   2
ATOM      2  C   UNL     1     163.832 175.398 150.793  1.00  0.00     0.000 C 
BRANCH   2   3
ATOM      3  C   UNL     1     164.128 176.891 151.018  1.00  0.00     0.000 C 
BRANCH   3   4
ATOM      4  C   UNL     1     162.885 177.801 151.089  1.00  0.00     0.000 C 
BRANCH   4   5
ATOM      5  C   UNL     1     161.560 177.126 150.695  1.00  0.00     0.001 C 
BRANCH   5   6
ATOM      6  C   UNL     1     160.409 177.456 151.662  1.00  0.00     0.009 C 
BRANCH   6   7
ATOM      7  C   UNL     1     160.011 176.241 152.525  1.00  0.00     0.032 C 
ATOM      8  C   UNL     1     160.391 174.934 151.823  1.00  0.00     0.014 C 
BRANCH   7   9
ATOM      9  C   UNL     1     160.664 176.296 153.881  1.00  0.00     0.044 C 
ATOM     10  O   UNL     1     159.957 176.291 154.923  1.00  0.00    -0.550 OA
ATOM     11  O   UNL     1     162.048 176.349 153.992  1.00  0.00    -0.550 OA
ENDBRANCH   7   9
ENDBRANCH   6   7
ENDBRANCH   5   6
ENDBRANCH   4   5
ENDBRANCH   3   4
ENDBRANCH   2   3
ENDBRANCH   1   2
BRANCH   1  12
ATOM     12  C   UNL     1     165.785 174.401 149.531  1.00  0.00     0.000 C 
BRANCH  12  13
ATOM     13  C   UNL     1     167.226 174.935 149.555  1.00  0.00    -0.000 C 
BRANCH  13  14
ATOM     14  C   UNL     1     167.318 176.407 149.115  1.00  0.00    -0.000 C 
BRANCH  14  15
ATOM     15  C   UNL     1     167.606 177.359 150.286  1.00  0.00    -0.000 C 
BRANCH  15  16
ATOM     16  C   UNL     1     168.741 176.851 151.193  1.00  0.00    -0.000 C 
BRANCH  16  17
ATOM     17  C   UNL     1     168.300 176.695 152.657  1.00  0.00    -0.000 C 
BRANCH  17  18
ATOM     18  C   UNL     1     167.004 177.457 152.970  1.00  0.00    -0.003 C 
ATOM     19  C   UNL     1     166.484 177.107 154.361  1.00  0.00     0.004 C 
ENDBRANCH  17  18
ENDBRANCH  16  17
ENDBRANCH  15  16
ENDBRANCH  14  15
ENDBRANCH  13  14
ENDBRANCH  12  13
ENDBRANCH   1  12
TORSDOF 14
ENDMDL
MODEL 8
REMARK VINA RESULT:    -3.853      1.580      2.471
REMARK INTER + INTRA:          -9.295
REMARK INTER:                  -7.590
REMARK INTRA:                  -1.704
REMARK UNBOUND:                -2.289
REMARK SMILES CCCCCCCCCCCCCC[C@@H](C)C(=O)[O-]
REMARK SMILES IDX 9 1 10 2 11 3 12 4 13 5 14 6 15 7 16 8 17 9 18 10 19 11 8 12
REMARK SMILES IDX 7 13 6 14 5 15 4 16 3 17 2 18 1 19
REMARK H PARENT
REMARK Flexibility Score: inf
ROOT
ATOM      1  C   UNL     1     174.894 175.339 151.061  1.00  0.00     0.000 C 
ENDROOT
BRANCH   1   2
ATOM      2  C   UNL     1     175.077 176.800 150.623  1.00  0.00     0.000 C 
BRANCH   2   3
ATOM      3  C   UNL     1     173.795 177.637 150.782  1.00  0.00     0.000 C 
BRANCH   3   4
ATOM      4  C   UNL     1     172.742 177.044 151.741  1.00  0.00     0.000 C 
BRANCH   4   5
ATOM      5  C   UNL     1     172.680 177.705 153.129  1.00  0.00     0.001 C 
BRANCH   5   6
ATOM      6  C   UNL     1     173.301 176.835 154.235  1.00  0.00     0.009 C 
BRANCH   6   7
ATOM      7  C   UNL     1     174.422 177.575 154.994  1.00  0.00     0.032 C 
ATOM      8  C   UNL     1     174.379 177.234 156.486  1.00  0.00     0.014 C 
BRANCH   7   9
ATOM      9  C   UNL     1     175.778 177.234 154.434  1.00  0.00     0.044 C 
ATOM     10  O   UNL     1     176.323 177.993 153.590  1.00  0.00    -0.550 OA
ATOM     11  O   UNL     1     176.439 176.082 154.847  1.00  0.00    -0.550 OA
ENDBRANCH   7   9
ENDBRANCH   6   7
ENDBRANCH   5   6
ENDBRANCH   4   5
ENDBRANCH   3   4
ENDBRANCH   2   3
ENDBRANCH   1   2
BRANCH   1  12
ATOM     12  C   UNL     1     176.221 174.745 151.558  1.00  0.00     0.000 C 
BRANCH  12  13
ATOM     13  C   UNL     1     176.763 173.648 150.628  1.00  0.00    -0.000 C 
BRANCH  13  14
ATOM     14  C   UNL     1     175.697 172.597 150.270  1.00  0.00    -0.000 C 
BRANCH  14  15
ATOM     15  C   UNL     1     176.309 171.278 149.771  1.00  0.00    -0.000 C 
BRANCH  15  16
ATOM     16  C   UNL     1     176.558 170.276 150.912  1.00  0.00    -0.000 C 
BRANCH  16  17
ATOM     17  C   UNL     1     175.728 170.593 152.167  1.00  0.00    -0.000 C 
BRANCH  17  18
ATOM     18  C   UNL     1     176.596 171.025 153.358  1.00  0.00    -0.003 C 
ATOM     19  C   UNL     1     175.802 171.893 154.329  1.00  0.00     0.004 C 
ENDBRANCH  17  18
ENDBRANCH  16  17
ENDBRANCH  15  16
ENDBRANCH  14  15
ENDBRANCH  13  14
ENDBRANCH  12  13
ENDBRANCH   1  12
TORSDOF 14
ENDMDL
MODEL 9
REMARK VINA RESULT:    -3.802      9.067     10.667
REMARK INTER + INTRA:          -9.202
REMARK INTER:                  -8.505
REMARK INTRA:                  -0.697
REMARK UNBOUND:                -2.289
REMARK SMILES CCCCCCCCCCCCCC[C@@H](C)C(=O)[O-]
REMARK SMILES IDX 9 1 10 2 11 3 12 4 13 5 14 6 15 7 16 8 17 9 18 10 19 11 8 12
REMARK SMILES IDX 7 13 6 14 5 15 4 16 3 17 2 18 1 19
REMARK H PARENT
REMARK Flexibility Score: inf
ROOT
ATOM      1  C   UNL     1     168.106 176.522 151.003  1.00  0.00     0.000 C 
ENDROOT
BRANCH   1   2
ATOM      2  C   UNL     1     166.719 176.882 150.449  1.00  0.00     0.000 C 
BRANCH   2   3
ATOM      3  C   UNL     1     165.695 177.192 151.555  1.00  0.00     0.000 C 
BRANCH   3   4
ATOM      4  C   UNL     1     164.498 178.059 151.115  1.00  0.00     0.000 C 
BRANCH   4   5
ATOM      5  C   UNL     1     163.144 177.330 151.081  1.00  0.00     0.001 C 
BRANCH   5   6
ATOM      6  C   UNL     1     162.223 177.723 152.250  1.00  0.00     0.009 C 
BRANCH   6   7
ATOM      7  C   UNL     1     160.731 177.552 151.895  1.00  0.00     0.032 C 
ATOM      8  C   UNL     1     160.552 177.391 150.384  1.00  0.00     0.014 C 
BRANCH   7   9
ATOM      9  C   UNL     1     160.133 176.367 152.607  1.00  0.00     0.044 C 
ATOM     10  O   UNL     1     160.111 176.331 153.865  1.00  0.00    -0.550 OA
ATOM     11  O   UNL     1     159.599 175.309 151.881  1.00  0.00    -0.550 OA
ENDBRANCH   7   9
ENDBRANCH   6   7
ENDBRANCH   5   6
ENDBRANCH   4   5
ENDBRANCH   3   4
ENDBRANCH   2   3
ENDBRANCH   1   2
BRANCH   1  12
ATOM     12  C   UNL     1     168.179 176.787 152.514  1.00  0.00     0.000 C 
BRANCH  12  13
ATOM     13  C   UNL     1     169.603 177.116 152.989  1.00  0.00    -0.000 C 
BRANCH  13  14
ATOM     14  C   UNL     1     170.611 177.191 151.828  1.00  0.00    -0.000 C 
BRANCH  14  15
ATOM     15  C   UNL     1     172.009 177.637 152.285  1.00  0.00    -0.000 C 
BRANCH  15  16
ATOM     16  C   UNL     1     173.060 176.523 152.138  1.00  0.00    -0.000 C 
BRANCH  16  17
ATOM     17  C   UNL     1     173.683 176.483 150.733  1.00  0.00    -0.000 C 
BRANCH  17  18
ATOM     18  C   UNL     1     174.412 177.785 150.371  1.00  0.00    -0.003 C 
ATOM     19  C   UNL     1     175.481 178.122 151.406  1.00  0.00     0.004 C 
ENDBRANCH  17  18
ENDBRANCH  16  17
ENDBRANCH  15  16
ENDBRANCH  14  15
ENDBRANCH  13  14
ENDBRANCH  12  13
ENDBRANCH   1  12
TORSDOF 14
ENDMDL
