MODEL 1
REMARK VINA RESULT:    -5.051      0.000      0.000
REMARK INTER + INTRA:          -8.255
REMARK INTER:                  -7.413
REMARK INTRA:                  -0.842
REMARK UNBOUND:                -0.842
REMARK SMILES O=c1c(O[C@H]2O[C@@H](CO)[C@@H](O)[C@@H](O)[C@@H]2O)c(-c2ccc(O)c(O)c2)oc2cc(O)cc(O)c12
REMARK SMILES IDX 4 1 3 2 16 3 25 4 2 5 26 6 1 7 33 8 27 9 31 10 28 11 30 12
REMARK SMILES IDX 17 13 18 14 19 15 20 16 24 17 22 18 21 19 23 21 32 23 29 25
REMARK SMILES IDX 5 27 14 28 6 29 12 30 7 31 10 32 15 33 13 35 8 37 9 38 11 40
REMARK H PARENT 21 20 23 22 32 24 29 26 15 34 13 36 9 39 11 41
REMARK Flexibility Score: inf
ROOT
ATOM      1  O   UNL     1      21.774  18.179  21.951  1.00  0.00    -0.454 OA
ENDROOT
BRANCH   1   2
ATOM      2  C   UNL     1      21.028  19.258  21.461  1.00  0.00     0.214 A 
ATOM      3  C   UNL     1      19.626  19.248  21.520  1.00  0.00     0.180 A 
ATOM      4  O   UNL     1      18.932  20.230  20.958  1.00  0.00    -0.452 OA
ATOM      5  C   UNL     1      21.680  20.338  20.857  1.00  0.00     0.239 A 
ATOM      6  C   UNL     1      19.500  21.265  20.350  1.00  0.00     0.146 A 
ATOM      7  O   UNL     1      22.938  20.321  20.794  1.00  0.00    -0.285 OA
ATOM      8  C   UNL     1      20.917  21.393  20.298  1.00  0.00     0.111 A 
ATOM      9  C   UNL     1      18.678  22.217  19.748  1.00  0.00     0.094 A 
ATOM     10  C   UNL     1      21.467  22.536  19.643  1.00  0.00     0.134 A 
ATOM     11  C   UNL     1      19.229  23.295  19.060  1.00  0.00     0.123 A 
ATOM     12  C   UNL     1      20.615  23.448  19.010  1.00  0.00     0.093 A 
BRANCH   3  13
ATOM     13  C   UNL     1      18.898  18.140  22.171  1.00  0.00     0.025 A 
ATOM     14  C   UNL     1      17.967  17.391  21.436  1.00  0.00     0.016 A 
ATOM     15  C   UNL     1      17.316  16.308  22.028  1.00  0.00     0.051 A 
ATOM     16  C   UNL     1      17.575  15.957  23.358  1.00  0.00     0.157 A 
ATOM     17  C   UNL     1      19.158  17.799  23.509  1.00  0.00     0.062 A 
ATOM     18  C   UNL     1      18.514  16.709  24.109  1.00  0.00     0.158 A 
BRANCH  16  19
ATOM     19  O   UNL     1      16.875  14.876  23.898  1.00  0.00    -0.504 OA
ATOM     20  H   UNL     1      16.895  13.943  23.513  1.00  0.00     0.293 HD
ENDBRANCH  16  19
BRANCH  18  21
ATOM     21  O   UNL     1      18.836  16.405  25.435  1.00  0.00    -0.504 OA
ATOM     22  H   UNL     1      19.217  17.076  26.084  1.00  0.00     0.293 HD
ENDBRANCH  18  21
ENDBRANCH   3  13
BRANCH  10  23
ATOM     23  O   UNL     1      22.835  22.822  19.596  1.00  0.00    -0.507 OA
ATOM     24  H   UNL     1      23.570  22.140  19.729  1.00  0.00     0.293 HD
ENDBRANCH  10  23
BRANCH  11  25
ATOM     25  O   UNL     1      18.390  24.206  18.421  1.00  0.00    -0.508 OA
ATOM     26  H   UNL     1      18.491  25.205  18.549  1.00  0.00     0.293 HD
ENDBRANCH  11  25
ENDBRANCH   1   2
BRANCH   1  27
ATOM     27  C   UNL     1      21.983  16.973  21.209  1.00  0.00     0.339 C 
ATOM     28  C   UNL     1      23.352  17.051  20.502  1.00  0.00     0.214 C 
ATOM     29  O   UNL     1      20.931  16.790  20.265  1.00  0.00    -0.332 OA
ATOM     30  C   UNL     1      23.560  15.801  19.625  1.00  0.00     0.180 C 
ATOM     31  C   UNL     1      21.051  15.539  19.611  1.00  0.00     0.179 C 
ATOM     32  C   UNL     1      22.328  15.514  18.735  1.00  0.00     0.177 C 
BRANCH  28  33
ATOM     33  O   UNL     1      24.385  17.116  21.454  1.00  0.00    -0.384 OA
ATOM     34  H   UNL     1      24.674  18.067  21.500  1.00  0.00     0.211 HD
ENDBRANCH  28  33
BRANCH  30  35
ATOM     35  O   UNL     1      24.739  15.895  18.866  1.00  0.00    -0.387 OA
ATOM     36  H   UNL     1      24.489  16.082  17.927  1.00  0.00     0.211 HD
ENDBRANCH  30  35
BRANCH  31  37
ATOM     37  C   UNL     1      19.785  15.295  18.777  1.00  0.00     0.191 C 
BRANCH  37  38
ATOM     38  O   UNL     1      19.340  16.474  18.162  1.00  0.00    -0.394 OA
ATOM     39  H   UNL     1      19.963  17.195  18.444  1.00  0.00     0.210 HD
ENDBRANCH  37  38
ENDBRANCH  31  37
BRANCH  32  40
ATOM     40  O   UNL     1      22.230  16.414  17.653  1.00  0.00    -0.387 OA
ATOM     41  H   UNL     1      23.145  16.594  17.317  1.00  0.00     0.211 HD
ENDBRANCH  32  40
ENDBRANCH   1  27
TORSDOF 12
ENDMDL
MODEL 2
REMARK VINA RESULT:    -4.603      2.001      6.143
REMARK INTER + INTRA:          -7.598
REMARK INTER:                  -6.738
REMARK INTRA:                  -0.860
REMARK UNBOUND:                -0.842
REMARK SMILES O=c1c(O[C@H]2O[C@@H](CO)[C@@H](O)[C@@H](O)[C@@H]2O)c(-c2ccc(O)c(O)c2)oc2cc(O)cc(O)c12
REMARK SMILES IDX 4 1 3 2 16 3 25 4 2 5 26 6 1 7 33 8 27 9 31 10 28 11 30 12
REMARK SMILES IDX 17 13 18 14 19 15 20 16 24 17 22 18 21 19 23 21 32 23 29 25
REMARK SMILES IDX 5 27 14 28 6 29 12 30 7 31 10 32 15 33 13 35 8 37 9 38 11 40
REMARK H PARENT 21 20 23 22 32 24 29 26 15 34 13 36 9 39 11 41
REMARK Flexibility Score: inf
ROOT
ATOM      1  O   UNL     1      21.970  17.921  21.764  1.00  0.00    -0.454 OA
ENDROOT
BRANCH   1   2
ATOM      2  C   UNL     1      22.800  17.434  20.745  1.00  0.00     0.214 A 
ATOM      3  C   UNL     1      22.321  16.500  19.814  1.00  0.00     0.180 A 
ATOM      4  O   UNL     1      23.147  15.972  18.920  1.00  0.00    -0.452 OA
ATOM      5  C   UNL     1      24.136  17.841  20.681  1.00  0.00     0.239 A 
ATOM      6  C   UNL     1      24.430  16.304  18.832  1.00  0.00     0.146 A 
ATOM      7  O   UNL     1      24.554  18.665  21.537  1.00  0.00    -0.285 OA
ATOM      8  C   UNL     1      24.989  17.291  19.692  1.00  0.00     0.111 A 
ATOM      9  C   UNL     1      25.224  15.652  17.889  1.00  0.00     0.094 A 
ATOM     10  C   UNL     1      26.371  17.614  19.539  1.00  0.00     0.134 A 
ATOM     11  C   UNL     1      26.584  15.934  17.791  1.00  0.00     0.123 A 
ATOM     12  C   UNL     1      27.149  16.909  18.614  1.00  0.00     0.093 A 
BRANCH   3  13
ATOM     13  C   UNL     1      20.910  16.062  19.830  1.00  0.00     0.025 A 
ATOM     14  C   UNL     1      20.444  15.248  20.872  1.00  0.00     0.016 A 
ATOM     15  C   UNL     1      19.100  14.876  20.924  1.00  0.00     0.051 A 
ATOM     16  C   UNL     1      18.202  15.301  19.938  1.00  0.00     0.157 A 
ATOM     17  C   UNL     1      20.016  16.487  18.832  1.00  0.00     0.062 A 
ATOM     18  C   UNL     1      18.665  16.123  18.880  1.00  0.00     0.158 A 
BRANCH  16  19
ATOM     19  O   UNL     1      16.875  14.876  20.035  1.00  0.00    -0.504 OA
ATOM     20  H   UNL     1      16.189  14.997  19.305  1.00  0.00     0.293 HD
ENDBRANCH  16  19
BRANCH  18  21
ATOM     21  O   UNL     1      17.821  16.599  17.872  1.00  0.00    -0.504 OA
ATOM     22  H   UNL     1      16.905  16.982  18.046  1.00  0.00     0.293 HD
ENDBRANCH  18  21
ENDBRANCH   3  13
BRANCH  10  23
ATOM     23  O   UNL     1      27.019  18.622  20.261  1.00  0.00    -0.507 OA
ATOM     24  H   UNL     1      27.046  18.679  21.270  1.00  0.00     0.293 HD
ENDBRANCH  10  23
BRANCH  11  25
ATOM     25  O   UNL     1      27.369  15.232  16.877  1.00  0.00    -0.508 OA
ATOM     26  H   UNL     1      27.533  15.578  15.941  1.00  0.00     0.293 HD
ENDBRANCH  11  25
ENDBRANCH   1   2
BRANCH   1  27
ATOM     27  C   UNL     1      21.290  19.176  21.683  1.00  0.00     0.339 C 
ATOM     28  C   UNL     1      19.866  18.940  21.136  1.00  0.00     0.214 C 
ATOM     29  O   UNL     1      22.015  20.075  20.848  1.00  0.00    -0.332 OA
ATOM     30  C   UNL     1      19.145  20.291  20.955  1.00  0.00     0.180 C 
ATOM     31  C   UNL     1      21.426  21.363  20.858  1.00  0.00     0.179 C 
ATOM     32  C   UNL     1      20.024  21.315  20.201  1.00  0.00     0.177 C 
BRANCH  28  33
ATOM     33  O   UNL     1      19.130  18.146  22.030  1.00  0.00    -0.384 OA
ATOM     34  H   UNL     1      18.843  17.337  21.528  1.00  0.00     0.211 HD
ENDBRANCH  28  33
BRANCH  30  35
ATOM     35  O   UNL     1      17.893  20.127  20.340  1.00  0.00    -0.387 OA
ATOM     36  H   UNL     1      18.032  20.083  19.360  1.00  0.00     0.211 HD
ENDBRANCH  30  35
BRANCH  31  37
ATOM     37  C   UNL     1      22.361  22.339  20.129  1.00  0.00     0.191 C 
BRANCH  37  38
ATOM     38  O   UNL     1      23.143  21.682  19.169  1.00  0.00    -0.394 OA
ATOM     39  H   UNL     1      22.650  20.855  18.918  1.00  0.00     0.210 HD
ENDBRANCH  37  38
ENDBRANCH  31  37
BRANCH  32  40
ATOM     40  O   UNL     1      20.109  21.031  18.822  1.00  0.00    -0.387 OA
ATOM     41  H   UNL     1      19.445  20.326  18.609  1.00  0.00     0.211 HD
ENDBRANCH  32  40
ENDBRANCH   1  27
TORSDOF 12
ENDMDL
MODEL 3
REMARK VINA RESULT:    -4.505      3.069      7.466
REMARK INTER + INTRA:          -7.453
REMARK INTER:                  -6.716
REMARK INTRA:                  -0.737
REMARK UNBOUND:                -0.842
REMARK SMILES O=c1c(O[C@H]2O[C@@H](CO)[C@@H](O)[C@@H](O)[C@@H]2O)c(-c2ccc(O)c(O)c2)oc2cc(O)cc(O)c12
REMARK SMILES IDX 4 1 3 2 16 3 25 4 2 5 26 6 1 7 33 8 27 9 31 10 28 11 30 12
REMARK SMILES IDX 17 13 18 14 19 15 20 16 24 17 22 18 21 19 23 21 32 23 29 25
REMARK SMILES IDX 5 27 14 28 6 29 12 30 7 31 10 32 15 33 13 35 8 37 9 38 11 40
REMARK H PARENT 21 20 23 22 32 24 29 26 15 34 13 36 9 39 11 41
REMARK Flexibility Score: inf
ROOT
ATOM      1  O   UNL     1      18.250  21.283  21.107  1.00  0.00    -0.454 OA
ENDROOT
BRANCH   1   2
ATOM      2  C   UNL     1      18.163  20.188  20.237  1.00  0.00     0.214 A 
ATOM      3  C   UNL     1      18.447  20.333  18.871  1.00  0.00     0.180 A 
ATOM      4  O   UNL     1      18.260  19.312  18.043  1.00  0.00    -0.452 OA
ATOM      5  C   UNL     1      17.739  18.946  20.721  1.00  0.00     0.239 A 
ATOM      6  C   UNL     1      17.835  18.120  18.446  1.00  0.00     0.146 A 
ATOM      7  O   UNL     1      17.469  18.840  21.946  1.00  0.00    -0.285 OA
ATOM      8  C   UNL     1      17.584  17.861  19.823  1.00  0.00     0.111 A 
ATOM      9  C   UNL     1      17.623  17.130  17.487  1.00  0.00     0.094 A 
ATOM     10  C   UNL     1      17.143  16.556  20.194  1.00  0.00     0.134 A 
ATOM     11  C   UNL     1      17.134  15.879  17.856  1.00  0.00     0.123 A 
ATOM     12  C   UNL     1      16.896  15.600  19.202  1.00  0.00     0.093 A 
BRANCH   3  13
ATOM     13  C   UNL     1      18.922  21.619  18.322  1.00  0.00     0.025 A 
ATOM     14  C   UNL     1      18.023  22.683  18.161  1.00  0.00     0.016 A 
ATOM     15  C   UNL     1      18.475  23.919  17.696  1.00  0.00     0.051 A 
ATOM     16  C   UNL     1      19.824  24.113  17.377  1.00  0.00     0.157 A 
ATOM     17  C   UNL     1      20.277  21.804  17.997  1.00  0.00     0.062 A 
ATOM     18  C   UNL     1      20.740  23.043  17.536  1.00  0.00     0.158 A 
BRANCH  16  19
ATOM     19  O   UNL     1      20.208  25.367  16.896  1.00  0.00    -0.504 OA
ATOM     20  H   UNL     1      21.005  25.882  17.239  1.00  0.00     0.293 HD
ENDBRANCH  16  19
BRANCH  18  21
ATOM     21  O   UNL     1      22.103  23.170  17.255  1.00  0.00    -0.504 OA
ATOM     22  H   UNL     1      22.472  23.304  16.326  1.00  0.00     0.293 HD
ENDBRANCH  18  21
ENDBRANCH   3  13
BRANCH  10  23
ATOM     23  O   UNL     1      16.942  16.149  21.517  1.00  0.00    -0.507 OA
ATOM     24  H   UNL     1      16.511  15.276  21.791  1.00  0.00     0.293 HD
ENDBRANCH  10  23
BRANCH  11  25
ATOM     25  O   UNL     1      16.879  14.922  16.875  1.00  0.00    -0.508 OA
ATOM     26  H   UNL     1      15.993  14.438  16.820  1.00  0.00     0.293 HD
ENDBRANCH  11  25
ENDBRANCH   1   2
BRANCH   1  27
ATOM     27  C   UNL     1      19.483  21.723  21.686  1.00  0.00     0.339 C 
ATOM     28  C   UNL     1      19.515  23.266  21.683  1.00  0.00     0.214 C 
ATOM     29  O   UNL     1      20.585  21.189  20.959  1.00  0.00    -0.332 OA
ATOM     30  C   UNL     1      20.871  23.762  22.221  1.00  0.00     0.180 C 
ATOM     31  C   UNL     1      21.812  21.507  21.592  1.00  0.00     0.179 C 
ATOM     32  C   UNL     1      22.057  23.036  21.544  1.00  0.00     0.177 C 
BRANCH  28  33
ATOM     33  O   UNL     1      18.489  23.772  22.499  1.00  0.00    -0.384 OA
ATOM     34  H   UNL     1      18.742  24.705  22.736  1.00  0.00     0.211 HD
ENDBRANCH  28  33
BRANCH  30  35
ATOM     35  O   UNL     1      20.988  25.158  22.115  1.00  0.00    -0.387 OA
ATOM     36  H   UNL     1      20.773  25.418  21.184  1.00  0.00     0.211 HD
ENDBRANCH  30  35
BRANCH  31  37
ATOM     37  C   UNL     1      22.941  20.729  20.901  1.00  0.00     0.191 C 
BRANCH  37  38
ATOM     38  O   UNL     1      23.504  19.772  21.757  1.00  0.00    -0.394 OA
ATOM     39  H   UNL     1      22.747  19.331  22.228  1.00  0.00     0.210 HD
ENDBRANCH  37  38
ENDBRANCH  31  37
BRANCH  32  40
ATOM     40  O   UNL     1      22.272  23.483  20.224  1.00  0.00    -0.387 OA
ATOM     41  H   UNL     1      22.519  22.700  19.668  1.00  0.00     0.211 HD
ENDBRANCH  32  40
ENDBRANCH   1  27
TORSDOF 12
ENDMDL
MODEL 4
REMARK VINA RESULT:    -4.320      2.894      5.373
REMARK INTER + INTRA:          -7.182
REMARK INTER:                  -7.006
REMARK INTRA:                  -0.176
REMARK UNBOUND:                -0.842
REMARK SMILES O=c1c(O[C@H]2O[C@@H](CO)[C@@H](O)[C@@H](O)[C@@H]2O)c(-c2ccc(O)c(O)c2)oc2cc(O)cc(O)c12
REMARK SMILES IDX 4 1 3 2 16 3 25 4 2 5 26 6 1 7 33 8 27 9 31 10 28 11 30 12
REMARK SMILES IDX 17 13 18 14 19 15 20 16 24 17 22 18 21 19 23 21 32 23 29 25
REMARK SMILES IDX 5 27 14 28 6 29 12 30 7 31 10 32 15 33 13 35 8 37 9 38 11 40
REMARK H PARENT 21 20 23 22 32 24 29 26 15 34 13 36 9 39 11 41
REMARK Flexibility Score: inf
ROOT
ATOM      1  O   UNL     1      19.695  15.307  19.955  1.00  0.00    -0.454 OA
ENDROOT
BRANCH   1   2
ATOM      2  C   UNL     1      20.970  15.804  20.253  1.00  0.00     0.214 A 
ATOM      3  C   UNL     1      21.276  16.270  21.541  1.00  0.00     0.180 A 
ATOM      4  O   UNL     1      22.454  16.833  21.780  1.00  0.00    -0.452 OA
ATOM      5  C   UNL     1      21.938  15.887  19.247  1.00  0.00     0.239 A 
ATOM      6  C   UNL     1      23.398  16.960  20.855  1.00  0.00     0.146 A 
ATOM      7  O   UNL     1      21.640  15.482  18.092  1.00  0.00    -0.285 OA
ATOM      8  C   UNL     1      23.203  16.457  19.537  1.00  0.00     0.111 A 
ATOM      9  C   UNL     1      24.583  17.613  21.197  1.00  0.00     0.094 A 
ATOM     10  C   UNL     1      24.261  16.612  18.592  1.00  0.00     0.134 A 
ATOM     11  C   UNL     1      25.583  17.810  20.248  1.00  0.00     0.123 A 
ATOM     12  C   UNL     1      25.417  17.311  18.955  1.00  0.00     0.093 A 
BRANCH   3  13
ATOM     13  C   UNL     1      20.293  16.178  22.639  1.00  0.00     0.025 A 
ATOM     14  C   UNL     1      19.570  14.991  22.831  1.00  0.00     0.016 A 
ATOM     15  C   UNL     1      18.681  14.878  23.901  1.00  0.00     0.051 A 
ATOM     16  C   UNL     1      18.491  15.943  24.789  1.00  0.00     0.157 A 
ATOM     17  C   UNL     1      20.102  17.254  23.522  1.00  0.00     0.062 A 
ATOM     18  C   UNL     1      19.216  17.147  24.601  1.00  0.00     0.158 A 
BRANCH  16  19
ATOM     19  O   UNL     1      17.570  15.773  25.826  1.00  0.00    -0.504 OA
ATOM     20  H   UNL     1      17.226  14.875  26.132  1.00  0.00     0.293 HD
ENDBRANCH  16  19
BRANCH  18  21
ATOM     21  O   UNL     1      19.090  18.243  25.459  1.00  0.00    -0.504 OA
ATOM     22  H   UNL     1      18.326  18.360  26.107  1.00  0.00     0.293 HD
ENDBRANCH  18  21
ENDBRANCH   3  13
BRANCH  10  23
ATOM     23  O   UNL     1      24.228  16.090  17.295  1.00  0.00    -0.507 OA
ATOM     24  H   UNL     1      23.383  15.887  16.778  1.00  0.00     0.293 HD
ENDBRANCH  10  23
BRANCH  11  25
ATOM     25  O   UNL     1      26.736  18.511  20.598  1.00  0.00    -0.508 OA
ATOM     26  H   UNL     1      27.167  18.406  21.507  1.00  0.00     0.293 HD
ENDBRANCH  11  25
ENDBRANCH   1   2
BRANCH   1  27
ATOM     27  C   UNL     1      18.575  16.151  19.671  1.00  0.00     0.339 C 
ATOM     28  C   UNL     1      18.810  16.857  18.319  1.00  0.00     0.214 C 
ATOM     29  O   UNL     1      18.399  17.100  20.719  1.00  0.00    -0.332 OA
ATOM     30  C   UNL     1      17.657  17.840  18.036  1.00  0.00     0.180 C 
ATOM     31  C   UNL     1      17.220  17.861  20.519  1.00  0.00     0.179 C 
ATOM     32  C   UNL     1      17.360  18.743  19.255  1.00  0.00     0.177 C 
BRANCH  28  33
ATOM     33  O   UNL     1      18.867  15.910  17.282  1.00  0.00    -0.384 OA
ATOM     34  H   UNL     1      19.564  15.247  17.535  1.00  0.00     0.211 HD
ENDBRANCH  28  33
BRANCH  30  35
ATOM     35  O   UNL     1      17.899  18.595  16.875  1.00  0.00    -0.387 OA
ATOM     36  H   UNL     1      17.787  19.553  17.100  1.00  0.00     0.211 HD
ENDBRANCH  30  35
BRANCH  31  37
ATOM     37  C   UNL     1      16.959  18.705  21.776  1.00  0.00     0.191 C 
BRANCH  37  38
ATOM     38  O   UNL     1      18.022  19.581  22.036  1.00  0.00    -0.394 OA
ATOM     39  H   UNL     1      18.856  19.043  21.976  1.00  0.00     0.210 HD
ENDBRANCH  37  38
ENDBRANCH  31  37
BRANCH  32  40
ATOM     40  O   UNL     1      18.340  19.743  19.429  1.00  0.00    -0.387 OA
ATOM     41  H   UNL     1      18.783  19.594  20.304  1.00  0.00     0.211 HD
ENDBRANCH  32  40
ENDBRANCH   1  27
TORSDOF 12
ENDMDL
MODEL 5
REMARK VINA RESULT:    -4.189      2.500      6.787
REMARK INTER + INTRA:          -6.989
REMARK INTER:                  -6.310
REMARK INTRA:                  -0.679
REMARK UNBOUND:                -0.842
REMARK SMILES O=c1c(O[C@H]2O[C@@H](CO)[C@@H](O)[C@@H](O)[C@@H]2O)c(-c2ccc(O)c(O)c2)oc2cc(O)cc(O)c12
REMARK SMILES IDX 4 1 3 2 16 3 25 4 2 5 26 6 1 7 33 8 27 9 31 10 28 11 30 12
REMARK SMILES IDX 17 13 18 14 19 15 20 16 24 17 22 18 21 19 23 21 32 23 29 25
REMARK SMILES IDX 5 27 14 28 6 29 12 30 7 31 10 32 15 33 13 35 8 37 9 38 11 40
REMARK H PARENT 21 20 23 22 32 24 29 26 15 34 13 36 9 39 11 41
REMARK Flexibility Score: inf
ROOT
ATOM      1  O   UNL     1      19.367  20.225  21.354  1.00  0.00    -0.454 OA
ENDROOT
BRANCH   1   2
ATOM      2  C   UNL     1      20.733  19.985  21.158  1.00  0.00     0.214 A 
ATOM      3  C   UNL     1      21.606  21.031  20.825  1.00  0.00     0.180 A 
ATOM      4  O   UNL     1      22.876  20.770  20.543  1.00  0.00    -0.452 OA
ATOM      5  C   UNL     1      21.230  18.680  21.245  1.00  0.00     0.239 A 
ATOM      6  C   UNL     1      23.392  19.548  20.584  1.00  0.00     0.146 A 
ATOM      7  O   UNL     1      20.427  17.750  21.525  1.00  0.00    -0.285 OA
ATOM      8  C   UNL     1      22.598  18.432  20.976  1.00  0.00     0.111 A 
ATOM      9  C   UNL     1      24.728  19.376  20.220  1.00  0.00     0.094 A 
ATOM     10  C   UNL     1      23.215  17.146  21.015  1.00  0.00     0.134 A 
ATOM     11  C   UNL     1      25.300  18.106  20.204  1.00  0.00     0.123 A 
ATOM     12  C   UNL     1      24.544  17.002  20.599  1.00  0.00     0.093 A 
BRANCH   3  13
ATOM     13  C   UNL     1      21.129  22.427  20.748  1.00  0.00     0.025 A 
ATOM     14  C   UNL     1      20.668  23.072  21.905  1.00  0.00     0.016 A 
ATOM     15  C   UNL     1      20.269  24.408  21.851  1.00  0.00     0.051 A 
ATOM     16  C   UNL     1      20.315  25.120  20.646  1.00  0.00     0.157 A 
ATOM     17  C   UNL     1      21.172  23.133  19.534  1.00  0.00     0.062 A 
ATOM     18  C   UNL     1      20.779  24.476  19.472  1.00  0.00     0.158 A 
BRANCH  16  19
ATOM     19  O   UNL     1      19.881  26.448  20.655  1.00  0.00    -0.504 OA
ATOM     20  H   UNL     1      20.451  27.225  20.956  1.00  0.00     0.293 HD
ENDBRANCH  16  19
BRANCH  18  21
ATOM     21  O   UNL     1      20.869  25.130  18.240  1.00  0.00    -0.504 OA
ATOM     22  H   UNL     1      21.470  24.826  17.489  1.00  0.00     0.293 HD
ENDBRANCH  18  21
ENDBRANCH   3  13
BRANCH  10  23
ATOM     23  O   UNL     1      22.571  15.988  21.461  1.00  0.00    -0.507 OA
ATOM     24  H   UNL     1      21.922  15.954  22.236  1.00  0.00     0.293 HD
ENDBRANCH  10  23
BRANCH  11  25
ATOM     25  O   UNL     1      26.620  17.951  19.785  1.00  0.00    -0.508 OA
ATOM     26  H   UNL     1      27.280  17.384  20.302  1.00  0.00     0.293 HD
ENDBRANCH  11  25
ENDBRANCH   1   2
BRANCH   1  27
ATOM     27  C   UNL     1      18.396  20.107  20.309  1.00  0.00     0.339 C 
ATOM     28  C   UNL     1      18.072  18.613  20.094  1.00  0.00     0.214 C 
ATOM     29  O   UNL     1      18.891  20.699  19.111  1.00  0.00    -0.332 OA
ATOM     30  C   UNL     1      17.095  18.456  18.912  1.00  0.00     0.180 C 
ATOM     31  C   UNL     1      17.896  20.706  18.102  1.00  0.00     0.179 C 
ATOM     32  C   UNL     1      17.559  19.257  17.673  1.00  0.00     0.177 C 
BRANCH  28  33
ATOM     33  O   UNL     1      17.480  18.076  21.249  1.00  0.00    -0.384 OA
ATOM     34  H   UNL     1      16.808  17.408  20.945  1.00  0.00     0.211 HD
ENDBRANCH  28  33
BRANCH  30  35
ATOM     35  O   UNL     1      16.875  17.102  18.603  1.00  0.00    -0.387 OA
ATOM     36  H   UNL     1      16.064  16.802  19.085  1.00  0.00     0.211 HD
ENDBRANCH  30  35
BRANCH  31  37
ATOM     37  C   UNL     1      18.399  21.546  16.919  1.00  0.00     0.191 C 
BRANCH  37  38
ATOM     38  O   UNL     1      18.734  22.848  17.318  1.00  0.00    -0.394 OA
ATOM     39  H   UNL     1      18.775  22.839  18.312  1.00  0.00     0.210 HD
ENDBRANCH  37  38
ENDBRANCH  31  37
BRANCH  32  40
ATOM     40  O   UNL     1      18.650  18.645  17.020  1.00  0.00    -0.387 OA
ATOM     41  H   UNL     1      18.487  18.685  16.042  1.00  0.00     0.211 HD
ENDBRANCH  32  40
ENDBRANCH   1  27
TORSDOF 12
ENDMDL
MODEL 6
REMARK VINA RESULT:    -3.871      2.056      5.755
REMARK INTER + INTRA:          -6.523
REMARK INTER:                  -7.069
REMARK INTRA:                   0.546
REMARK UNBOUND:                -0.842
REMARK SMILES O=c1c(O[C@H]2O[C@@H](CO)[C@@H](O)[C@@H](O)[C@@H]2O)c(-c2ccc(O)c(O)c2)oc2cc(O)cc(O)c12
REMARK SMILES IDX 4 1 3 2 16 3 25 4 2 5 26 6 1 7 33 8 27 9 31 10 28 11 30 12
REMARK SMILES IDX 17 13 18 14 19 15 20 16 24 17 22 18 21 19 23 21 32 23 29 25
REMARK SMILES IDX 5 27 14 28 6 29 12 30 7 31 10 32 15 33 13 35 8 37 9 38 11 40
REMARK H PARENT 21 20 23 22 32 24 29 26 15 34 13 36 9 39 11 41
REMARK Flexibility Score: inf
ROOT
ATOM      1  O   UNL     1      21.144  17.435  20.877  1.00  0.00    -0.454 OA
ENDROOT
BRANCH   1   2
ATOM      2  C   UNL     1      21.140  18.836  20.905  1.00  0.00     0.214 A 
ATOM      3  C   UNL     1      22.342  19.558  20.864  1.00  0.00     0.180 A 
ATOM      4  O   UNL     1      22.327  20.879  20.996  1.00  0.00    -0.452 OA
ATOM      5  C   UNL     1      19.930  19.527  21.027  1.00  0.00     0.239 A 
ATOM      6  C   UNL     1      21.210  21.581  21.140  1.00  0.00     0.146 A 
ATOM      7  O   UNL     1      18.862  18.862  21.083  1.00  0.00    -0.285 OA
ATOM      8  C   UNL     1      19.938  20.940  21.127  1.00  0.00     0.111 A 
ATOM      9  C   UNL     1      21.308  22.960  21.321  1.00  0.00     0.094 A 
ATOM     10  C   UNL     1      18.773  21.752  21.272  1.00  0.00     0.134 A 
ATOM     11  C   UNL     1      20.166  23.732  21.522  1.00  0.00     0.123 A 
ATOM     12  C   UNL     1      18.909  23.126  21.498  1.00  0.00     0.093 A 
BRANCH   3  13
ATOM     13  C   UNL     1      23.640  18.870  20.711  1.00  0.00     0.025 A 
ATOM     14  C   UNL     1      24.412  18.575  21.844  1.00  0.00     0.016 A 
ATOM     15  C   UNL     1      25.613  17.876  21.712  1.00  0.00     0.051 A 
ATOM     16  C   UNL     1      26.067  17.467  20.453  1.00  0.00     0.157 A 
ATOM     17  C   UNL     1      24.094  18.469  19.442  1.00  0.00     0.062 A 
ATOM     18  C   UNL     1      25.294  17.761  19.302  1.00  0.00     0.158 A 
BRANCH  16  19
ATOM     19  O   UNL     1      27.287  16.790  20.388  1.00  0.00    -0.504 OA
ATOM     20  H   UNL     1      27.418  15.834  20.684  1.00  0.00     0.293 HD
ENDBRANCH  16  19
BRANCH  18  21
ATOM     21  O   UNL     1      25.678  17.368  18.017  1.00  0.00    -0.504 OA
ATOM     22  H   UNL     1      25.025  17.080  17.304  1.00  0.00     0.293 HD
ENDBRANCH  18  21
ENDBRANCH   3  13
BRANCH  10  23
ATOM     23  O   UNL     1      17.467  21.259  21.193  1.00  0.00    -0.507 OA
ATOM     24  H   UNL     1      16.817  21.471  20.448  1.00  0.00     0.293 HD
ENDBRANCH  10  23
BRANCH  11  25
ATOM     25  O   UNL     1      20.292  25.101  21.754  1.00  0.00    -0.508 OA
ATOM     26  H   UNL     1      19.831  25.785  21.168  1.00  0.00     0.293 HD
ENDBRANCH  11  25
ENDBRANCH   1   2
BRANCH   1  27
ATOM     27  C   UNL     1      20.428  16.634  21.823  1.00  0.00     0.339 C 
ATOM     28  C   UNL     1      19.154  16.083  21.149  1.00  0.00     0.214 C 
ATOM     29  O   UNL     1      20.102  17.408  22.974  1.00  0.00    -0.332 OA
ATOM     30  C   UNL     1      18.322  15.290  22.176  1.00  0.00     0.180 C 
ATOM     31  C   UNL     1      19.507  16.601  23.975  1.00  0.00     0.179 C 
ATOM     32  C   UNL     1      18.132  16.078  23.492  1.00  0.00     0.177 C 
BRANCH  28  33
ATOM     33  O   UNL     1      19.499  15.230  20.087  1.00  0.00    -0.384 OA
ATOM     34  H   UNL     1      19.057  14.357  20.262  1.00  0.00     0.211 HD
ENDBRANCH  28  33
BRANCH  30  35
ATOM     35  O   UNL     1      17.092  14.879  21.634  1.00  0.00    -0.387 OA
ATOM     36  H   UNL     1      16.496  14.618  22.380  1.00  0.00     0.211 HD
ENDBRANCH  30  35
BRANCH  31  37
ATOM     37  C   UNL     1      19.382  17.425  25.264  1.00  0.00     0.191 C 
BRANCH  37  38
ATOM     38  O   UNL     1      20.358  17.064  26.203  1.00  0.00    -0.394 OA
ATOM     39  H   UNL     1      20.380  17.788  26.884  1.00  0.00     0.210 HD
ENDBRANCH  37  38
ENDBRANCH  31  37
BRANCH  32  40
ATOM     40  O   UNL     1      17.199  17.128  23.356  1.00  0.00    -0.387 OA
ATOM     41  H   UNL     1      17.648  17.882  22.894  1.00  0.00     0.211 HD
ENDBRANCH  32  40
ENDBRANCH   1  27
TORSDOF 12
ENDMDL
MODEL 7
REMARK VINA RESULT:    -3.669      2.099      6.862
REMARK INTER + INTRA:          -6.227
REMARK INTER:                  -6.860
REMARK INTRA:                   0.634
REMARK UNBOUND:                -0.842
REMARK SMILES O=c1c(O[C@H]2O[C@@H](CO)[C@@H](O)[C@@H](O)[C@@H]2O)c(-c2ccc(O)c(O)c2)oc2cc(O)cc(O)c12
REMARK SMILES IDX 4 1 3 2 16 3 25 4 2 5 26 6 1 7 33 8 27 9 31 10 28 11 30 12
REMARK SMILES IDX 17 13 18 14 19 15 20 16 24 17 22 18 21 19 23 21 32 23 29 25
REMARK SMILES IDX 5 27 14 28 6 29 12 30 7 31 10 32 15 33 13 35 8 37 9 38 11 40
REMARK H PARENT 21 20 23 22 32 24 29 26 15 34 13 36 9 39 11 41
REMARK Flexibility Score: inf
ROOT
ATOM      1  O   UNL     1      22.010  20.729  21.027  1.00  0.00    -0.454 OA
ENDROOT
BRANCH   1   2
ATOM      2  C   UNL     1      21.225  19.573  21.116  1.00  0.00     0.214 A 
ATOM      3  C   UNL     1      21.794  18.303  20.942  1.00  0.00     0.180 A 
ATOM      4  O   UNL     1      21.019  17.225  20.927  1.00  0.00    -0.452 OA
ATOM      5  C   UNL     1      19.847  19.682  21.330  1.00  0.00     0.239 A 
ATOM      6  C   UNL     1      19.704  17.275  21.099  1.00  0.00     0.146 A 
ATOM      7  O   UNL     1      19.350  20.831  21.464  1.00  0.00    -0.285 OA
ATOM      8  C   UNL     1      19.046  18.513  21.348  1.00  0.00     0.111 A 
ATOM      9  C   UNL     1      18.975  16.088  21.015  1.00  0.00     0.094 A 
ATOM     10  C   UNL     1      17.632  18.499  21.539  1.00  0.00     0.134 A 
ATOM     11  C   UNL     1      17.588  16.098  21.143  1.00  0.00     0.123 A 
ATOM     12  C   UNL     1      16.926  17.298  21.403  1.00  0.00     0.093 A 
BRANCH   3  13
ATOM     13  C   UNL     1      23.248  18.140  20.739  1.00  0.00     0.025 A 
ATOM     14  C   UNL     1      24.135  18.420  21.788  1.00  0.00     0.016 A 
ATOM     15  C   UNL     1      25.506  18.215  21.621  1.00  0.00     0.051 A 
ATOM     16  C   UNL     1      26.015  17.736  20.409  1.00  0.00     0.157 A 
ATOM     17  C   UNL     1      23.752  17.665  19.515  1.00  0.00     0.062 A 
ATOM     18  C   UNL     1      25.125  17.451  19.342  1.00  0.00     0.158 A 
BRANCH  16  19
ATOM     19  O   UNL     1      27.398  17.572  20.299  1.00  0.00    -0.504 OA
ATOM     20  H   UNL     1      27.856  16.675  20.240  1.00  0.00     0.293 HD
ENDBRANCH  16  19
BRANCH  18  21
ATOM     21  O   UNL     1      25.561  16.953  18.111  1.00  0.00    -0.504 OA
ATOM     22  H   UNL     1      26.532  16.896  17.844  1.00  0.00     0.293 HD
ENDBRANCH  18  21
ENDBRANCH   3  13
BRANCH  10  23
ATOM     23  O   UNL     1      16.881  19.630  21.873  1.00  0.00    -0.507 OA
ATOM     24  H   UNL     1      15.958  19.834  21.513  1.00  0.00     0.293 HD
ENDBRANCH  10  23
BRANCH  11  25
ATOM     25  O   UNL     1      16.876  14.908  21.003  1.00  0.00    -0.508 OA
ATOM     26  H   UNL     1      16.947  14.161  21.682  1.00  0.00     0.293 HD
ENDBRANCH  11  25
ENDBRANCH   1   2
BRANCH   1  27
ATOM     27  C   UNL     1      21.624  21.878  20.267  1.00  0.00     0.339 C 
ATOM     28  C   UNL     1      21.138  22.978  21.235  1.00  0.00     0.214 C 
ATOM     29  O   UNL     1      20.602  21.531  19.337  1.00  0.00    -0.332 OA
ATOM     30  C   UNL     1      20.632  24.194  20.434  1.00  0.00     0.180 C 
ATOM     31  C   UNL     1      20.297  22.624  18.488  1.00  0.00     0.179 C 
ATOM     32  C   UNL     1      19.660  23.774  19.307  1.00  0.00     0.177 C 
BRANCH  28  33
ATOM     33  O   UNL     1      22.192  23.389  22.068  1.00  0.00    -0.384 OA
ATOM     34  H   UNL     1      21.791  23.947  22.787  1.00  0.00     0.211 HD
ENDBRANCH  28  33
BRANCH  30  35
ATOM     35  O   UNL     1      20.064  25.165  21.275  1.00  0.00    -0.387 OA
ATOM     36  H   UNL     1      19.125  25.307  20.996  1.00  0.00     0.211 HD
ENDBRANCH  30  35
BRANCH  31  37
ATOM     37  C   UNL     1      19.362  22.135  17.372  1.00  0.00     0.191 C 
BRANCH  37  38
ATOM     38  O   UNL     1      18.400  21.239  17.862  1.00  0.00    -0.394 OA
ATOM     39  H   UNL     1      18.655  20.338  17.528  1.00  0.00     0.210 HD
ENDBRANCH  37  38
ENDBRANCH  31  37
BRANCH  32  40
ATOM     40  O   UNL     1      18.391  23.412  19.805  1.00  0.00    -0.387 OA
ATOM     41  H   UNL     1      18.436  23.407  20.796  1.00  0.00     0.211 HD
ENDBRANCH  32  40
ENDBRANCH   1  27
TORSDOF 12
ENDMDL
MODEL 8
REMARK VINA RESULT:    -3.575      1.981      3.680
REMARK INTER + INTRA:          -6.089
REMARK INTER:                  -5.994
REMARK INTRA:                  -0.095
REMARK UNBOUND:                -0.842
REMARK SMILES O=c1c(O[C@H]2O[C@@H](CO)[C@@H](O)[C@@H](O)[C@@H]2O)c(-c2ccc(O)c(O)c2)oc2cc(O)cc(O)c12
REMARK SMILES IDX 4 1 3 2 16 3 25 4 2 5 26 6 1 7 33 8 27 9 31 10 28 11 30 12
REMARK SMILES IDX 17 13 18 14 19 15 20 16 24 17 22 18 21 19 23 21 32 23 29 25
REMARK SMILES IDX 5 27 14 28 6 29 12 30 7 31 10 32 15 33 13 35 8 37 9 38 11 40
REMARK H PARENT 21 20 23 22 32 24 29 26 15 34 13 36 9 39 11 41
REMARK Flexibility Score: inf
ROOT
ATOM      1  O   UNL     1      17.977  19.402  18.928  1.00  0.00    -0.454 OA
ENDROOT
BRANCH   1   2
ATOM      2  C   UNL     1      18.618  20.468  19.572  1.00  0.00     0.214 A 
ATOM      3  C   UNL     1      18.918  20.405  20.941  1.00  0.00     0.180 A 
ATOM      4  O   UNL     1      19.432  21.463  21.557  1.00  0.00    -0.452 OA
ATOM      5  C   UNL     1      18.920  21.633  18.858  1.00  0.00     0.239 A 
ATOM      6  C   UNL     1      19.713  22.600  20.933  1.00  0.00     0.146 A 
ATOM      7  O   UNL     1      18.625  21.680  17.635  1.00  0.00    -0.285 OA
ATOM      8  C   UNL     1      19.503  22.735  19.531  1.00  0.00     0.111 A 
ATOM      9  C   UNL     1      20.203  23.669  21.684  1.00  0.00     0.094 A 
ATOM     10  C   UNL     1      19.839  23.978  18.916  1.00  0.00     0.134 A 
ATOM     11  C   UNL     1      20.469  24.896  21.080  1.00  0.00     0.123 A 
ATOM     12  C   UNL     1      20.285  25.044  19.705  1.00  0.00     0.093 A 
BRANCH   3  13
ATOM     13  C   UNL     1      18.640  19.186  21.727  1.00  0.00     0.025 A 
ATOM     14  C   UNL     1      17.316  18.761  21.910  1.00  0.00     0.016 A 
ATOM     15  C   UNL     1      17.049  17.580  22.604  1.00  0.00     0.051 A 
ATOM     16  C   UNL     1      18.091  16.809  23.132  1.00  0.00     0.157 A 
ATOM     17  C   UNL     1      19.691  18.421  22.260  1.00  0.00     0.062 A 
ATOM     18  C   UNL     1      19.432  17.231  22.952  1.00  0.00     0.158 A 
BRANCH  16  19
ATOM     19  O   UNL     1      17.755  15.649  23.834  1.00  0.00    -0.504 OA
ATOM     20  H   UNL     1      17.121  15.629  24.619  1.00  0.00     0.293 HD
ENDBRANCH  16  19
BRANCH  18  21
ATOM     21  O   UNL     1      20.523  16.502  23.435  1.00  0.00    -0.504 OA
ATOM     22  H   UNL     1      21.278  16.176  22.852  1.00  0.00     0.293 HD
ENDBRANCH  18  21
ENDBRANCH   3  13
BRANCH  10  23
ATOM     23  O   UNL     1      19.761  24.211  17.539  1.00  0.00    -0.507 OA
ATOM     24  H   UNL     1      20.209  23.642  16.833  1.00  0.00     0.293 HD
ENDBRANCH  10  23
BRANCH  11  25
ATOM     25  O   UNL     1      20.908  25.965  21.859  1.00  0.00    -0.508 OA
ATOM     26  H   UNL     1      21.891  26.125  22.039  1.00  0.00     0.293 HD
ENDBRANCH  11  25
ENDBRANCH   1   2
BRANCH   1  27
ATOM     27  C   UNL     1      18.677  18.266  18.415  1.00  0.00     0.339 C 
ATOM     28  C   UNL     1      17.650  17.210  17.954  1.00  0.00     0.214 C 
ATOM     29  O   UNL     1      19.544  17.732  19.412  1.00  0.00    -0.332 OA
ATOM     30  C   UNL     1      18.383  15.940  17.480  1.00  0.00     0.180 C 
ATOM     31  C   UNL     1      20.341  16.686  18.883  1.00  0.00     0.179 C 
ATOM     32  C   UNL     1      19.451  15.479  18.498  1.00  0.00     0.177 C 
BRANCH  28  33
ATOM     33  O   UNL     1      16.880  17.715  16.893  1.00  0.00    -0.384 OA
ATOM     34  H   UNL     1      15.931  17.690  17.188  1.00  0.00     0.211 HD
ENDBRANCH  28  33
BRANCH  30  35
ATOM     35  O   UNL     1      17.479  14.909  17.172  1.00  0.00    -0.387 OA
ATOM     36  H   UNL     1      16.701  15.307  16.707  1.00  0.00     0.211 HD
ENDBRANCH  30  35
BRANCH  31  37
ATOM     37  C   UNL     1      21.403  16.301  19.924  1.00  0.00     0.191 C 
BRANCH  37  38
ATOM     38  O   UNL     1      22.060  17.431  20.431  1.00  0.00    -0.394 OA
ATOM     39  H   UNL     1      21.516  18.220  20.163  1.00  0.00     0.210 HD
ENDBRANCH  37  38
ENDBRANCH  31  37
BRANCH  32  40
ATOM     40  O   UNL     1      18.877  14.877  19.638  1.00  0.00    -0.387 OA
ATOM     41  H   UNL     1      18.528  15.595  20.226  1.00  0.00     0.211 HD
ENDBRANCH  32  40
ENDBRANCH   1  27
TORSDOF 12
ENDMDL
MODEL 9
REMARK VINA RESULT:    -2.328      1.936      3.716
REMARK INTER + INTRA:          -4.259
REMARK INTER:                  -5.328
REMARK INTRA:                   1.069
REMARK UNBOUND:                -0.842
REMARK SMILES O=c1c(O[C@H]2O[C@@H](CO)[C@@H](O)[C@@H](O)[C@@H]2O)c(-c2ccc(O)c(O)c2)oc2cc(O)cc(O)c12
REMARK SMILES IDX 4 1 3 2 16 3 25 4 2 5 26 6 1 7 33 8 27 9 31 10 28 11 30 12
REMARK SMILES IDX 17 13 18 14 19 15 20 16 24 17 22 18 21 19 23 21 32 23 29 25
REMARK SMILES IDX 5 27 14 28 6 29 12 30 7 31 10 32 15 33 13 35 8 37 9 38 11 40
REMARK H PARENT 21 20 23 22 32 24 29 26 15 34 13 36 9 39 11 41
REMARK Flexibility Score: inf
ROOT
ATOM      1  O   UNL     1      20.432  19.246  21.409  1.00  0.00    -0.454 OA
ENDROOT
BRANCH   1   2
ATOM      2  C   UNL     1      20.012  20.287  20.571  1.00  0.00     0.214 A 
ATOM      3  C   UNL     1      19.152  20.038  19.492  1.00  0.00     0.180 A 
ATOM      4  O   UNL     1      18.846  21.015  18.647  1.00  0.00    -0.452 OA
ATOM      5  C   UNL     1      20.493  21.585  20.778  1.00  0.00     0.239 A 
ATOM      6  C   UNL     1      19.296  22.257  18.782  1.00  0.00     0.146 A 
ATOM      7  O   UNL     1      21.280  21.787  21.740  1.00  0.00    -0.285 OA
ATOM      8  C   UNL     1      20.121  22.620  19.884  1.00  0.00     0.111 A 
ATOM      9  C   UNL     1      18.955  23.198  17.810  1.00  0.00     0.094 A 
ATOM     10  C   UNL     1      20.560  23.974  19.981  1.00  0.00     0.134 A 
ATOM     11  C   UNL     1      19.441  24.501  17.885  1.00  0.00     0.123 A 
ATOM     12  C   UNL     1      20.239  24.881  18.965  1.00  0.00     0.093 A 
BRANCH   3  13
ATOM     13  C   UNL     1      18.601  18.688  19.252  1.00  0.00     0.025 A 
ATOM     14  C   UNL     1      17.449  18.273  19.937  1.00  0.00     0.016 A 
ATOM     15  C   UNL     1      16.890  17.022  19.674  1.00  0.00     0.051 A 
ATOM     16  C   UNL     1      17.471  16.162  18.733  1.00  0.00     0.157 A 
ATOM     17  C   UNL     1      19.193  17.828  18.311  1.00  0.00     0.062 A 
ATOM     18  C   UNL     1      18.635  16.573  18.037  1.00  0.00     0.158 A 
BRANCH  16  19
ATOM     19  O   UNL     1      16.875  14.915  18.532  1.00  0.00    -0.504 OA
ATOM     20  H   UNL     1      16.888  14.168  19.211  1.00  0.00     0.293 HD
ENDBRANCH  16  19
BRANCH  18  21
ATOM     21  O   UNL     1      19.257  15.775  17.072  1.00  0.00    -0.504 OA
ATOM     22  H   UNL     1      19.365  16.048  16.108  1.00  0.00     0.293 HD
ENDBRANCH  18  21
ENDBRANCH   3  13
BRANCH  10  23
ATOM     23  O   UNL     1      21.302  24.476  21.055  1.00  0.00    -0.507 OA
ATOM     24  H   UNL     1      22.208  24.918  20.971  1.00  0.00     0.293 HD
ENDBRANCH  10  23
BRANCH  11  25
ATOM     25  O   UNL     1      19.131  25.411  16.875  1.00  0.00    -0.508 OA
ATOM     26  H   UNL     1      18.667  25.123  16.023  1.00  0.00     0.293 HD
ENDBRANCH  11  25
ENDBRANCH   1   2
BRANCH   1  27
ATOM     27  C   UNL     1      20.208  17.865  21.110  1.00  0.00     0.339 C 
ATOM     28  C   UNL     1      19.703  17.152  22.382  1.00  0.00     0.214 C 
ATOM     29  O   UNL     1      21.409  17.266  20.633  1.00  0.00    -0.332 OA
ATOM     30  C   UNL     1      19.540  15.645  22.107  1.00  0.00     0.180 C 
ATOM     31  C   UNL     1      21.177  15.933  20.210  1.00  0.00     0.179 C 
ATOM     32  C   UNL     1      20.790  15.048  21.420  1.00  0.00     0.177 C 
BRANCH  28  33
ATOM     33  O   UNL     1      18.460  17.681  22.771  1.00  0.00    -0.384 OA
ATOM     34  H   UNL     1      17.762  17.156  22.297  1.00  0.00     0.211 HD
ENDBRANCH  28  33
BRANCH  30  35
ATOM     35  O   UNL     1      19.203  14.942  23.276  1.00  0.00    -0.387 OA
ATOM     36  H   UNL     1      19.788  15.260  24.009  1.00  0.00     0.211 HD
ENDBRANCH  30  35
BRANCH  31  37
ATOM     37  C   UNL     1      22.438  15.412  19.505  1.00  0.00     0.191 C 
BRANCH  37  38
ATOM     38  O   UNL     1      23.603  15.823  20.166  1.00  0.00    -0.394 OA
ATOM     39  H   UNL     1      23.314  16.240  21.021  1.00  0.00     0.210 HD
ENDBRANCH  37  38
ENDBRANCH  31  37
BRANCH  32  40
ATOM     40  O   UNL     1      21.870  14.898  22.316  1.00  0.00    -0.387 OA
ATOM     41  H   UNL     1      21.631  15.349  23.167  1.00  0.00     0.211 HD
ENDBRANCH  32  40
ENDBRANCH   1  27
TORSDOF 12
ENDMDL
