MODEL 1
REMARK VINA RESULT:    -3.549      0.000      0.000
REMARK INTER + INTRA:          -4.314
REMARK INTER:                  -4.275
REMARK INTRA:                  -0.039
REMARK UNBOUND:                -0.039
REMARK SMILES CCCCCO
REMARK SMILES IDX 4 1 3 2 2 3 1 4 5 5 6 6
REMARK H PARENT 6 7
REMARK Flexibility Score: inf
ROOT
ATOM      1  C   UNL     1       2.417   6.402  11.904  1.00  0.00     0.028 C 
ENDROOT
BRANCH   1   2
ATOM      2  C   UNL     1       3.394   5.400  11.266  1.00  0.00     0.002 C 
BRANCH   2   3
ATOM      3  C   UNL     1       2.812   4.712  10.023  1.00  0.00    -0.003 C 
ATOM      4  C   UNL     1       1.513   3.985  10.355  1.00  0.00     0.004 C 
ENDBRANCH   2   3
ENDBRANCH   1   2
BRANCH   1   5
ATOM      5  C   UNL     1       2.128   7.624  11.021  1.00  0.00     0.156 C 
BRANCH   5   6
ATOM      6  O   UNL     1       1.776   8.737  11.797  1.00  0.00    -0.396 OA
ATOM      7  H   UNL     1       2.621   9.105  12.165  1.00  0.00     0.210 HD
ENDBRANCH   5   6
ENDBRANCH   1   5
TORSDOF 4
ENDMDL
MODEL 2
REMARK VINA RESULT:    -3.508      8.720      9.559
REMARK INTER + INTRA:          -4.265
REMARK INTER:                  -4.232
REMARK INTRA:                  -0.033
REMARK UNBOUND:                -0.039
REMARK SMILES CCCCCO
REMARK SMILES IDX 4 1 3 2 2 3 1 4 5 5 6 6
REMARK H PARENT 6 7
REMARK Flexibility Score: inf
ROOT
ATOM      1  C   UNL     1       2.754  -2.306  14.124  1.00  0.00     0.028 C 
ENDROOT
BRANCH   1   2
ATOM      2  C   UNL     1       2.807  -0.939  14.828  1.00  0.00     0.002 C 
BRANCH   2   3
ATOM      3  C   UNL     1       1.414  -0.330  15.044  1.00  0.00    -0.003 C 
ATOM      4  C   UNL     1       0.495  -0.627  13.863  1.00  0.00     0.004 C 
ENDBRANCH   2   3
ENDBRANCH   1   2
BRANCH   1   5
ATOM      5  C   UNL     1       2.515  -3.481  15.083  1.00  0.00     0.156 C 
BRANCH   5   6
ATOM      6  O   UNL     1       2.337  -4.680  14.378  1.00  0.00    -0.396 OA
ATOM      7  H   UNL     1       2.829  -5.380  14.880  1.00  0.00     0.210 HD
ENDBRANCH   5   6
ENDBRANCH   1   5
TORSDOF 4
ENDMDL
MODEL 3
REMARK VINA RESULT:    -3.413      2.475      3.607
REMARK INTER + INTRA:          -4.151
REMARK INTER:                  -4.108
REMARK INTRA:                  -0.043
REMARK UNBOUND:                -0.039
REMARK SMILES CCCCCO
REMARK SMILES IDX 4 1 3 2 2 3 1 4 5 5 6 6
REMARK H PARENT 6 7
REMARK Flexibility Score: inf
ROOT
ATOM      1  C   UNL     1       2.788   4.683  10.193  1.00  0.00     0.028 C 
ENDROOT
BRANCH   1   2
ATOM      2  C   UNL     1       3.376   5.485  11.366  1.00  0.00     0.002 C 
BRANCH   2   3
ATOM      3  C   UNL     1       2.391   6.520  11.929  1.00  0.00    -0.003 C 
ATOM      4  C   UNL     1       2.161   7.656  10.936  1.00  0.00     0.004 C 
ENDBRANCH   2   3
ENDBRANCH   1   2
BRANCH   1   5
ATOM      5  C   UNL     1       1.479   3.960  10.538  1.00  0.00     0.156 C 
BRANCH   5   6
ATOM      6  O   UNL     1       1.013   3.211   9.448  1.00  0.00    -0.396 OA
ATOM      7  H   UNL     1       1.813   2.943   8.925  1.00  0.00     0.210 HD
ENDBRANCH   5   6
ENDBRANCH   1   5
TORSDOF 4
ENDMDL
MODEL 4
REMARK VINA RESULT:    -3.282      8.233      8.813
REMARK INTER + INTRA:          -3.993
REMARK INTER:                  -3.889
REMARK INTRA:                  -0.104
REMARK UNBOUND:                -0.039
REMARK SMILES CCCCCO
REMARK SMILES IDX 4 1 3 2 2 3 1 4 5 5 6 6
REMARK H PARENT 6 7
REMARK Flexibility Score: inf
ROOT
ATOM      1  C   UNL     1       0.733  -0.650  14.107  1.00  0.00     0.028 C 
ENDROOT
BRANCH   1   2
ATOM      2  C   UNL     1       1.982  -0.638  15.005  1.00  0.00     0.002 C 
BRANCH   2   3
ATOM      3  C   UNL     1       3.098  -1.552  14.479  1.00  0.00    -0.003 C 
ATOM      4  C   UNL     1       2.723  -3.023  14.634  1.00  0.00     0.004 C 
ENDBRANCH   2   3
ENDBRANCH   1   2
BRANCH   1   5
ATOM      5  C   UNL     1      -0.558  -1.009  14.855  1.00  0.00     0.156 C 
BRANCH   5   6
ATOM      6  O   UNL     1      -0.280  -1.731  16.025  1.00  0.00    -0.396 OA
ATOM      7  H   UNL     1      -0.110  -1.062  16.738  1.00  0.00     0.210 HD
ENDBRANCH   5   6
ENDBRANCH   1   5
TORSDOF 4
ENDMDL
MODEL 5
REMARK VINA RESULT:    -3.194      1.884      3.000
REMARK INTER + INTRA:          -3.887
REMARK INTER:                  -3.800
REMARK INTRA:                  -0.087
REMARK UNBOUND:                -0.039
REMARK SMILES CCCCCO
REMARK SMILES IDX 4 1 3 2 2 3 1 4 5 5 6 6
REMARK H PARENT 6 7
REMARK Flexibility Score: inf
ROOT
ATOM      1  C   UNL     1       1.534   4.336  10.028  1.00  0.00     0.028 C 
ENDROOT
BRANCH   1   2
ATOM      2  C   UNL     1       2.981   4.852  10.100  1.00  0.00     0.002 C 
BRANCH   2   3
ATOM      3  C   UNL     1       3.336   5.432  11.476  1.00  0.00    -0.003 C 
ATOM      4  C   UNL     1       2.400   6.577  11.849  1.00  0.00     0.004 C 
ENDBRANCH   2   3
ENDBRANCH   1   2
BRANCH   1   5
ATOM      5  C   UNL     1       0.722   4.942   8.875  1.00  0.00     0.156 C 
BRANCH   5   6
ATOM      6  O   UNL     1      -0.100   5.984   9.328  1.00  0.00    -0.396 OA
ATOM      7  H   UNL     1      -0.884   5.558   9.762  1.00  0.00     0.210 HD
ENDBRANCH   5   6
ENDBRANCH   1   5
TORSDOF 4
ENDMDL
MODEL 6
REMARK VINA RESULT:    -3.131      7.369      8.000
REMARK INTER + INTRA:          -3.811
REMARK INTER:                  -3.786
REMARK INTRA:                  -0.026
REMARK UNBOUND:                -0.039
REMARK SMILES CCCCCO
REMARK SMILES IDX 4 1 3 2 2 3 1 4 5 5 6 6
REMARK H PARENT 6 7
REMARK Flexibility Score: inf
ROOT
ATOM      1  C   UNL     1       0.577  -0.933  14.047  1.00  0.00     0.028 C 
ENDROOT
BRANCH   1   2
ATOM      2  C   UNL     1       1.492  -0.191  15.036  1.00  0.00     0.002 C 
BRANCH   2   3
ATOM      3  C   UNL     1       2.703  -1.031  15.468  1.00  0.00    -0.003 C 
ATOM      4  C   UNL     1       3.249  -1.848  14.301  1.00  0.00     0.004 C 
ENDBRANCH   2   3
ENDBRANCH   1   2
BRANCH   1   5
ATOM      5  C   UNL     1      -0.349  -0.002  13.251  1.00  0.00     0.156 C 
BRANCH   5   6
ATOM      6  O   UNL     1      -0.445  -0.409  11.913  1.00  0.00    -0.396 OA
ATOM      7  H   UNL     1       0.481  -0.579  11.600  1.00  0.00     0.210 HD
ENDBRANCH   5   6
ENDBRANCH   1   5
TORSDOF 4
ENDMDL
MODEL 7
REMARK VINA RESULT:    -3.110      7.601      8.351
REMARK INTER + INTRA:          -3.786
REMARK INTER:                  -3.753
REMARK INTRA:                  -0.033
REMARK UNBOUND:                -0.039
REMARK SMILES CCCCCO
REMARK SMILES IDX 4 1 3 2 2 3 1 4 5 5 6 6
REMARK H PARENT 6 7
REMARK Flexibility Score: inf
ROOT
ATOM      1  C   UNL     1       1.196  -0.104  14.785  1.00  0.00     0.028 C 
ENDROOT
BRANCH   1   2
ATOM      2  C   UNL     1       2.427  -0.761  15.432  1.00  0.00     0.002 C 
BRANCH   2   3
ATOM      3  C   UNL     1       3.122  -1.764  14.500  1.00  0.00    -0.003 C 
ATOM      4  C   UNL     1       2.638  -3.186  14.763  1.00  0.00     0.004 C 
ENDBRANCH   2   3
ENDBRANCH   1   2
BRANCH   1   5
ATOM      5  C   UNL     1      -0.096  -0.291  15.593  1.00  0.00     0.156 C 
BRANCH   5   6
ATOM      6  O   UNL     1      -0.402   0.861  16.332  1.00  0.00    -0.396 OA
ATOM      7  H   UNL     1      -0.555   0.566  17.267  1.00  0.00     0.210 HD
ENDBRANCH   5   6
ENDBRANCH   1   5
TORSDOF 4
ENDMDL
MODEL 8
REMARK VINA RESULT:    -3.102      6.150      7.500
REMARK INTER + INTRA:          -3.776
REMARK INTER:                  -3.765
REMARK INTRA:                  -0.011
REMARK UNBOUND:                -0.039
REMARK SMILES CCCCCO
REMARK SMILES IDX 4 1 3 2 2 3 1 4 5 5 6 6
REMARK H PARENT 6 7
REMARK Flexibility Score: inf
ROOT
ATOM      1  C   UNL     1      -1.613  10.793   7.026  1.00  0.00     0.028 C 
ENDROOT
BRANCH   1   2
ATOM      2  C   UNL     1      -0.245  11.487   6.911  1.00  0.00     0.002 C 
BRANCH   2   3
ATOM      3  C   UNL     1       0.287  11.974   8.266  1.00  0.00    -0.003 C 
ATOM      4  C   UNL     1       1.128  10.898   8.946  1.00  0.00     0.004 C 
ENDBRANCH   2   3
ENDBRANCH   1   2
BRANCH   1   5
ATOM      5  C   UNL     1      -1.972   9.938   5.802  1.00  0.00     0.156 C 
BRANCH   5   6
ATOM      6  O   UNL     1      -2.172   8.598   6.163  1.00  0.00    -0.396 OA
ATOM      7  H   UNL     1      -3.151   8.440   6.134  1.00  0.00     0.210 HD
ENDBRANCH   5   6
ENDBRANCH   1   5
TORSDOF 4
ENDMDL
MODEL 9
REMARK VINA RESULT:    -3.098      2.638      3.513
REMARK INTER + INTRA:          -3.771
REMARK INTER:                  -3.679
REMARK INTRA:                  -0.092
REMARK UNBOUND:                -0.039
REMARK SMILES CCCCCO
REMARK SMILES IDX 4 1 3 2 2 3 1 4 5 5 6 6
REMARK H PARENT 6 7
REMARK Flexibility Score: inf
ROOT
ATOM      1  C   UNL     1       0.556   5.759  10.094  1.00  0.00     0.028 C 
ENDROOT
BRANCH   1   2
ATOM      2  C   UNL     1       1.624   6.825  10.394  1.00  0.00     0.002 C 
BRANCH   2   3
ATOM      3  C   UNL     1       2.357   6.573  11.719  1.00  0.00    -0.003 C 
ATOM      4  C   UNL     1       3.504   5.585  11.534  1.00  0.00     0.004 C 
ENDBRANCH   2   3
ENDBRANCH   1   2
BRANCH   1   5
ATOM      5  C   UNL     1       0.901   4.867   8.893  1.00  0.00     0.156 C 
BRANCH   5   6
ATOM      6  O   UNL     1       1.310   3.592   9.311  1.00  0.00    -0.396 OA
ATOM      7  H   UNL     1       1.175   3.559  10.293  1.00  0.00     0.210 HD
ENDBRANCH   5   6
ENDBRANCH   1   5
TORSDOF 4
ENDMDL
