MODEL 1
REMARK VINA RESULT:    -2.760      0.000      0.000
REMARK INTER + INTRA:          -3.351
REMARK INTER:                  -3.244
REMARK INTRA:                  -0.107
REMARK UNBOUND:                -0.107
REMARK SMILES O=C([O-])CCC(=O)[O-]
REMARK SMILES IDX 4 1 2 2 1 3 3 4 5 5 6 6 7 7 8 8
REMARK H PARENT
REMARK Flexibility Score: inf
ROOT
ATOM      1  C   UNL     1      12.079  -9.030  23.966  1.00  0.00     0.059 C 
ENDROOT
BRANCH   1   2
ATOM      2  C   UNL     1      12.090  -9.782  22.670  1.00  0.00     0.042 C 
ATOM      3  O   UNL     1      11.007 -10.144  22.140  1.00  0.00    -0.550 OA
ATOM      4  O   UNL     1      13.293 -10.047  22.028  1.00  0.00    -0.550 OA
ENDBRANCH   1   2
BRANCH   1   5
ATOM      5  C   UNL     1      11.582  -7.592  23.781  1.00  0.00     0.059 C 
BRANCH   5   6
ATOM      6  C   UNL     1      12.714  -6.611  23.782  1.00  0.00     0.042 C 
ATOM      7  O   UNL     1      13.901  -7.013  23.895  1.00  0.00    -0.550 OA
ATOM      8  O   UNL     1      12.459  -5.254  23.618  1.00  0.00    -0.550 OA
ENDBRANCH   5   6
ENDBRANCH   1   5
TORSDOF 3
ENDMDL
MODEL 2
REMARK VINA RESULT:    -2.743      1.564      4.248
REMARK INTER + INTRA:          -3.331
REMARK INTER:                  -3.212
REMARK INTRA:                  -0.119
REMARK UNBOUND:                -0.107
REMARK SMILES O=C([O-])CCC(=O)[O-]
REMARK SMILES IDX 4 1 2 2 1 3 3 4 5 5 6 6 7 7 8 8
REMARK H PARENT
REMARK Flexibility Score: inf
ROOT
ATOM      1  C   UNL     1      12.560  -6.512  23.718  1.00  0.00     0.059 C 
ENDROOT
BRANCH   1   2
ATOM      2  C   UNL     1      13.363  -5.326  24.155  1.00  0.00     0.042 C 
ATOM      3  O   UNL     1      14.522  -5.482  24.621  1.00  0.00    -0.550 OA
ATOM      4  O   UNL     1      12.846  -4.044  24.012  1.00  0.00    -0.550 OA
ENDBRANCH   1   2
BRANCH   1   5
ATOM      5  C   UNL     1      13.182  -7.826  24.205  1.00  0.00     0.059 C 
BRANCH   5   6
ATOM      6  C   UNL     1      13.799  -8.597  23.078  1.00  0.00     0.042 C 
ATOM      7  O   UNL     1      14.967  -8.329  22.693  1.00  0.00    -0.550 OA
ATOM      8  O   UNL     1      13.099  -9.638  22.481  1.00  0.00    -0.550 OA
ENDBRANCH   5   6
ENDBRANCH   1   5
TORSDOF 3
ENDMDL
MODEL 3
REMARK VINA RESULT:    -2.713      2.199      4.254
REMARK INTER + INTRA:          -3.296
REMARK INTER:                  -3.175
REMARK INTRA:                  -0.121
REMARK UNBOUND:                -0.107
REMARK SMILES O=C([O-])CCC(=O)[O-]
REMARK SMILES IDX 4 1 2 2 1 3 3 4 5 5 6 6 7 7 8 8
REMARK H PARENT
REMARK Flexibility Score: inf
ROOT
ATOM      1  C   UNL     1      14.041  -6.141  24.953  1.00  0.00     0.059 C 
ENDROOT
BRANCH   1   2
ATOM      2  C   UNL     1      13.777  -4.867  24.212  1.00  0.00     0.042 C 
ATOM      3  O   UNL     1      12.602  -4.563  23.873  1.00  0.00    -0.550 OA
ATOM      4  O   UNL     1      14.821  -3.995  23.929  1.00  0.00    -0.550 OA
ENDBRANCH   1   2
BRANCH   1   5
ATOM      5  C   UNL     1      13.857  -7.367  24.053  1.00  0.00     0.059 C 
BRANCH   5   6
ATOM      6  C   UNL     1      12.614  -8.127  24.401  1.00  0.00     0.042 C 
ATOM      7  O   UNL     1      12.665  -9.086  25.215  1.00  0.00    -0.550 OA
ATOM      8  O   UNL     1      11.392  -7.750  23.857  1.00  0.00    -0.550 OA
ENDBRANCH   5   6
ENDBRANCH   1   5
TORSDOF 3
ENDMDL
MODEL 4
REMARK VINA RESULT:    -2.702      4.365      6.769
REMARK INTER + INTRA:          -3.283
REMARK INTER:                  -3.137
REMARK INTRA:                  -0.146
REMARK UNBOUND:                -0.107
REMARK SMILES O=C([O-])CCC(=O)[O-]
REMARK SMILES IDX 4 1 2 2 1 3 3 4 5 5 6 6 7 7 8 8
REMARK H PARENT
REMARK Flexibility Score: inf
ROOT
ATOM      1  C   UNL     1      13.490  -1.847  24.574  1.00  0.00     0.059 C 
ENDROOT
BRANCH   1   2
ATOM      2  C   UNL     1      14.899  -1.487  24.215  1.00  0.00     0.042 C 
ATOM      3  O   UNL     1      15.670  -1.002  25.085  1.00  0.00    -0.550 OA
ATOM      4  O   UNL     1      15.372  -1.723  22.930  1.00  0.00    -0.550 OA
ENDBRANCH   1   2
BRANCH   1   5
ATOM      5  C   UNL     1      13.427  -3.150  25.379  1.00  0.00     0.059 C 
BRANCH   5   6
ATOM      6  C   UNL     1      13.580  -4.352  24.498  1.00  0.00     0.042 C 
ATOM      7  O   UNL     1      12.617  -4.744  23.789  1.00  0.00    -0.550 OA
ATOM      8  O   UNL     1      14.800  -5.015  24.430  1.00  0.00    -0.550 OA
ENDBRANCH   5   6
ENDBRANCH   1   5
TORSDOF 3
ENDMDL
MODEL 5
REMARK VINA RESULT:    -2.682      4.323      5.754
REMARK INTER + INTRA:          -3.259
REMARK INTER:                  -3.106
REMARK INTRA:                  -0.152
REMARK UNBOUND:                -0.107
REMARK SMILES O=C([O-])CCC(=O)[O-]
REMARK SMILES IDX 4 1 2 2 1 3 3 4 5 5 6 6 7 7 8 8
REMARK H PARENT
REMARK Flexibility Score: inf
ROOT
ATOM      1  C   UNL     1      13.428  -3.222  25.421  1.00  0.00     0.059 C 
ENDROOT
BRANCH   1   2
ATOM      2  C   UNL     1      13.549  -4.416  24.525  1.00  0.00     0.042 C 
ATOM      3  O   UNL     1      12.593  -4.745  23.775  1.00  0.00    -0.550 OA
ATOM      4  O   UNL     1      14.733  -5.143  24.489  1.00  0.00    -0.550 OA
ENDBRANCH   1   2
BRANCH   1   5
ATOM      5  C   UNL     1      13.546  -1.912  24.636  1.00  0.00     0.059 C 
BRANCH   5   6
ATOM      6  C   UNL     1      14.966  -1.619  24.258  1.00  0.00     0.042 C 
ATOM      7  O   UNL     1      15.795  -1.265  25.136  1.00  0.00    -0.550 OA
ATOM      8  O   UNL     1      15.383  -1.779  22.942  1.00  0.00    -0.550 OA
ENDBRANCH   5   6
ENDBRANCH   1   5
TORSDOF 3
ENDMDL
MODEL 6
REMARK VINA RESULT:    -2.628      1.501      4.237
REMARK INTER + INTRA:          -3.195
REMARK INTER:                  -3.163
REMARK INTRA:                  -0.032
REMARK UNBOUND:                -0.107
REMARK SMILES O=C([O-])CCC(=O)[O-]
REMARK SMILES IDX 4 1 2 2 1 3 3 4 5 5 6 6 7 7 8 8
REMARK H PARENT
REMARK Flexibility Score: inf
ROOT
ATOM      1  C   UNL     1      13.309  -7.050  24.087  1.00  0.00     0.059 C 
ENDROOT
BRANCH   1   2
ATOM      2  C   UNL     1      13.641  -5.593  24.186  1.00  0.00     0.042 C 
ATOM      3  O   UNL     1      14.792  -5.228  24.542  1.00  0.00    -0.550 OA
ATOM      4  O   UNL     1      12.691  -4.638  23.846  1.00  0.00    -0.550 OA
ENDBRANCH   1   2
BRANCH   1   5
ATOM      5  C   UNL     1      11.831  -7.272  23.748  1.00  0.00     0.059 C 
BRANCH   5   6
ATOM      6  C   UNL     1      11.451  -8.717  23.848  1.00  0.00     0.042 C 
ATOM      7  O   UNL     1      11.434  -9.291  24.969  1.00  0.00    -0.550 OA
ATOM      8  O   UNL     1      11.074  -9.419  22.709  1.00  0.00    -0.550 OA
ENDBRANCH   5   6
ENDBRANCH   1   5
TORSDOF 3
ENDMDL
MODEL 7
REMARK VINA RESULT:    -2.620      1.235      1.792
REMARK INTER + INTRA:          -3.186
REMARK INTER:                  -3.151
REMARK INTRA:                  -0.035
REMARK UNBOUND:                -0.107
REMARK SMILES O=C([O-])CCC(=O)[O-]
REMARK SMILES IDX 4 1 2 2 1 3 3 4 5 5 6 6 7 7 8 8
REMARK H PARENT
REMARK Flexibility Score: inf
ROOT
ATOM      1  C   UNL     1      11.753  -7.606  23.757  1.00  0.00     0.059 C 
ENDROOT
BRANCH   1   2
ATOM      2  C   UNL     1      11.516  -9.055  23.460  1.00  0.00     0.042 C 
ATOM      3  O   UNL     1      12.260  -9.665  22.647  1.00  0.00    -0.550 OA
ATOM      4  O   UNL     1      10.498  -9.742  24.110  1.00  0.00    -0.550 OA
ENDBRANCH   1   2
BRANCH   1   5
ATOM      5  C   UNL     1      13.238  -7.314  23.995  1.00  0.00     0.059 C 
BRANCH   5   6
ATOM      6  C   UNL     1      13.499  -5.844  24.123  1.00  0.00     0.042 C 
ATOM      7  O   UNL     1      14.604  -5.434  24.565  1.00  0.00    -0.550 OA
ATOM      8  O   UNL     1      12.537  -4.928  23.715  1.00  0.00    -0.550 OA
ENDBRANCH   5   6
ENDBRANCH   1   5
TORSDOF 3
ENDMDL
MODEL 8
REMARK VINA RESULT:    -2.552      4.601      5.939
REMARK INTER + INTRA:          -3.107
REMARK INTER:                  -2.994
REMARK INTRA:                  -0.113
REMARK UNBOUND:                -0.107
REMARK SMILES O=C([O-])CCC(=O)[O-]
REMARK SMILES IDX 4 1 2 2 1 3 3 4 5 5 6 6 7 7 8 8
REMARK H PARENT
REMARK Flexibility Score: inf
ROOT
ATOM      1  C   UNL     1      14.753  -4.294  25.156  1.00  0.00     0.059 C 
ENDROOT
BRANCH   1   2
ATOM      2  C   UNL     1      13.430  -3.869  24.597  1.00  0.00     0.042 C 
ATOM      3  O   UNL     1      12.998  -2.706  24.808  1.00  0.00    -0.550 OA
ATOM      4  O   UNL     1      12.693  -4.745  23.809  1.00  0.00    -0.550 OA
ENDBRANCH   1   2
BRANCH   1   5
ATOM      5  C   UNL     1      15.867  -4.196  24.108  1.00  0.00     0.059 C 
BRANCH   5   6
ATOM      6  C   UNL     1      16.226  -2.772  23.814  1.00  0.00     0.042 C 
ATOM      7  O   UNL     1      16.902  -2.106  24.641  1.00  0.00    -0.550 OA
ATOM      8  O   UNL     1      15.850  -2.193  22.608  1.00  0.00    -0.550 OA
ENDBRANCH   5   6
ENDBRANCH   1   5
TORSDOF 3
ENDMDL
MODEL 9
REMARK VINA RESULT:    -2.535      8.593      9.300
REMARK INTER + INTRA:          -3.087
REMARK INTER:                  -2.969
REMARK INTRA:                  -0.118
REMARK UNBOUND:                -0.107
REMARK SMILES O=C([O-])CCC(=O)[O-]
REMARK SMILES IDX 4 1 2 2 1 3 3 4 5 5 6 6 7 7 8 8
REMARK H PARENT
REMARK Flexibility Score: inf
ROOT
ATOM      1  C   UNL     1       6.485  -3.039  17.975  1.00  0.00     0.059 C 
ENDROOT
BRANCH   1   2
ATOM      2  C   UNL     1       5.564  -4.032  17.334  1.00  0.00     0.042 C 
ATOM      3  O   UNL     1       5.911  -4.632  16.283  1.00  0.00    -0.550 OA
ATOM      4  O   UNL     1       4.338  -4.324  17.920  1.00  0.00    -0.550 OA
ENDBRANCH   1   2
BRANCH   1   5
ATOM      5  C   UNL     1       7.049  -3.565  19.299  1.00  0.00     0.059 C 
BRANCH   5   6
ATOM      6  C   UNL     1       6.402  -2.902  20.477  1.00  0.00     0.042 C 
ATOM      7  O   UNL     1       5.478  -3.485  21.103  1.00  0.00    -0.550 OA
ATOM      8  O   UNL     1       6.850  -1.660  20.909  1.00  0.00    -0.550 OA
ENDBRANCH   5   6
ENDBRANCH   1   5
TORSDOF 3
ENDMDL
