MODEL 1
REMARK VINA RESULT:    -6.774      0.000      0.000
REMARK INTER + INTRA:          -6.774
REMARK INTER:                  -6.774
REMARK INTRA:                   0.000
REMARK UNBOUND:                 0.000
REMARK SMILES C=C1CCC[C@]2(C)CC(=O)C(=C(C)C)C[C@H]12
REMARK SMILES IDX 13 1 12 2 11 3 15 4 16 5 2 6 1 7 3 8 4 9 5 10 6 11 8 12 9 13
REMARK SMILES IDX 10 14 7 15 14 16
REMARK H PARENT
REMARK Flexibility Score: inf
ROOT
ATOM      1  C   UNL     1     211.963 157.003 182.735  1.00  0.00     0.039 C 
ATOM      2  C   UNL     1     212.562 155.977 183.669  1.00  0.00    -0.070 C 
ATOM      3  C   UNL     1     212.961 154.751 183.220  1.00  0.00    -0.006 C 
ATOM      4  C   UNL     1     213.483 153.664 184.139  1.00  0.00     0.047 C 
ATOM      5  C   UNL     1     212.671 152.345 184.012  1.00  0.00     0.025 C 
ATOM      6  C   UNL     1     213.538 151.193 184.497  1.00  0.00    -0.073 C 
ATOM      7  C   UNL     1     213.666 150.944 185.810  1.00  0.00     0.008 C 
ATOM      8  C   UNL     1     214.347 150.416 183.488  1.00  0.00     0.031 C 
ATOM      9  C   UNL     1     213.495 149.924 182.304  1.00  0.00     0.005 C 
ATOM     10  C   UNL     1     212.095 150.561 182.229  1.00  0.00     0.008 C 
ATOM     11  C   UNL     1     212.077 152.079 182.566  1.00  0.00    -0.018 C 
ATOM     12  C   UNL     1     212.858 152.870 181.476  1.00  0.00     0.088 C 
ATOM     13  C   UNL     1     212.896 154.338 181.795  1.00  0.00     0.159 C 
ATOM     14  O   UNL     1     212.955 155.172 180.853  1.00  0.00    -0.295 OA
ATOM     15  C   UNL     1     210.590 152.528 182.531  1.00  0.00     0.012 C 
ATOM     16  C   UNL     1     212.663 156.347 185.130  1.00  0.00     0.039 C 
ENDROOT
TORSDOF 0
ENDMDL
MODEL 2
REMARK VINA RESULT:    -6.576      2.253      4.811
REMARK INTER + INTRA:          -6.576
REMARK INTER:                  -6.576
REMARK INTRA:                   0.000
REMARK UNBOUND:                 0.000
REMARK SMILES C=C1CCC[C@]2(C)CC(=O)C(=C(C)C)C[C@H]12
REMARK SMILES IDX 13 1 12 2 11 3 15 4 16 5 2 6 1 7 3 8 4 9 5 10 6 11 8 12 9 13
REMARK SMILES IDX 10 14 7 15 14 16
REMARK H PARENT
REMARK Flexibility Score: inf
ROOT
ATOM      1  C   UNL     1     215.159 149.875 180.252  1.00  0.00     0.039 C 
ATOM      2  C   UNL     1     215.054 151.368 180.454  1.00  0.00    -0.070 C 
ATOM      3  C   UNL     1     214.449 151.898 181.557  1.00  0.00    -0.006 C 
ATOM      4  C   UNL     1     214.244 153.387 181.754  1.00  0.00     0.047 C 
ATOM      5  C   UNL     1     212.751 153.751 181.984  1.00  0.00     0.025 C 
ATOM      6  C   UNL     1     212.684 155.092 182.700  1.00  0.00    -0.073 C 
ATOM      7  C   UNL     1     212.820 156.238 182.014  1.00  0.00     0.008 C 
ATOM      8  C   UNL     1     212.588 155.108 184.206  1.00  0.00     0.031 C 
ATOM      9  C   UNL     1     211.451 154.213 184.732  1.00  0.00     0.005 C 
ATOM     10  C   UNL     1     210.853 153.269 183.674  1.00  0.00     0.008 C 
ATOM     11  C   UNL     1     211.912 152.632 182.729  1.00  0.00    -0.018 C 
ATOM     12  C   UNL     1     212.833 151.675 183.541  1.00  0.00     0.088 C 
ATOM     13  C   UNL     1     213.897 151.075 182.665  1.00  0.00     0.159 C 
ATOM     14  O   UNL     1     214.349 149.932 182.938  1.00  0.00    -0.295 OA
ATOM     15  C   UNL     1     211.130 151.793 181.681  1.00  0.00     0.012 C 
ATOM     16  C   UNL     1     215.609 152.255 179.364  1.00  0.00     0.039 C 
ENDROOT
TORSDOF 0
ENDMDL
MODEL 3
REMARK VINA RESULT:    -6.575      2.219      3.903
REMARK INTER + INTRA:          -6.575
REMARK INTER:                  -6.575
REMARK INTRA:                   0.000
REMARK UNBOUND:                 0.000
REMARK SMILES C=C1CCC[C@]2(C)CC(=O)C(=C(C)C)C[C@H]12
REMARK SMILES IDX 13 1 12 2 11 3 15 4 16 5 2 6 1 7 3 8 4 9 5 10 6 11 8 12 9 13
REMARK SMILES IDX 10 14 7 15 14 16
REMARK H PARENT
REMARK Flexibility Score: inf
ROOT
ATOM      1  C   UNL     1     214.354 152.433 177.849  1.00  0.00     0.039 C 
ATOM      2  C   UNL     1     213.867 153.103 179.112  1.00  0.00    -0.070 C 
ATOM      3  C   UNL     1     214.143 152.588 180.345  1.00  0.00    -0.006 C 
ATOM      4  C   UNL     1     213.598 153.179 181.630  1.00  0.00     0.047 C 
ATOM      5  C   UNL     1     212.805 152.138 182.468  1.00  0.00     0.025 C 
ATOM      6  C   UNL     1     212.777 152.601 183.917  1.00  0.00    -0.073 C 
ATOM      7  C   UNL     1     211.900 153.536 184.316  1.00  0.00     0.008 C 
ATOM      8  C   UNL     1     213.831 152.086 184.866  1.00  0.00     0.031 C 
ATOM      9  C   UNL     1     213.942 150.550 184.843  1.00  0.00     0.005 C 
ATOM     10  C   UNL     1     213.196 149.883 183.674  1.00  0.00     0.008 C 
ATOM     11  C   UNL     1     213.328 150.648 182.326  1.00  0.00    -0.018 C 
ATOM     12  C   UNL     1     214.807 150.609 181.841  1.00  0.00     0.088 C 
ATOM     13  C   UNL     1     214.978 151.378 180.561  1.00  0.00     0.159 C 
ATOM     14  O   UNL     1     215.872 151.028 179.746  1.00  0.00    -0.295 OA
ATOM     15  C   UNL     1     212.450 149.891 181.293  1.00  0.00     0.012 C 
ATOM     16  C   UNL     1     213.022 154.346 178.954  1.00  0.00     0.039 C 
ENDROOT
TORSDOF 0
ENDMDL
MODEL 4
REMARK VINA RESULT:    -6.531      2.490      4.852
REMARK INTER + INTRA:          -6.531
REMARK INTER:                  -6.531
REMARK INTRA:                   0.000
REMARK UNBOUND:                 0.000
REMARK SMILES C=C1CCC[C@]2(C)CC(=O)C(=C(C)C)C[C@H]12
REMARK SMILES IDX 13 1 12 2 11 3 15 4 16 5 2 6 1 7 3 8 4 9 5 10 6 11 8 12 9 13
REMARK SMILES IDX 10 14 7 15 14 16
REMARK H PARENT
REMARK Flexibility Score: inf
ROOT
ATOM      1  C   UNL     1     215.000 151.990 177.280  1.00  0.00     0.039 C 
ATOM      2  C   UNL     1     213.619 152.042 177.890  1.00  0.00    -0.070 C 
ATOM      3  C   UNL     1     213.434 152.305 179.216  1.00  0.00    -0.006 C 
ATOM      4  C   UNL     1     212.073 152.278 179.883  1.00  0.00     0.047 C 
ATOM      5  C   UNL     1     212.028 151.300 181.090  1.00  0.00     0.025 C 
ATOM      6  C   UNL     1     210.890 151.717 182.010  1.00  0.00    -0.073 C 
ATOM      7  C   UNL     1     209.625 151.369 181.727  1.00  0.00     0.008 C 
ATOM      8  C   UNL     1     211.192 152.630 183.173  1.00  0.00     0.031 C 
ATOM      9  C   UNL     1     212.359 152.116 184.036  1.00  0.00     0.005 C 
ATOM     10  C   UNL     1     213.161 150.971 183.392  1.00  0.00     0.008 C 
ATOM     11  C   UNL     1     213.402 151.154 181.866  1.00  0.00    -0.018 C 
ATOM     12  C   UNL     1     214.327 152.383 181.622  1.00  0.00     0.088 C 
ATOM     13  C   UNL     1     214.544 152.615 180.154  1.00  0.00     0.159 C 
ATOM     14  O   UNL     1     215.622 153.136 179.765  1.00  0.00    -0.295 OA
ATOM     15  C   UNL     1     214.138 149.879 181.373  1.00  0.00     0.012 C 
ATOM     16  C   UNL     1     212.449 151.746 176.980  1.00  0.00     0.039 C 
ENDROOT
TORSDOF 0
ENDMDL
MODEL 5
REMARK VINA RESULT:    -6.470      1.997      3.023
REMARK INTER + INTRA:          -6.470
REMARK INTER:                  -6.470
REMARK INTRA:                   0.000
REMARK UNBOUND:                 0.000
REMARK SMILES C=C1CCC[C@]2(C)CC(=O)C(=C(C)C)C[C@H]12
REMARK SMILES IDX 13 1 12 2 11 3 15 4 16 5 2 6 1 7 3 8 4 9 5 10 6 11 8 12 9 13
REMARK SMILES IDX 10 14 7 15 14 16
REMARK H PARENT
REMARK Flexibility Score: inf
ROOT
ATOM      1  C   UNL     1     213.214 155.671 185.177  1.00  0.00     0.039 C 
ATOM      2  C   UNL     1     212.171 154.679 184.721  1.00  0.00    -0.070 C 
ATOM      3  C   UNL     1     212.506 153.577 183.990  1.00  0.00    -0.006 C 
ATOM      4  C   UNL     1     211.481 152.606 183.438  1.00  0.00     0.047 C 
ATOM      5  C   UNL     1     211.597 152.438 181.898  1.00  0.00     0.025 C 
ATOM      6  C   UNL     1     210.968 151.109 181.506  1.00  0.00    -0.073 C 
ATOM      7  C   UNL     1     209.636 150.998 181.381  1.00  0.00     0.008 C 
ATOM      8  C   UNL     1     211.853 149.893 181.384  1.00  0.00     0.031 C 
ATOM      9  C   UNL     1     213.075 150.143 180.481  1.00  0.00     0.005 C 
ATOM     10  C   UNL     1     213.310 151.625 180.138  1.00  0.00     0.008 C 
ATOM     11  C   UNL     1     213.070 152.592 181.332  1.00  0.00    -0.018 C 
ATOM     12  C   UNL     1     214.135 152.336 182.439  1.00  0.00     0.088 C 
ATOM     13  C   UNL     1     213.904 153.225 183.628  1.00  0.00     0.159 C 
ATOM     14  O   UNL     1     214.886 153.582 184.331  1.00  0.00    -0.295 OA
ATOM     15  C   UNL     1     213.263 154.034 180.787  1.00  0.00     0.012 C 
ATOM     16  C   UNL     1     210.732 154.979 185.070  1.00  0.00     0.039 C 
ENDROOT
TORSDOF 0
ENDMDL
MODEL 6
REMARK VINA RESULT:    -6.391      2.253      4.467
REMARK INTER + INTRA:          -6.391
REMARK INTER:                  -6.391
REMARK INTRA:                   0.000
REMARK UNBOUND:                 0.000
REMARK SMILES C=C1CCC[C@]2(C)CC(=O)C(=C(C)C)C[C@H]12
REMARK SMILES IDX 13 1 12 2 11 3 15 4 16 5 2 6 1 7 3 8 4 9 5 10 6 11 8 12 9 13
REMARK SMILES IDX 10 14 7 15 14 16
REMARK H PARENT
REMARK Flexibility Score: inf
ROOT
ATOM      1  C   UNL     1     211.919 151.513 178.434  1.00  0.00     0.039 C 
ATOM      2  C   UNL     1     213.089 150.935 179.195  1.00  0.00    -0.070 C 
ATOM      3  C   UNL     1     213.040 150.749 180.546  1.00  0.00    -0.006 C 
ATOM      4  C   UNL     1     214.222 150.255 181.357  1.00  0.00     0.047 C 
ATOM      5  C   UNL     1     214.598 151.233 182.505  1.00  0.00     0.025 C 
ATOM      6  C   UNL     1     215.367 150.461 183.567  1.00  0.00    -0.073 C 
ATOM      7  C   UNL     1     216.675 150.203 183.407  1.00  0.00     0.008 C 
ATOM      8  C   UNL     1     214.610 149.884 184.738  1.00  0.00     0.031 C 
ATOM      9  C   UNL     1     213.722 150.929 185.437  1.00  0.00     0.005 C 
ATOM     10  C   UNL     1     213.550 152.238 184.646  1.00  0.00     0.008 C 
ATOM     11  C   UNL     1     213.370 152.028 183.115  1.00  0.00    -0.018 C 
ATOM     12  C   UNL     1     212.024 151.296 182.840  1.00  0.00     0.088 C 
ATOM     13  C   UNL     1     211.838 151.038 181.371  1.00  0.00     0.159 C 
ATOM     14  O   UNL     1     210.673 150.993 180.895  1.00  0.00    -0.295 OA
ATOM     15  C   UNL     1     213.303 153.441 182.474  1.00  0.00     0.012 C 
ATOM     16  C   UNL     1     214.335 150.610 178.405  1.00  0.00     0.039 C 
ENDROOT
TORSDOF 0
ENDMDL
MODEL 7
REMARK VINA RESULT:    -6.273      1.623      2.908
REMARK INTER + INTRA:          -6.273
REMARK INTER:                  -6.273
REMARK INTRA:                   0.000
REMARK UNBOUND:                 0.000
REMARK SMILES C=C1CCC[C@]2(C)CC(=O)C(=C(C)C)C[C@H]12
REMARK SMILES IDX 13 1 12 2 11 3 15 4 16 5 2 6 1 7 3 8 4 9 5 10 6 11 8 12 9 13
REMARK SMILES IDX 10 14 7 15 14 16
REMARK H PARENT
REMARK Flexibility Score: inf
ROOT
ATOM      1  C   UNL     1     212.808 156.839 182.312  1.00  0.00     0.039 C 
ATOM      2  C   UNL     1     213.513 155.608 181.792  1.00  0.00    -0.070 C 
ATOM      3  C   UNL     1     213.243 154.367 182.292  1.00  0.00    -0.006 C 
ATOM      4  C   UNL     1     213.990 153.120 181.860  1.00  0.00     0.047 C 
ATOM      5  C   UNL     1     214.636 152.375 183.061  1.00  0.00     0.025 C 
ATOM      6  C   UNL     1     214.865 150.924 182.665  1.00  0.00    -0.073 C 
ATOM      7  C   UNL     1     215.932 150.582 181.925  1.00  0.00     0.008 C 
ATOM      8  C   UNL     1     213.812 149.900 183.009  1.00  0.00     0.031 C 
ATOM      9  C   UNL     1     213.411 149.946 184.495  1.00  0.00     0.005 C 
ATOM     10  C   UNL     1     213.922 151.188 185.246  1.00  0.00     0.008 C 
ATOM     11  C   UNL     1     213.831 152.504 184.421  1.00  0.00    -0.018 C 
ATOM     12  C   UNL     1     212.337 152.863 184.166  1.00  0.00     0.088 C 
ATOM     13  C   UNL     1     212.214 154.107 183.332  1.00  0.00     0.159 C 
ATOM     14  O   UNL     1     211.208 154.850 183.478  1.00  0.00    -0.295 OA
ATOM     15  C   UNL     1     214.465 153.623 185.290  1.00  0.00     0.012 C 
ATOM     16  C   UNL     1     214.562 155.810 180.724  1.00  0.00     0.039 C 
ENDROOT
TORSDOF 0
ENDMDL
MODEL 8
REMARK VINA RESULT:    -6.217      2.500      4.868
REMARK INTER + INTRA:          -6.217
REMARK INTER:                  -6.217
REMARK INTRA:                   0.000
REMARK UNBOUND:                 0.000
REMARK SMILES C=C1CCC[C@]2(C)CC(=O)C(=C(C)C)C[C@H]12
REMARK SMILES IDX 13 1 12 2 11 3 15 4 16 5 2 6 1 7 3 8 4 9 5 10 6 11 8 12 9 13
REMARK SMILES IDX 10 14 7 15 14 16
REMARK H PARENT
REMARK Flexibility Score: inf
ROOT
ATOM      1  C   UNL     1     213.750 150.670 184.375  1.00  0.00     0.039 C 
ATOM      2  C   UNL     1     213.944 152.086 183.885  1.00  0.00    -0.070 C 
ATOM      3  C   UNL     1     213.489 152.485 182.662  1.00  0.00    -0.006 C 
ATOM      4  C   UNL     1     213.741 153.870 182.098  1.00  0.00     0.047 C 
ATOM      5  C   UNL     1     214.449 153.823 180.715  1.00  0.00     0.025 C 
ATOM      6  C   UNL     1     214.174 155.129 179.985  1.00  0.00    -0.073 C 
ATOM      7  C   UNL     1     214.886 156.231 180.270  1.00  0.00     0.008 C 
ATOM      8  C   UNL     1     213.009 155.196 179.027  1.00  0.00     0.031 C 
ATOM      9  C   UNL     1     213.028 154.052 177.997  1.00  0.00     0.005 C 
ATOM     10  C   UNL     1     214.026 152.927 178.325  1.00  0.00     0.008 C 
ATOM     11  C   UNL     1     214.082 152.556 179.835  1.00  0.00    -0.018 C 
ATOM     12  C   UNL     1     212.725 151.932 180.274  1.00  0.00     0.088 C 
ATOM     13  C   UNL     1     212.729 151.602 181.740  1.00  0.00     0.159 C 
ATOM     14  O   UNL     1     212.030 150.642 182.158  1.00  0.00    -0.295 OA
ATOM     15  C   UNL     1     215.192 151.482 179.992  1.00  0.00     0.012 C 
ATOM     16  C   UNL     1     214.700 153.033 184.787  1.00  0.00     0.039 C 
ENDROOT
TORSDOF 0
ENDMDL
MODEL 9
REMARK VINA RESULT:    -6.197      1.988      2.723
REMARK INTER + INTRA:          -6.197
REMARK INTER:                  -6.197
REMARK INTRA:                   0.000
REMARK UNBOUND:                 0.000
REMARK SMILES C=C1CCC[C@]2(C)CC(=O)C(=C(C)C)C[C@H]12
REMARK SMILES IDX 13 1 12 2 11 3 15 4 16 5 2 6 1 7 3 8 4 9 5 10 6 11 8 12 9 13
REMARK SMILES IDX 10 14 7 15 14 16
REMARK H PARENT
REMARK Flexibility Score: inf
ROOT
ATOM      1  C   UNL     1     212.664 155.043 178.452  1.00  0.00     0.039 C 
ATOM      2  C   UNL     1     213.297 155.107 179.822  1.00  0.00    -0.070 C 
ATOM      3  C   UNL     1     213.661 153.976 180.493  1.00  0.00    -0.006 C 
ATOM      4  C   UNL     1     214.216 153.993 181.904  1.00  0.00     0.047 C 
ATOM      5  C   UNL     1     213.385 153.108 182.875  1.00  0.00     0.025 C 
ATOM      6  C   UNL     1     214.263 152.731 184.059  1.00  0.00    -0.073 C 
ATOM      7  C   UNL     1     214.453 153.596 185.068  1.00  0.00     0.008 C 
ATOM      8  C   UNL     1     215.014 151.423 184.021  1.00  0.00     0.031 C 
ATOM      9  C   UNL     1     214.100 150.230 183.687  1.00  0.00     0.005 C 
ATOM     10  C   UNL     1     212.705 150.631 183.174  1.00  0.00     0.008 C 
ATOM     11  C   UNL     1     212.718 151.840 182.196  1.00  0.00    -0.018 C 
ATOM     12  C   UNL     1     213.453 151.446 180.882  1.00  0.00     0.088 C 
ATOM     13  C   UNL     1     213.523 152.607 179.931  1.00  0.00     0.159 C 
ATOM     14  O   UNL     1     213.544 152.389 178.691  1.00  0.00    -0.295 OA
ATOM     15  C   UNL     1     211.237 152.158 181.857  1.00  0.00     0.012 C 
ATOM     16  C   UNL     1     213.473 156.474 180.440  1.00  0.00     0.039 C 
ENDROOT
TORSDOF 0
ENDMDL
