MODEL 1
REMARK VINA RESULT:    -4.659      0.000      0.000
REMARK INTER + INTRA:          -7.808
REMARK INTER:                  -7.110
REMARK INTRA:                  -0.699
REMARK UNBOUND:                -0.699
REMARK SMILES O=C([O-])CCCCCCCCC(=O)[O-]
REMARK SMILES IDX 7 1 6 2 5 3 4 4 2 5 1 6 3 7 8 8 9 9 10 10 11 11 12 12 13 13
REMARK SMILES IDX 14 14
REMARK H PARENT
REMARK Flexibility Score: inf
ROOT
ATOM      1  C   UNL     1      10.192  34.317  44.726  1.00  0.00     0.000 C 
ENDROOT
BRANCH   1   2
ATOM      2  C   UNL     1      10.666  33.530  43.487  1.00  0.00     0.000 C 
BRANCH   2   3
ATOM      3  C   UNL     1      10.393  34.216  42.134  1.00  0.00     0.006 C 
BRANCH   3   4
ATOM      4  C   UNL     1      10.085  33.246  40.982  1.00  0.00     0.053 C 
BRANCH   4   5
ATOM      5  C   UNL     1       8.683  32.722  41.048  1.00  0.00     0.041 C 
ATOM      6  O   UNL     1       7.709  33.520  41.046  1.00  0.00    -0.550 OA
ATOM      7  O   UNL     1       8.455  31.356  41.148  1.00  0.00    -0.550 OA
ENDBRANCH   4   5
ENDBRANCH   3   4
ENDBRANCH   2   3
ENDBRANCH   1   2
BRANCH   1   8
ATOM      8  C   UNL     1       9.070  33.641  45.541  1.00  0.00     0.000 C 
BRANCH   8   9
ATOM      9  C   UNL     1       8.692  32.224  45.073  1.00  0.00     0.000 C 
BRANCH   9  10
ATOM     10  C   UNL     1       7.296  32.160  44.436  1.00  0.00     0.006 C 
BRANCH  10  11
ATOM     11  C   UNL     1       6.331  31.356  45.312  1.00  0.00     0.053 C 
BRANCH  11  12
ATOM     12  C   UNL     1       5.914  30.098  44.617  1.00  0.00     0.041 C 
ATOM     13  O   UNL     1       6.764  29.403  44.002  1.00  0.00    -0.550 OA
ATOM     14  O   UNL     1       4.595  29.667  44.690  1.00  0.00    -0.550 OA
ENDBRANCH  11  12
ENDBRANCH  10  11
ENDBRANCH   9  10
ENDBRANCH   8   9
ENDBRANCH   1   8
TORSDOF 9
ENDMDL
MODEL 2
REMARK VINA RESULT:    -4.600     10.875     13.185
REMARK INTER + INTRA:          -7.719
REMARK INTER:                  -7.386
REMARK INTRA:                  -0.333
REMARK UNBOUND:                -0.699
REMARK SMILES O=C([O-])CCCCCCCCC(=O)[O-]
REMARK SMILES IDX 7 1 6 2 5 3 4 4 2 5 1 6 3 7 8 8 9 9 10 10 11 11 12 12 13 13
REMARK SMILES IDX 14 14
REMARK H PARENT
REMARK Flexibility Score: inf
ROOT
ATOM      1  C   UNL     1       5.825  41.961  44.375  1.00  0.00     0.000 C 
ENDROOT
BRANCH   1   2
ATOM      2  C   UNL     1       5.494  42.830  45.605  1.00  0.00     0.000 C 
BRANCH   2   3
ATOM      3  C   UNL     1       4.646  42.134  46.687  1.00  0.00     0.006 C 
BRANCH   3   4
ATOM      4  C   UNL     1       5.285  42.126  48.086  1.00  0.00     0.053 C 
BRANCH   4   5
ATOM      5  C   UNL     1       6.171  40.935  48.291  1.00  0.00     0.041 C 
ATOM      6  O   UNL     1       5.771  39.786  47.965  1.00  0.00    -0.550 OA
ATOM      7  O   UNL     1       7.422  41.090  48.873  1.00  0.00    -0.550 OA
ENDBRANCH   4   5
ENDBRANCH   3   4
ENDBRANCH   2   3
ENDBRANCH   1   2
BRANCH   1   8
ATOM      8  C   UNL     1       6.667  42.658  43.287  1.00  0.00     0.000 C 
BRANCH   8   9
ATOM      9  C   UNL     1       6.805  44.183  43.452  1.00  0.00     0.000 C 
BRANCH   9  10
ATOM     10  C   UNL     1       7.990  44.762  42.666  1.00  0.00     0.006 C 
BRANCH  10  11
ATOM     11  C   UNL     1       7.508  45.494  41.409  1.00  0.00     0.053 C 
BRANCH  11  12
ATOM     12  C   UNL     1       7.793  46.958  41.513  1.00  0.00     0.041 C 
ATOM     13  O   UNL     1       8.927  47.407  41.200  1.00  0.00    -0.550 OA
ATOM     14  O   UNL     1       6.790  47.836  41.905  1.00  0.00    -0.550 OA
ENDBRANCH  11  12
ENDBRANCH  10  11
ENDBRANCH   9  10
ENDBRANCH   8   9
ENDBRANCH   1   8
TORSDOF 9
ENDMDL
MODEL 3
REMARK VINA RESULT:    -4.588     10.928     12.047
REMARK INTER + INTRA:          -7.701
REMARK INTER:                  -7.355
REMARK INTRA:                  -0.346
REMARK UNBOUND:                -0.699
REMARK SMILES O=C([O-])CCCCCCCCC(=O)[O-]
REMARK SMILES IDX 7 1 6 2 5 3 4 4 2 5 1 6 3 7 8 8 9 9 10 10 11 11 12 12 13 13
REMARK SMILES IDX 14 14
REMARK H PARENT
REMARK Flexibility Score: inf
ROOT
ATOM      1  C   UNL     1       7.168  42.410  42.995  1.00  0.00     0.000 C 
ENDROOT
BRANCH   1   2
ATOM      2  C   UNL     1       7.237  43.951  43.009  1.00  0.00     0.000 C 
BRANCH   2   3
ATOM      3  C   UNL     1       7.609  44.599  41.660  1.00  0.00     0.006 C 
BRANCH   3   4
ATOM      4  C   UNL     1       8.399  45.912  41.785  1.00  0.00     0.053 C 
BRANCH   4   5
ATOM      5  C   UNL     1       7.679  47.063  41.151  1.00  0.00     0.041 C 
ATOM      6  O   UNL     1       7.847  47.320  39.931  1.00  0.00    -0.550 OA
ATOM      7  O   UNL     1       6.849  47.872  41.918  1.00  0.00    -0.550 OA
ENDBRANCH   4   5
ENDBRANCH   3   4
ENDBRANCH   2   3
ENDBRANCH   1   2
BRANCH   1   8
ATOM      8  C   UNL     1       6.421  41.778  44.187  1.00  0.00     0.000 C 
BRANCH   8   9
ATOM      9  C   UNL     1       5.266  42.625  44.752  1.00  0.00     0.000 C 
BRANCH   9  10
ATOM     10  C   UNL     1       5.126  42.500  46.276  1.00  0.00     0.006 C 
BRANCH  10  11
ATOM     11  C   UNL     1       5.835  41.244  46.790  1.00  0.00     0.053 C 
BRANCH  11  12
ATOM     12  C   UNL     1       6.168  41.386  48.242  1.00  0.00     0.041 C 
ATOM     13  O   UNL     1       7.240  40.906  48.696  1.00  0.00    -0.550 OA
ATOM     14  O   UNL     1       5.319  42.093  49.084  1.00  0.00    -0.550 OA
ENDBRANCH  11  12
ENDBRANCH  10  11
ENDBRANCH   9  10
ENDBRANCH   8   9
ENDBRANCH   1   8
TORSDOF 9
ENDMDL
MODEL 4
REMARK VINA RESULT:    -4.572      0.736      4.680
REMARK INTER + INTRA:          -7.676
REMARK INTER:                  -6.888
REMARK INTRA:                  -0.788
REMARK UNBOUND:                -0.699
REMARK SMILES O=C([O-])CCCCCCCCC(=O)[O-]
REMARK SMILES IDX 7 1 6 2 5 3 4 4 2 5 1 6 3 7 8 8 9 9 10 10 11 11 12 12 13 13
REMARK SMILES IDX 14 14
REMARK H PARENT
REMARK Flexibility Score: inf
ROOT
ATOM      1  C   UNL     1       9.009  33.516  45.504  1.00  0.00     0.000 C 
ENDROOT
BRANCH   1   2
ATOM      2  C   UNL     1       8.701  32.145  44.868  1.00  0.00     0.000 C 
BRANCH   2   3
ATOM      3  C   UNL     1       7.242  31.953  44.407  1.00  0.00     0.006 C 
BRANCH   3   4
ATOM      4  C   UNL     1       6.849  30.491  44.140  1.00  0.00     0.053 C 
BRANCH   4   5
ATOM      5  C   UNL     1       5.755  30.029  45.054  1.00  0.00     0.041 C 
ATOM      6  O   UNL     1       4.622  29.739  44.588  1.00  0.00    -0.550 OA
ATOM      7  O   UNL     1       5.978  29.951  46.423  1.00  0.00    -0.550 OA
ENDBRANCH   4   5
ENDBRANCH   3   4
ENDBRANCH   2   3
ENDBRANCH   1   2
BRANCH   1   8
ATOM      8  C   UNL     1       9.999  34.396  44.714  1.00  0.00     0.000 C 
BRANCH   8   9
ATOM      9  C   UNL     1      10.696  33.691  43.536  1.00  0.00     0.000 C 
BRANCH   9  10
ATOM     10  C   UNL     1      10.266  34.245  42.170  1.00  0.00     0.006 C 
BRANCH  10  11
ATOM     11  C   UNL     1      10.168  33.125  41.130  1.00  0.00     0.053 C 
BRANCH  11  12
ATOM     12  C   UNL     1       8.775  32.584  41.071  1.00  0.00     0.041 C 
ATOM     13  O   UNL     1       8.577  31.340  41.075  1.00  0.00    -0.550 OA
ATOM     14  O   UNL     1       7.691  33.453  41.063  1.00  0.00    -0.550 OA
ENDBRANCH  11  12
ENDBRANCH  10  11
ENDBRANCH   9  10
ENDBRANCH   8   9
ENDBRANCH   1   8
TORSDOF 9
ENDMDL
MODEL 5
REMARK VINA RESULT:    -4.558      9.711     10.945
REMARK INTER + INTRA:          -7.655
REMARK INTER:                  -7.368
REMARK INTRA:                  -0.287
REMARK UNBOUND:                -0.699
REMARK SMILES O=C([O-])CCCCCCCCC(=O)[O-]
REMARK SMILES IDX 7 1 6 2 5 3 4 4 2 5 1 6 3 7 8 8 9 9 10 10 11 11 12 12 13 13
REMARK SMILES IDX 14 14
REMARK H PARENT
REMARK Flexibility Score: inf
ROOT
ATOM      1  C   UNL     1       5.993  42.004  45.323  1.00  0.00     0.000 C 
ENDROOT
BRANCH   1   2
ATOM      2  C   UNL     1       5.755  42.651  43.944  1.00  0.00     0.000 C 
BRANCH   2   3
ATOM      3  C   UNL     1       6.738  43.780  43.574  1.00  0.00     0.006 C 
BRANCH   3   4
ATOM      4  C   UNL     1       7.421  43.603  42.208  1.00  0.00     0.053 C 
BRANCH   4   5
ATOM      5  C   UNL     1       7.728  44.920  41.561  1.00  0.00     0.041 C 
ATOM      6  O   UNL     1       8.504  44.971  40.571  1.00  0.00    -0.550 OA
ATOM      7  O   UNL     1       7.185  46.091  42.073  1.00  0.00    -0.550 OA
ENDBRANCH   4   5
ENDBRANCH   3   4
ENDBRANCH   2   3
ENDBRANCH   1   2
BRANCH   1   8
ATOM      8  C   UNL     1       4.823  42.137  46.320  1.00  0.00     0.000 C 
BRANCH   8   9
ATOM      9  C   UNL     1       5.235  42.175  47.802  1.00  0.00     0.000 C 
BRANCH   9  10
ATOM     10  C   UNL     1       5.834  40.847  48.289  1.00  0.00     0.006 C 
BRANCH  10  11
ATOM     11  C   UNL     1       7.291  41.031  48.724  1.00  0.00     0.053 C 
BRANCH  11  12
ATOM     12  C   UNL     1       8.114  39.851  48.315  1.00  0.00     0.041 C 
ATOM     13  O   UNL     1       7.610  38.697  48.312  1.00  0.00    -0.550 OA
ATOM     14  O   UNL     1       9.423  40.031  47.887  1.00  0.00    -0.550 OA
ENDBRANCH  11  12
ENDBRANCH  10  11
ENDBRANCH   9  10
ENDBRANCH   8   9
ENDBRANCH   1   8
TORSDOF 9
ENDMDL
MODEL 6
REMARK VINA RESULT:    -4.549      9.556     10.509
REMARK INTER + INTRA:          -7.641
REMARK INTER:                  -7.115
REMARK INTRA:                  -0.526
REMARK UNBOUND:                -0.699
REMARK SMILES O=C([O-])CCCCCCCCC(=O)[O-]
REMARK SMILES IDX 7 1 6 2 5 3 4 4 2 5 1 6 3 7 8 8 9 9 10 10 11 11 12 12 13 13
REMARK SMILES IDX 14 14
REMARK H PARENT
REMARK Flexibility Score: inf
ROOT
ATOM      1  C   UNL     1       6.605  44.061  43.889  1.00  0.00     0.000 C 
ENDROOT
BRANCH   1   2
ATOM      2  C   UNL     1       7.528  44.609  42.782  1.00  0.00     0.000 C 
BRANCH   2   3
ATOM      3  C   UNL     1       7.680  43.697  41.548  1.00  0.00     0.006 C 
BRANCH   3   4
ATOM      4  C   UNL     1       9.080  43.085  41.380  1.00  0.00     0.053 C 
BRANCH   4   5
ATOM      5  C   UNL     1       9.067  41.597  41.562  1.00  0.00     0.041 C 
ATOM      6  O   UNL     1       8.032  40.936  41.286  1.00  0.00    -0.550 OA
ATOM      7  O   UNL     1      10.185  40.948  42.069  1.00  0.00    -0.550 OA
ENDBRANCH   4   5
ENDBRANCH   3   4
ENDBRANCH   2   3
ENDBRANCH   1   2
BRANCH   1   8
ATOM      8  C   UNL     1       6.024  42.657  43.622  1.00  0.00     0.000 C 
BRANCH   8   9
ATOM      9  C   UNL     1       6.083  41.692  44.820  1.00  0.00     0.000 C 
BRANCH   9  10
ATOM     10  C   UNL     1       5.566  42.324  46.120  1.00  0.00     0.006 C 
BRANCH  10  11
ATOM     11  C   UNL     1       5.202  41.246  47.146  1.00  0.00     0.053 C 
BRANCH  11  12
ATOM     12  C   UNL     1       5.989  41.432  48.404  1.00  0.00     0.041 C 
ATOM     13  O   UNL     1       7.178  41.022  48.474  1.00  0.00    -0.550 OA
ATOM     14  O   UNL     1       5.428  42.104  49.483  1.00  0.00    -0.550 OA
ENDBRANCH  11  12
ENDBRANCH  10  11
ENDBRANCH   9  10
ENDBRANCH   8   9
ENDBRANCH   1   8
TORSDOF 9
ENDMDL
MODEL 7
REMARK VINA RESULT:    -4.483      9.123     11.221
REMARK INTER + INTRA:          -7.541
REMARK INTER:                  -7.168
REMARK INTRA:                  -0.373
REMARK UNBOUND:                -0.699
REMARK SMILES O=C([O-])CCCCCCCCC(=O)[O-]
REMARK SMILES IDX 7 1 6 2 5 3 4 4 2 5 1 6 3 7 8 8 9 9 10 10 11 11 12 12 13 13
REMARK SMILES IDX 14 14
REMARK H PARENT
REMARK Flexibility Score: inf
ROOT
ATOM      1  C   UNL     1       5.313  42.249  48.202  1.00  0.00     0.000 C 
ENDROOT
BRANCH   1   2
ATOM      2  C   UNL     1       6.303  41.485  49.105  1.00  0.00     0.000 C 
BRANCH   2   3
ATOM      3  C   UNL     1       7.329  40.612  48.355  1.00  0.00     0.006 C 
BRANCH   3   4
ATOM      4  C   UNL     1       8.734  40.609  48.977  1.00  0.00     0.053 C 
BRANCH   4   5
ATOM      5  C   UNL     1       9.617  39.565  48.364  1.00  0.00     0.041 C 
ATOM      6  O   UNL     1      10.679  39.901  47.777  1.00  0.00    -0.550 OA
ATOM      7  O   UNL     1       9.249  38.226  48.410  1.00  0.00    -0.550 OA
ENDBRANCH   4   5
ENDBRANCH   3   4
ENDBRANCH   2   3
ENDBRANCH   1   2
BRANCH   1   8
ATOM      8  C   UNL     1       5.076  41.622  46.813  1.00  0.00     0.000 C 
BRANCH   8   9
ATOM      9  C   UNL     1       4.917  42.634  45.664  1.00  0.00     0.000 C 
BRANCH   9  10
ATOM     10  C   UNL     1       5.830  42.326  44.468  1.00  0.00     0.006 C 
BRANCH  10  11
ATOM     11  C   UNL     1       6.492  43.604  43.941  1.00  0.00     0.053 C 
BRANCH  11  12
ATOM     12  C   UNL     1       7.103  43.362  42.597  1.00  0.00     0.041 C 
ATOM     13  O   UNL     1       7.343  42.188  42.212  1.00  0.00    -0.550 OA
ATOM     14  O   UNL     1       7.361  44.432  41.748  1.00  0.00    -0.550 OA
ENDBRANCH  11  12
ENDBRANCH  10  11
ENDBRANCH   9  10
ENDBRANCH   8   9
ENDBRANCH   1   8
TORSDOF 9
ENDMDL
MODEL 8
REMARK VINA RESULT:    -4.469      9.571     11.675
REMARK INTER + INTRA:          -7.519
REMARK INTER:                  -7.040
REMARK INTRA:                  -0.479
REMARK UNBOUND:                -0.699
REMARK SMILES O=C([O-])CCCCCCCCC(=O)[O-]
REMARK SMILES IDX 7 1 6 2 5 3 4 4 2 5 1 6 3 7 8 8 9 9 10 10 11 11 12 12 13 13
REMARK SMILES IDX 14 14
REMARK H PARENT
REMARK Flexibility Score: inf
ROOT
ATOM      1  C   UNL     1       6.198  42.531  43.504  1.00  0.00     0.000 C 
ENDROOT
BRANCH   1   2
ATOM      2  C   UNL     1       6.165  41.606  44.737  1.00  0.00     0.000 C 
BRANCH   2   3
ATOM      3  C   UNL     1       5.566  42.236  46.010  1.00  0.00     0.006 C 
BRANCH   3   4
ATOM      4  C   UNL     1       5.216  41.225  47.114  1.00  0.00     0.053 C 
BRANCH   4   5
ATOM      5  C   UNL     1       5.892  41.553  48.410  1.00  0.00     0.041 C 
ATOM      6  O   UNL     1       6.969  40.983  48.723  1.00  0.00    -0.550 OA
ATOM      7  O   UNL     1       5.314  42.463  49.287  1.00  0.00    -0.550 OA
ENDBRANCH   4   5
ENDBRANCH   3   4
ENDBRANCH   2   3
ENDBRANCH   1   2
BRANCH   1   8
ATOM      8  C   UNL     1       6.695  43.966  43.775  1.00  0.00     0.000 C 
BRANCH   8   9
ATOM      9  C   UNL     1       7.482  44.609  42.619  1.00  0.00     0.000 C 
BRANCH   9  10
ATOM     10  C   UNL     1       7.731  43.638  41.455  1.00  0.00     0.006 C 
BRANCH  10  11
ATOM     11  C   UNL     1       9.195  43.191  41.417  1.00  0.00     0.053 C 
BRANCH  11  12
ATOM     12  C   UNL     1       9.292  41.702  41.513  1.00  0.00     0.041 C 
ATOM     13  O   UNL     1       8.300  40.982  41.225  1.00  0.00    -0.550 OA
ATOM     14  O   UNL     1      10.495  41.105  41.870  1.00  0.00    -0.550 OA
ENDBRANCH  11  12
ENDBRANCH  10  11
ENDBRANCH   9  10
ENDBRANCH   8   9
ENDBRANCH   1   8
TORSDOF 9
ENDMDL
MODEL 9
REMARK VINA RESULT:    -4.442      8.879     10.426
REMARK INTER + INTRA:          -7.478
REMARK INTER:                  -6.943
REMARK INTRA:                  -0.535
REMARK UNBOUND:                -0.699
REMARK SMILES O=C([O-])CCCCCCCCC(=O)[O-]
REMARK SMILES IDX 7 1 6 2 5 3 4 4 2 5 1 6 3 7 8 8 9 9 10 10 11 11 12 12 13 13
REMARK SMILES IDX 14 14
REMARK H PARENT
REMARK Flexibility Score: inf
ROOT
ATOM      1  C   UNL     1       6.899  41.119  48.717  1.00  0.00     0.000 C 
ENDROOT
BRANCH   1   2
ATOM      2  C   UNL     1       5.516  41.771  48.524  1.00  0.00     0.000 C 
BRANCH   2   3
ATOM      3  C   UNL     1       4.917  41.626  47.110  1.00  0.00     0.006 C 
BRANCH   3   4
ATOM      4  C   UNL     1       5.539  42.560  46.059  1.00  0.00     0.053 C 
BRANCH   4   5
ATOM      5  C   UNL     1       5.933  41.821  44.816  1.00  0.00     0.041 C 
ATOM      6  O   UNL     1       6.465  40.683  44.898  1.00  0.00    -0.550 OA
ATOM      7  O   UNL     1       5.745  42.406  43.570  1.00  0.00    -0.550 OA
ENDBRANCH   4   5
ENDBRANCH   3   4
ENDBRANCH   2   3
ENDBRANCH   1   2
BRANCH   1   8
ATOM      8  C   UNL     1       7.012  39.664  48.219  1.00  0.00     0.000 C 
BRANCH   8   9
ATOM      9  C   UNL     1       8.419  39.048  48.329  1.00  0.00     0.000 C 
BRANCH   9  10
ATOM     10  C   UNL     1       9.469  40.047  48.839  1.00  0.00     0.006 C 
BRANCH  10  11
ATOM     11  C   UNL     1      10.663  40.122  47.882  1.00  0.00     0.053 C 
BRANCH  11  12
ATOM     12  C   UNL     1      11.918  39.694  48.575  1.00  0.00     0.041 C 
ATOM     13  O   UNL     1      11.857  39.019  49.636  1.00  0.00    -0.550 OA
ATOM     14  O   UNL     1      13.155  39.998  48.022  1.00  0.00    -0.550 OA
ENDBRANCH  11  12
ENDBRANCH  10  11
ENDBRANCH   9  10
ENDBRANCH   8   9
ENDBRANCH   1   8
TORSDOF 9
ENDMDL
