MODEL 1
REMARK VINA RESULT:    -2.918      0.000      0.000
REMARK INTER + INTRA:          -3.722
REMARK INTER:                  -3.601
REMARK INTRA:                  -0.121
REMARK UNBOUND:                -0.121
REMARK SMILES CCCCCC(=O)[O-]
REMARK SMILES IDX 4 1 5 2 6 3 7 4 8 5 3 6 2 7 1 8
REMARK H PARENT
REMARK Flexibility Score: inf
ROOT
ATOM      1  C   UNL     1      58.053  28.456  49.920  1.00  0.00     0.006 C 
ENDROOT
BRANCH   1   2
ATOM      2  C   UNL     1      58.892  28.323  48.642  1.00  0.00     0.053 C 
BRANCH   2   3
ATOM      3  C   UNL     1      59.852  27.175  48.723  1.00  0.00     0.041 C 
ATOM      4  O   UNL     1      61.094  27.384  48.702  1.00  0.00    -0.550 OA
ATOM      5  O   UNL     1      59.375  25.877  48.856  1.00  0.00    -0.550 OA
ENDBRANCH   2   3
ENDBRANCH   1   2
BRANCH   1   6
ATOM      6  C   UNL     1      56.630  27.903  49.740  1.00  0.00     0.000 C 
BRANCH   6   7
ATOM      7  C   UNL     1      55.603  28.796  50.446  1.00  0.00    -0.003 C 
ATOM      8  C   UNL     1      55.511  30.165  49.778  1.00  0.00     0.004 C 
ENDBRANCH   6   7
ENDBRANCH   1   6
TORSDOF 4
ENDMDL
MODEL 2
REMARK VINA RESULT:    -2.833      3.027      4.606
REMARK INTER + INTRA:          -3.616
REMARK INTER:                  -3.494
REMARK INTRA:                  -0.122
REMARK UNBOUND:                -0.121
REMARK SMILES CCCCCC(=O)[O-]
REMARK SMILES IDX 4 1 5 2 6 3 7 4 8 5 3 6 2 7 1 8
REMARK H PARENT
REMARK Flexibility Score: inf
ROOT
ATOM      1  C   UNL     1      58.073  28.298  49.974  1.00  0.00     0.006 C 
ENDROOT
BRANCH   1   2
ATOM      2  C   UNL     1      56.557  28.187  49.764  1.00  0.00     0.053 C 
BRANCH   2   3
ATOM      3  C   UNL     1      55.840  29.419  50.223  1.00  0.00     0.041 C 
ATOM      4  O   UNL     1      56.400  30.219  51.019  1.00  0.00    -0.550 OA
ATOM      5  O   UNL     1      54.566  29.703  49.745  1.00  0.00    -0.550 OA
ENDBRANCH   2   3
ENDBRANCH   1   2
BRANCH   1   6
ATOM      6  C   UNL     1      58.841  28.343  48.643  1.00  0.00     0.000 C 
BRANCH   6   7
ATOM      7  C   UNL     1      60.008  27.349  48.650  1.00  0.00    -0.003 C 
ATOM      8  C   UNL     1      59.534  25.946  49.021  1.00  0.00     0.004 C 
ENDBRANCH   6   7
ENDBRANCH   1   6
TORSDOF 4
ENDMDL
MODEL 3
REMARK VINA RESULT:    -2.821      1.468      2.118
REMARK INTER + INTRA:          -3.601
REMARK INTER:                  -3.492
REMARK INTRA:                  -0.109
REMARK UNBOUND:                -0.121
REMARK SMILES CCCCCC(=O)[O-]
REMARK SMILES IDX 4 1 5 2 6 3 7 4 8 5 3 6 2 7 1 8
REMARK H PARENT
REMARK Flexibility Score: inf
ROOT
ATOM      1  C   UNL     1      59.688  27.489  48.649  1.00  0.00     0.006 C 
ENDROOT
BRANCH   1   2
ATOM      2  C   UNL     1      59.227  26.058  48.956  1.00  0.00     0.053 C 
BRANCH   2   3
ATOM      3  C   UNL     1      60.381  25.161  49.286  1.00  0.00     0.041 C 
ATOM      4  O   UNL     1      61.554  25.619  49.311  1.00  0.00    -0.550 OA
ATOM      5  O   UNL     1      60.156  23.826  49.602  1.00  0.00    -0.550 OA
ENDBRANCH   2   3
ENDBRANCH   1   2
BRANCH   1   6
ATOM      6  C   UNL     1      58.540  28.505  48.760  1.00  0.00     0.000 C 
BRANCH   6   7
ATOM      7  C   UNL     1      57.400  27.951  49.620  1.00  0.00    -0.003 C 
ATOM      8  C   UNL     1      56.334  29.014  49.875  1.00  0.00     0.004 C 
ENDBRANCH   6   7
ENDBRANCH   1   6
TORSDOF 4
ENDMDL
MODEL 4
REMARK VINA RESULT:    -2.816     16.990     17.906
REMARK INTER + INTRA:          -3.595
REMARK INTER:                  -3.485
REMARK INTRA:                  -0.110
REMARK UNBOUND:                -0.121
REMARK SMILES CCCCCC(=O)[O-]
REMARK SMILES IDX 4 1 5 2 6 3 7 4 8 5 3 6 2 7 1 8
REMARK H PARENT
REMARK Flexibility Score: inf
ROOT
ATOM      1  C   UNL     1      71.883  31.263  60.298  1.00  0.00     0.006 C 
ENDROOT
BRANCH   1   2
ATOM      2  C   UNL     1      72.746  29.994  60.297  1.00  0.00     0.053 C 
BRANCH   2   3
ATOM      3  C   UNL     1      72.297  29.014  61.338  1.00  0.00     0.041 C 
ATOM      4  O   UNL     1      73.107  28.598  62.207  1.00  0.00    -0.550 OA
ATOM      5  O   UNL     1      70.975  28.588  61.368  1.00  0.00    -0.550 OA
ENDBRANCH   2   3
ENDBRANCH   1   2
BRANCH   1   6
ATOM      6  C   UNL     1      71.201  31.503  58.942  1.00  0.00     0.000 C 
BRANCH   6   7
ATOM      7  C   UNL     1      70.846  32.983  58.762  1.00  0.00    -0.003 C 
ATOM      8  C   UNL     1      70.850  33.718  60.100  1.00  0.00     0.004 C 
ENDBRANCH   6   7
ENDBRANCH   1   6
TORSDOF 4
ENDMDL
MODEL 5
REMARK VINA RESULT:    -2.799     16.923     18.120
REMARK INTER + INTRA:          -3.575
REMARK INTER:                  -3.502
REMARK INTRA:                  -0.073
REMARK UNBOUND:                -0.121
REMARK SMILES CCCCCC(=O)[O-]
REMARK SMILES IDX 4 1 5 2 6 3 7 4 8 5 3 6 2 7 1 8
REMARK H PARENT
REMARK Flexibility Score: inf
ROOT
ATOM      1  C   UNL     1      71.784  31.029  60.214  1.00  0.00     0.006 C 
ENDROOT
BRANCH   1   2
ATOM      2  C   UNL     1      71.253  31.669  58.924  1.00  0.00     0.053 C 
BRANCH   2   3
ATOM      3  C   UNL     1      70.879  33.105  59.128  1.00  0.00     0.041 C 
ATOM      4  O   UNL     1      71.017  33.642  60.259  1.00  0.00    -0.550 OA
ATOM      5  O   UNL     1      70.409  33.861  58.060  1.00  0.00    -0.550 OA
ENDBRANCH   2   3
ENDBRANCH   1   2
BRANCH   1   6
ATOM      6  C   UNL     1      72.767  29.882  59.932  1.00  0.00     0.000 C 
BRANCH   6   7
ATOM      7  C   UNL     1      72.836  28.915  61.119  1.00  0.00    -0.003 C 
ATOM      8  C   UNL     1      73.125  29.658  62.421  1.00  0.00     0.004 C 
ENDBRANCH   6   7
ENDBRANCH   1   6
TORSDOF 4
ENDMDL
MODEL 6
REMARK VINA RESULT:    -2.763     16.789     17.581
REMARK INTER + INTRA:          -3.530
REMARK INTER:                  -3.343
REMARK INTRA:                  -0.187
REMARK UNBOUND:                -0.121
REMARK SMILES CCCCCC(=O)[O-]
REMARK SMILES IDX 4 1 5 2 6 3 7 4 8 5 3 6 2 7 1 8
REMARK H PARENT
REMARK Flexibility Score: inf
ROOT
ATOM      1  C   UNL     1      72.311  30.531  60.844  1.00  0.00     0.006 C 
ENDROOT
BRANCH   1   2
ATOM      2  C   UNL     1      72.288  29.076  61.333  1.00  0.00     0.053 C 
BRANCH   2   3
ATOM      3  C   UNL     1      71.022  28.377  60.943  1.00  0.00     0.041 C 
ATOM      4  O   UNL     1      71.061  27.367  60.193  1.00  0.00    -0.550 OA
ATOM      5  O   UNL     1      69.800  28.822  61.436  1.00  0.00    -0.550 OA
ENDBRANCH   2   3
ENDBRANCH   1   2
BRANCH   1   6
ATOM      6  C   UNL     1      72.094  30.636  59.326  1.00  0.00     0.000 C 
BRANCH   6   7
ATOM      7  C   UNL     1      71.152  31.798  58.987  1.00  0.00    -0.003 C 
ATOM      8  C   UNL     1      71.231  32.898  60.043  1.00  0.00     0.004 C 
ENDBRANCH   6   7
ENDBRANCH   1   6
TORSDOF 4
ENDMDL
MODEL 7
REMARK VINA RESULT:    -2.756      9.776     11.143
REMARK INTER + INTRA:          -3.522
REMARK INTER:                  -3.262
REMARK INTRA:                  -0.260
REMARK UNBOUND:                -0.121
REMARK SMILES CCCCCC(=O)[O-]
REMARK SMILES IDX 4 1 5 2 6 3 7 4 8 5 3 6 2 7 1 8
REMARK H PARENT
REMARK Flexibility Score: inf
ROOT
ATOM      1  C   UNL     1      57.773  17.569  49.675  1.00  0.00     0.006 C 
ENDROOT
BRANCH   1   2
ATOM      2  C   UNL     1      56.392  18.154  49.999  1.00  0.00     0.053 C 
BRANCH   2   3
ATOM      3  C   UNL     1      56.339  18.721  51.385  1.00  0.00     0.041 C 
ATOM      4  O   UNL     1      55.342  18.501  52.123  1.00  0.00    -0.550 OA
ATOM      5  O   UNL     1      57.407  19.463  51.875  1.00  0.00    -0.550 OA
ENDBRANCH   2   3
ENDBRANCH   1   2
BRANCH   1   6
ATOM      6  C   UNL     1      58.027  16.241  50.406  1.00  0.00     0.000 C 
BRANCH   6   7
ATOM      7  C   UNL     1      59.347  16.287  51.184  1.00  0.00    -0.003 C 
ATOM      8  C   UNL     1      60.226  17.441  50.709  1.00  0.00     0.004 C 
ENDBRANCH   6   7
ENDBRANCH   1   6
TORSDOF 4
ENDMDL
MODEL 8
REMARK VINA RESULT:    -2.673     17.045     18.228
REMARK INTER + INTRA:          -3.419
REMARK INTER:                  -3.297
REMARK INTRA:                  -0.122
REMARK UNBOUND:                -0.121
REMARK SMILES CCCCCC(=O)[O-]
REMARK SMILES IDX 4 1 5 2 6 3 7 4 8 5 3 6 2 7 1 8
REMARK H PARENT
REMARK Flexibility Score: inf
ROOT
ATOM      1  C   UNL     1      72.806  30.125  61.454  1.00  0.00     0.006 C 
ENDROOT
BRANCH   1   2
ATOM      2  C   UNL     1      72.704  30.546  59.982  1.00  0.00     0.053 C 
BRANCH   2   3
ATOM      3  C   UNL     1      71.437  31.297  59.704  1.00  0.00     0.041 C 
ATOM      4  O   UNL     1      70.525  30.769  59.015  1.00  0.00    -0.550 OA
ATOM      5  O   UNL     1      71.249  32.567  60.237  1.00  0.00    -0.550 OA
ENDBRANCH   2   3
ENDBRANCH   1   2
BRANCH   1   6
ATOM      6  C   UNL     1      72.752  28.599  61.626  1.00  0.00     0.000 C 
BRANCH   6   7
ATOM      7  C   UNL     1      73.125  27.886  60.321  1.00  0.00    -0.003 C 
ATOM      8  C   UNL     1      71.946  27.088  59.772  1.00  0.00     0.004 C 
ENDBRANCH   6   7
ENDBRANCH   1   6
TORSDOF 4
ENDMDL
MODEL 9
REMARK VINA RESULT:    -2.622      2.316      4.026
REMARK INTER + INTRA:          -3.356
REMARK INTER:                  -3.143
REMARK INTRA:                  -0.213
REMARK UNBOUND:                -0.121
REMARK SMILES CCCCCC(=O)[O-]
REMARK SMILES IDX 4 1 5 2 6 3 7 4 8 5 3 6 2 7 1 8
REMARK H PARENT
REMARK Flexibility Score: inf
ROOT
ATOM      1  C   UNL     1      58.010  28.491  49.788  1.00  0.00     0.006 C 
ENDROOT
BRANCH   1   2
ATOM      2  C   UNL     1      56.732  27.642  49.772  1.00  0.00     0.053 C 
BRANCH   2   3
ATOM      3  C   UNL     1      56.875  26.405  50.604  1.00  0.00     0.041 C 
ATOM      4  O   UNL     1      56.929  25.273  50.054  1.00  0.00    -0.550 OA
ATOM      5  O   UNL     1      56.985  26.504  51.986  1.00  0.00    -0.550 OA
ENDBRANCH   2   3
ENDBRANCH   1   2
BRANCH   1   6
ATOM      6  C   UNL     1      58.899  28.226  48.562  1.00  0.00     0.000 C 
BRANCH   6   7
ATOM      7  C   UNL     1      60.258  27.656  48.985  1.00  0.00    -0.003 C 
ATOM      8  C   UNL     1      60.221  26.131  49.049  1.00  0.00     0.004 C 
ENDBRANCH   6   7
ENDBRANCH   1   6
TORSDOF 4
ENDMDL
