MODEL 1
REMARK VINA RESULT:    22.208      0.000      0.000
REMARK INTER + INTRA:          31.576
REMARK INTER:                  31.296
REMARK INTRA:                   0.280
REMARK UNBOUND:                 0.280
REMARK SMILES O=C(C=Cc1ccc(O)cc1)CC(=O)C=Cc1ccc(O)cc1
REMARK SMILES IDX 12 1 2 2 1 3 3 4 4 5 5 6 6 7 7 8 8 9 11 10 10 11 9 12 13 14
REMARK SMILES IDX 14 15 15 16 16 17 17 18 18 19 23 20 19 21 22 22 20 23 21 24
REMARK H PARENT 9 13 21 25
REMARK Flexibility Score: inf
ROOT
ATOM      1  C   UNL     1     -13.651  -2.402  13.447  1.00  0.00     0.160 C 
ENDROOT
BRANCH   1   2
ATOM      2  C   UNL     1     -15.103  -2.375  13.824  1.00  0.00     0.163 C 
ATOM      3  O   UNL     1     -15.766  -3.447  13.795  1.00  0.00    -0.294 OA
BRANCH   2   4
ATOM      4  C   UNL     1     -15.742  -1.102  14.219  1.00  0.00     0.048 C 
ATOM      5  C   UNL     1     -16.768  -0.989  15.075  1.00  0.00     0.012 C 
BRANCH   5   6
ATOM      6  C   UNL     1     -17.302  -2.084  15.913  1.00  0.00    -0.025 A 
ATOM      7  C   UNL     1     -18.634  -2.516  15.789  1.00  0.00     0.012 A 
ATOM      8  C   UNL     1     -19.103  -3.585  16.559  1.00  0.00     0.047 A 
ATOM      9  C   UNL     1     -18.245  -4.246  17.442  1.00  0.00     0.115 A 
ATOM     10  C   UNL     1     -16.437  -2.769  16.780  1.00  0.00     0.012 A 
ATOM     11  C   UNL     1     -16.909  -3.838  17.548  1.00  0.00     0.047 A 
BRANCH   9  12
ATOM     12  O   UNL     1     -18.726  -5.308  18.204  1.00  0.00    -0.508 OA
ATOM     13  H   UNL     1     -18.611  -6.269  17.903  1.00  0.00     0.293 HD
ENDBRANCH   9  12
ENDBRANCH   5   6
ENDBRANCH   2   4
ENDBRANCH   1   2
BRANCH   1  14
ATOM     14  C   UNL     1     -13.177  -1.014  13.134  1.00  0.00     0.163 C 
ATOM     15  O   UNL     1     -13.753  -0.353  12.229  1.00  0.00    -0.294 OA
BRANCH  14  16
ATOM     16  C   UNL     1     -12.025  -0.448  13.864  1.00  0.00     0.048 C 
ATOM     17  C   UNL     1     -11.218  -1.200  14.624  1.00  0.00     0.012 C 
BRANCH  17  18
ATOM     18  C   UNL     1     -10.084  -0.648  15.404  1.00  0.00    -0.025 A 
ATOM     19  C   UNL     1     -10.361   0.181  16.504  1.00  0.00     0.012 A 
ATOM     20  C   UNL     1      -8.740  -0.889  15.052  1.00  0.00     0.012 A 
ATOM     21  C   UNL     1      -9.321   0.735  17.255  1.00  0.00     0.047 A 
ATOM     22  C   UNL     1      -7.702  -0.332  15.807  1.00  0.00     0.047 A 
ATOM     23  C   UNL     1      -7.988   0.478  16.910  1.00  0.00     0.115 A 
BRANCH  23  24
ATOM     24  O   UNL     1      -6.943   1.024  17.652  1.00  0.00    -0.508 OA
ATOM     25  H   UNL     1      -7.116   1.567  18.489  1.00  0.00     0.293 HD
ENDBRANCH  23  24
ENDBRANCH  17  18
ENDBRANCH  14  16
ENDBRANCH   1  14
TORSDOF 8
ENDMDL
MODEL 2
REMARK VINA RESULT:    23.204      9.041     12.466
REMARK INTER + INTRA:          32.979
REMARK INTER:                  33.482
REMARK INTRA:                  -0.503
REMARK UNBOUND:                 0.280
REMARK SMILES O=C(C=Cc1ccc(O)cc1)CC(=O)C=Cc1ccc(O)cc1
REMARK SMILES IDX 12 1 2 2 1 3 3 4 4 5 5 6 6 7 7 8 8 9 11 10 10 11 9 12 13 14
REMARK SMILES IDX 14 15 15 16 16 17 17 18 18 19 23 20 19 21 22 22 20 23 21 24
REMARK H PARENT 9 13 21 25
REMARK Flexibility Score: inf
ROOT
ATOM      1  C   UNL     1     -17.651 -12.032  14.452  1.00  0.00     0.160 C 
ENDROOT
BRANCH   1   2
ATOM      2  C   UNL     1     -18.608 -12.654  13.478  1.00  0.00     0.163 C 
ATOM      3  O   UNL     1     -18.967 -11.998  12.462  1.00  0.00    -0.294 OA
BRANCH   2   4
ATOM      4  C   UNL     1     -19.124 -14.019  13.715  1.00  0.00     0.048 C 
ATOM      5  C   UNL     1     -19.076 -15.025  12.830  1.00  0.00     0.012 C 
BRANCH   5   6
ATOM      6  C   UNL     1     -18.332 -15.001  11.553  1.00  0.00    -0.025 A 
ATOM      7  C   UNL     1     -16.958 -15.296  11.502  1.00  0.00     0.012 A 
ATOM      8  C   UNL     1     -16.285 -15.314  10.277  1.00  0.00     0.047 A 
ATOM      9  C   UNL     1     -16.978 -15.058   9.090  1.00  0.00     0.115 A 
ATOM     10  C   UNL     1     -19.028 -14.773  10.356  1.00  0.00     0.012 A 
ATOM     11  C   UNL     1     -18.353 -14.792   9.132  1.00  0.00     0.047 A 
BRANCH   9  12
ATOM     12  O   UNL     1     -16.294 -15.077   7.876  1.00  0.00    -0.508 OA
ATOM     13  H   UNL     1     -16.518 -14.426   7.132  1.00  0.00     0.293 HD
ENDBRANCH   9  12
ENDBRANCH   5   6
ENDBRANCH   2   4
ENDBRANCH   1   2
BRANCH   1  14
ATOM     14  C   UNL     1     -18.408 -11.422  15.594  1.00  0.00     0.163 C 
ATOM     15  O   UNL     1     -18.977 -12.175  16.430  1.00  0.00    -0.294 OA
BRANCH  14  16
ATOM     16  C   UNL     1     -18.505  -9.954  15.712  1.00  0.00     0.048 C 
ATOM     17  C   UNL     1     -18.170  -9.302  16.833  1.00  0.00     0.012 C 
BRANCH  17  18
ATOM     18  C   UNL     1     -18.303  -7.834  16.993  1.00  0.00    -0.025 A 
ATOM     19  C   UNL     1     -17.911  -7.248  18.209  1.00  0.00     0.012 A 
ATOM     20  C   UNL     1     -18.851  -7.012  15.987  1.00  0.00     0.012 A 
ATOM     21  C   UNL     1     -18.035  -5.870  18.407  1.00  0.00     0.047 A 
ATOM     22  C   UNL     1     -18.974  -5.634  16.190  1.00  0.00     0.047 A 
ATOM     23  C   UNL     1     -18.565  -5.059  17.396  1.00  0.00     0.115 A 
BRANCH  23  24
ATOM     24  O   UNL     1     -18.693  -3.684  17.582  1.00  0.00    -0.508 OA
ATOM     25  H   UNL     1     -18.288  -3.219  18.385  1.00  0.00     0.293 HD
ENDBRANCH  23  24
ENDBRANCH  17  18
ENDBRANCH  14  16
ENDBRANCH   1  14
TORSDOF 8
ENDMDL
MODEL 3
REMARK VINA RESULT:    24.082      1.259      2.147
REMARK INTER + INTRA:          34.216
REMARK INTER:                  34.014
REMARK INTRA:                   0.202
REMARK UNBOUND:                 0.280
REMARK SMILES O=C(C=Cc1ccc(O)cc1)CC(=O)C=Cc1ccc(O)cc1
REMARK SMILES IDX 12 1 2 2 1 3 3 4 4 5 5 6 6 7 7 8 8 9 11 10 10 11 9 12 13 14
REMARK SMILES IDX 14 15 15 16 16 17 17 18 18 19 23 20 19 21 22 22 20 23 21 24
REMARK H PARENT 9 13 21 25
REMARK Flexibility Score: inf
ROOT
ATOM      1  C   UNL     1     -14.452  -1.105  13.386  1.00  0.00     0.160 C 
ENDROOT
BRANCH   1   2
ATOM      2  C   UNL     1     -14.579  -2.530  12.934  1.00  0.00     0.163 C 
ATOM      3  O   UNL     1     -15.195  -2.784  11.863  1.00  0.00    -0.294 OA
BRANCH   2   4
ATOM      4  C   UNL     1     -13.991  -3.619  13.742  1.00  0.00     0.048 C 
ATOM      5  C   UNL     1     -14.417  -3.990  14.959  1.00  0.00     0.012 C 
BRANCH   5   6
ATOM      6  C   UNL     1     -15.655  -3.513  15.610  1.00  0.00    -0.025 A 
ATOM      7  C   UNL     1     -15.831  -3.607  17.002  1.00  0.00     0.012 A 
ATOM      8  C   UNL     1     -16.991  -3.106  17.601  1.00  0.00     0.047 A 
ATOM      9  C   UNL     1     -17.974  -2.487  16.823  1.00  0.00     0.115 A 
ATOM     10  C   UNL     1     -16.631  -2.866  14.838  1.00  0.00     0.012 A 
ATOM     11  C   UNL     1     -17.790  -2.365  15.439  1.00  0.00     0.047 A 
BRANCH   9  12
ATOM     12  O   UNL     1     -19.125  -1.993  17.433  1.00  0.00    -0.508 OA
ATOM     13  H   UNL     1     -19.853  -2.613  17.769  1.00  0.00     0.293 HD
ENDBRANCH   9  12
ENDBRANCH   5   6
ENDBRANCH   2   4
ENDBRANCH   1   2
BRANCH   1  14
ATOM     14  C   UNL     1     -13.282  -0.455  12.709  1.00  0.00     0.163 C 
ATOM     15  O   UNL     1     -13.318  -0.260  11.464  1.00  0.00    -0.294 OA
BRANCH  14  16
ATOM     16  C   UNL     1     -12.092  -0.078  13.498  1.00  0.00     0.048 C 
ATOM     17  C   UNL     1     -11.527  -0.909  14.383  1.00  0.00     0.012 C 
BRANCH  17  18
ATOM     18  C   UNL     1     -10.361  -0.538  15.220  1.00  0.00    -0.025 A 
ATOM     19  C   UNL     1      -9.079  -0.945  14.812  1.00  0.00     0.012 A 
ATOM     20  C   UNL     1     -10.497   0.169  16.433  1.00  0.00     0.012 A 
ATOM     21  C   UNL     1      -7.955  -0.630  15.580  1.00  0.00     0.047 A 
ATOM     22  C   UNL     1      -9.370   0.481  17.199  1.00  0.00     0.047 A 
ATOM     23  C   UNL     1      -8.097   0.087  16.775  1.00  0.00     0.115 A 
BRANCH  23  24
ATOM     24  O   UNL     1      -6.984   0.407  17.549  1.00  0.00    -0.508 OA
ATOM     25  H   UNL     1      -7.075   0.674  18.522  1.00  0.00     0.293 HD
ENDBRANCH  23  24
ENDBRANCH  17  18
ENDBRANCH  14  16
ENDBRANCH   1  14
TORSDOF 8
ENDMDL
MODEL 4
REMARK VINA RESULT:    24.311      1.507      2.030
REMARK INTER + INTRA:          34.539
REMARK INTER:                  33.558
REMARK INTRA:                   0.981
REMARK UNBOUND:                 0.280
REMARK SMILES O=C(C=Cc1ccc(O)cc1)CC(=O)C=Cc1ccc(O)cc1
REMARK SMILES IDX 12 1 2 2 1 3 3 4 4 5 5 6 6 7 7 8 8 9 11 10 10 11 9 12 13 14
REMARK SMILES IDX 14 15 15 16 16 17 17 18 18 19 23 20 19 21 22 22 20 23 21 24
REMARK H PARENT 9 13 21 25
REMARK Flexibility Score: inf
ROOT
ATOM      1  C   UNL     1     -13.371  -0.921  13.519  1.00  0.00     0.160 C 
ENDROOT
BRANCH   1   2
ATOM      2  C   UNL     1     -14.218  -2.070  13.058  1.00  0.00     0.163 C 
ATOM      3  O   UNL     1     -15.139  -1.860  12.222  1.00  0.00    -0.294 OA
BRANCH   2   4
ATOM      4  C   UNL     1     -13.976  -3.429  13.586  1.00  0.00     0.048 C 
ATOM      5  C   UNL     1     -14.597  -3.965  14.648  1.00  0.00     0.012 C 
BRANCH   5   6
ATOM      6  C   UNL     1     -15.757  -3.371  15.344  1.00  0.00    -0.025 A 
ATOM      7  C   UNL     1     -16.733  -2.640  14.644  1.00  0.00     0.012 A 
ATOM      8  C   UNL     1     -17.848  -2.128  15.315  1.00  0.00     0.047 A 
ATOM      9  C   UNL     1     -18.010  -2.357  16.685  1.00  0.00     0.115 A 
ATOM     10  C   UNL     1     -15.940  -3.622  16.712  1.00  0.00     0.012 A 
ATOM     11  C   UNL     1     -17.055  -3.109  17.381  1.00  0.00     0.047 A 
BRANCH   9  12
ATOM     12  O   UNL     1     -19.124  -1.839  17.342  1.00  0.00    -0.508 OA
ATOM     13  H   UNL     1     -19.758  -2.437  17.860  1.00  0.00     0.293 HD
ENDBRANCH   9  12
ENDBRANCH   5   6
ENDBRANCH   2   4
ENDBRANCH   1   2
BRANCH   1  14
ATOM     14  C   UNL     1     -11.988  -1.402  13.843  1.00  0.00     0.163 C 
ATOM     15  O   UNL     1     -11.641  -2.565  13.499  1.00  0.00    -0.294 OA
BRANCH  14  16
ATOM     16  C   UNL     1     -11.059  -0.527  14.585  1.00  0.00     0.048 C 
ATOM     17  C   UNL     1     -10.150  -1.011  15.442  1.00  0.00     0.012 C 
BRANCH  17  18
ATOM     18  C   UNL     1      -9.238  -0.151  16.234  1.00  0.00    -0.025 A 
ATOM     19  C   UNL     1      -9.789   0.710  17.198  1.00  0.00     0.012 A 
ATOM     20  C   UNL     1      -7.844  -0.135  16.023  1.00  0.00     0.012 A 
ATOM     21  C   UNL     1      -8.966   1.549  17.955  1.00  0.00     0.047 A 
ATOM     22  C   UNL     1      -7.024   0.706  16.782  1.00  0.00     0.047 A 
ATOM     23  C   UNL     1      -7.580   1.547  17.751  1.00  0.00     0.115 A 
BRANCH  23  24
ATOM     24  O   UNL     1      -6.750   2.378  18.499  1.00  0.00    -0.508 OA
ATOM     25  H   UNL     1      -6.377   3.237  18.115  1.00  0.00     0.293 HD
ENDBRANCH  23  24
ENDBRANCH  17  18
ENDBRANCH  14  16
ENDBRANCH   1  14
TORSDOF 8
ENDMDL
MODEL 5
REMARK VINA RESULT:    24.368      1.750      2.470
REMARK INTER + INTRA:          34.621
REMARK INTER:                  34.986
REMARK INTRA:                  -0.365
REMARK UNBOUND:                 0.280
REMARK SMILES O=C(C=Cc1ccc(O)cc1)CC(=O)C=Cc1ccc(O)cc1
REMARK SMILES IDX 12 1 2 2 1 3 3 4 4 5 5 6 6 7 7 8 8 9 11 10 10 11 9 12 13 14
REMARK SMILES IDX 14 15 15 16 16 17 17 18 18 19 23 20 19 21 22 22 20 23 21 24
REMARK H PARENT 9 13 21 25
REMARK Flexibility Score: inf
ROOT
ATOM      1  C   UNL     1     -12.915  -0.600  12.761  1.00  0.00     0.160 C 
ENDROOT
BRANCH   1   2
ATOM      2  C   UNL     1     -14.359  -0.904  13.030  1.00  0.00     0.163 C 
ATOM      3  O   UNL     1     -15.009  -0.162  13.817  1.00  0.00    -0.294 OA
BRANCH   2   4
ATOM      4  C   UNL     1     -15.005  -2.065  12.383  1.00  0.00     0.048 C 
ATOM      5  C   UNL     1     -15.394  -3.182  13.015  1.00  0.00     0.012 C 
BRANCH   5   6
ATOM      6  C   UNL     1     -15.423  -3.363  14.482  1.00  0.00    -0.025 A 
ATOM      7  C   UNL     1     -14.365  -3.994  15.161  1.00  0.00     0.012 A 
ATOM      8  C   UNL     1     -14.391  -4.111  16.554  1.00  0.00     0.047 A 
ATOM      9  C   UNL     1     -15.461  -3.583  17.284  1.00  0.00     0.115 A 
ATOM     10  C   UNL     1     -16.478  -2.810  15.222  1.00  0.00     0.012 A 
ATOM     11  C   UNL     1     -16.503  -2.928  16.615  1.00  0.00     0.047 A 
BRANCH   9  12
ATOM     12  O   UNL     1     -15.475  -3.709  18.672  1.00  0.00    -0.508 OA
ATOM     13  H   UNL     1     -15.989  -3.059  19.256  1.00  0.00     0.293 HD
ENDBRANCH   9  12
ENDBRANCH   5   6
ENDBRANCH   2   4
ENDBRANCH   1   2
BRANCH   1  14
ATOM     14  C   UNL     1     -12.056  -1.210  13.827  1.00  0.00     0.163 C 
ATOM     15  O   UNL     1     -12.172  -2.439  14.087  1.00  0.00    -0.294 OA
BRANCH  14  16
ATOM     16  C   UNL     1     -11.107  -0.367  14.581  1.00  0.00     0.048 C 
ATOM     17  C   UNL     1     -10.202  -0.884  15.423  1.00  0.00     0.012 C 
BRANCH  17  18
ATOM     18  C   UNL     1      -9.270  -0.057  16.226  1.00  0.00    -0.025 A 
ATOM     19  C   UNL     1      -9.803   0.844  17.163  1.00  0.00     0.012 A 
ATOM     20  C   UNL     1      -7.871  -0.110  16.051  1.00  0.00     0.012 A 
ATOM     21  C   UNL     1      -8.960   1.654  17.930  1.00  0.00     0.047 A 
ATOM     22  C   UNL     1      -7.032   0.702  16.819  1.00  0.00     0.047 A 
ATOM     23  C   UNL     1      -7.571   1.583  17.761  1.00  0.00     0.115 A 
BRANCH  23  24
ATOM     24  O   UNL     1      -6.721   2.385  18.520  1.00  0.00    -0.508 OA
ATOM     25  H   UNL     1      -6.833   2.474  19.522  1.00  0.00     0.293 HD
ENDBRANCH  23  24
ENDBRANCH  17  18
ENDBRANCH  14  16
ENDBRANCH   1  14
TORSDOF 8
ENDMDL
MODEL 6
REMARK VINA RESULT:    25.134      7.938     13.577
REMARK INTER + INTRA:          35.700
REMARK INTER:                  35.802
REMARK INTRA:                  -0.102
REMARK UNBOUND:                 0.280
REMARK SMILES O=C(C=Cc1ccc(O)cc1)CC(=O)C=Cc1ccc(O)cc1
REMARK SMILES IDX 12 1 2 2 1 3 3 4 4 5 5 6 6 7 7 8 8 9 11 10 10 11 9 12 13 14
REMARK SMILES IDX 14 15 15 16 16 17 17 18 18 19 23 20 19 21 22 22 20 23 21 24
REMARK H PARENT 9 13 21 25
REMARK Flexibility Score: inf
ROOT
ATOM      1  C   UNL     1      -1.760  -3.908  19.298  1.00  0.00     0.160 C 
ENDROOT
BRANCH   1   2
ATOM      2  C   UNL     1      -0.334  -3.444  19.301  1.00  0.00     0.163 C 
ATOM      3  O   UNL     1      -0.079  -2.238  19.036  1.00  0.00    -0.294 OA
BRANCH   2   4
ATOM      4  C   UNL     1       0.755  -4.396  19.606  1.00  0.00     0.048 C 
ATOM      5  C   UNL     1       0.998  -5.529  18.932  1.00  0.00     0.012 C 
BRANCH   5   6
ATOM      6  C   UNL     1       0.351  -5.919  17.661  1.00  0.00    -0.025 A 
ATOM      7  C   UNL     1       1.057  -5.897  16.445  1.00  0.00     0.012 A 
ATOM      8  C   UNL     1       0.439  -6.315  15.263  1.00  0.00     0.047 A 
ATOM      9  C   UNL     1      -0.879  -6.779  15.284  1.00  0.00     0.115 A 
ATOM     10  C   UNL     1      -0.962  -6.412  17.681  1.00  0.00     0.012 A 
ATOM     11  C   UNL     1      -1.578  -6.830  16.498  1.00  0.00     0.047 A 
BRANCH   9  12
ATOM     12  O   UNL     1      -1.484  -7.191  14.099  1.00  0.00    -0.508 OA
ATOM     13  H   UNL     1      -1.138  -6.888  13.195  1.00  0.00     0.293 HD
ENDBRANCH   9  12
ENDBRANCH   5   6
ENDBRANCH   2   4
ENDBRANCH   1   2
BRANCH   1  14
ATOM     14  C   UNL     1      -2.640  -2.865  19.918  1.00  0.00     0.163 C 
ATOM     15  O   UNL     1      -2.559  -2.644  21.157  1.00  0.00    -0.294 OA
BRANCH  14  16
ATOM     16  C   UNL     1      -3.612  -2.130  19.084  1.00  0.00     0.048 C 
ATOM     17  C   UNL     1      -4.590  -1.383  19.613  1.00  0.00     0.012 C 
BRANCH  17  18
ATOM     18  C   UNL     1      -5.605  -0.673  18.798  1.00  0.00    -0.025 A 
ATOM     19  C   UNL     1      -5.951   0.643  19.146  1.00  0.00     0.012 A 
ATOM     20  C   UNL     1      -6.268  -1.289  17.716  1.00  0.00     0.012 A 
ATOM     21  C   UNL     1      -6.915   1.342  18.414  1.00  0.00     0.047 A 
ATOM     22  C   UNL     1      -7.233  -0.586  16.987  1.00  0.00     0.047 A 
ATOM     23  C   UNL     1      -7.557   0.730  17.330  1.00  0.00     0.115 A 
BRANCH  23  24
ATOM     24  O   UNL     1      -8.519   1.417  16.593  1.00  0.00    -0.508 OA
ATOM     25  H   UNL     1      -9.140   2.087  17.029  1.00  0.00     0.293 HD
ENDBRANCH  23  24
ENDBRANCH  17  18
ENDBRANCH  14  16
ENDBRANCH   1  14
TORSDOF 8
ENDMDL
