MODEL 1
REMARK VINA RESULT:    -3.722      0.000      0.000
REMARK INTER + INTRA:          -6.157
REMARK INTER:                  -5.680
REMARK INTRA:                  -0.477
REMARK UNBOUND:                -0.477
REMARK SMILES CC1=CCC[C@H](C)C(=O)C[C@H](C(C)C)C(=O)C1
REMARK SMILES IDX 8 1 9 2 6 3 7 4 5 5 4 6 3 7 2 8 1 9 10 11 11 12 15 13 16 14
REMARK SMILES IDX 17 15 12 17 13 18 14 19
REMARK H PARENT
REMARK Flexibility Score: 70.00
ROOT
ATOM      1  C   UNL     1      17.940 -10.333  67.239  1.00  0.00     0.136 C 
ATOM      2  O   UNL     1      17.568  -9.553  68.103  1.00  0.00    -0.299 OA
ENDROOT
BRANCH   1   3
ATOM      3  C   UNL     1      17.220 -11.663  67.098  1.00  0.00     0.053 C 
ATOM      4  C   UNL     1      17.318 -12.483  68.391  1.00  0.00     0.016 C 
BRANCH   3   5
ATOM      5  C   UNL     1      15.753 -11.466  66.672  1.00  0.00     0.015 C 
BRANCH   5   6
ATOM      6  C   UNL     1      15.521 -11.870  65.204  1.00  0.00     0.028 C 
BRANCH   6   7
ATOM      7  C   UNL     1      15.566 -10.669  64.297  1.00  0.00    -0.028 C 
ATOM      8  C   UNL     1      16.594 -10.369  63.469  1.00  0.00    -0.070 CG0
ATOM      9  C   UNL     1      16.503  -9.104  62.655  1.00  0.00     0.039 C 
ATOM     10  G   UNL     1      17.825 -11.251  63.323  1.00  0.00     0.000 G0
ENDBRANCH   6   7
ENDBRANCH   5   6
ENDBRANCH   3   5
ENDBRANCH   1   3
BRANCH   1  11
ATOM     11  C   UNL     1      19.080  -9.922  66.331  1.00  0.00     0.087 C 
BRANCH  11  12
ATOM     12  C   UNL     1      19.492 -11.056  65.353  1.00  0.00     0.066 C 
BRANCH  12  13
ATOM     13  C   UNL     1      19.078 -10.674  63.941  1.00  0.00     0.140 C 
ATOM     14  O   UNL     1      19.814  -9.961  63.271  1.00  0.00    -0.299 OA
BRANCH  13  15
ATOM     15  C   UNL     1      17.836 -11.253  63.311  1.00  0.00     0.106 CG0
ATOM     16  G   UNL     1      16.626 -10.347  63.485  1.00  0.00     0.000 G0
ENDBRANCH  13  15
ENDBRANCH  12  13
BRANCH  12  17
ATOM     17  C   UNL     1      21.024 -11.371  65.411  1.00  0.00    -0.006 C 
ATOM     18  C   UNL     1      21.286 -12.799  65.930  1.00  0.00     0.008 C 
ATOM     19  C   UNL     1      21.791 -10.378  66.307  1.00  0.00     0.008 C 
ENDBRANCH  12  17
ENDBRANCH  11  12
ENDBRANCH   1  11
TORSDOF 1
ENDMDL
MODEL 2
REMARK VINA RESULT:    -3.703     15.490     17.298
REMARK INTER + INTRA:          -6.128
REMARK INTER:                  -5.692
REMARK INTRA:                  -0.436
REMARK UNBOUND:                -0.477
REMARK SMILES CC1=CCC[C@H](C)C(=O)C[C@H](C(C)C)C(=O)C1
REMARK SMILES IDX 8 1 9 2 6 3 7 4 5 5 4 6 3 7 2 8 1 9 10 11 11 12 15 13 16 14
REMARK SMILES IDX 17 15 12 17 13 18 14 19
REMARK H PARENT
REMARK Flexibility Score: 70.00
ROOT
ATOM      1  C   UNL     1       9.002   1.356  63.303  1.00  0.00     0.136 C 
ATOM      2  O   UNL     1      10.211   1.273  63.139  1.00  0.00    -0.299 OA
ENDROOT
BRANCH   1   3
ATOM      3  C   UNL     1       8.457   2.488  64.155  1.00  0.00     0.053 C 
ATOM      4  C   UNL     1       8.763   2.256  65.640  1.00  0.00     0.016 C 
BRANCH   3   5
ATOM      5  C   UNL     1       8.987   3.854  63.683  1.00  0.00     0.015 C 
BRANCH   5   6
ATOM      6  C   UNL     1       7.991   4.567  62.750  1.00  0.00     0.028 C 
BRANCH   6   7
ATOM      7  C   UNL     1       8.249   4.215  61.309  1.00  0.00    -0.028 C 
ATOM      8  C   UNL     1       7.455   3.414  60.559  1.00  0.00    -0.070 CG0
ATOM      9  C   UNL     1       7.877   3.125  59.141  1.00  0.00     0.039 C 
ATOM     10  G   UNL     1       6.164   2.803  61.082  1.00  0.00     0.000 G0
ENDBRANCH   6   7
ENDBRANCH   5   6
ENDBRANCH   3   5
ENDBRANCH   1   3
BRANCH   1  11
ATOM     11  C   UNL     1       8.107   0.343  62.620  1.00  0.00     0.087 C 
BRANCH  11  12
ATOM     12  C   UNL     1       6.612   0.760  62.657  1.00  0.00     0.066 C 
BRANCH  12  13
ATOM     13  C   UNL     1       6.217   1.330  61.303  1.00  0.00     0.140 C 
ATOM     14  O   UNL     1       5.861   0.570  60.413  1.00  0.00    -0.299 OA
BRANCH  13  15
ATOM     15  C   UNL     1       6.146   2.819  61.077  1.00  0.00     0.106 CG0
ATOM     16  G   UNL     1       7.460   3.388  60.565  1.00  0.00     0.000 G0
ENDBRANCH  13  15
ENDBRANCH  12  13
BRANCH  12  17
ATOM     17  C   UNL     1       5.667  -0.424  63.051  1.00  0.00    -0.006 C 
ATOM     18  C   UNL     1       5.045  -0.208  64.445  1.00  0.00     0.008 C 
ATOM     19  C   UNL     1       6.400  -1.780  63.048  1.00  0.00     0.008 C 
ENDBRANCH  12  17
ENDBRANCH  11  12
ENDBRANCH   1  11
TORSDOF 1
ENDMDL
MODEL 3
REMARK VINA RESULT:    -3.683     15.038     17.369
REMARK INTER + INTRA:          -6.098
REMARK INTER:                  -6.052
REMARK INTRA:                  -0.046
REMARK UNBOUND:                -0.477
REMARK SMILES CC1=CCC[C@H](C)C(=O)C[C@H](C(C)C)C(=O)C1
REMARK SMILES IDX 8 1 9 2 6 3 7 4 5 5 4 6 3 7 2 8 1 9 10 11 11 12 15 13 16 14
REMARK SMILES IDX 17 15 12 17 13 18 14 19
REMARK H PARENT
REMARK Flexibility Score: 70.00
ROOT
ATOM      1  C   UNL     1      13.476   1.706  55.583  1.00  0.00     0.136 C 
ATOM      2  O   UNL     1      13.670   1.743  54.377  1.00  0.00    -0.299 OA
ENDROOT
BRANCH   1   3
ATOM      3  C   UNL     1      12.586   0.612  56.146  1.00  0.00     0.053 C 
ATOM      4  C   UNL     1      13.298  -0.155  57.268  1.00  0.00     0.016 C 
BRANCH   3   5
ATOM      5  C   UNL     1      11.236   1.175  56.627  1.00  0.00     0.015 C 
BRANCH   5   6
ATOM      6  C   UNL     1      11.004   0.914  58.126  1.00  0.00     0.028 C 
BRANCH   6   7
ATOM      7  C   UNL     1      10.456   2.137  58.813  1.00  0.00    -0.028 C 
ATOM      8  C   UNL     1      11.209   3.174  59.252  1.00  0.00    -0.070 CG0
ATOM      9  C   UNL     1      10.510   4.307  59.959  1.00  0.00     0.039 C 
ATOM     10  G   UNL     1      12.716   3.244  59.057  1.00  0.00     0.000 G0
ENDBRANCH   6   7
ENDBRANCH   5   6
ENDBRANCH   3   5
ENDBRANCH   1   3
BRANCH   1  11
ATOM     11  C   UNL     1      14.159   2.734  56.460  1.00  0.00     0.087 C 
BRANCH  11  12
ATOM     12  C   UNL     1      13.324   4.036  56.600  1.00  0.00     0.066 C 
BRANCH  12  13
ATOM     13  C   UNL     1      13.119   4.343  58.076  1.00  0.00     0.140 C 
ATOM     14  O   UNL     1      13.177   5.504  58.461  1.00  0.00    -0.299 OA
BRANCH  13  15
ATOM     15  C   UNL     1      12.731   3.259  59.049  1.00  0.00     0.106 CG0
ATOM     16  G   UNL     1      11.225   3.171  59.245  1.00  0.00     0.000 G0
ENDBRANCH  13  15
ENDBRANCH  12  13
BRANCH  12  17
ATOM     17  C   UNL     1      13.984   5.254  55.872  1.00  0.00    -0.006 C 
ATOM     18  C   UNL     1      12.962   6.009  54.998  1.00  0.00     0.008 C 
ATOM     19  C   UNL     1      15.168   4.830  54.981  1.00  0.00     0.008 C 
ENDBRANCH  12  17
ENDBRANCH  11  12
ENDBRANCH   1  11
TORSDOF 1
ENDMDL
MODEL 4
REMARK VINA RESULT:    -3.642      1.691      3.992
REMARK INTER + INTRA:          -6.036
REMARK INTER:                  -6.385
REMARK INTRA:                   0.350
REMARK UNBOUND:                -0.477
REMARK SMILES CC1=CCC[C@H](C)C(=O)C[C@H](C(C)C)C(=O)C1
REMARK SMILES IDX 8 1 9 2 6 3 7 4 5 5 4 6 3 7 2 8 1 9 10 11 11 12 15 13 16 14
REMARK SMILES IDX 17 15 12 17 13 18 14 19
REMARK H PARENT
REMARK Flexibility Score: 70.00
ROOT
ATOM      1  C   UNL     1      17.497 -11.253  67.307  1.00  0.00     0.136 C 
ATOM      2  O   UNL     1      16.735 -10.361  67.652  1.00  0.00    -0.299 OA
ENDROOT
BRANCH   1   3
ATOM      3  C   UNL     1      18.649 -11.625  68.224  1.00  0.00     0.053 C 
ATOM      4  C   UNL     1      19.212 -13.007  67.869  1.00  0.00     0.016 C 
BRANCH   3   5
ATOM      5  C   UNL     1      19.753 -10.552  68.205  1.00  0.00     0.015 C 
BRANCH   5   6
ATOM      6  C   UNL     1      19.514  -9.500  67.106  1.00  0.00     0.028 C 
BRANCH   6   7
ATOM      7  C   UNL     1      20.435  -9.720  65.935  1.00  0.00    -0.028 C 
ATOM      8  C   UNL     1      20.049  -9.688  64.637  1.00  0.00    -0.070 CG0
ATOM      9  C   UNL     1      21.087  -9.972  63.582  1.00  0.00     0.039 C 
ATOM     10  G   UNL     1      18.625  -9.375  64.204  1.00  0.00     0.000 G0
ENDBRANCH   6   7
ENDBRANCH   5   6
ENDBRANCH   3   5
ENDBRANCH   1   3
BRANCH   1  11
ATOM     11  C   UNL     1      17.234 -11.964  65.996  1.00  0.00     0.087 C 
BRANCH  11  12
ATOM     12  C   UNL     1      16.678 -11.006  64.908  1.00  0.00     0.066 C 
BRANCH  12  13
ATOM     13  C   UNL     1      17.800 -10.622  63.956  1.00  0.00     0.140 C 
ATOM     14  O   UNL     1      17.980 -11.283  62.942  1.00  0.00    -0.299 OA
BRANCH  13  15
ATOM     15  C   UNL     1      18.618  -9.375  64.182  1.00  0.00     0.106 CG0
ATOM     16  G   UNL     1      20.038  -9.690  64.628  1.00  0.00     0.000 G0
ENDBRANCH  13  15
ENDBRANCH  12  13
BRANCH  12  17
ATOM     17  C   UNL     1      15.477 -11.628  64.119  1.00  0.00    -0.006 C 
ATOM     18  C   UNL     1      14.129 -11.285  64.783  1.00  0.00     0.008 C 
ATOM     19  C   UNL     1      15.588 -13.161  64.001  1.00  0.00     0.008 C 
ENDBRANCH  12  17
ENDBRANCH  11  12
ENDBRANCH   1  11
TORSDOF 1
ENDMDL
MODEL 5
REMARK VINA RESULT:    -3.588     13.783     16.532
REMARK INTER + INTRA:          -5.953
REMARK INTER:                  -5.559
REMARK INTRA:                  -0.395
REMARK UNBOUND:                -0.477
REMARK SMILES CC1=CCC[C@H](C)C(=O)C[C@H](C(C)C)C(=O)C1
REMARK SMILES IDX 8 1 9 2 6 3 7 4 5 5 4 6 3 7 2 8 1 9 10 11 11 12 15 13 16 14
REMARK SMILES IDX 17 15 12 17 13 18 14 19
REMARK H PARENT
REMARK Flexibility Score: 70.00
ROOT
ATOM      1  C   UNL     1      13.785   2.138  55.810  1.00  0.00     0.136 C 
ATOM      2  O   UNL     1      13.386   1.968  54.667  1.00  0.00    -0.299 OA
ENDROOT
BRANCH   1   3
ATOM      3  C   UNL     1      14.401   3.477  56.176  1.00  0.00     0.053 C 
ATOM      4  C   UNL     1      15.567   3.822  55.241  1.00  0.00     0.016 C 
BRANCH   3   5
ATOM      5  C   UNL     1      13.346   4.598  56.189  1.00  0.00     0.015 C 
BRANCH   5   6
ATOM      6  C   UNL     1      13.049   5.093  57.616  1.00  0.00     0.028 C 
BRANCH   6   7
ATOM      7  C   UNL     1      11.670   4.680  58.058  1.00  0.00    -0.028 C 
ATOM      8  C   UNL     1      11.413   3.722  58.980  1.00  0.00    -0.070 CG0
ATOM      9  C   UNL     1       9.973   3.396  59.282  1.00  0.00     0.039 C 
ATOM     10  G   UNL     1      12.509   2.971  59.722  1.00  0.00     0.000 G0
ENDBRANCH   6   7
ENDBRANCH   5   6
ENDBRANCH   3   5
ENDBRANCH   1   3
BRANCH   1  11
ATOM     11  C   UNL     1      13.616   1.016  56.812  1.00  0.00     0.087 C 
BRANCH  11  12
ATOM     12  C   UNL     1      14.051   1.433  58.242  1.00  0.00     0.066 C 
BRANCH  12  13
ATOM     13  C   UNL     1      12.814   1.626  59.106  1.00  0.00     0.140 C 
ATOM     14  O   UNL     1      12.114   0.659  59.378  1.00  0.00    -0.299 OA
BRANCH  13  15
ATOM     15  C   UNL     1      12.501   2.964  59.728  1.00  0.00     0.106 CG0
ATOM     16  G   UNL     1      11.420   3.715  58.966  1.00  0.00     0.000 G0
ENDBRANCH  13  15
ENDBRANCH  12  13
BRANCH  12  17
ATOM     17  C   UNL     1      15.024   0.399  58.900  1.00  0.00    -0.006 C 
ATOM     18  C   UNL     1      15.705   0.985  60.153  1.00  0.00     0.008 C 
ATOM     19  C   UNL     1      16.120  -0.073  57.924  1.00  0.00     0.008 C 
ENDBRANCH  12  17
ENDBRANCH  11  12
ENDBRANCH   1  11
TORSDOF 1
ENDMDL
MODEL 6
REMARK VINA RESULT:    -3.565     14.709     16.544
REMARK INTER + INTRA:          -5.917
REMARK INTER:                  -5.587
REMARK INTRA:                  -0.330
REMARK UNBOUND:                -0.477
REMARK SMILES CC1=CCC[C@H](C)C(=O)C[C@H](C(C)C)C(=O)C1
REMARK SMILES IDX 8 1 9 2 6 3 7 4 5 5 4 6 3 7 2 8 1 9 10 11 11 12 15 13 16 14
REMARK SMILES IDX 17 15 12 17 13 18 14 19
REMARK H PARENT
REMARK Flexibility Score: 70.00
ROOT
ATOM      1  C   UNL     1       8.995   3.704  63.564  1.00  0.00     0.136 C 
ATOM      2  O   UNL     1       9.529   4.605  64.195  1.00  0.00    -0.299 OA
ENDROOT
BRANCH   1   3
ATOM      3  C   UNL     1       7.913   4.059  62.559  1.00  0.00     0.053 C 
ATOM      4  C   UNL     1       6.835   4.944  63.199  1.00  0.00     0.016 C 
BRANCH   3   5
ATOM      5  C   UNL     1       8.506   4.724  61.304  1.00  0.00     0.015 C 
BRANCH   5   6
ATOM      6  C   UNL     1       8.579   3.747  60.116  1.00  0.00     0.028 C 
BRANCH   6   7
ATOM      7  C   UNL     1      10.003   3.369  59.809  1.00  0.00    -0.028 C 
ATOM      8  C   UNL     1      10.517   2.124  59.958  1.00  0.00    -0.070 CG0
ATOM      9  C   UNL     1      11.978   1.919  59.648  1.00  0.00     0.039 C 
ATOM     10  G   UNL     1       9.687   0.935  60.417  1.00  0.00     0.000 G0
ENDBRANCH   6   7
ENDBRANCH   5   6
ENDBRANCH   3   5
ENDBRANCH   1   3
BRANCH   1  11
ATOM     11  C   UNL     1       9.462   2.282  63.793  1.00  0.00     0.087 C 
BRANCH  11  12
ATOM     12  C   UNL     1       8.762   1.273  62.843  1.00  0.00     0.066 C 
BRANCH  12  13
ATOM     13  C   UNL     1       9.792   0.682  61.893  1.00  0.00     0.140 C 
ATOM     14  O   UNL     1      10.654  -0.068  62.332  1.00  0.00    -0.299 OA
BRANCH  13  15
ATOM     15  C   UNL     1       9.700   0.913  60.405  1.00  0.00     0.106 CG0
ATOM     16  G   UNL     1      10.532   2.103  59.953  1.00  0.00     0.000 G0
ENDBRANCH  13  15
ENDBRANCH  12  13
BRANCH  12  17
ATOM     17  C   UNL     1       8.016   0.137  63.619  1.00  0.00    -0.006 C 
ATOM     18  C   UNL     1       7.549  -0.982  62.666  1.00  0.00     0.008 C 
ATOM     19  C   UNL     1       6.790   0.665  64.390  1.00  0.00     0.008 C 
ENDBRANCH  12  17
ENDBRANCH  11  12
ENDBRANCH   1  11
TORSDOF 1
ENDMDL
MODEL 7
REMARK VINA RESULT:    -3.550     14.582     17.167
REMARK INTER + INTRA:          -5.894
REMARK INTER:                  -5.673
REMARK INTRA:                  -0.222
REMARK UNBOUND:                -0.477
REMARK SMILES CC1=CCC[C@H](C)C(=O)C[C@H](C(C)C)C(=O)C1
REMARK SMILES IDX 8 1 9 2 6 3 7 4 5 5 4 6 3 7 2 8 1 9 10 11 11 12 15 13 16 14
REMARK SMILES IDX 17 15 12 17 13 18 14 19
REMARK H PARENT
REMARK Flexibility Score: 70.00
ROOT
ATOM      1  C   UNL     1       6.992   4.145  62.944  1.00  0.00     0.136 C 
ATOM      2  O   UNL     1       5.787   4.352  62.940  1.00  0.00    -0.299 OA
ENDROOT
BRANCH   1   3
ATOM      3  C   UNL     1       7.882   5.000  62.059  1.00  0.00     0.053 C 
ATOM      4  C   UNL     1       8.987   5.678  62.879  1.00  0.00     0.016 C 
BRANCH   3   5
ATOM      5  C   UNL     1       8.473   4.182  60.896  1.00  0.00     0.015 C 
BRANCH   5   6
ATOM      6  C   UNL     1      10.007   4.078  60.987  1.00  0.00     0.028 C 
BRANCH   6   7
ATOM      7  C   UNL     1      10.478   2.689  60.646  1.00  0.00    -0.028 C 
ATOM      8  C   UNL     1      10.562   1.667  61.530  1.00  0.00    -0.070 CG0
ATOM      9  C   UNL     1      11.096   0.346  61.038  1.00  0.00     0.039 C 
ATOM     10  G   UNL     1      10.139   1.794  62.986  1.00  0.00     0.000 G0
ENDBRANCH   6   7
ENDBRANCH   5   6
ENDBRANCH   3   5
ENDBRANCH   1   3
BRANCH   1  11
ATOM     11  C   UNL     1       7.541   3.067  63.855  1.00  0.00     0.087 C 
BRANCH  11  12
ATOM     12  C   UNL     1       7.519   1.666  63.188  1.00  0.00     0.066 C 
BRANCH  12  13
ATOM     13  C   UNL     1       8.891   1.023  63.327  1.00  0.00     0.140 C 
ATOM     14  O   UNL     1       8.972  -0.164  63.613  1.00  0.00    -0.299 OA
BRANCH  13  15
ATOM     15  C   UNL     1      10.147   1.794  63.005  1.00  0.00     0.106 CG0
ATOM     16  G   UNL     1      10.543   1.665  61.541  1.00  0.00     0.000 G0
ENDBRANCH  13  15
ENDBRANCH  12  13
BRANCH  12  17
ATOM     17  C   UNL     1       6.413   0.733  63.785  1.00  0.00    -0.006 C 
ATOM     18  C   UNL     1       5.282   0.478  62.768  1.00  0.00     0.008 C 
ATOM     19  C   UNL     1       5.792   1.314  65.070  1.00  0.00     0.008 C 
ENDBRANCH  12  17
ENDBRANCH  11  12
ENDBRANCH   1  11
TORSDOF 1
ENDMDL
MODEL 8
REMARK VINA RESULT:    -3.377     14.518     16.835
REMARK INTER + INTRA:          -5.630
REMARK INTER:                  -5.377
REMARK INTRA:                  -0.253
REMARK UNBOUND:                -0.477
REMARK SMILES CC1=CCC[C@H](C)C(=O)C[C@H](C(C)C)C(=O)C1
REMARK SMILES IDX 8 1 9 2 6 3 7 4 5 5 4 6 3 7 2 8 1 9 10 11 11 12 15 13 16 14
REMARK SMILES IDX 17 15 12 17 13 18 14 19
REMARK H PARENT
REMARK Flexibility Score: 70.00
ROOT
ATOM      1  C   UNL     1       9.562   0.251  62.123  1.00  0.00     0.136 C 
ATOM      2  O   UNL     1      10.622  -0.357  62.168  1.00  0.00    -0.299 OA
ENDROOT
BRANCH   1   3
ATOM      3  C   UNL     1       8.270  -0.519  62.335  1.00  0.00     0.053 C 
ATOM      4  C   UNL     1       8.549  -2.006  62.586  1.00  0.00     0.016 C 
BRANCH   3   5
ATOM      5  C   UNL     1       7.432   0.091  63.474  1.00  0.00     0.015 C 
BRANCH   5   6
ATOM      6  C   UNL     1       6.161   0.782  62.947  1.00  0.00     0.028 C 
BRANCH   6   7
ATOM      7  C   UNL     1       6.098   2.218  63.395  1.00  0.00    -0.028 C 
ATOM      8  C   UNL     1       6.289   3.286  62.584  1.00  0.00    -0.070 CG0
ATOM      9  C   UNL     1       6.235   4.662  63.198  1.00  0.00     0.039 C 
ATOM     10  G   UNL     1       6.549   3.156  61.090  1.00  0.00     0.000 G0
ENDBRANCH   6   7
ENDBRANCH   5   6
ENDBRANCH   3   5
ENDBRANCH   1   3
BRANCH   1  11
ATOM     11  C   UNL     1       9.592   1.746  61.891  1.00  0.00     0.087 C 
BRANCH  11  12
ATOM     12  C   UNL     1       8.934   2.146  60.543  1.00  0.00     0.066 C 
BRANCH  12  13
ATOM     13  C   UNL     1       8.021   3.342  60.766  1.00  0.00     0.140 C 
ATOM     14  O   UNL     1       8.459   4.472  60.594  1.00  0.00    -0.299 OA
BRANCH  13  15
ATOM     15  C   UNL     1       6.558   3.156  61.080  1.00  0.00     0.106 CG0
ATOM     16  G   UNL     1       6.267   3.281  62.568  1.00  0.00     0.000 G0
ENDBRANCH  13  15
ENDBRANCH  12  13
BRANCH  12  17
ATOM     17  C   UNL     1       9.988   2.460  59.429  1.00  0.00    -0.006 C 
ATOM     18  C   UNL     1      10.113   1.294  58.428  1.00  0.00     0.008 C 
ATOM     19  C   UNL     1      11.384   2.753  60.013  1.00  0.00     0.008 C 
ENDBRANCH  12  17
ENDBRANCH  11  12
ENDBRANCH   1  11
TORSDOF 1
ENDMDL
MODEL 9
REMARK VINA RESULT:    -3.308     14.810     16.892
REMARK INTER + INTRA:          -5.525
REMARK INTER:                  -5.199
REMARK INTRA:                  -0.327
REMARK UNBOUND:                -0.477
REMARK SMILES CC1=CCC[C@H](C)C(=O)C[C@H](C(C)C)C(=O)C1
REMARK SMILES IDX 8 1 9 2 6 3 7 4 5 5 4 6 3 7 2 8 1 9 10 11 11 12 15 13 16 14
REMARK SMILES IDX 17 15 12 17 13 18 14 19
REMARK H PARENT
REMARK Flexibility Score: 70.00
ROOT
ATOM      1  C   UNL     1       6.997   1.602  62.219  1.00  0.00     0.136 C 
ATOM      2  O   UNL     1       5.918   1.027  62.183  1.00  0.00    -0.299 OA
ENDROOT
BRANCH   1   3
ATOM      3  C   UNL     1       7.998   1.207  63.290  1.00  0.00     0.053 C 
ATOM      4  C   UNL     1       7.298   0.939  64.628  1.00  0.00     0.016 C 
BRANCH   3   5
ATOM      5  C   UNL     1       8.844  -0.002  62.852  1.00  0.00     0.015 C 
BRANCH   5   6
ATOM      6  C   UNL     1      10.225   0.424  62.319  1.00  0.00     0.028 C 
BRANCH   6   7
ATOM      7  C   UNL     1      10.305   0.259  60.825  1.00  0.00    -0.028 C 
ATOM      8  C   UNL     1      10.516   1.271  59.950  1.00  0.00    -0.070 CG0
ATOM      9  C   UNL     1      10.526   0.946  58.478  1.00  0.00     0.039 C 
ATOM     10  G   UNL     1      10.746   2.710  60.388  1.00  0.00     0.000 G0
ENDBRANCH   6   7
ENDBRANCH   5   6
ENDBRANCH   3   5
ENDBRANCH   1   3
BRANCH   1  11
ATOM     11  C   UNL     1       7.293   2.656  61.174  1.00  0.00     0.087 C 
BRANCH  11  12
ATOM     12  C   UNL     1       8.527   3.521  61.543  1.00  0.00     0.066 C 
BRANCH  12  13
ATOM     13  C   UNL     1       9.496   3.539  60.371  1.00  0.00     0.140 C 
ATOM     14  O   UNL     1       9.298   4.308  59.440  1.00  0.00    -0.299 OA
BRANCH  13  15
ATOM     15  C   UNL     1      10.757   2.710  60.392  1.00  0.00     0.106 CG0
ATOM     16  G   UNL     1      10.513   1.279  59.936  1.00  0.00     0.000 G0
ENDBRANCH  13  15
ENDBRANCH  12  13
BRANCH  12  17
ATOM     17  C   UNL     1       8.137   4.980  61.954  1.00  0.00    -0.006 C 
ATOM     18  C   UNL     1       9.274   5.667  62.738  1.00  0.00     0.008 C 
ATOM     19  C   UNL     1       6.858   5.022  62.814  1.00  0.00     0.008 C 
ENDBRANCH  12  17
ENDBRANCH  11  12
ENDBRANCH   1  11
TORSDOF 1
ENDMDL
