MODEL 1
REMARK VINA RESULT:    -2.298      0.000      0.000
REMARK INTER + INTRA:          -2.298
REMARK INTER:                  -2.298
REMARK INTRA:                   0.000
REMARK UNBOUND:                 0.000
REMARK SMILES CC(=O)[O-]
REMARK SMILES IDX 1 1 2 2 3 3 4 4
REMARK H PARENT
REMARK Flexibility Score: inf
ROOT
ATOM      1  C   UNL     1      17.843  26.141  14.608  1.00  0.00     0.063 C 
ATOM      2  C   UNL     1      16.467  26.712  14.572  1.00  0.00     0.038 C 
ATOM      3  O   UNL     1      15.483  26.012  14.927  1.00  0.00    -0.550 OA
ATOM      4  O   UNL     1      16.273  28.037  14.198  1.00  0.00    -0.550 OA
ENDROOT
TORSDOF 0
ENDMDL
MODEL 2
REMARK VINA RESULT:    -2.233      0.284      1.645
REMARK INTER + INTRA:          -2.233
REMARK INTER:                  -2.233
REMARK INTRA:                   0.000
REMARK UNBOUND:                 0.000
REMARK SMILES CC(=O)[O-]
REMARK SMILES IDX 1 1 2 2 3 3 4 4
REMARK H PARENT
REMARK Flexibility Score: inf
ROOT
ATOM      1  C   UNL     1      17.947  26.461  14.998  1.00  0.00     0.063 C 
ATOM      2  C   UNL     1      16.553  26.889  14.688  1.00  0.00     0.038 C 
ATOM      3  O   UNL     1      16.337  28.028  14.197  1.00  0.00    -0.550 OA
ATOM      4  O   UNL     1      15.495  26.011  14.888  1.00  0.00    -0.550 OA
ENDROOT
TORSDOF 0
ENDMDL
MODEL 3
REMARK VINA RESULT:    -2.150      6.510      7.169
REMARK INTER + INTRA:          -2.150
REMARK INTER:                  -2.150
REMARK INTRA:                   0.000
REMARK UNBOUND:                 0.000
REMARK SMILES CC(=O)[O-]
REMARK SMILES IDX 1 1 2 2 3 3 4 4
REMARK H PARENT
REMARK Flexibility Score: inf
ROOT
ATOM      1  C   UNL     1      13.215  21.335  15.370  1.00  0.00     0.063 C 
ATOM      2  C   UNL     1      12.235  21.269  14.248  1.00  0.00     0.038 C 
ATOM      3  O   UNL     1      12.516  21.782  13.134  1.00  0.00    -0.550 OA
ATOM      4  O   UNL     1      11.031  20.595  14.414  1.00  0.00    -0.550 OA
ENDROOT
TORSDOF 0
ENDMDL
MODEL 4
REMARK VINA RESULT:    -2.119      2.298      2.929
REMARK INTER + INTRA:          -2.119
REMARK INTER:                  -2.119
REMARK INTRA:                   0.000
REMARK UNBOUND:                 0.000
REMARK SMILES CC(=O)[O-]
REMARK SMILES IDX 1 1 2 2 3 3 4 4
REMARK H PARENT
REMARK Flexibility Score: inf
ROOT
ATOM      1  C   UNL     1      17.430  29.578  15.708  1.00  0.00     0.063 C 
ATOM      2  C   UNL     1      16.423  29.090  14.722  1.00  0.00     0.038 C 
ATOM      3  O   UNL     1      15.545  29.874  14.277  1.00  0.00    -0.550 OA
ATOM      4  O   UNL     1      16.485  27.784  14.252  1.00  0.00    -0.550 OA
ENDROOT
TORSDOF 0
ENDMDL
MODEL 5
REMARK VINA RESULT:    -2.062      3.963      4.382
REMARK INTER + INTRA:          -2.062
REMARK INTER:                  -2.062
REMARK INTRA:                   0.000
REMARK UNBOUND:                 0.000
REMARK SMILES CC(=O)[O-]
REMARK SMILES IDX 1 1 2 2 3 3 4 4
REMARK H PARENT
REMARK Flexibility Score: inf
ROOT
ATOM      1  C   UNL     1      13.998  22.423  15.643  1.00  0.00     0.063 C 
ATOM      2  C   UNL     1      15.035  23.379  16.126  1.00  0.00     0.038 C 
ATOM      3  O   UNL     1      14.837  24.049  17.173  1.00  0.00    -0.550 OA
ATOM      4  O   UNL     1      16.244  23.493  15.452  1.00  0.00    -0.550 OA
ENDROOT
TORSDOF 0
ENDMDL
MODEL 6
REMARK VINA RESULT:    -2.053      3.858      4.359
REMARK INTER + INTRA:          -2.053
REMARK INTER:                  -2.053
REMARK INTRA:                   0.000
REMARK UNBOUND:                 0.000
REMARK SMILES CC(=O)[O-]
REMARK SMILES IDX 1 1 2 2 3 3 4 4
REMARK H PARENT
REMARK Flexibility Score: inf
ROOT
ATOM      1  C   UNL     1      15.047  24.298  17.349  1.00  0.00     0.063 C 
ATOM      2  C   UNL     1      15.210  23.484  16.110  1.00  0.00     0.038 C 
ATOM      3  O   UNL     1      16.286  23.534  15.459  1.00  0.00    -0.550 OA
ATOM      4  O   UNL     1      14.195  22.628  15.701  1.00  0.00    -0.550 OA
ENDROOT
TORSDOF 0
ENDMDL
MODEL 7
REMARK VINA RESULT:    -2.048      3.804      4.063
REMARK INTER + INTRA:          -2.048
REMARK INTER:                  -2.048
REMARK INTRA:                   0.000
REMARK UNBOUND:                 0.000
REMARK SMILES CC(=O)[O-]
REMARK SMILES IDX 1 1 2 2 3 3 4 4
REMARK H PARENT
REMARK Flexibility Score: inf
ROOT
ATOM      1  C   UNL     1      15.050  24.286  17.333  1.00  0.00     0.063 C 
ATOM      2  C   UNL     1      15.295  23.498  16.091  1.00  0.00     0.038 C 
ATOM      3  O   UNL     1      14.386  22.766  15.619  1.00  0.00    -0.550 OA
ATOM      4  O   UNL     1      16.507  23.611  15.422  1.00  0.00    -0.550 OA
ENDROOT
TORSDOF 0
ENDMDL
MODEL 8
REMARK VINA RESULT:    -1.972      1.583      2.063
REMARK INTER + INTRA:          -1.972
REMARK INTER:                  -1.972
REMARK INTRA:                   0.000
REMARK UNBOUND:                 0.000
REMARK SMILES CC(=O)[O-]
REMARK SMILES IDX 1 1 2 2 3 3 4 4
REMARK H PARENT
REMARK Flexibility Score: inf
ROOT
ATOM      1  C   UNL     1      17.986  26.084  14.650  1.00  0.00     0.063 C 
ATOM      2  C   UNL     1      16.874  25.133  14.937  1.00  0.00     0.038 C 
ATOM      3  O   UNL     1      17.128  23.935  15.229  1.00  0.00    -0.550 OA
ATOM      4  O   UNL     1      15.558  25.579  14.938  1.00  0.00    -0.550 OA
ENDROOT
TORSDOF 0
ENDMDL
MODEL 9
REMARK VINA RESULT:    -1.878      1.342      1.842
REMARK INTER + INTRA:          -1.878
REMARK INTER:                  -1.878
REMARK INTRA:                   0.000
REMARK UNBOUND:                 0.000
REMARK SMILES CC(=O)[O-]
REMARK SMILES IDX 1 1 2 2 3 3 4 4
REMARK H PARENT
REMARK Flexibility Score: inf
ROOT
ATOM      1  C   UNL     1      17.582  25.891  15.478  1.00  0.00     0.063 C 
ATOM      2  C   UNL     1      17.175  27.302  15.216  1.00  0.00     0.038 C 
ATOM      3  O   UNL     1      17.828  28.251  15.722  1.00  0.00    -0.550 OA
ATOM      4  O   UNL     1      16.108  27.572  14.368  1.00  0.00    -0.550 OA
ENDROOT
TORSDOF 0
ENDMDL
