MODEL 1
REMARK VINA RESULT:     1.172      0.000      0.000
REMARK INTER + INTRA:           1.412
REMARK INTER:                   2.542
REMARK INTRA:                  -1.130
REMARK UNBOUND:                -1.130
REMARK SMILES CCCCCCCCCCCCCCCCCCCCCC(=O)[O-]
REMARK SMILES IDX 12 1 11 2 10 3 9 4 8 5 7 6 6 7 5 8 4 9 3 10 2 11 1 12 13 13
REMARK SMILES IDX 14 14 15 15 16 16 17 17 18 18 19 19 20 20 21 21 22 22 23 23
REMARK SMILES IDX 24 24
REMARK H PARENT
REMARK Flexibility Score: inf
ROOT
ATOM      1  C   UNL     1     -53.139 123.199  -8.344  1.00  0.00     0.000 C 
ENDROOT
BRANCH   1   2
ATOM      2  C   UNL     1     -53.721 123.939  -9.561  1.00  0.00     0.000 C 
BRANCH   2   3
ATOM      3  C   UNL     1     -53.210 123.359 -10.897  1.00  0.00     0.000 C 
BRANCH   3   4
ATOM      4  C   UNL     1     -54.005 123.842 -12.124  1.00  0.00    -0.000 C 
BRANCH   4   5
ATOM      5  C   UNL     1     -55.476 123.395 -12.099  1.00  0.00    -0.000 C 
BRANCH   5   6
ATOM      6  C   UNL     1     -55.629 121.874 -11.918  1.00  0.00    -0.000 C 
BRANCH   6   7
ATOM      7  C   UNL     1     -57.083 121.404 -12.106  1.00  0.00    -0.000 C 
BRANCH   7   8
ATOM      8  C   UNL     1     -57.303 119.952 -11.647  1.00  0.00    -0.000 C 
BRANCH   8   9
ATOM      9  C   UNL     1     -57.243 119.729 -10.122  1.00  0.00    -0.000 C 
BRANCH   9  10
ATOM     10  C   UNL     1     -57.263 121.014  -9.275  1.00  0.00    -0.000 C 
BRANCH  10  11
ATOM     11  C   UNL     1     -55.982 121.206  -8.452  1.00  0.00    -0.003 C 
ATOM     12  C   UNL     1     -54.833 120.376  -9.019  1.00  0.00     0.004 C 
ENDBRANCH  10  11
ENDBRANCH   9  10
ENDBRANCH   8   9
ENDBRANCH   7   8
ENDBRANCH   6   7
ENDBRANCH   5   6
ENDBRANCH   4   5
ENDBRANCH   3   4
ENDBRANCH   2   3
ENDBRANCH   1   2
BRANCH   1  13
ATOM     13  C   UNL     1     -51.604 123.270  -8.289  1.00  0.00     0.000 C 
BRANCH  13  14
ATOM     14  C   UNL     1     -51.097 124.644  -7.819  1.00  0.00     0.000 C 
BRANCH  14  15
ATOM     15  C   UNL     1     -49.603 124.858  -8.109  1.00  0.00     0.000 C 
BRANCH  15  16
ATOM     16  C   UNL     1     -49.059 123.894  -9.179  1.00  0.00     0.000 C 
BRANCH  16  17
ATOM     17  C   UNL     1     -49.736 124.095 -10.544  1.00  0.00     0.000 C 
BRANCH  17  18
ATOM     18  C   UNL     1     -48.876 123.586 -11.712  1.00  0.00     0.000 C 
BRANCH  18  19
ATOM     19  C   UNL     1     -48.916 122.057 -11.862  1.00  0.00     0.000 C 
BRANCH  19  20
ATOM     20  C   UNL     1     -50.089 121.388 -11.115  1.00  0.00     0.006 C 
BRANCH  20  21
ATOM     21  C   UNL     1     -51.207 120.932 -12.066  1.00  0.00     0.053 C 
BRANCH  21  22
ATOM     22  C   UNL     1     -52.222 120.100 -11.342  1.00  0.00     0.041 C 
ATOM     23  O   UNL     1     -52.181 119.997 -10.085  1.00  0.00    -0.550 OA
ATOM     24  O   UNL     1     -53.217 119.443 -12.055  1.00  0.00    -0.550 OA
ENDBRANCH  21  22
ENDBRANCH  20  21
ENDBRANCH  19  20
ENDBRANCH  18  19
ENDBRANCH  17  18
ENDBRANCH  16  17
ENDBRANCH  15  16
ENDBRANCH  14  15
ENDBRANCH  13  14
ENDBRANCH   1  13
TORSDOF 20
ENDMDL
MODEL 2
REMARK VINA RESULT:     2.682      1.703      4.156
REMARK INTER + INTRA:           4.687
REMARK INTER:                   3.600
REMARK INTRA:                   1.087
REMARK UNBOUND:                -1.130
REMARK SMILES CCCCCCCCCCCCCCCCCCCCCC(=O)[O-]
REMARK SMILES IDX 12 1 11 2 10 3 9 4 8 5 7 6 6 7 5 8 4 9 3 10 2 11 1 12 13 13
REMARK SMILES IDX 14 14 15 15 16 16 17 17 18 18 19 19 20 20 21 21 22 22 23 23
REMARK SMILES IDX 24 24
REMARK H PARENT
REMARK Flexibility Score: inf
ROOT
ATOM      1  C   UNL     1     -56.840 120.178  -9.913  1.00  0.00     0.000 C 
ENDROOT
BRANCH   1   2
ATOM      2  C   UNL     1     -57.856 120.510 -11.020  1.00  0.00     0.000 C 
BRANCH   2   3
ATOM      3  C   UNL     1     -57.248 121.399 -12.125  1.00  0.00     0.000 C 
BRANCH   3   4
ATOM      4  C   UNL     1     -55.708 121.418 -12.125  1.00  0.00    -0.000 C 
BRANCH   4   5
ATOM      5  C   UNL     1     -55.124 122.606 -11.342  1.00  0.00    -0.000 C 
BRANCH   5   6
ATOM      6  C   UNL     1     -53.865 123.189 -12.006  1.00  0.00    -0.000 C 
BRANCH   6   7
ATOM      7  C   UNL     1     -52.715 122.169 -12.079  1.00  0.00    -0.000 C 
BRANCH   7   8
ATOM      8  C   UNL     1     -52.695 121.205 -10.879  1.00  0.00    -0.000 C 
BRANCH   8   9
ATOM      9  C   UNL     1     -53.506 119.906 -11.066  1.00  0.00    -0.000 C 
BRANCH   9  10
ATOM     10  C   UNL     1     -53.628 119.029  -9.808  1.00  0.00    -0.000 C 
BRANCH  10  11
ATOM     11  C   UNL     1     -52.338 118.995  -8.976  1.00  0.00    -0.003 C 
ATOM     12  C   UNL     1     -51.913 117.561  -8.675  1.00  0.00     0.004 C 
ENDBRANCH  10  11
ENDBRANCH   9  10
ENDBRANCH   8   9
ENDBRANCH   7   8
ENDBRANCH   6   7
ENDBRANCH   5   6
ENDBRANCH   4   5
ENDBRANCH   3   4
ENDBRANCH   2   3
ENDBRANCH   1   2
BRANCH   1  13
ATOM     13  C   UNL     1     -56.728 121.295  -8.862  1.00  0.00     0.000 C 
BRANCH  13  14
ATOM     14  C   UNL     1     -55.345 121.331  -8.189  1.00  0.00     0.000 C 
BRANCH  14  15
ATOM     15  C   UNL     1     -54.458 122.471  -8.712  1.00  0.00     0.000 C 
BRANCH  15  16
ATOM     16  C   UNL     1     -53.067 122.496  -8.052  1.00  0.00     0.000 C 
BRANCH  16  17
ATOM     17  C   UNL     1     -52.298 123.791  -8.358  1.00  0.00     0.000 C 
BRANCH  17  18
ATOM     18  C   UNL     1     -50.778 123.628  -8.202  1.00  0.00     0.000 C 
BRANCH  18  19
ATOM     19  C   UNL     1     -49.984 124.343  -9.308  1.00  0.00     0.000 C 
BRANCH  19  20
ATOM     20  C   UNL     1     -50.303 123.837 -10.731  1.00  0.00     0.006 C 
BRANCH  20  21
ATOM     21  C   UNL     1     -49.122 123.086 -11.366  1.00  0.00     0.053 C 
BRANCH  21  22
ATOM     22  C   UNL     1     -48.984 121.712 -10.784  1.00  0.00     0.041 C 
ATOM     23  O   UNL     1     -48.971 121.549  -9.533  1.00  0.00    -0.550 OA
ATOM     24  O   UNL     1     -48.875 120.611 -11.625  1.00  0.00    -0.550 OA
ENDBRANCH  21  22
ENDBRANCH  20  21
ENDBRANCH  19  20
ENDBRANCH  18  19
ENDBRANCH  17  18
ENDBRANCH  16  17
ENDBRANCH  15  16
ENDBRANCH  14  15
ENDBRANCH  13  14
ENDBRANCH   1  13
TORSDOF 20
ENDMDL
MODEL 3
REMARK VINA RESULT:     3.048      1.346      6.481
REMARK INTER + INTRA:           5.481
REMARK INTER:                   3.814
REMARK INTRA:                   1.667
REMARK UNBOUND:                -1.130
REMARK SMILES CCCCCCCCCCCCCCCCCCCCCC(=O)[O-]
REMARK SMILES IDX 12 1 11 2 10 3 9 4 8 5 7 6 6 7 5 8 4 9 3 10 2 11 1 12 13 13
REMARK SMILES IDX 14 14 15 15 16 16 17 17 18 18 19 19 20 20 21 21 22 22 23 23
REMARK SMILES IDX 24 24
REMARK H PARENT
REMARK Flexibility Score: inf
ROOT
ATOM      1  C   UNL     1     -55.233 120.645 -11.597  1.00  0.00     0.000 C 
ENDROOT
BRANCH   1   2
ATOM      2  C   UNL     1     -54.123 121.705 -11.699  1.00  0.00     0.000 C 
BRANCH   2   3
ATOM      3  C   UNL     1     -52.770 121.097 -12.125  1.00  0.00     0.000 C 
BRANCH   3   4
ATOM      4  C   UNL     1     -51.573 122.040 -11.910  1.00  0.00    -0.000 C 
BRANCH   4   5
ATOM      5  C   UNL     1     -50.271 121.290 -11.579  1.00  0.00    -0.000 C 
BRANCH   5   6
ATOM      6  C   UNL     1     -49.030 122.195 -11.664  1.00  0.00    -0.000 C 
BRANCH   6   7
ATOM      7  C   UNL     1     -49.396 123.675 -11.879  1.00  0.00    -0.000 C 
BRANCH   7   8
ATOM      8  C   UNL     1     -48.903 124.582 -10.737  1.00  0.00    -0.000 C 
BRANCH   8   9
ATOM      9  C   UNL     1     -49.342 124.154  -9.322  1.00  0.00    -0.000 C 
BRANCH   9  10
ATOM     10  C   UNL     1     -50.818 123.736  -9.197  1.00  0.00    -0.000 C 
BRANCH  10  11
ATOM     11  C   UNL     1     -51.371 123.917  -7.777  1.00  0.00    -0.003 C 
ATOM     12  C   UNL     1     -52.898 123.940  -7.779  1.00  0.00     0.004 C 
ENDBRANCH  10  11
ENDBRANCH   9  10
ENDBRANCH   8   9
ENDBRANCH   7   8
ENDBRANCH   6   7
ENDBRANCH   5   6
ENDBRANCH   4   5
ENDBRANCH   3   4
ENDBRANCH   2   3
ENDBRANCH   1   2
BRANCH   1  13
ATOM     13  C   UNL     1     -56.585 121.155 -12.124  1.00  0.00     0.000 C 
BRANCH  13  14
ATOM     14  C   UNL     1     -57.743 120.196 -11.794  1.00  0.00     0.000 C 
BRANCH  14  15
ATOM     15  C   UNL     1     -57.449 119.306 -10.576  1.00  0.00     0.000 C 
BRANCH  15  16
ATOM     16  C   UNL     1     -57.499 120.079  -9.246  1.00  0.00     0.000 C 
BRANCH  16  17
ATOM     17  C   UNL     1     -56.847 121.467  -9.352  1.00  0.00     0.000 C 
BRANCH  17  18
ATOM     18  C   UNL     1     -56.264 121.951  -8.016  1.00  0.00     0.000 C 
BRANCH  18  19
ATOM     19  C   UNL     1     -54.755 122.234  -8.089  1.00  0.00     0.000 C 
BRANCH  19  20
ATOM     20  C   UNL     1     -53.875 121.003  -7.781  1.00  0.00     0.006 C 
BRANCH  20  21
ATOM     21  C   UNL     1     -52.920 120.660  -8.934  1.00  0.00     0.053 C 
BRANCH  21  22
ATOM     22  C   UNL     1     -52.884 119.182  -9.179  1.00  0.00     0.041 C 
ATOM     23  O   UNL     1     -53.765 118.632  -9.894  1.00  0.00    -0.550 OA
ATOM     24  O   UNL     1     -51.870 118.411  -8.620  1.00  0.00    -0.550 OA
ENDBRANCH  21  22
ENDBRANCH  20  21
ENDBRANCH  19  20
ENDBRANCH  18  19
ENDBRANCH  17  18
ENDBRANCH  16  17
ENDBRANCH  15  16
ENDBRANCH  14  15
ENDBRANCH  13  14
ENDBRANCH   1  13
TORSDOF 20
ENDMDL
MODEL 4
REMARK VINA RESULT:     3.423      1.674      2.442
REMARK INTER + INTRA:           6.295
REMARK INTER:                   5.132
REMARK INTRA:                   1.162
REMARK UNBOUND:                -1.130
REMARK SMILES CCCCCCCCCCCCCCCCCCCCCC(=O)[O-]
REMARK SMILES IDX 12 1 11 2 10 3 9 4 8 5 7 6 6 7 5 8 4 9 3 10 2 11 1 12 13 13
REMARK SMILES IDX 14 14 15 15 16 16 17 17 18 18 19 19 20 20 21 21 22 22 23 23
REMARK SMILES IDX 24 24
REMARK H PARENT
REMARK Flexibility Score: inf
ROOT
ATOM      1  C   UNL     1     -53.825 122.558  -8.674  1.00  0.00     0.000 C 
ENDROOT
BRANCH   1   2
ATOM      2  C   UNL     1     -54.075 123.447  -9.904  1.00  0.00     0.000 C 
BRANCH   2   3
ATOM      3  C   UNL     1     -55.485 123.246 -10.496  1.00  0.00     0.000 C 
BRANCH   3   4
ATOM      4  C   UNL     1     -55.479 122.731 -11.947  1.00  0.00    -0.000 C 
BRANCH   4   5
ATOM      5  C   UNL     1     -56.209 121.386 -12.108  1.00  0.00    -0.000 C 
BRANCH   5   6
ATOM      6  C   UNL     1     -57.374 121.223 -11.116  1.00  0.00    -0.000 C 
BRANCH   6   7
ATOM      7  C   UNL     1     -57.710 119.746 -10.844  1.00  0.00    -0.000 C 
BRANCH   7   8
ATOM      8  C   UNL     1     -56.488 118.934 -10.377  1.00  0.00    -0.000 C 
BRANCH   8   9
ATOM      9  C   UNL     1     -55.135 119.668 -10.473  1.00  0.00    -0.000 C 
BRANCH   9  10
ATOM     10  C   UNL     1     -54.047 119.154  -9.513  1.00  0.00    -0.000 C 
BRANCH  10  11
ATOM     11  C   UNL     1     -52.638 119.619  -9.906  1.00  0.00    -0.003 C 
ATOM     12  C   UNL     1     -52.492 119.718 -11.422  1.00  0.00     0.004 C 
ENDBRANCH  10  11
ENDBRANCH   9  10
ENDBRANCH   8   9
ENDBRANCH   7   8
ENDBRANCH   6   7
ENDBRANCH   5   6
ENDBRANCH   4   5
ENDBRANCH   3   4
ENDBRANCH   2   3
ENDBRANCH   1   2
BRANCH   1  13
ATOM     13  C   UNL     1     -52.440 122.790  -8.049  1.00  0.00     0.000 C 
BRANCH  13  14
ATOM     14  C   UNL     1     -51.731 124.024  -8.635  1.00  0.00     0.000 C 
BRANCH  14  15
ATOM     15  C   UNL     1     -50.353 124.275  -8.004  1.00  0.00     0.000 C 
BRANCH  15  16
ATOM     16  C   UNL     1     -49.270 124.605  -9.048  1.00  0.00     0.000 C 
BRANCH  16  17
ATOM     17  C   UNL     1     -49.871 125.052 -10.390  1.00  0.00     0.000 C 
BRANCH  17  18
ATOM     18  C   UNL     1     -48.922 124.805 -11.574  1.00  0.00     0.000 C 
BRANCH  18  19
ATOM     19  C   UNL     1     -48.876 123.329 -12.004  1.00  0.00     0.000 C 
BRANCH  19  20
ATOM     20  C   UNL     1     -50.142 122.531 -11.629  1.00  0.00     0.006 C 
BRANCH  20  21
ATOM     21  C   UNL     1     -49.820 121.097 -11.180  1.00  0.00     0.053 C 
BRANCH  21  22
ATOM     22  C   UNL     1     -49.238 121.084  -9.799  1.00  0.00     0.041 C 
ATOM     23  O   UNL     1     -49.060 119.992  -9.193  1.00  0.00    -0.550 OA
ATOM     24  O   UNL     1     -48.885 122.280  -9.184  1.00  0.00    -0.550 OA
ENDBRANCH  21  22
ENDBRANCH  20  21
ENDBRANCH  19  20
ENDBRANCH  18  19
ENDBRANCH  17  18
ENDBRANCH  16  17
ENDBRANCH  15  16
ENDBRANCH  14  15
ENDBRANCH  13  14
ENDBRANCH   1  13
TORSDOF 20
ENDMDL
MODEL 5
REMARK VINA RESULT:     3.441      1.458      4.228
REMARK INTER + INTRA:           6.333
REMARK INTER:                   5.883
REMARK INTRA:                   0.450
REMARK UNBOUND:                -1.130
REMARK SMILES CCCCCCCCCCCCCCCCCCCCCC(=O)[O-]
REMARK SMILES IDX 12 1 11 2 10 3 9 4 8 5 7 6 6 7 5 8 4 9 3 10 2 11 1 12 13 13
REMARK SMILES IDX 14 14 15 15 16 16 17 17 18 18 19 19 20 20 21 21 22 22 23 23
REMARK SMILES IDX 24 24
REMARK H PARENT
REMARK Flexibility Score: inf
ROOT
ATOM      1  C   UNL     1     -55.357 120.860 -11.974  1.00  0.00     0.000 C 
ENDROOT
BRANCH   1   2
ATOM      2  C   UNL     1     -56.547 121.830 -12.089  1.00  0.00     0.000 C 
BRANCH   2   3
ATOM      3  C   UNL     1     -57.902 121.092 -12.123  1.00  0.00     0.000 C 
BRANCH   3   4
ATOM      4  C   UNL     1     -57.985 119.905 -11.146  1.00  0.00    -0.000 C 
BRANCH   4   5
ATOM      5  C   UNL     1     -56.952 119.993 -10.009  1.00  0.00    -0.000 C 
BRANCH   5   6
ATOM      6  C   UNL     1     -57.510 120.693  -8.757  1.00  0.00    -0.000 C 
BRANCH   6   7
ATOM      7  C   UNL     1     -56.719 121.962  -8.393  1.00  0.00    -0.000 C 
BRANCH   7   8
ATOM      8  C   UNL     1     -55.226 121.684  -8.146  1.00  0.00    -0.000 C 
BRANCH   8   9
ATOM      9  C   UNL     1     -54.610 120.573  -9.021  1.00  0.00    -0.000 C 
BRANCH   9  10
ATOM     10  C   UNL     1     -53.107 120.328  -8.799  1.00  0.00    -0.000 C 
BRANCH  10  11
ATOM     11  C   UNL     1     -52.578 119.119  -9.582  1.00  0.00    -0.003 C 
ATOM     12  C   UNL     1     -51.904 118.113  -8.654  1.00  0.00     0.004 C 
ENDBRANCH  10  11
ENDBRANCH   9  10
ENDBRANCH   8   9
ENDBRANCH   7   8
ENDBRANCH   6   7
ENDBRANCH   5   6
ENDBRANCH   4   5
ENDBRANCH   3   4
ENDBRANCH   2   3
ENDBRANCH   1   2
BRANCH   1  13
ATOM     13  C   UNL     1     -54.002 121.570 -12.125  1.00  0.00     0.000 C 
BRANCH  13  14
ATOM     14  C   UNL     1     -54.113 123.093 -11.939  1.00  0.00     0.000 C 
BRANCH  14  15
ATOM     15  C   UNL     1     -54.218 123.506 -10.462  1.00  0.00     0.000 C 
BRANCH  15  16
ATOM     16  C   UNL     1     -52.872 123.966  -9.874  1.00  0.00     0.000 C 
BRANCH  16  17
ATOM     17  C   UNL     1     -52.718 123.578  -8.395  1.00  0.00     0.000 C 
BRANCH  17  18
ATOM     18  C   UNL     1     -51.256 123.616  -7.922  1.00  0.00     0.000 C 
BRANCH  18  19
ATOM     19  C   UNL     1     -50.307 124.231  -8.963  1.00  0.00     0.000 C 
BRANCH  19  20
ATOM     20  C   UNL     1     -49.097 123.337  -9.307  1.00  0.00     0.006 C 
BRANCH  20  21
ATOM     21  C   UNL     1     -49.142 122.818 -10.752  1.00  0.00     0.053 C 
BRANCH  21  22
ATOM     22  C   UNL     1     -49.569 121.382 -10.794  1.00  0.00     0.041 C 
ATOM     23  O   UNL     1     -50.314 120.966 -11.723  1.00  0.00    -0.550 OA
ATOM     24  O   UNL     1     -49.138 120.501  -9.808  1.00  0.00    -0.550 OA
ENDBRANCH  21  22
ENDBRANCH  20  21
ENDBRANCH  19  20
ENDBRANCH  18  19
ENDBRANCH  17  18
ENDBRANCH  16  17
ENDBRANCH  15  16
ENDBRANCH  14  15
ENDBRANCH  13  14
ENDBRANCH   1  13
TORSDOF 20
ENDMDL
MODEL 6
REMARK VINA RESULT:     3.898      1.689      3.429
REMARK INTER + INTRA:           7.326
REMARK INTER:                   6.146
REMARK INTRA:                   1.180
REMARK UNBOUND:                -1.130
REMARK SMILES CCCCCCCCCCCCCCCCCCCCCC(=O)[O-]
REMARK SMILES IDX 12 1 11 2 10 3 9 4 8 5 7 6 6 7 5 8 4 9 3 10 2 11 1 12 13 13
REMARK SMILES IDX 14 14 15 15 16 16 17 17 18 18 19 19 20 20 21 21 22 22 23 23
REMARK SMILES IDX 24 24
REMARK H PARENT
REMARK Flexibility Score: inf
ROOT
ATOM      1  C   UNL     1     -53.379 120.616 -10.866  1.00  0.00     0.000 C 
ENDROOT
BRANCH   1   2
ATOM      2  C   UNL     1     -53.775 121.443 -12.103  1.00  0.00     0.000 C 
BRANCH   2   3
ATOM      3  C   UNL     1     -54.032 122.925 -11.758  1.00  0.00     0.000 C 
BRANCH   3   4
ATOM      4  C   UNL     1     -55.492 123.364 -11.967  1.00  0.00    -0.000 C 
BRANCH   4   5
ATOM      5  C   UNL     1     -56.458 122.177 -12.124  1.00  0.00    -0.000 C 
BRANCH   5   6
ATOM      6  C   UNL     1     -57.660 122.262 -11.169  1.00  0.00    -0.000 C 
BRANCH   6   7
ATOM      7  C   UNL     1     -58.282 120.883 -10.883  1.00  0.00    -0.000 C 
BRANCH   7   8
ATOM      8  C   UNL     1     -57.386 119.719 -11.344  1.00  0.00    -0.000 C 
BRANCH   8   9
ATOM      9  C   UNL     1     -56.748 118.893 -10.209  1.00  0.00    -0.000 C 
BRANCH   9  10
ATOM     10  C   UNL     1     -55.643 119.616  -9.419  1.00  0.00    -0.000 C 
BRANCH  10  11
ATOM     11  C   UNL     1     -55.981 121.085  -9.128  1.00  0.00    -0.003 C 
ATOM     12  C   UNL     1     -56.528 121.255  -7.713  1.00  0.00     0.004 C 
ENDBRANCH  10  11
ENDBRANCH   9  10
ENDBRANCH   8   9
ENDBRANCH   7   8
ENDBRANCH   6   7
ENDBRANCH   5   6
ENDBRANCH   4   5
ENDBRANCH   3   4
ENDBRANCH   2   3
ENDBRANCH   1   2
BRANCH   1  13
ATOM     13  C   UNL     1     -51.862 120.622 -10.614  1.00  0.00     0.000 C 
BRANCH  13  14
ATOM     14  C   UNL     1     -51.079 121.279 -11.764  1.00  0.00     0.000 C 
BRANCH  14  15
ATOM     15  C   UNL     1     -49.598 121.505 -11.422  1.00  0.00     0.000 C 
BRANCH  15  16
ATOM     16  C   UNL     1     -49.242 121.062  -9.991  1.00  0.00     0.000 C 
BRANCH  16  17
ATOM     17  C   UNL     1     -48.876 122.250  -9.087  1.00  0.00     0.000 C 
BRANCH  17  18
ATOM     18  C   UNL     1     -49.438 123.583  -9.604  1.00  0.00     0.000 C 
BRANCH  18  19
ATOM     19  C   UNL     1     -49.627 124.625  -8.490  1.00  0.00     0.000 C 
BRANCH  19  20
ATOM     20  C   UNL     1     -51.083 124.750  -7.994  1.00  0.00     0.006 C 
BRANCH  20  21
ATOM     21  C   UNL     1     -51.865 123.434  -8.131  1.00  0.00     0.053 C 
BRANCH  21  22
ATOM     22  C   UNL     1     -53.337 123.693  -8.239  1.00  0.00     0.041 C 
ATOM     23  O   UNL     1     -54.064 122.948  -8.952  1.00  0.00    -0.550 OA
ATOM     24  O   UNL     1     -53.908 124.755  -7.547  1.00  0.00    -0.550 OA
ENDBRANCH  21  22
ENDBRANCH  20  21
ENDBRANCH  19  20
ENDBRANCH  18  19
ENDBRANCH  17  18
ENDBRANCH  16  17
ENDBRANCH  15  16
ENDBRANCH  14  15
ENDBRANCH  13  14
ENDBRANCH   1  13
TORSDOF 20
ENDMDL
MODEL 7
REMARK VINA RESULT:     4.002      2.989      7.151
REMARK INTER + INTRA:           7.552
REMARK INTER:                   9.116
REMARK INTRA:                  -1.564
REMARK UNBOUND:                -1.130
REMARK SMILES CCCCCCCCCCCCCCCCCCCCCC(=O)[O-]
REMARK SMILES IDX 12 1 11 2 10 3 9 4 8 5 7 6 6 7 5 8 4 9 3 10 2 11 1 12 13 13
REMARK SMILES IDX 14 14 15 15 16 16 17 17 18 18 19 19 20 20 21 21 22 22 23 23
REMARK SMILES IDX 24 24
REMARK H PARENT
REMARK Flexibility Score: inf
ROOT
ATOM      1  C   UNL     1     -54.312 120.905  -8.422  1.00  0.00     0.000 C 
ENDROOT
BRANCH   1   2
ATOM      2  C   UNL     1     -53.006 120.641  -9.191  1.00  0.00     0.000 C 
BRANCH   2   3
ATOM      3  C   UNL     1     -53.116 119.423 -10.132  1.00  0.00     0.000 C 
BRANCH   3   4
ATOM      4  C   UNL     1     -52.904 119.768 -11.617  1.00  0.00    -0.000 C 
BRANCH   4   5
ATOM      5  C   UNL     1     -51.579 120.505 -11.877  1.00  0.00    -0.000 C 
BRANCH   5   6
ATOM      6  C   UNL     1     -51.779 122.010 -12.124  1.00  0.00    -0.000 C 
BRANCH   6   7
ATOM      7  C   UNL     1     -50.782 122.873 -11.330  1.00  0.00    -0.000 C 
BRANCH   7   8
ATOM      8  C   UNL     1     -49.559 122.075 -10.845  1.00  0.00    -0.000 C 
BRANCH   8   9
ATOM      9  C   UNL     1     -48.880 122.620  -9.572  1.00  0.00    -0.000 C 
BRANCH   9  10
ATOM     10  C   UNL     1     -49.027 124.137  -9.355  1.00  0.00    -0.000 C 
BRANCH  10  11
ATOM     11  C   UNL     1     -49.905 124.484  -8.145  1.00  0.00    -0.003 C 
ATOM     12  C   UNL     1     -51.341 124.013  -8.352  1.00  0.00     0.004 C 
ENDBRANCH  10  11
ENDBRANCH   9  10
ENDBRANCH   8   9
ENDBRANCH   7   8
ENDBRANCH   6   7
ENDBRANCH   5   6
ENDBRANCH   4   5
ENDBRANCH   3   4
ENDBRANCH   2   3
ENDBRANCH   1   2
BRANCH   1  13
ATOM     13  C   UNL     1     -55.253 121.864  -9.169  1.00  0.00     0.000 C 
BRANCH  13  14
ATOM     14  C   UNL     1     -54.659 122.348 -10.504  1.00  0.00     0.000 C 
BRANCH  14  15
ATOM     15  C   UNL     1     -55.710 122.453 -11.620  1.00  0.00     0.000 C 
BRANCH  15  16
ATOM     16  C   UNL     1     -56.788 121.357 -11.530  1.00  0.00     0.000 C 
BRANCH  16  17
ATOM     17  C   UNL     1     -56.203 119.947 -11.708  1.00  0.00     0.000 C 
BRANCH  17  18
ATOM     18  C   UNL     1     -56.699 118.961 -10.639  1.00  0.00     0.000 C 
BRANCH  18  19
ATOM     19  C   UNL     1     -57.450 119.654  -9.490  1.00  0.00     0.000 C 
BRANCH  19  20
ATOM     20  C   UNL     1     -58.417 118.723  -8.728  1.00  0.00     0.006 C 
BRANCH  20  21
ATOM     21  C   UNL     1     -58.184 118.750  -7.209  1.00  0.00     0.053 C 
BRANCH  21  22
ATOM     22  C   UNL     1     -59.246 117.977  -6.489  1.00  0.00     0.041 C 
ATOM     23  O   UNL     1     -60.264 117.563  -7.109  1.00  0.00    -0.550 OA
ATOM     24  O   UNL     1     -59.109 117.706  -5.132  1.00  0.00    -0.550 OA
ENDBRANCH  21  22
ENDBRANCH  20  21
ENDBRANCH  19  20
ENDBRANCH  18  19
ENDBRANCH  17  18
ENDBRANCH  16  17
ENDBRANCH  15  16
ENDBRANCH  14  15
ENDBRANCH  13  14
ENDBRANCH   1  13
TORSDOF 20
ENDMDL
