MODEL 1
REMARK VINA RESULT:    -5.009      0.000      0.000
REMARK INTER + INTRA:          -7.464
REMARK INTER:                  -7.644
REMARK INTRA:                   0.180
REMARK UNBOUND:                 0.180
REMARK SMILES CC1=CCC[C@H](C)C(=O)C[C@@H](C(C)C)C(=O)C1
REMARK SMILES IDX 8 1 9 2 6 3 7 4 5 5 4 6 3 7 2 8 1 9 10 11 11 12 15 13 16 14
REMARK SMILES IDX 17 15 12 17 13 18 14 19
REMARK H PARENT
REMARK Flexibility Score: 70.00
ROOT
ATOM      1  C   UNL     1     -12.461 -15.820  29.062  1.00  0.00     0.136 C 
ATOM      2  O   UNL     1     -11.352 -15.306  29.094  1.00  0.00    -0.299 OA
ENDROOT
BRANCH   1   3
ATOM      3  C   UNL     1     -12.794 -16.749  27.905  1.00  0.00     0.053 C 
ATOM      4  C   UNL     1     -12.128 -16.274  26.608  1.00  0.00     0.016 C 
BRANCH   3   5
ATOM      5  C   UNL     1     -12.434 -18.219  28.204  1.00  0.00     0.015 C 
BRANCH   5   6
ATOM      6  C   UNL     1     -13.643 -19.046  28.700  1.00  0.00     0.028 C 
BRANCH   6   7
ATOM      7  C   UNL     1     -13.210 -20.080  29.713  1.00  0.00    -0.028 C 
ATOM      8  C   UNL     1     -13.066 -19.862  31.042  1.00  0.00    -0.070 CG0
ATOM      9  C   UNL     1     -12.501 -20.976  31.886  1.00  0.00     0.039 C 
ATOM     10  G   UNL     1     -13.453 -18.555  31.720  1.00  0.00     0.000 G0
ENDBRANCH   6   7
ENDBRANCH   5   6
ENDBRANCH   3   5
ENDBRANCH   1   3
BRANCH   1  11
ATOM     11  C   UNL     1     -13.437 -15.499  30.179  1.00  0.00     0.087 C 
BRANCH  11  12
ATOM     12  C   UNL     1     -12.926 -15.927  31.582  1.00  0.00     0.066 C 
BRANCH  12  13
ATOM     13  C   UNL     1     -12.494 -17.390  31.614  1.00  0.00     0.140 C 
ATOM     14  O   UNL     1     -11.302 -17.652  31.529  1.00  0.00    -0.299 OA
BRANCH  13  15
ATOM     15  C   UNL     1     -13.456 -18.556  31.750  1.00  0.00     0.106 CG0
ATOM     16  G   UNL     1     -13.047 -19.837  31.039  1.00  0.00     0.000 G0
ENDBRANCH  13  15
ENDBRANCH  12  13
BRANCH  12  17
ATOM     17  C   UNL     1     -13.920 -15.611  32.744  1.00  0.00    -0.006 C 
ATOM     18  C   UNL     1     -15.113 -14.727  32.341  1.00  0.00     0.008 C 
ATOM     19  C   UNL     1     -13.200 -14.994  33.955  1.00  0.00     0.008 C 
ENDBRANCH  12  17
ENDBRANCH  11  12
ENDBRANCH   1  11
TORSDOF 1
ENDMDL
MODEL 2
REMARK VINA RESULT:    -4.699      1.773      2.757
REMARK INTER + INTRA:          -6.990
REMARK INTER:                  -7.407
REMARK INTRA:                   0.417
REMARK UNBOUND:                 0.180
REMARK SMILES CC1=CCC[C@H](C)C(=O)C[C@@H](C(C)C)C(=O)C1
REMARK SMILES IDX 8 1 9 2 6 3 7 4 5 5 4 6 3 7 2 8 1 9 10 11 11 12 15 13 16 14
REMARK SMILES IDX 17 15 12 17 13 18 14 19
REMARK H PARENT
REMARK Flexibility Score: 70.00
ROOT
ATOM      1  C   UNL     1     -13.976 -15.291  30.600  1.00  0.00     0.136 C 
ATOM      2  O   UNL     1     -14.677 -14.331  30.888  1.00  0.00    -0.299 OA
ENDROOT
BRANCH   1   3
ATOM      3  C   UNL     1     -13.525 -15.448  29.156  1.00  0.00     0.053 C 
ATOM      4  C   UNL     1     -14.125 -14.351  28.269  1.00  0.00     0.016 C 
BRANCH   3   5
ATOM      5  C   UNL     1     -11.990 -15.494  29.017  1.00  0.00     0.015 C 
BRANCH   5   6
ATOM      6  C   UNL     1     -11.493 -16.722  28.218  1.00  0.00     0.028 C 
BRANCH   6   7
ATOM      7  C   UNL     1     -12.573 -17.773  28.119  1.00  0.00    -0.028 C 
ATOM      8  C   UNL     1     -12.680 -18.864  28.915  1.00  0.00    -0.070 CG0
ATOM      9  C   UNL     1     -13.749 -19.877  28.590  1.00  0.00     0.039 C 
ATOM     10  G   UNL     1     -11.781 -19.110  30.117  1.00  0.00     0.000 G0
ENDBRANCH   6   7
ENDBRANCH   5   6
ENDBRANCH   3   5
ENDBRANCH   1   3
BRANCH   1  11
ATOM     11  C   UNL     1     -13.600 -16.265  31.700  1.00  0.00     0.087 C 
BRANCH  11  12
ATOM     12  C   UNL     1     -12.174 -16.857  31.535  1.00  0.00     0.066 C 
BRANCH  12  13
ATOM     13  C   UNL     1     -12.194 -18.376  31.395  1.00  0.00     0.140 C 
ATOM     14  O   UNL     1     -12.555 -19.048  32.351  1.00  0.00    -0.299 OA
BRANCH  13  15
ATOM     15  C   UNL     1     -11.794 -19.117  30.132  1.00  0.00     0.106 CG0
ATOM     16  G   UNL     1     -12.667 -18.863  28.913  1.00  0.00     0.000 G0
ENDBRANCH  13  15
ENDBRANCH  12  13
BRANCH  12  17
ATOM     17  C   UNL     1     -11.168 -16.410  32.641  1.00  0.00    -0.006 C 
ATOM     18  C   UNL     1     -11.746 -15.420  33.668  1.00  0.00     0.008 C 
ATOM     19  C   UNL     1      -9.876 -15.835  32.037  1.00  0.00     0.008 C 
ENDBRANCH  12  17
ENDBRANCH  11  12
ENDBRANCH   1  11
TORSDOF 1
ENDMDL
MODEL 3
REMARK VINA RESULT:    -4.375      1.487      4.028
REMARK INTER + INTRA:          -6.497
REMARK INTER:                  -6.893
REMARK INTRA:                   0.396
REMARK UNBOUND:                 0.180
REMARK SMILES CC1=CCC[C@H](C)C(=O)C[C@@H](C(C)C)C(=O)C1
REMARK SMILES IDX 8 1 9 2 6 3 7 4 5 5 4 6 3 7 2 8 1 9 10 11 11 12 15 13 16 14
REMARK SMILES IDX 17 15 12 17 13 18 14 19
REMARK H PARENT
REMARK Flexibility Score: 70.00
ROOT
ATOM      1  C   UNL     1     -13.401 -15.522  30.848  1.00  0.00     0.136 C 
ATOM      2  O   UNL     1     -14.422 -14.920  31.150  1.00  0.00    -0.299 OA
ENDROOT
BRANCH   1   3
ATOM      3  C   UNL     1     -12.698 -16.336  31.923  1.00  0.00     0.053 C 
ATOM      4  C   UNL     1     -12.348 -15.463  33.134  1.00  0.00     0.016 C 
BRANCH   3   5
ATOM      5  C   UNL     1     -13.509 -17.576  32.352  1.00  0.00     0.015 C 
BRANCH   5   6
ATOM      6  C   UNL     1     -12.793 -18.907  32.024  1.00  0.00     0.028 C 
BRANCH   6   7
ATOM      7  C   UNL     1     -13.499 -19.638  30.907  1.00  0.00    -0.028 C 
ATOM      8  C   UNL     1     -13.075 -19.704  29.622  1.00  0.00    -0.070 CG0
ATOM      9  C   UNL     1     -13.975 -20.371  28.612  1.00  0.00     0.039 C 
ATOM     10  G   UNL     1     -11.738 -19.147  29.156  1.00  0.00     0.000 G0
ENDBRANCH   6   7
ENDBRANCH   5   6
ENDBRANCH   3   5
ENDBRANCH   1   3
BRANCH   1  11
ATOM     11  C   UNL     1     -12.901 -15.421  29.419  1.00  0.00     0.087 C 
BRANCH  11  12
ATOM     12  C   UNL     1     -12.936 -16.775  28.660  1.00  0.00     0.066 C 
BRANCH  12  13
ATOM     13  C   UNL     1     -11.707 -17.630  28.951  1.00  0.00     0.140 C 
ATOM     14  O   UNL     1     -10.617 -17.081  29.038  1.00  0.00    -0.299 OA
BRANCH  13  15
ATOM     15  C   UNL     1     -11.747 -19.135  29.145  1.00  0.00     0.106 CG0
ATOM     16  G   UNL     1     -13.076 -19.704  29.619  1.00  0.00     0.000 G0
ENDBRANCH  13  15
ENDBRANCH  12  13
BRANCH  12  17
ATOM     17  C   UNL     1     -13.170 -16.635  27.122  1.00  0.00    -0.006 C 
ATOM     18  C   UNL     1     -11.884 -16.647  26.277  1.00  0.00     0.008 C 
ATOM     19  C   UNL     1     -14.002 -15.387  26.785  1.00  0.00     0.008 C 
ENDBRANCH  12  17
ENDBRANCH  11  12
ENDBRANCH   1  11
TORSDOF 1
ENDMDL
MODEL 4
REMARK VINA RESULT:    -4.254      1.874      3.961
REMARK INTER + INTRA:          -6.312
REMARK INTER:                  -6.595
REMARK INTRA:                   0.283
REMARK UNBOUND:                 0.180
REMARK SMILES CC1=CCC[C@H](C)C(=O)C[C@@H](C(C)C)C(=O)C1
REMARK SMILES IDX 8 1 9 2 6 3 7 4 5 5 4 6 3 7 2 8 1 9 10 11 11 12 15 13 16 14
REMARK SMILES IDX 17 15 12 17 13 18 14 19
REMARK H PARENT
REMARK Flexibility Score: 70.00
ROOT
ATOM      1  C   UNL     1     -12.950 -16.205  31.601  1.00  0.00     0.136 C 
ATOM      2  O   UNL     1     -13.718 -17.078  31.980  1.00  0.00    -0.299 OA
ENDROOT
BRANCH   1   3
ATOM      3  C   UNL     1     -11.509 -16.252  32.085  1.00  0.00     0.053 C 
ATOM      4  C   UNL     1     -11.350 -15.509  33.416  1.00  0.00     0.016 C 
BRANCH   3   5
ATOM      5  C   UNL     1     -10.966 -17.693  32.188  1.00  0.00     0.015 C 
BRANCH   5   6
ATOM      6  C   UNL     1     -10.601 -18.298  30.812  1.00  0.00     0.028 C 
BRANCH   6   7
ATOM      7  C   UNL     1     -11.763 -19.075  30.239  1.00  0.00    -0.028 C 
ATOM      8  C   UNL     1     -12.446 -18.749  29.116  1.00  0.00    -0.070 CG0
ATOM      9  C   UNL     1     -13.662 -19.569  28.763  1.00  0.00     0.039 C 
ATOM     10  G   UNL     1     -12.043 -17.606  28.197  1.00  0.00     0.000 G0
ENDBRANCH   6   7
ENDBRANCH   5   6
ENDBRANCH   3   5
ENDBRANCH   1   3
BRANCH   1  11
ATOM     11  C   UNL     1     -13.482 -15.130  30.673  1.00  0.00     0.087 C 
BRANCH  11  12
ATOM     12  C   UNL     1     -13.493 -15.559  29.180  1.00  0.00     0.066 C 
BRANCH  12  13
ATOM     13  C   UNL     1     -12.170 -16.187  28.753  1.00  0.00     0.140 C 
ATOM     14  O   UNL     1     -11.144 -15.533  28.870  1.00  0.00    -0.299 OA
BRANCH  13  15
ATOM     15  C   UNL     1     -12.042 -17.591  28.188  1.00  0.00     0.106 CG0
ATOM     16  G   UNL     1     -12.457 -18.719  29.121  1.00  0.00     0.000 G0
ENDBRANCH  13  15
ENDBRANCH  12  13
BRANCH  12  17
ATOM     17  C   UNL     1     -13.917 -14.423  28.196  1.00  0.00    -0.006 C 
ATOM     18  C   UNL     1     -15.020 -13.493  28.731  1.00  0.00     0.008 C 
ATOM     19  C   UNL     1     -14.330 -14.984  26.825  1.00  0.00     0.008 C 
ENDBRANCH  12  17
ENDBRANCH  11  12
ENDBRANCH   1  11
TORSDOF 1
ENDMDL
MODEL 5
REMARK VINA RESULT:    -4.042      1.732      3.809
REMARK INTER + INTRA:          -5.988
REMARK INTER:                  -6.000
REMARK INTRA:                   0.012
REMARK UNBOUND:                 0.180
REMARK SMILES CC1=CCC[C@H](C)C(=O)C[C@@H](C(C)C)C(=O)C1
REMARK SMILES IDX 8 1 9 2 6 3 7 4 5 5 4 6 3 7 2 8 1 9 10 11 11 12 15 13 16 14
REMARK SMILES IDX 17 15 12 17 13 18 14 19
REMARK H PARENT
REMARK Flexibility Score: 70.00
ROOT
ATOM      1  C   UNL     1     -11.085 -18.843  30.999  1.00  0.00     0.136 C 
ATOM      2  O   UNL     1     -10.068 -19.035  30.347  1.00  0.00    -0.299 OA
ENDROOT
BRANCH   1   3
ATOM      3  C   UNL     1     -12.175 -19.903  30.965  1.00  0.00     0.053 C 
ATOM      4  C   UNL     1     -13.239 -19.634  32.035  1.00  0.00     0.016 C 
BRANCH   3   5
ATOM      5  C   UNL     1     -12.818 -20.047  29.570  1.00  0.00     0.015 C 
BRANCH   5   6
ATOM      6  C   UNL     1     -13.493 -18.744  29.081  1.00  0.00     0.028 C 
BRANCH   6   7
ATOM      7  C   UNL     1     -12.768 -18.178  27.882  1.00  0.00    -0.028 C 
ATOM      8  C   UNL     1     -12.465 -16.871  27.695  1.00  0.00    -0.070 CG0
ATOM      9  C   UNL     1     -11.851 -16.468  26.378  1.00  0.00     0.039 C 
ATOM     10  G   UNL     1     -12.707 -15.800  28.748  1.00  0.00     0.000 G0
ENDBRANCH   6   7
ENDBRANCH   5   6
ENDBRANCH   3   5
ENDBRANCH   1   3
BRANCH   1  11
ATOM     11  C   UNL     1     -11.196 -17.559  31.799  1.00  0.00     0.087 C 
BRANCH  11  12
ATOM     12  C   UNL     1     -12.293 -16.596  31.266  1.00  0.00     0.066 C 
BRANCH  12  13
ATOM     13  C   UNL     1     -11.856 -15.875  29.995  1.00  0.00     0.140 C 
ATOM     14  O   UNL     1     -10.759 -15.334  29.974  1.00  0.00    -0.299 OA
BRANCH  13  15
ATOM     15  C   UNL     1     -12.701 -15.787  28.737  1.00  0.00     0.106 CG0
ATOM     16  G   UNL     1     -12.464 -16.879  27.704  1.00  0.00     0.000 G0
ENDBRANCH  13  15
ENDBRANCH  12  13
BRANCH  12  17
ATOM     17  C   UNL     1     -12.821 -15.584  32.331  1.00  0.00    -0.006 C 
ATOM     18  C   UNL     1     -11.951 -15.473  33.595  1.00  0.00     0.008 C 
ATOM     19  C   UNL     1     -14.277 -15.885  32.727  1.00  0.00     0.008 C 
ENDBRANCH  12  17
ENDBRANCH  11  12
ENDBRANCH   1  11
TORSDOF 1
ENDMDL
MODEL 6
REMARK VINA RESULT:    -3.877      2.057      4.719
REMARK INTER + INTRA:          -5.736
REMARK INTER:                  -5.877
REMARK INTRA:                   0.141
REMARK UNBOUND:                 0.180
REMARK SMILES CC1=CCC[C@H](C)C(=O)C[C@@H](C(C)C)C(=O)C1
REMARK SMILES IDX 8 1 9 2 6 3 7 4 5 5 4 6 3 7 2 8 1 9 10 11 11 12 15 13 16 14
REMARK SMILES IDX 17 15 12 17 13 18 14 19
REMARK H PARENT
REMARK Flexibility Score: 70.00
ROOT
ATOM      1  C   UNL     1     -13.064 -19.295  29.368  1.00  0.00     0.136 C 
ATOM      2  O   UNL     1     -13.310 -20.406  28.920  1.00  0.00    -0.299 OA
ENDROOT
BRANCH   1   3
ATOM      3  C   UNL     1     -12.307 -19.199  30.684  1.00  0.00     0.053 C 
ATOM      4  C   UNL     1     -12.838 -20.216  31.701  1.00  0.00     0.016 C 
BRANCH   3   5
ATOM      5  C   UNL     1     -10.782 -19.345  30.501  1.00  0.00     0.015 C 
BRANCH   5   6
ATOM      6  C   UNL     1      -9.985 -18.182  31.137  1.00  0.00     0.028 C 
BRANCH   6   7
ATOM      7  C   UNL     1     -10.839 -17.418  32.122  1.00  0.00    -0.028 C 
ATOM      8  C   UNL     1     -11.438 -16.227  31.880  1.00  0.00    -0.070 CG0
ATOM      9  C   UNL     1     -12.149 -15.547  33.023  1.00  0.00     0.039 C 
ATOM     10  G   UNL     1     -11.433 -15.552  30.516  1.00  0.00     0.000 G0
ENDBRANCH   6   7
ENDBRANCH   5   6
ENDBRANCH   3   5
ENDBRANCH   1   3
BRANCH   1  11
ATOM     11  C   UNL     1     -13.529 -18.082  28.585  1.00  0.00     0.087 C 
BRANCH  11  12
ATOM     12  C   UNL     1     -12.444 -16.977  28.464  1.00  0.00     0.066 C 
BRANCH  12  13
ATOM     13  C   UNL     1     -12.559 -15.935  29.572  1.00  0.00     0.140 C 
ATOM     14  O   UNL     1     -13.627 -15.361  29.731  1.00  0.00    -0.299 OA
BRANCH  13  15
ATOM     15  C   UNL     1     -11.421 -15.561  30.506  1.00  0.00     0.106 CG0
ATOM     16  G   UNL     1     -11.447 -16.222  31.876  1.00  0.00     0.000 G0
ENDBRANCH  13  15
ENDBRANCH  12  13
BRANCH  12  17
ATOM     17  C   UNL     1     -12.384 -16.296  27.060  1.00  0.00    -0.006 C 
ATOM     18  C   UNL     1     -13.745 -16.167  26.354  1.00  0.00     0.008 C 
ATOM     19  C   UNL     1     -11.381 -17.000  26.131  1.00  0.00     0.008 C 
ENDBRANCH  12  17
ENDBRANCH  11  12
ENDBRANCH   1  11
TORSDOF 1
ENDMDL
MODEL 7
REMARK VINA RESULT:    -3.771      1.959      4.741
REMARK INTER + INTRA:          -5.575
REMARK INTER:                  -6.033
REMARK INTRA:                   0.458
REMARK UNBOUND:                 0.180
REMARK SMILES CC1=CCC[C@H](C)C(=O)C[C@@H](C(C)C)C(=O)C1
REMARK SMILES IDX 8 1 9 2 6 3 7 4 5 5 4 6 3 7 2 8 1 9 10 11 11 12 15 13 16 14
REMARK SMILES IDX 17 15 12 17 13 18 14 19
REMARK H PARENT
REMARK Flexibility Score: 70.00
ROOT
ATOM      1  C   UNL     1     -10.633 -16.591  31.393  1.00  0.00     0.136 C 
ATOM      2  O   UNL     1     -10.372 -15.610  30.712  1.00  0.00    -0.299 OA
ENDROOT
BRANCH   1   3
ATOM      3  C   UNL     1     -11.328 -16.378  32.730  1.00  0.00     0.053 C 
ATOM      4  C   UNL     1     -10.419 -15.626  33.709  1.00  0.00     0.016 C 
BRANCH   3   5
ATOM      5  C   UNL     1     -12.689 -15.669  32.582  1.00  0.00     0.015 C 
BRANCH   5   6
ATOM      6  C   UNL     1     -13.591 -16.314  31.503  1.00  0.00     0.028 C 
BRANCH   6   7
ATOM      7  C   UNL     1     -13.757 -15.391  30.318  1.00  0.00    -0.028 C 
ATOM      8  C   UNL     1     -13.508 -15.719  29.028  1.00  0.00    -0.070 CG0
ATOM      9  C   UNL     1     -13.606 -14.631  27.988  1.00  0.00     0.039 C 
ATOM     10  G   UNL     1     -13.142 -17.127  28.581  1.00  0.00     0.000 G0
ENDBRANCH   6   7
ENDBRANCH   5   6
ENDBRANCH   3   5
ENDBRANCH   1   3
BRANCH   1  11
ATOM     11  C   UNL     1     -10.249 -17.959  30.863  1.00  0.00     0.087 C 
BRANCH  11  12
ATOM     12  C   UNL     1     -11.303 -18.560  29.893  1.00  0.00     0.066 C 
BRANCH  12  13
ATOM     13  C   UNL     1     -11.710 -17.573  28.804  1.00  0.00     0.140 C 
ATOM     14  O   UNL     1     -10.843 -17.106  28.080  1.00  0.00    -0.299 OA
BRANCH  13  15
ATOM     15  C   UNL     1     -13.141 -17.129  28.554  1.00  0.00     0.106 CG0
ATOM     16  G   UNL     1     -13.489 -15.726  29.029  1.00  0.00     0.000 G0
ENDBRANCH  13  15
ENDBRANCH  12  13
BRANCH  12  17
ATOM     17  C   UNL     1     -12.557 -19.155  30.607  1.00  0.00    -0.006 C 
ATOM     18  C   UNL     1     -12.277 -19.751  31.999  1.00  0.00     0.008 C 
ATOM     19  C   UNL     1     -13.270 -20.197  29.730  1.00  0.00     0.008 C 
ENDBRANCH  12  17
ENDBRANCH  11  12
ENDBRANCH   1  11
TORSDOF 1
ENDMDL
MODEL 8
REMARK VINA RESULT:    -3.738      2.117      4.584
REMARK INTER + INTRA:          -5.524
REMARK INTER:                  -6.020
REMARK INTRA:                   0.496
REMARK UNBOUND:                 0.180
REMARK SMILES CC1=CCC[C@H](C)C(=O)C[C@@H](C(C)C)C(=O)C1
REMARK SMILES IDX 8 1 9 2 6 3 7 4 5 5 4 6 3 7 2 8 1 9 10 11 11 12 15 13 16 14
REMARK SMILES IDX 17 15 12 17 13 18 14 19
REMARK H PARENT
REMARK Flexibility Score: 70.00
ROOT
ATOM      1  C   UNL     1     -14.161 -14.699  30.165  1.00  0.00     0.136 C 
ATOM      2  O   UNL     1     -15.099 -13.944  29.953  1.00  0.00    -0.299 OA
ENDROOT
BRANCH   1   3
ATOM      3  C   UNL     1     -13.973 -15.240  31.574  1.00  0.00     0.053 C 
ATOM      4  C   UNL     1     -14.947 -14.576  32.554  1.00  0.00     0.016 C 
BRANCH   3   5
ATOM      5  C   UNL     1     -14.088 -16.777  31.638  1.00  0.00     0.015 C 
BRANCH   5   6
ATOM      6  C   UNL     1     -12.898 -17.440  32.373  1.00  0.00     0.028 C 
BRANCH   6   7
ATOM      7  C   UNL     1     -11.941 -16.397  32.899  1.00  0.00    -0.028 C 
ATOM      8  C   UNL     1     -10.765 -16.050  32.324  1.00  0.00    -0.070 CG0
ATOM      9  C   UNL     1      -9.876 -15.079  33.058  1.00  0.00     0.039 C 
ATOM     10  G   UNL     1     -10.306 -16.587  30.976  1.00  0.00     0.000 G0
ENDBRANCH   6   7
ENDBRANCH   5   6
ENDBRANCH   3   5
ENDBRANCH   1   3
BRANCH   1  11
ATOM     11  C   UNL     1     -13.243 -15.050  29.009  1.00  0.00     0.087 C 
BRANCH  11  12
ATOM     12  C   UNL     1     -12.371 -16.308  29.278  1.00  0.00     0.066 C 
BRANCH  12  13
ATOM     13  C   UNL     1     -10.968 -15.943  29.752  1.00  0.00     0.140 C 
ATOM     14  O   UNL     1     -10.337 -15.101  29.129  1.00  0.00    -0.299 OA
BRANCH  13  15
ATOM     15  C   UNL     1     -10.295 -16.562  30.964  1.00  0.00     0.106 CG0
ATOM     16  G   UNL     1     -10.769 -16.050  32.316  1.00  0.00     0.000 G0
ENDBRANCH  13  15
ENDBRANCH  12  13
BRANCH  12  17
ATOM     17  C   UNL     1     -12.316 -17.310  28.083  1.00  0.00    -0.006 C 
ATOM     18  C   UNL     1     -12.747 -16.716  26.730  1.00  0.00     0.008 C 
ATOM     19  C   UNL     1     -13.126 -18.585  28.372  1.00  0.00     0.008 C 
ENDBRANCH  12  17
ENDBRANCH  11  12
ENDBRANCH   1  11
TORSDOF 1
ENDMDL
MODEL 9
REMARK VINA RESULT:    -3.610      2.297      5.560
REMARK INTER + INTRA:          -5.329
REMARK INTER:                  -5.772
REMARK INTRA:                   0.442
REMARK UNBOUND:                 0.180
REMARK SMILES CC1=CCC[C@H](C)C(=O)C[C@@H](C(C)C)C(=O)C1
REMARK SMILES IDX 8 1 9 2 6 3 7 4 5 5 4 6 3 7 2 8 1 9 10 11 11 12 15 13 16 14
REMARK SMILES IDX 17 15 12 17 13 18 14 19
REMARK H PARENT
REMARK Flexibility Score: 70.00
ROOT
ATOM      1  C   UNL     1     -10.669 -15.239  33.460  1.00  0.00     0.136 C 
ATOM      2  O   UNL     1      -9.876 -14.525  32.862  1.00  0.00    -0.299 OA
ENDROOT
BRANCH   1   3
ATOM      3  C   UNL     1     -11.025 -14.880  34.894  1.00  0.00     0.053 C 
ATOM      4  C   UNL     1      -9.933 -14.015  35.533  1.00  0.00     0.016 C 
BRANCH   3   5
ATOM      5  C   UNL     1     -12.405 -14.202  35.009  1.00  0.00     0.015 C 
BRANCH   5   6
ATOM      6  C   UNL     1     -13.565 -15.111  34.537  1.00  0.00     0.028 C 
BRANCH   6   7
ATOM      7  C   UNL     1     -14.388 -14.426  33.472  1.00  0.00    -0.028 C 
ATOM      8  C   UNL     1     -14.547 -14.865  32.201  1.00  0.00    -0.070 CG0
ATOM      9  C   UNL     1     -15.301 -13.985  31.236  1.00  0.00     0.039 C 
ATOM     10  G   UNL     1     -14.009 -16.200  31.706  1.00  0.00     0.000 G0
ENDBRANCH   6   7
ENDBRANCH   5   6
ENDBRANCH   3   5
ENDBRANCH   1   3
BRANCH   1  11
ATOM     11  C   UNL     1     -11.247 -16.439  32.733  1.00  0.00     0.087 C 
BRANCH  11  12
ATOM     12  C   UNL     1     -11.364 -16.228  31.198  1.00  0.00     0.066 C 
BRANCH  12  13
ATOM     13  C   UNL     1     -12.814 -16.113  30.743  1.00  0.00     0.140 C 
ATOM     14  O   UNL     1     -13.045 -15.946  29.553  1.00  0.00    -0.299 OA
BRANCH  13  15
ATOM     15  C   UNL     1     -14.007 -16.196  31.679  1.00  0.00     0.106 CG0
ATOM     16  G   UNL     1     -14.546 -14.864  32.181  1.00  0.00     0.000 G0
ENDBRANCH  13  15
ENDBRANCH  12  13
BRANCH  12  17
ATOM     17  C   UNL     1     -10.593 -17.290  30.352  1.00  0.00    -0.006 C 
ATOM     18  C   UNL     1     -10.152 -16.801  28.961  1.00  0.00     0.008 C 
ATOM     19  C   UNL     1     -11.394 -18.596  30.213  1.00  0.00     0.008 C 
ENDBRANCH  12  17
ENDBRANCH  11  12
ENDBRANCH   1  11
TORSDOF 1
ENDMDL
