MODEL 1
REMARK VINA RESULT:     0.318      0.000      0.000
REMARK INTER + INTRA:          -0.547
REMARK INTER:                   0.616
REMARK INTRA:                  -1.163
REMARK UNBOUND:                -1.163
REMARK SMILES CCCCCCCCCCCCCCCCCC(=O)[O-]
REMARK SMILES IDX 10 1 11 2 12 3 13 4 14 5 15 6 16 7 17 8 18 9 19 10 20 11
REMARK SMILES IDX 9 12 8 13 7 14 6 15 5 16 4 17 3 18 2 19 1 20
REMARK H PARENT
REMARK Flexibility Score: inf
ROOT
ATOM      1  C   UNL     1       4.072 -33.818  22.116  1.00  0.00     0.000 C 
ENDROOT
BRANCH   1   2
ATOM      2  C   UNL     1       5.547 -33.797  22.533  1.00  0.00     0.000 C 
BRANCH   2   3
ATOM      3  C   UNL     1       5.706 -34.182  24.012  1.00  0.00     0.000 C 
BRANCH   3   4
ATOM      4  C   UNL     1       5.903 -35.694  24.214  1.00  0.00     0.000 C 
BRANCH   4   5
ATOM      5  C   UNL     1       5.981 -36.460  22.882  1.00  0.00     0.000 C 
BRANCH   5   6
ATOM      6  C   UNL     1       4.867 -37.513  22.731  1.00  0.00     0.000 C 
BRANCH   6   7
ATOM      7  C   UNL     1       4.368 -37.736  21.291  1.00  0.00     0.006 C 
BRANCH   7   8
ATOM      8  C   UNL     1       5.479 -38.196  20.338  1.00  0.00     0.053 C 
BRANCH   8   9
ATOM      9  C   UNL     1       5.815 -39.633  20.583  1.00  0.00     0.041 C 
ATOM     10  O   UNL     1       5.774 -40.103  21.751  1.00  0.00    -0.550 OA
ATOM     11  O   UNL     1       6.124 -40.468  19.518  1.00  0.00    -0.550 OA
ENDBRANCH   8   9
ENDBRANCH   7   8
ENDBRANCH   6   7
ENDBRANCH   5   6
ENDBRANCH   4   5
ENDBRANCH   3   4
ENDBRANCH   2   3
ENDBRANCH   1   2
BRANCH   1  12
ATOM     12  C   UNL     1       3.926 -33.631  20.598  1.00  0.00     0.000 C 
BRANCH  12  13
ATOM     13  C   UNL     1       5.038 -34.331  19.796  1.00  0.00    -0.000 C 
BRANCH  13  14
ATOM     14  C   UNL     1       4.778 -34.452  18.284  1.00  0.00    -0.000 C 
BRANCH  14  15
ATOM     15  C   UNL     1       3.884 -35.652  17.924  1.00  0.00    -0.000 C 
BRANCH  15  16
ATOM     16  C   UNL     1       3.976 -36.029  16.437  1.00  0.00    -0.000 C 
BRANCH  16  17
ATOM     17  C   UNL     1       2.644 -35.833  15.690  1.00  0.00    -0.000 C 
BRANCH  17  18
ATOM     18  C   UNL     1       2.482 -36.791  14.497  1.00  0.00    -0.000 C 
BRANCH  18  19
ATOM     19  C   UNL     1       3.803 -37.322  13.912  1.00  0.00    -0.003 C 
ATOM     20  C   UNL     1       4.079 -38.778  14.284  1.00  0.00     0.004 C 
ENDBRANCH  18  19
ENDBRANCH  17  18
ENDBRANCH  16  17
ENDBRANCH  15  16
ENDBRANCH  14  15
ENDBRANCH  13  14
ENDBRANCH  12  13
ENDBRANCH   1  12
TORSDOF 16
ENDMDL
MODEL 2
REMARK VINA RESULT:     0.815      3.646      5.079
REMARK INTER + INTRA:           0.415
REMARK INTER:                   1.668
REMARK INTRA:                  -1.253
REMARK UNBOUND:                -1.163
REMARK SMILES CCCCCCCCCCCCCCCCCC(=O)[O-]
REMARK SMILES IDX 10 1 11 2 12 3 13 4 14 5 15 6 16 7 17 8 18 9 19 10 20 11
REMARK SMILES IDX 9 12 8 13 7 14 6 15 5 16 4 17 3 18 2 19 1 20
REMARK H PARENT
REMARK Flexibility Score: inf
ROOT
ATOM      1  C   UNL     1       4.385 -34.304  22.614  1.00  0.00     0.000 C 
ENDROOT
BRANCH   1   2
ATOM      2  C   UNL     1       5.835 -33.852  22.821  1.00  0.00     0.000 C 
BRANCH   2   3
ATOM      3  C   UNL     1       6.120 -33.584  24.307  1.00  0.00     0.000 C 
BRANCH   3   4
ATOM      4  C   UNL     1       5.982 -34.846  25.175  1.00  0.00     0.000 C 
BRANCH   4   5
ATOM      5  C   UNL     1       6.124 -36.141  24.357  1.00  0.00     0.000 C 
BRANCH   5   6
ATOM      6  C   UNL     1       5.126 -37.233  24.786  1.00  0.00     0.000 C 
BRANCH   6   7
ATOM      7  C   UNL     1       4.371 -36.951  26.097  1.00  0.00     0.006 C 
BRANCH   7   8
ATOM      8  C   UNL     1       3.506 -38.131  26.555  1.00  0.00     0.053 C 
BRANCH   8   9
ATOM      9  C   UNL     1       2.262 -37.638  27.226  1.00  0.00     0.041 C 
ATOM     10  O   UNL     1       1.174 -38.253  27.073  1.00  0.00    -0.550 OA
ATOM     11  O   UNL     1       2.314 -36.529  28.059  1.00  0.00    -0.550 OA
ENDBRANCH   8   9
ENDBRANCH   7   8
ENDBRANCH   6   7
ENDBRANCH   5   6
ENDBRANCH   4   5
ENDBRANCH   3   4
ENDBRANCH   2   3
ENDBRANCH   1   2
BRANCH   1  12
ATOM     12  C   UNL     1       3.671 -33.411  21.587  1.00  0.00     0.000 C 
BRANCH  12  13
ATOM     13  C   UNL     1       3.464 -34.104  20.227  1.00  0.00    -0.000 C 
BRANCH  13  14
ATOM     14  C   UNL     1       4.716 -34.183  19.335  1.00  0.00    -0.000 C 
BRANCH  14  15
ATOM     15  C   UNL     1       5.048 -35.619  18.893  1.00  0.00    -0.000 C 
BRANCH  15  16
ATOM     16  C   UNL     1       5.404 -36.532  20.078  1.00  0.00    -0.000 C 
BRANCH  16  17
ATOM     17  C   UNL     1       4.897 -37.973  19.892  1.00  0.00    -0.000 C 
BRANCH  17  18
ATOM     18  C   UNL     1       4.441 -38.620  21.212  1.00  0.00    -0.000 C 
BRANCH  18  19
ATOM     19  C   UNL     1       5.468 -39.572  21.851  1.00  0.00    -0.003 C 
ATOM     20  C   UNL     1       6.124 -40.510  20.839  1.00  0.00     0.004 C 
ENDBRANCH  18  19
ENDBRANCH  17  18
ENDBRANCH  16  17
ENDBRANCH  15  16
ENDBRANCH  14  15
ENDBRANCH  13  14
ENDBRANCH  12  13
ENDBRANCH   1  12
TORSDOF 16
ENDMDL
MODEL 3
REMARK VINA RESULT:     0.819      2.165      6.016
REMARK INTER + INTRA:           0.423
REMARK INTER:                   1.724
REMARK INTRA:                  -1.302
REMARK UNBOUND:                -1.163
REMARK SMILES CCCCCCCCCCCCCCCCCC(=O)[O-]
REMARK SMILES IDX 10 1 11 2 12 3 13 4 14 5 15 6 16 7 17 8 18 9 19 10 20 11
REMARK SMILES IDX 9 12 8 13 7 14 6 15 5 16 4 17 3 18 2 19 1 20
REMARK H PARENT
REMARK Flexibility Score: inf
ROOT
ATOM      1  C   UNL     1       4.260 -34.089  22.059  1.00  0.00     0.000 C 
ENDROOT
BRANCH   1   2
ATOM      2  C   UNL     1       4.137 -34.352  20.554  1.00  0.00     0.000 C 
BRANCH   2   3
ATOM      3  C   UNL     1       5.505 -34.695  19.943  1.00  0.00     0.000 C 
BRANCH   3   4
ATOM      4  C   UNL     1       5.490 -34.677  18.405  1.00  0.00     0.000 C 
BRANCH   4   5
ATOM      5  C   UNL     1       4.084 -34.905  17.827  1.00  0.00     0.000 C 
BRANCH   5   6
ATOM      6  C   UNL     1       4.088 -35.804  16.577  1.00  0.00     0.000 C 
BRANCH   6   7
ATOM      7  C   UNL     1       2.752 -35.872  15.815  1.00  0.00     0.006 C 
BRANCH   7   8
ATOM      8  C   UNL     1       2.891 -36.490  14.418  1.00  0.00     0.053 C 
BRANCH   8   9
ATOM      9  C   UNL     1       3.735 -37.725  14.475  1.00  0.00     0.041 C 
ATOM     10  O   UNL     1       3.294 -38.768  15.025  1.00  0.00    -0.550 OA
ATOM     11  O   UNL     1       4.987 -37.741  13.875  1.00  0.00    -0.550 OA
ENDBRANCH   8   9
ENDBRANCH   7   8
ENDBRANCH   6   7
ENDBRANCH   5   6
ENDBRANCH   4   5
ENDBRANCH   3   4
ENDBRANCH   2   3
ENDBRANCH   1   2
BRANCH   1  12
ATOM     12  C   UNL     1       5.733 -34.040  22.492  1.00  0.00     0.000 C 
BRANCH  12  13
ATOM     13  C   UNL     1       5.924 -34.260  24.004  1.00  0.00    -0.000 C 
BRANCH  13  14
ATOM     14  C   UNL     1       5.901 -35.730  24.460  1.00  0.00    -0.000 C 
BRANCH  14  15
ATOM     15  C   UNL     1       5.789 -36.720  23.287  1.00  0.00    -0.000 C 
BRANCH  15  16
ATOM     16  C   UNL     1       5.322 -38.114  23.735  1.00  0.00    -0.000 C 
BRANCH  16  17
ATOM     17  C   UNL     1       4.690 -38.926  22.591  1.00  0.00    -0.000 C 
BRANCH  17  18
ATOM     18  C   UNL     1       5.734 -39.679  21.746  1.00  0.00    -0.000 C 
BRANCH  18  19
ATOM     19  C   UNL     1       5.703 -39.353  20.242  1.00  0.00    -0.003 C 
ATOM     20  C   UNL     1       4.874 -38.110  19.918  1.00  0.00     0.004 C 
ENDBRANCH  18  19
ENDBRANCH  17  18
ENDBRANCH  16  17
ENDBRANCH  15  16
ENDBRANCH  14  15
ENDBRANCH  13  14
ENDBRANCH  12  13
ENDBRANCH   1  12
TORSDOF 16
ENDMDL
MODEL 4
REMARK VINA RESULT:     0.854      1.390      2.108
REMARK INTER + INTRA:           0.489
REMARK INTER:                   1.599
REMARK INTRA:                  -1.110
REMARK UNBOUND:                -1.163
REMARK SMILES CCCCCCCCCCCCCCCCCC(=O)[O-]
REMARK SMILES IDX 10 1 11 2 12 3 13 4 14 5 15 6 16 7 17 8 18 9 19 10 20 11
REMARK SMILES IDX 9 12 8 13 7 14 6 15 5 16 4 17 3 18 2 19 1 20
REMARK H PARENT
REMARK Flexibility Score: inf
ROOT
ATOM      1  C   UNL     1       5.528 -34.282  23.128  1.00  0.00     0.000 C 
ENDROOT
BRANCH   1   2
ATOM      2  C   UNL     1       6.121 -35.626  23.570  1.00  0.00     0.000 C 
BRANCH   2   3
ATOM      3  C   UNL     1       6.079 -35.767  25.100  1.00  0.00     0.000 C 
BRANCH   3   4
ATOM      4  C   UNL     1       5.401 -37.070  25.556  1.00  0.00     0.000 C 
BRANCH   4   5
ATOM      5  C   UNL     1       4.667 -37.785  24.410  1.00  0.00     0.000 C 
BRANCH   5   6
ATOM      6  C   UNL     1       5.047 -39.273  24.290  1.00  0.00     0.000 C 
BRANCH   6   7
ATOM      7  C   UNL     1       4.648 -39.946  22.964  1.00  0.00     0.006 C 
BRANCH   7   8
ATOM      8  C   UNL     1       5.726 -39.818  21.881  1.00  0.00     0.053 C 
BRANCH   8   9
ATOM      9  C   UNL     1       5.248 -38.935  20.771  1.00  0.00     0.041 C 
ATOM     10  O   UNL     1       5.764 -39.023  19.625  1.00  0.00    -0.550 OA
ATOM     11  O   UNL     1       4.200 -38.051  20.986  1.00  0.00    -0.550 OA
ENDBRANCH   8   9
ENDBRANCH   7   8
ENDBRANCH   6   7
ENDBRANCH   5   6
ENDBRANCH   4   5
ENDBRANCH   3   4
ENDBRANCH   2   3
ENDBRANCH   1   2
BRANCH   1  12
ATOM     12  C   UNL     1       4.174 -34.482  22.429  1.00  0.00     0.000 C 
BRANCH  12  13
ATOM     13  C   UNL     1       4.236 -34.226  20.912  1.00  0.00    -0.000 C 
BRANCH  13  14
ATOM     14  C   UNL     1       5.177 -35.159  20.129  1.00  0.00    -0.000 C 
BRANCH  14  15
ATOM     15  C   UNL     1       5.595 -34.581  18.765  1.00  0.00    -0.000 C 
BRANCH  15  16
ATOM     16  C   UNL     1       4.418 -34.486  17.781  1.00  0.00    -0.000 C 
BRANCH  16  17
ATOM     17  C   UNL     1       4.003 -35.856  17.215  1.00  0.00    -0.000 C 
BRANCH  17  18
ATOM     18  C   UNL     1       2.940 -35.747  16.107  1.00  0.00    -0.000 C 
BRANCH  18  19
ATOM     19  C   UNL     1       3.345 -36.375  14.761  1.00  0.00    -0.003 C 
ATOM     20  C   UNL     1       3.582 -37.882  14.853  1.00  0.00     0.004 C 
ENDBRANCH  18  19
ENDBRANCH  17  18
ENDBRANCH  16  17
ENDBRANCH  15  16
ENDBRANCH  14  15
ENDBRANCH  13  14
ENDBRANCH  12  13
ENDBRANCH   1  12
TORSDOF 16
ENDMDL
MODEL 5
REMARK VINA RESULT:     1.026      2.537      6.211
REMARK INTER + INTRA:           0.822
REMARK INTER:                   2.126
REMARK INTRA:                  -1.304
REMARK UNBOUND:                -1.163
REMARK SMILES CCCCCCCCCCCCCCCCCC(=O)[O-]
REMARK SMILES IDX 10 1 11 2 12 3 13 4 14 5 15 6 16 7 17 8 18 9 19 10 20 11
REMARK SMILES IDX 9 12 8 13 7 14 6 15 5 16 4 17 3 18 2 19 1 20
REMARK H PARENT
REMARK Flexibility Score: inf
ROOT
ATOM      1  C   UNL     1       3.976 -35.159  22.552  1.00  0.00     0.000 C 
ENDROOT
BRANCH   1   2
ATOM      2  C   UNL     1       3.386 -34.075  21.642  1.00  0.00     0.000 C 
BRANCH   2   3
ATOM      3  C   UNL     1       4.392 -33.661  20.557  1.00  0.00     0.000 C 
BRANCH   3   4
ATOM      4  C   UNL     1       5.418 -34.765  20.248  1.00  0.00     0.000 C 
BRANCH   4   5
ATOM      5  C   UNL     1       5.595 -34.998  18.738  1.00  0.00     0.000 C 
BRANCH   5   6
ATOM      6  C   UNL     1       4.278 -34.855  17.951  1.00  0.00     0.000 C 
BRANCH   6   7
ATOM      7  C   UNL     1       3.964 -36.011  16.985  1.00  0.00     0.006 C 
BRANCH   7   8
ATOM      8  C   UNL     1       2.964 -35.621  15.890  1.00  0.00     0.053 C 
BRANCH   8   9
ATOM      9  C   UNL     1       2.956 -36.646  14.800  1.00  0.00     0.041 C 
ATOM     10  O   UNL     1       3.931 -37.431  14.662  1.00  0.00    -0.550 OA
ATOM     11  O   UNL     1       1.851 -36.770  13.968  1.00  0.00    -0.550 OA
ENDBRANCH   8   9
ENDBRANCH   7   8
ENDBRANCH   6   7
ENDBRANCH   5   6
ENDBRANCH   4   5
ENDBRANCH   3   4
ENDBRANCH   2   3
ENDBRANCH   1   2
BRANCH   1  12
ATOM     12  C   UNL     1       5.240 -34.652  23.263  1.00  0.00     0.000 C 
BRANCH  12  13
ATOM     13  C   UNL     1       6.063 -35.784  23.905  1.00  0.00    -0.000 C 
BRANCH  13  14
ATOM     14  C   UNL     1       5.518 -36.313  25.244  1.00  0.00    -0.000 C 
BRANCH  14  15
ATOM     15  C   UNL     1       4.639 -37.566  25.080  1.00  0.00    -0.000 C 
BRANCH  15  16
ATOM     16  C   UNL     1       5.422 -38.765  24.522  1.00  0.00    -0.000 C 
BRANCH  16  17
ATOM     17  C   UNL     1       4.601 -39.598  23.522  1.00  0.00    -0.000 C 
BRANCH  17  18
ATOM     18  C   UNL     1       5.202 -39.592  22.105  1.00  0.00    -0.000 C 
BRANCH  18  19
ATOM     19  C   UNL     1       5.076 -38.252  21.357  1.00  0.00    -0.003 C 
ATOM     20  C   UNL     1       5.073 -38.414  19.837  1.00  0.00     0.004 C 
ENDBRANCH  18  19
ENDBRANCH  17  18
ENDBRANCH  16  17
ENDBRANCH  15  16
ENDBRANCH  14  15
ENDBRANCH  13  14
ENDBRANCH  12  13
ENDBRANCH   1  12
TORSDOF 16
ENDMDL
MODEL 6
REMARK VINA RESULT:     1.031      1.789      3.528
REMARK INTER + INTRA:           0.832
REMARK INTER:                   2.282
REMARK INTRA:                  -1.450
REMARK UNBOUND:                -1.163
REMARK SMILES CCCCCCCCCCCCCCCCCC(=O)[O-]
REMARK SMILES IDX 10 1 11 2 12 3 13 4 14 5 15 6 16 7 17 8 18 9 19 10 20 11
REMARK SMILES IDX 9 12 8 13 7 14 6 15 5 16 4 17 3 18 2 19 1 20
REMARK H PARENT
REMARK Flexibility Score: inf
ROOT
ATOM      1  C   UNL     1       5.458 -35.678  24.090  1.00  0.00     0.000 C 
ENDROOT
BRANCH   1   2
ATOM      2  C   UNL     1       6.073 -36.552  25.190  1.00  0.00     0.000 C 
BRANCH   2   3
ATOM      3  C   UNL     1       4.980 -37.279  25.990  1.00  0.00     0.000 C 
BRANCH   3   4
ATOM      4  C   UNL     1       4.287 -38.385  25.177  1.00  0.00     0.000 C 
BRANCH   4   5
ATOM      5  C   UNL     1       5.273 -39.180  24.304  1.00  0.00     0.000 C 
BRANCH   5   6
ATOM      6  C   UNL     1       4.569 -40.148  23.335  1.00  0.00     0.000 C 
BRANCH   6   7
ATOM      7  C   UNL     1       5.222 -40.272  21.946  1.00  0.00     0.006 C 
BRANCH   7   8
ATOM      8  C   UNL     1       5.867 -38.965  21.468  1.00  0.00     0.053 C 
BRANCH   8   9
ATOM      9  C   UNL     1       4.885 -38.157  20.680  1.00  0.00     0.041 C 
ATOM     10  O   UNL     1       4.047 -37.427  21.270  1.00  0.00    -0.550 OA
ATOM     11  O   UNL     1       4.929 -38.169  19.292  1.00  0.00    -0.550 OA
ENDBRANCH   8   9
ENDBRANCH   7   8
ENDBRANCH   6   7
ENDBRANCH   5   6
ENDBRANCH   4   5
ENDBRANCH   3   4
ENDBRANCH   2   3
ENDBRANCH   1   2
BRANCH   1  12
ATOM     12  C   UNL     1       6.114 -34.289  24.059  1.00  0.00     0.000 C 
BRANCH  12  13
ATOM     13  C   UNL     1       5.591 -33.402  22.914  1.00  0.00    -0.000 C 
BRANCH  13  14
ATOM     14  C   UNL     1       4.261 -33.857  22.289  1.00  0.00    -0.000 C 
BRANCH  14  15
ATOM     15  C   UNL     1       4.387 -34.200  20.794  1.00  0.00    -0.000 C 
BRANCH  15  16
ATOM     16  C   UNL     1       5.837 -34.492  20.377  1.00  0.00    -0.000 C 
BRANCH  16  17
ATOM     17  C   UNL     1       5.960 -34.899  18.898  1.00  0.00    -0.000 C 
BRANCH  17  18
ATOM     18  C   UNL     1       4.694 -34.578  18.083  1.00  0.00    -0.000 C 
BRANCH  18  19
ATOM     19  C   UNL     1       4.063 -35.787  17.369  1.00  0.00    -0.003 C 
ATOM     20  C   UNL     1       2.998 -35.389  16.349  1.00  0.00     0.004 C 
ENDBRANCH  18  19
ENDBRANCH  17  18
ENDBRANCH  16  17
ENDBRANCH  15  16
ENDBRANCH  14  15
ENDBRANCH  13  14
ENDBRANCH  12  13
ENDBRANCH   1  12
TORSDOF 16
ENDMDL
MODEL 7
REMARK VINA RESULT:     1.861      2.582      7.025
REMARK INTER + INTRA:           2.438
REMARK INTER:                   3.948
REMARK INTRA:                  -1.510
REMARK UNBOUND:                -1.163
REMARK SMILES CCCCCCCCCCCCCCCCCC(=O)[O-]
REMARK SMILES IDX 10 1 11 2 12 3 13 4 14 5 15 6 16 7 17 8 18 9 19 10 20 11
REMARK SMILES IDX 9 12 8 13 7 14 6 15 5 16 4 17 3 18 2 19 1 20
REMARK H PARENT
REMARK Flexibility Score: inf
ROOT
ATOM      1  C   UNL     1       5.355 -36.936  20.613  1.00  0.00     0.000 C 
ENDROOT
BRANCH   1   2
ATOM      2  C   UNL     1       4.257 -36.023  21.173  1.00  0.00     0.000 C 
BRANCH   2   3
ATOM      3  C   UNL     1       4.324 -34.627  20.533  1.00  0.00     0.000 C 
BRANCH   3   4
ATOM      4  C   UNL     1       5.509 -34.474  19.565  1.00  0.00     0.000 C 
BRANCH   4   5
ATOM      5  C   UNL     1       5.069 -34.464  18.092  1.00  0.00     0.000 C 
BRANCH   5   6
ATOM      6  C   UNL     1       3.795 -35.293  17.842  1.00  0.00     0.000 C 
BRANCH   6   7
ATOM      7  C   UNL     1       3.510 -35.625  16.366  1.00  0.00     0.006 C 
BRANCH   7   8
ATOM      8  C   UNL     1       3.823 -37.084  16.010  1.00  0.00     0.053 C 
BRANCH   8   9
ATOM      9  C   UNL     1       3.353 -37.396  14.624  1.00  0.00     0.041 C 
ATOM     10  O   UNL     1       2.405 -36.742  14.115  1.00  0.00    -0.550 OA
ATOM     11  O   UNL     1       3.993 -38.374  13.875  1.00  0.00    -0.550 OA
ENDBRANCH   8   9
ENDBRANCH   7   8
ENDBRANCH   6   7
ENDBRANCH   5   6
ENDBRANCH   4   5
ENDBRANCH   3   4
ENDBRANCH   2   3
ENDBRANCH   1   2
BRANCH   1  12
ATOM     12  C   UNL     1       4.774 -38.288  20.171  1.00  0.00     0.000 C 
BRANCH  12  13
ATOM     13  C   UNL     1       5.795 -39.437  20.254  1.00  0.00    -0.000 C 
BRANCH  13  14
ATOM     14  C   UNL     1       5.782 -40.230  21.573  1.00  0.00    -0.000 C 
BRANCH  14  15
ATOM     15  C   UNL     1       4.641 -39.809  22.515  1.00  0.00    -0.000 C 
BRANCH  15  16
ATOM     16  C   UNL     1       5.148 -39.378  23.900  1.00  0.00    -0.000 C 
BRANCH  16  17
ATOM     17  C   UNL     1       5.564 -37.897  23.947  1.00  0.00    -0.000 C 
BRANCH  17  18
ATOM     18  C   UNL     1       5.048 -37.171  25.203  1.00  0.00    -0.000 C 
BRANCH  18  19
ATOM     19  C   UNL     1       5.311 -35.655  25.225  1.00  0.00    -0.003 C 
ATOM     20  C   UNL     1       6.110 -35.170  24.016  1.00  0.00     0.004 C 
ENDBRANCH  18  19
ENDBRANCH  17  18
ENDBRANCH  16  17
ENDBRANCH  15  16
ENDBRANCH  14  15
ENDBRANCH  13  14
ENDBRANCH  12  13
ENDBRANCH   1  12
TORSDOF 16
ENDMDL
MODEL 8
REMARK VINA RESULT:     1.973      2.436      6.790
REMARK INTER + INTRA:           2.656
REMARK INTER:                   3.976
REMARK INTRA:                  -1.321
REMARK UNBOUND:                -1.163
REMARK SMILES CCCCCCCCCCCCCCCCCC(=O)[O-]
REMARK SMILES IDX 10 1 11 2 12 3 13 4 14 5 15 6 16 7 17 8 18 9 19 10 20 11
REMARK SMILES IDX 9 12 8 13 7 14 6 15 5 16 4 17 3 18 2 19 1 20
REMARK H PARENT
REMARK Flexibility Score: inf
ROOT
ATOM      1  C   UNL     1       4.208 -34.170  22.422  1.00  0.00     0.000 C 
ENDROOT
BRANCH   1   2
ATOM      2  C   UNL     1       3.762 -34.070  20.959  1.00  0.00     0.000 C 
BRANCH   2   3
ATOM      3  C   UNL     1       4.971 -33.890  20.027  1.00  0.00     0.000 C 
BRANCH   3   4
ATOM      4  C   UNL     1       4.850 -34.710  18.732  1.00  0.00     0.000 C 
BRANCH   4   5
ATOM      5  C   UNL     1       4.405 -36.159  18.992  1.00  0.00     0.000 C 
BRANCH   5   6
ATOM      6  C   UNL     1       5.467 -36.987  19.738  1.00  0.00     0.000 C 
BRANCH   6   7
ATOM      7  C   UNL     1       5.089 -38.458  19.994  1.00  0.00     0.006 C 
BRANCH   7   8
ATOM      8  C   UNL     1       4.570 -38.703  21.417  1.00  0.00     0.053 C 
BRANCH   8   9
ATOM      9  C   UNL     1       5.245 -39.894  22.021  1.00  0.00     0.041 C 
ATOM     10  O   UNL     1       6.049 -40.581  21.337  1.00  0.00    -0.550 OA
ATOM     11  O   UNL     1       5.026 -40.217  23.353  1.00  0.00    -0.550 OA
ENDBRANCH   8   9
ENDBRANCH   7   8
ENDBRANCH   6   7
ENDBRANCH   5   6
ENDBRANCH   4   5
ENDBRANCH   3   4
ENDBRANCH   2   3
ENDBRANCH   1   2
BRANCH   1  12
ATOM     12  C   UNL     1       5.703 -33.847  22.566  1.00  0.00     0.000 C 
BRANCH  12  13
ATOM     13  C   UNL     1       6.091 -33.412  23.991  1.00  0.00    -0.000 C 
BRANCH  13  14
ATOM     14  C   UNL     1       6.115 -34.542  25.036  1.00  0.00    -0.000 C 
BRANCH  14  15
ATOM     15  C   UNL     1       6.125 -35.944  24.403  1.00  0.00    -0.000 C 
BRANCH  15  16
ATOM     16  C   UNL     1       4.851 -36.743  24.720  1.00  0.00    -0.000 C 
BRANCH  16  17
ATOM     17  C   UNL     1       4.753 -37.144  26.203  1.00  0.00    -0.000 C 
BRANCH  17  18
ATOM     18  C   UNL     1       3.736 -38.272  26.450  1.00  0.00    -0.000 C 
BRANCH  18  19
ATOM     19  C   UNL     1       2.309 -37.794  26.774  1.00  0.00    -0.003 C 
ATOM     20  C   UNL     1       2.257 -36.824  27.954  1.00  0.00     0.004 C 
ENDBRANCH  18  19
ENDBRANCH  17  18
ENDBRANCH  16  17
ENDBRANCH  15  16
ENDBRANCH  14  15
ENDBRANCH  13  14
ENDBRANCH  12  13
ENDBRANCH   1  12
TORSDOF 16
ENDMDL
