MODEL 1
REMARK VINA RESULT:    63.469      0.000      0.000
REMARK INTER + INTRA:          86.794
REMARK INTER:                  87.586
REMARK INTRA:                  -0.792
REMARK UNBOUND:                -0.792
REMARK SMILES CC[C@@H](CC[C@@H](C)[C@@H]1CC[C@@H]2C3=CC[C@@H]4C[C@H](O)CC[C@]4(C)[C@@H]3CC[C@]21C)C(C)C
REMARK SMILES IDX 5 1 4 2 3 3 2 4 1 5 28 6 29 7 30 8 6 9 7 10 8 11 9 12 26 13
REMARK SMILES IDX 10 14 11 15 25 16 27 17 12 18 24 19 23 20 13 21 21 22 14 23
REMARK SMILES IDX 15 24 20 25 22 26 16 27 19 28 17 29 18 30
REMARK H PARENT 18 31
REMARK Flexibility Score: inf
ROOT
ATOM      1  C   UNL     1     -26.056  30.697  -8.425  1.00  0.00     0.004 C 
ENDROOT
BRANCH   1   2
ATOM      2  C   UNL     1     -25.863  31.036  -6.923  1.00  0.00     0.004 C 
BRANCH   2   3
ATOM      3  C   UNL     1     -26.604  30.055  -5.967  1.00  0.00    -0.009 C 
BRANCH   3   4
ATOM      4  C   UNL     1     -27.821  29.416  -6.715  1.00  0.00     0.000 C 
ATOM      5  C   UNL     1     -27.881  27.898  -6.540  1.00  0.00     0.004 C 
ENDBRANCH   3   4
BRANCH   3   6
ATOM      6  C   UNL     1     -27.056  30.751  -4.636  1.00  0.00    -0.014 C 
ATOM      7  C   UNL     1     -27.230  29.732  -3.492  1.00  0.00     0.007 C 
ATOM      8  C   UNL     1     -26.067  31.837  -4.164  1.00  0.00     0.007 C 
ENDBRANCH   3   6
ENDBRANCH   2   3
ENDBRANCH   1   2
BRANCH   1   9
ATOM      9  C   UNL     1     -24.792  30.888  -9.305  1.00  0.00    -0.011 C 
ATOM     10  C   UNL     1     -24.772  32.314  -9.902  1.00  0.00     0.008 C 
BRANCH   9  11
ATOM     11  C   UNL     1     -23.460  30.635  -8.509  1.00  0.00    -0.002 C 
ATOM     12  C   UNL     1     -22.208  31.026  -9.347  1.00  0.00     0.005 C 
ATOM     13  C   UNL     1     -23.132  29.190  -8.013  1.00  0.00    -0.023 C 
ATOM     14  C   UNL     1     -21.090  30.034  -9.004  1.00  0.00     0.009 C 
ATOM     15  C   UNL     1     -21.618  29.307  -7.779  1.00  0.00     0.021 C 
ATOM     16  C   UNL     1     -23.749  28.791  -6.641  1.00  0.00     0.008 C 
ATOM     17  C   UNL     1     -23.463  28.131  -9.113  1.00  0.00     0.012 C 
ATOM     18  C   UNL     1     -21.009  27.988  -7.344  1.00  0.00    -0.067 C 
ATOM     19  C   UNL     1     -23.190  27.437  -6.146  1.00  0.00     0.009 C 
ATOM     20  C   UNL     1     -21.630  27.384  -6.082  1.00  0.00     0.021 C 
ATOM     21  C   UNL     1     -19.823  27.576  -7.819  1.00  0.00    -0.027 C 
ATOM     22  C   UNL     1     -21.045  25.980  -5.627  1.00  0.00    -0.023 C 
ATOM     23  C   UNL     1     -19.196  26.289  -7.397  1.00  0.00     0.031 C 
ATOM     24  C   UNL     1     -19.512  25.926  -5.932  1.00  0.00     0.002 C 
ATOM     25  C   UNL     1     -21.745  24.782  -6.339  1.00  0.00     0.010 C 
ATOM     26  C   UNL     1     -21.272  25.866  -4.089  1.00  0.00     0.012 C 
ATOM     27  C   UNL     1     -18.878  24.555  -5.577  1.00  0.00     0.036 C 
ATOM     28  C   UNL     1     -21.135  23.414  -5.979  1.00  0.00     0.032 C 
ATOM     29  C   UNL     1     -19.613  23.343  -6.184  1.00  0.00     0.114 C 
BRANCH  29  30
ATOM     30  O   UNL     1     -19.304  23.216  -7.549  1.00  0.00    -0.393 OA
ATOM     31  H   UNL     1     -18.313  23.191  -7.621  1.00  0.00     0.210 HD
ENDBRANCH  29  30
ENDBRANCH   9  11
ENDBRANCH   1   9
TORSDOF 7
ENDMDL
MODEL 2
REMARK VINA RESULT:    65.892      2.717      8.087
REMARK INTER + INTRA:          90.137
REMARK INTER:                  90.145
REMARK INTRA:                  -0.008
REMARK UNBOUND:                -0.792
REMARK SMILES CC[C@@H](CC[C@@H](C)[C@@H]1CC[C@@H]2C3=CC[C@@H]4C[C@H](O)CC[C@]4(C)[C@@H]3CC[C@]21C)C(C)C
REMARK SMILES IDX 5 1 4 2 3 3 2 4 1 5 28 6 29 7 30 8 6 9 7 10 8 11 9 12 26 13
REMARK SMILES IDX 10 14 11 15 25 16 27 17 12 18 24 19 23 20 13 21 21 22 14 23
REMARK SMILES IDX 15 24 20 25 22 26 16 27 19 28 17 29 18 30
REMARK H PARENT 18 31
REMARK Flexibility Score: inf
ROOT
ATOM      1  C   UNL     1     -19.351  25.200  -4.592  1.00  0.00     0.004 C 
ENDROOT
BRANCH   1   2
ATOM      2  C   UNL     1     -18.876  23.819  -5.118  1.00  0.00     0.004 C 
BRANCH   2   3
ATOM      3  C   UNL     1     -20.010  22.990  -5.791  1.00  0.00    -0.009 C 
BRANCH   3   4
ATOM      4  C   UNL     1     -20.274  21.693  -4.957  1.00  0.00     0.000 C 
ATOM      5  C   UNL     1     -20.869  21.997  -3.582  1.00  0.00     0.004 C 
ENDBRANCH   3   4
BRANCH   3   6
ATOM      6  C   UNL     1     -19.686  22.648  -7.288  1.00  0.00    -0.014 C 
ATOM      7  C   UNL     1     -18.883  23.775  -7.968  1.00  0.00     0.007 C 
ATOM      8  C   UNL     1     -18.894  21.334  -7.442  1.00  0.00     0.007 C 
ENDBRANCH   3   6
ENDBRANCH   2   3
ENDBRANCH   1   2
BRANCH   1   9
ATOM      9  C   UNL     1     -20.851  25.513  -4.841  1.00  0.00    -0.011 C 
ATOM     10  C   UNL     1     -21.384  26.460  -3.741  1.00  0.00     0.008 C 
BRANCH   9  11
ATOM     11  C   UNL     1     -21.106  26.155  -6.253  1.00  0.00    -0.002 C 
ATOM     12  C   UNL     1     -19.875  26.971  -6.743  1.00  0.00     0.005 C 
ATOM     13  C   UNL     1     -22.299  27.149  -6.434  1.00  0.00    -0.023 C 
ATOM     14  C   UNL     1     -20.398  28.183  -7.522  1.00  0.00     0.009 C 
ATOM     15  C   UNL     1     -21.873  27.874  -7.720  1.00  0.00     0.021 C 
ATOM     16  C   UNL     1     -23.678  26.499  -6.744  1.00  0.00     0.008 C 
ATOM     17  C   UNL     1     -22.395  28.135  -5.225  1.00  0.00     0.012 C 
ATOM     18  C   UNL     1     -22.847  28.971  -8.101  1.00  0.00    -0.067 C 
ATOM     19  C   UNL     1     -24.732  27.566  -7.116  1.00  0.00     0.009 C 
ATOM     20  C   UNL     1     -24.293  28.505  -8.285  1.00  0.00     0.021 C 
ATOM     21  C   UNL     1     -22.417  30.157  -8.563  1.00  0.00    -0.027 C 
ATOM     22  C   UNL     1     -25.345  29.640  -8.638  1.00  0.00    -0.023 C 
ATOM     23  C   UNL     1     -23.355  31.248  -8.957  1.00  0.00     0.031 C 
ATOM     24  C   UNL     1     -24.673  30.714  -9.555  1.00  0.00     0.002 C 
ATOM     25  C   UNL     1     -25.915  30.344  -7.368  1.00  0.00     0.010 C 
ATOM     26  C   UNL     1     -26.513  28.957  -9.411  1.00  0.00     0.012 C 
ATOM     27  C   UNL     1     -25.620  31.896  -9.890  1.00  0.00     0.036 C 
ATOM     28  C   UNL     1     -26.871  31.508  -7.689  1.00  0.00     0.032 C 
ATOM     29  C   UNL     1     -26.279  32.546  -8.656  1.00  0.00     0.114 C 
BRANCH  29  30
ATOM     30  O   UNL     1     -25.361  33.375  -7.990  1.00  0.00    -0.393 OA
ATOM     31  H   UNL     1     -25.121  34.106  -8.619  1.00  0.00     0.210 HD
ENDBRANCH  29  30
ENDBRANCH   9  11
ENDBRANCH   1   9
TORSDOF 7
ENDMDL
