MODEL 1
REMARK VINA RESULT:    -1.773      0.000      0.000
REMARK INTER + INTRA:          -1.773
REMARK INTER:                  -1.773
REMARK INTRA:                   0.000
REMARK UNBOUND:                 0.000
REMARK SMILES C[C@H]1CCC=C2CC[C@H]3[C@H](C3(C)C)[C@@]21C
REMARK SMILES IDX 1 1 2 2 3 3 4 4 5 5 6 6 14 7 10 8 9 9 11 10 12 11 13 12 8 13
REMARK SMILES IDX 7 14 15 15
REMARK H PARENT
REMARK Flexibility Score: inf
ROOT
ATOM      1  C   UNL     1       8.305   8.571  13.503  1.00  0.00     0.008 C 
ATOM      2  C   UNL     1       7.329   7.760  12.628  1.00  0.00    -0.004 C 
ATOM      3  C   UNL     1       8.117   6.894  11.607  1.00  0.00     0.008 C 
ATOM      4  C   UNL     1       8.232   5.443  12.054  1.00  0.00     0.027 C 
ATOM      5  C   UNL     1       6.858   4.875  12.239  1.00  0.00    -0.027 C 
ATOM      6  C   UNL     1       5.888   5.596  12.833  1.00  0.00    -0.068 C 
ATOM      7  C   UNL     1       6.199   6.971  13.437  1.00  0.00    -0.005 C 
ATOM      8  C   UNL     1       4.924   7.879  13.541  1.00  0.00     0.009 C 
ATOM      9  C   UNL     1       3.529   7.280  13.253  1.00  0.00    -0.000 C 
ATOM     10  C   UNL     1       4.122   8.341  12.305  1.00  0.00    -0.028 C 
ATOM     11  C   UNL     1       4.532   7.931  10.875  1.00  0.00     0.012 C 
ATOM     12  C   UNL     1       3.476   9.727  12.427  1.00  0.00     0.012 C 
ATOM     13  C   UNL     1       3.407   5.841  12.715  1.00  0.00     0.009 C 
ATOM     14  C   UNL     1       4.561   4.943  13.129  1.00  0.00     0.031 C 
ATOM     15  C   UNL     1       6.639   6.677  14.899  1.00  0.00     0.017 C 
ENDROOT
TORSDOF 0
ENDMDL
MODEL 2
REMARK VINA RESULT:     0.906      2.811      5.785
REMARK INTER + INTRA:           0.906
REMARK INTER:                   0.906
REMARK INTRA:                   0.000
REMARK UNBOUND:                 0.000
REMARK SMILES C[C@H]1CCC=C2CC[C@H]3[C@H](C3(C)C)[C@@]21C
REMARK SMILES IDX 1 1 2 2 3 3 4 4 5 5 6 6 14 7 10 8 9 9 11 10 12 11 13 12 8 13
REMARK SMILES IDX 7 14 15 15
REMARK H PARENT
REMARK Flexibility Score: inf
ROOT
ATOM      1  C   UNL     1       4.375  13.409  10.875  1.00  0.00     0.008 C 
ATOM      2  C   UNL     1       4.326  12.407  12.046  1.00  0.00    -0.004 C 
ATOM      3  C   UNL     1       4.284  13.166  13.400  1.00  0.00     0.008 C 
ATOM      4  C   UNL     1       2.877  13.234  13.976  1.00  0.00     0.027 C 
ATOM      5  C   UNL     1       2.355  11.843  14.164  1.00  0.00    -0.027 C 
ATOM      6  C   UNL     1       2.560  10.897  13.228  1.00  0.00    -0.068 C 
ATOM      7  C   UNL     1       3.232  11.252  11.895  1.00  0.00    -0.005 C 
ATOM      8  C   UNL     1       3.899  10.007  11.214  1.00  0.00     0.009 C 
ATOM      9  C   UNL     1       3.654   8.594  11.787  1.00  0.00    -0.000 C 
ATOM     10  C   UNL     1       5.060   9.220  11.861  1.00  0.00    -0.028 C 
ATOM     11  C   UNL     1       5.639   9.616  13.234  1.00  0.00     0.012 C 
ATOM     12  C   UNL     1       6.070   8.620  10.875  1.00  0.00     0.012 C 
ATOM     13  C   UNL     1       2.885   8.425  13.112  1.00  0.00     0.009 C 
ATOM     14  C   UNL     1       1.900   9.550  13.386  1.00  0.00     0.031 C 
ATOM     15  C   UNL     1       2.067  11.683  10.960  1.00  0.00     0.017 C 
ENDROOT
TORSDOF 0
ENDMDL
MODEL 3
REMARK VINA RESULT:     1.122      1.174      3.260
REMARK INTER + INTRA:           1.122
REMARK INTER:                   1.122
REMARK INTRA:                   0.000
REMARK UNBOUND:                 0.000
REMARK SMILES C[C@H]1CCC=C2CC[C@H]3[C@H](C3(C)C)[C@@]21C
REMARK SMILES IDX 1 1 2 2 3 3 4 4 5 5 6 6 14 7 10 8 9 9 11 10 12 11 13 12 8 13
REMARK SMILES IDX 7 14 15 15
REMARK H PARENT
REMARK Flexibility Score: inf
ROOT
ATOM      1  C   UNL     1       7.716   4.978  14.247  1.00  0.00     0.008 C 
ATOM      2  C   UNL     1       6.850   6.240  14.063  1.00  0.00    -0.004 C 
ATOM      3  C   UNL     1       7.354   7.378  14.993  1.00  0.00     0.008 C 
ATOM      4  C   UNL     1       8.211   8.391  14.246  1.00  0.00     0.027 C 
ATOM      5  C   UNL     1       7.412   8.978  13.124  1.00  0.00    -0.027 C 
ATOM      6  C   UNL     1       6.623   8.200  12.358  1.00  0.00    -0.068 C 
ATOM      7  C   UNL     1       6.614   6.678  12.543  1.00  0.00    -0.005 C 
ATOM      8  C   UNL     1       5.287   6.022  12.028  1.00  0.00     0.009 C 
ATOM      9  C   UNL     1       4.268   6.871  11.235  1.00  0.00    -0.000 C 
ATOM     10  C   UNL     1       3.903   6.341  12.635  1.00  0.00    -0.028 C 
ATOM     11  C   UNL     1       3.743   7.339  13.801  1.00  0.00     0.012 C 
ATOM     12  C   UNL     1       2.904   5.179  12.629  1.00  0.00     0.012 C 
ATOM     13  C   UNL     1       4.484   8.390  11.087  1.00  0.00     0.009 C 
ATOM     14  C   UNL     1       5.945   8.801  11.152  1.00  0.00     0.031 C 
ATOM     15  C   UNL     1       7.744   6.153  11.613  1.00  0.00     0.017 C 
ENDROOT
TORSDOF 0
ENDMDL
MODEL 4
REMARK VINA RESULT:     1.184      3.332      7.214
REMARK INTER + INTRA:           1.184
REMARK INTER:                   1.184
REMARK INTRA:                   0.000
REMARK UNBOUND:                 0.000
REMARK SMILES C[C@H]1CCC=C2CC[C@H]3[C@H](C3(C)C)[C@@]21C
REMARK SMILES IDX 1 1 2 2 3 3 4 4 5 5 6 6 14 7 10 8 9 9 11 10 12 11 13 12 8 13
REMARK SMILES IDX 7 14 15 15
REMARK H PARENT
REMARK Flexibility Score: inf
ROOT
ATOM      1  C   UNL     1       0.235  11.622  14.302  1.00  0.00     0.008 C 
ATOM      2  C   UNL     1       0.881  11.547  12.904  1.00  0.00    -0.004 C 
ATOM      3  C   UNL     1      -0.112  12.061  11.826  1.00  0.00     0.008 C 
ATOM      4  C   UNL     1       0.189  13.493  11.406  1.00  0.00     0.027 C 
ATOM      5  C   UNL     1       1.587  13.567  10.875  1.00  0.00    -0.027 C 
ATOM      6  C   UNL     1       2.593  12.912  11.487  1.00  0.00    -0.068 C 
ATOM      7  C   UNL     1       2.350  12.171  12.808  1.00  0.00    -0.005 C 
ATOM      8  C   UNL     1       3.401  11.034  13.056  1.00  0.00     0.009 C 
ATOM      9  C   UNL     1       4.630  10.909  12.129  1.00  0.00    -0.000 C 
ATOM     10  C   UNL     1       3.548   9.812  12.124  1.00  0.00    -0.028 C 
ATOM     11  C   UNL     1       2.659   9.634  10.877  1.00  0.00     0.012 C 
ATOM     12  C   UNL     1       3.967   8.510  12.817  1.00  0.00     0.012 C 
ATOM     13  C   UNL     1       4.741  11.798  10.875  1.00  0.00     0.009 C 
ATOM     14  C   UNL     1       4.008  13.123  11.009  1.00  0.00     0.031 C 
ATOM     15  C   UNL     1       2.595  13.234  13.916  1.00  0.00     0.017 C 
ENDROOT
TORSDOF 0
ENDMDL
MODEL 5
REMARK VINA RESULT:     1.193      4.415      6.905
REMARK INTER + INTRA:           1.193
REMARK INTER:                   1.193
REMARK INTRA:                   0.000
REMARK UNBOUND:                 0.000
REMARK SMILES C[C@H]1CCC=C2CC[C@H]3[C@H](C3(C)C)[C@@]21C
REMARK SMILES IDX 1 1 2 2 3 3 4 4 5 5 6 6 14 7 10 8 9 9 11 10 12 11 13 12 8 13
REMARK SMILES IDX 7 14 15 15
REMARK H PARENT
REMARK Flexibility Score: inf
ROOT
ATOM      1  C   UNL     1      -0.085  12.184  13.414  1.00  0.00     0.008 C 
ATOM      2  C   UNL     1       1.443  11.976  13.429  1.00  0.00    -0.004 C 
ATOM      3  C   UNL     1       1.822  10.850  14.429  1.00  0.00     0.008 C 
ATOM      4  C   UNL     1       2.090   9.526  13.728  1.00  0.00     0.027 C 
ATOM      5  C   UNL     1       3.197   9.709  12.737  1.00  0.00    -0.027 C 
ATOM      6  C   UNL     1       3.251  10.806  11.957  1.00  0.00    -0.068 C 
ATOM      7  C   UNL     1       2.115  11.838  11.985  1.00  0.00    -0.005 C 
ATOM      8  C   UNL     1       2.586  13.255  11.508  1.00  0.00     0.009 C 
ATOM      9  C   UNL     1       3.990  13.430  10.887  1.00  0.00    -0.000 C 
ATOM     10  C   UNL     1       3.665  14.074  12.249  1.00  0.00    -0.028 C 
ATOM     11  C   UNL     1       4.355  13.538  13.521  1.00  0.00     0.012 C 
ATOM     12  C   UNL     1       3.479  15.595  12.200  1.00  0.00     0.012 C 
ATOM     13  C   UNL     1       4.980  12.249  10.881  1.00  0.00     0.009 C 
ATOM     14  C   UNL     1       4.298  10.891  10.875  1.00  0.00     0.031 C 
ATOM     15  C   UNL     1       1.096  11.341  10.922  1.00  0.00     0.017 C 
ENDROOT
TORSDOF 0
ENDMDL
