MODEL 1
REMARK VINA RESULT:    -5.959      0.000      0.000
REMARK INTER + INTRA:         -18.504
REMARK INTER:                 -15.015
REMARK INTRA:                  -3.489
REMARK UNBOUND:                -3.489
REMARK SMILES CCCCCCCCCCCCCCCCCCCCCCCCCCCC(=O)[O-]
REMARK SMILES IDX 15 1 16 2 17 3 18 4 19 5 20 6 21 7 22 8 23 9 24 10 25 11
REMARK SMILES IDX 26 12 27 13 28 14 29 15 30 16 14 17 13 18 12 19 11 20 10 21
REMARK SMILES IDX 9 22 8 23 7 24 6 25 5 26 4 27 3 28 2 29 1 30
REMARK H PARENT
REMARK Flexibility Score: inf
ROOT
ATOM      1  C   UNL     1      -3.583 -32.295 -51.672  1.00  0.00     0.000 C 
ENDROOT
BRANCH   1   2
ATOM      2  C   UNL     1      -5.111 -32.133 -51.609  1.00  0.00     0.000 C 
BRANCH   2   3
ATOM      3  C   UNL     1      -5.620 -31.844 -50.189  1.00  0.00     0.000 C 
BRANCH   3   4
ATOM      4  C   UNL     1      -7.112 -31.467 -50.165  1.00  0.00     0.000 C 
BRANCH   4   5
ATOM      5  C   UNL     1      -7.446 -30.448 -49.063  1.00  0.00     0.000 C 
BRANCH   5   6
ATOM      6  C   UNL     1      -6.223 -29.613 -48.645  1.00  0.00     0.000 C 
BRANCH   6   7
ATOM      7  C   UNL     1      -6.436 -28.105 -48.854  1.00  0.00     0.000 C 
BRANCH   7   8
ATOM      8  C   UNL     1      -6.277 -27.685 -50.326  1.00  0.00     0.000 C 
BRANCH   8   9
ATOM      9  C   UNL     1      -5.219 -28.517 -51.074  1.00  0.00     0.000 C 
BRANCH   9  10
ATOM     10  C   UNL     1      -4.711 -27.899 -52.390  1.00  0.00     0.000 C 
BRANCH  10  11
ATOM     11  C   UNL     1      -4.678 -28.904 -53.551  1.00  0.00     0.000 C 
BRANCH  11  12
ATOM     12  C   UNL     1      -5.645 -28.487 -54.669  1.00  0.00     0.006 C 
BRANCH  12  13
ATOM     13  C   UNL     1      -6.345 -27.155 -54.366  1.00  0.00     0.053 C 
BRANCH  13  14
ATOM     14  C   UNL     1      -5.967 -26.094 -55.354  1.00  0.00     0.041 C 
ATOM     15  O   UNL     1      -4.755 -25.838 -55.576  1.00  0.00    -0.550 OA
ATOM     16  O   UNL     1      -6.955 -25.362 -56.000  1.00  0.00    -0.550 OA
ENDBRANCH  13  14
ENDBRANCH  12  13
ENDBRANCH  11  12
ENDBRANCH  10  11
ENDBRANCH   9  10
ENDBRANCH   8   9
ENDBRANCH   7   8
ENDBRANCH   6   7
ENDBRANCH   5   6
ENDBRANCH   4   5
ENDBRANCH   3   4
ENDBRANCH   2   3
ENDBRANCH   1   2
BRANCH   1  17
ATOM     17  C   UNL     1      -3.051 -32.341 -53.115  1.00  0.00     0.000 C 
BRANCH  17  18
ATOM     18  C   UNL     1      -1.798 -33.218 -53.317  1.00  0.00     0.000 C 
BRANCH  18  19
ATOM     19  C   UNL     1      -0.599 -32.872 -52.411  1.00  0.00     0.000 C 
BRANCH  19  20
ATOM     20  C   UNL     1       0.049 -31.506 -52.696  1.00  0.00     0.000 C 
BRANCH  20  21
ATOM     21  C   UNL     1       0.278 -30.682 -51.418  1.00  0.00     0.000 C 
BRANCH  21  22
ATOM     22  C   UNL     1      -0.576 -29.402 -51.376  1.00  0.00    -0.000 C 
BRANCH  22  23
ATOM     23  C   UNL     1      -1.052 -28.897 -52.754  1.00  0.00    -0.000 C 
BRANCH  23  24
ATOM     24  C   UNL     1      -0.083 -27.936 -53.472  1.00  0.00    -0.000 C 
BRANCH  24  25
ATOM     25  C   UNL     1      -0.725 -26.650 -54.021  1.00  0.00    -0.000 C 
BRANCH  25  26
ATOM     26  C   UNL     1      -1.018 -25.615 -52.922  1.00  0.00    -0.000 C 
BRANCH  26  27
ATOM     27  C   UNL     1       0.157 -25.433 -51.946  1.00  0.00    -0.000 C 
BRANCH  27  28
ATOM     28  C   UNL     1       1.012 -24.172 -52.177  1.00  0.00    -0.000 C 
BRANCH  28  29
ATOM     29  C   UNL     1       2.456 -24.471 -52.631  1.00  0.00    -0.003 C 
ATOM     30  C   UNL     1       3.488 -23.597 -51.917  1.00  0.00     0.004 C 
ENDBRANCH  28  29
ENDBRANCH  27  28
ENDBRANCH  26  27
ENDBRANCH  25  26
ENDBRANCH  24  25
ENDBRANCH  23  24
ENDBRANCH  22  23
ENDBRANCH  21  22
ENDBRANCH  20  21
ENDBRANCH  19  20
ENDBRANCH  18  19
ENDBRANCH  17  18
ENDBRANCH   1  17
TORSDOF 26
ENDMDL
MODEL 2
REMARK VINA RESULT:    -5.841      1.603      3.999
REMARK INTER + INTRA:         -18.208
REMARK INTER:                 -14.751
REMARK INTRA:                  -3.457
REMARK UNBOUND:                -3.489
REMARK SMILES CCCCCCCCCCCCCCCCCCCCCCCCCCCC(=O)[O-]
REMARK SMILES IDX 15 1 16 2 17 3 18 4 19 5 20 6 21 7 22 8 23 9 24 10 25 11
REMARK SMILES IDX 26 12 27 13 28 14 29 15 30 16 14 17 13 18 12 19 11 20 10 21
REMARK SMILES IDX 9 22 8 23 7 24 6 25 5 26 4 27 3 28 2 29 1 30
REMARK H PARENT
REMARK Flexibility Score: inf
ROOT
ATOM      1  C   UNL     1      -7.410 -31.334 -49.413  1.00  0.00     0.000 C 
ENDROOT
BRANCH   1   2
ATOM      2  C   UNL     1      -7.665 -29.871 -49.009  1.00  0.00     0.000 C 
BRANCH   2   3
ATOM      3  C   UNL     1      -6.368 -29.101 -48.721  1.00  0.00     0.000 C 
BRANCH   3   4
ATOM      4  C   UNL     1      -6.318 -27.743 -49.444  1.00  0.00     0.000 C 
BRANCH   4   5
ATOM      5  C   UNL     1      -6.154 -27.890 -50.966  1.00  0.00     0.000 C 
BRANCH   5   6
ATOM      6  C   UNL     1      -4.803 -28.514 -51.353  1.00  0.00     0.000 C 
BRANCH   6   7
ATOM      7  C   UNL     1      -4.415 -28.229 -52.814  1.00  0.00     0.000 C 
BRANCH   7   8
ATOM      8  C   UNL     1      -5.372 -28.893 -53.819  1.00  0.00     0.000 C 
BRANCH   8   9
ATOM      9  C   UNL     1      -6.015 -27.884 -54.788  1.00  0.00     0.000 C 
BRANCH   9  10
ATOM     10  C   UNL     1      -5.832 -26.403 -54.408  1.00  0.00     0.000 C 
BRANCH  10  11
ATOM     11  C   UNL     1      -5.199 -25.569 -55.531  1.00  0.00     0.000 C 
BRANCH  11  12
ATOM     12  C   UNL     1      -6.074 -24.356 -55.877  1.00  0.00     0.006 C 
BRANCH  12  13
ATOM     13  C   UNL     1      -6.362 -24.256 -57.380  1.00  0.00     0.053 C 
BRANCH  13  14
ATOM     14  C   UNL     1      -7.447 -23.264 -57.672  1.00  0.00     0.041 C 
ATOM     15  O   UNL     1      -7.646 -22.296 -56.893  1.00  0.00    -0.550 OA
ATOM     16  O   UNL     1      -8.263 -23.432 -58.784  1.00  0.00    -0.550 OA
ENDBRANCH  13  14
ENDBRANCH  12  13
ENDBRANCH  11  12
ENDBRANCH  10  11
ENDBRANCH   9  10
ENDBRANCH   8   9
ENDBRANCH   7   8
ENDBRANCH   6   7
ENDBRANCH   5   6
ENDBRANCH   4   5
ENDBRANCH   3   4
ENDBRANCH   2   3
ENDBRANCH   1   2
BRANCH   1  17
ATOM     17  C   UNL     1      -5.998 -31.554 -49.983  1.00  0.00     0.000 C 
BRANCH  17  18
ATOM     18  C   UNL     1      -5.954 -31.955 -51.471  1.00  0.00     0.000 C 
BRANCH  18  19
ATOM     19  C   UNL     1      -4.542 -32.174 -52.052  1.00  0.00     0.000 C 
BRANCH  19  20
ATOM     20  C   UNL     1      -3.508 -32.710 -51.046  1.00  0.00     0.000 C 
BRANCH  20  21
ATOM     21  C   UNL     1      -2.436 -33.589 -51.711  1.00  0.00     0.000 C 
BRANCH  21  22
ATOM     22  C   UNL     1      -2.148 -33.177 -53.165  1.00  0.00    -0.000 C 
BRANCH  22  23
ATOM     23  C   UNL     1      -1.046 -32.111 -53.329  1.00  0.00    -0.000 C 
BRANCH  23  24
ATOM     24  C   UNL     1      -0.065 -31.993 -52.145  1.00  0.00    -0.000 C 
BRANCH  24  25
ATOM     25  C   UNL     1      -0.246 -30.742 -51.268  1.00  0.00    -0.000 C 
BRANCH  25  26
ATOM     26  C   UNL     1      -1.222 -29.722 -51.880  1.00  0.00    -0.000 C 
BRANCH  26  27
ATOM     27  C   UNL     1      -0.616 -28.313 -51.997  1.00  0.00    -0.000 C 
BRANCH  27  28
ATOM     28  C   UNL     1      -0.074 -27.946 -53.391  1.00  0.00    -0.000 C 
BRANCH  28  29
ATOM     29  C   UNL     1       0.429 -26.492 -53.504  1.00  0.00    -0.003 C 
ATOM     30  C   UNL     1      -0.086 -25.604 -52.370  1.00  0.00     0.004 C 
ENDBRANCH  28  29
ENDBRANCH  27  28
ENDBRANCH  26  27
ENDBRANCH  25  26
ENDBRANCH  24  25
ENDBRANCH  23  24
ENDBRANCH  22  23
ENDBRANCH  21  22
ENDBRANCH  20  21
ENDBRANCH  19  20
ENDBRANCH  18  19
ENDBRANCH  17  18
ENDBRANCH   1  17
TORSDOF 26
ENDMDL
MODEL 3
REMARK VINA RESULT:    -5.839      1.665      6.428
REMARK INTER + INTRA:         -18.203
REMARK INTER:                 -14.020
REMARK INTRA:                  -4.183
REMARK UNBOUND:                -3.489
REMARK SMILES CCCCCCCCCCCCCCCCCCCCCCCCCCCC(=O)[O-]
REMARK SMILES IDX 15 1 16 2 17 3 18 4 19 5 20 6 21 7 22 8 23 9 24 10 25 11
REMARK SMILES IDX 26 12 27 13 28 14 29 15 30 16 14 17 13 18 12 19 11 20 10 21
REMARK SMILES IDX 9 22 8 23 7 24 6 25 5 26 4 27 3 28 2 29 1 30
REMARK H PARENT
REMARK Flexibility Score: inf
ROOT
ATOM      1  C   UNL     1      -1.895 -33.575 -51.535  1.00  0.00     0.000 C 
ENDROOT
BRANCH   1   2
ATOM      2  C   UNL     1      -1.936 -33.357 -53.057  1.00  0.00     0.000 C 
BRANCH   2   3
ATOM      3  C   UNL     1      -0.823 -32.422 -53.553  1.00  0.00     0.000 C 
BRANCH   3   4
ATOM      4  C   UNL     1       0.249 -32.163 -52.479  1.00  0.00     0.000 C 
BRANCH   4   5
ATOM      5  C   UNL     1       0.471 -30.665 -52.216  1.00  0.00     0.000 C 
BRANCH   5   6
ATOM      6  C   UNL     1      -0.650 -30.046 -51.363  1.00  0.00     0.000 C 
BRANCH   6   7
ATOM      7  C   UNL     1      -1.468 -28.995 -52.132  1.00  0.00     0.000 C 
BRANCH   7   8
ATOM      8  C   UNL     1      -0.597 -28.138 -53.067  1.00  0.00     0.000 C 
BRANCH   8   9
ATOM      9  C   UNL     1      -0.296 -26.742 -52.491  1.00  0.00     0.000 C 
BRANCH   9  10
ATOM     10  C   UNL     1      -0.543 -25.568 -53.457  1.00  0.00     0.000 C 
BRANCH  10  11
ATOM     11  C   UNL     1      -1.670 -25.846 -54.463  1.00  0.00     0.000 C 
BRANCH  11  12
ATOM     12  C   UNL     1      -2.956 -25.106 -54.068  1.00  0.00     0.006 C 
BRANCH  12  13
ATOM     13  C   UNL     1      -3.875 -24.854 -55.270  1.00  0.00     0.053 C 
BRANCH  13  14
ATOM     14  C   UNL     1      -4.761 -23.665 -55.051  1.00  0.00     0.041 C 
ATOM     15  O   UNL     1      -4.405 -22.745 -54.269  1.00  0.00    -0.550 OA
ATOM     16  O   UNL     1      -5.998 -23.595 -55.680  1.00  0.00    -0.550 OA
ENDBRANCH  13  14
ENDBRANCH  12  13
ENDBRANCH  11  12
ENDBRANCH  10  11
ENDBRANCH   9  10
ENDBRANCH   8   9
ENDBRANCH   7   8
ENDBRANCH   6   7
ENDBRANCH   5   6
ENDBRANCH   4   5
ENDBRANCH   3   4
ENDBRANCH   2   3
ENDBRANCH   1   2
BRANCH   1  17
ATOM     17  C   UNL     1      -3.233 -33.242 -50.853  1.00  0.00     0.000 C 
BRANCH  17  18
ATOM     18  C   UNL     1      -3.957 -32.002 -51.415  1.00  0.00     0.000 C 
BRANCH  18  19
ATOM     19  C   UNL     1      -5.318 -32.283 -52.085  1.00  0.00     0.000 C 
BRANCH  19  20
ATOM     20  C   UNL     1      -5.519 -31.594 -53.447  1.00  0.00     0.000 C 
BRANCH  20  21
ATOM     21  C   UNL     1      -4.535 -30.435 -53.675  1.00  0.00     0.000 C 
BRANCH  21  22
ATOM     22  C   UNL     1      -5.242 -29.125 -54.066  1.00  0.00    -0.000 C 
BRANCH  22  23
ATOM     23  C   UNL     1      -4.822 -27.892 -53.242  1.00  0.00    -0.000 C 
BRANCH  23  24
ATOM     24  C   UNL     1      -5.977 -27.143 -52.546  1.00  0.00    -0.000 C 
BRANCH  24  25
ATOM     25  C   UNL     1      -6.098 -27.390 -51.032  1.00  0.00    -0.000 C 
BRANCH  25  26
ATOM     26  C   UNL     1      -6.306 -28.874 -50.686  1.00  0.00    -0.000 C 
BRANCH  26  27
ATOM     27  C   UNL     1      -6.320 -29.136 -49.170  1.00  0.00    -0.000 C 
BRANCH  27  28
ATOM     28  C   UNL     1      -6.410 -30.619 -48.763  1.00  0.00    -0.000 C 
BRANCH  28  29
ATOM     29  C   UNL     1      -7.800 -31.249 -48.995  1.00  0.00    -0.003 C 
ATOM     30  C   UNL     1      -8.907 -30.521 -48.231  1.00  0.00     0.004 C 
ENDBRANCH  28  29
ENDBRANCH  27  28
ENDBRANCH  26  27
ENDBRANCH  25  26
ENDBRANCH  24  25
ENDBRANCH  23  24
ENDBRANCH  22  23
ENDBRANCH  21  22
ENDBRANCH  20  21
ENDBRANCH  19  20
ENDBRANCH  18  19
ENDBRANCH  17  18
ENDBRANCH   1  17
TORSDOF 26
ENDMDL
MODEL 4
REMARK VINA RESULT:    -5.697      2.173      7.033
REMARK INTER + INTRA:         -17.845
REMARK INTER:                 -13.030
REMARK INTRA:                  -4.815
REMARK UNBOUND:                -3.489
REMARK SMILES CCCCCCCCCCCCCCCCCCCCCCCCCCCC(=O)[O-]
REMARK SMILES IDX 15 1 16 2 17 3 18 4 19 5 20 6 21 7 22 8 23 9 24 10 25 11
REMARK SMILES IDX 26 12 27 13 28 14 29 15 30 16 14 17 13 18 12 19 11 20 10 21
REMARK SMILES IDX 9 22 8 23 7 24 6 25 5 26 4 27 3 28 2 29 1 30
REMARK H PARENT
REMARK Flexibility Score: inf
ROOT
ATOM      1  C   UNL     1      -1.923 -33.696 -52.284  1.00  0.00     0.000 C 
ENDROOT
BRANCH   1   2
ATOM      2  C   UNL     1      -0.544 -33.134 -52.667  1.00  0.00     0.000 C 
BRANCH   2   3
ATOM      3  C   UNL     1      -0.623 -32.067 -53.769  1.00  0.00     0.000 C 
BRANCH   3   4
ATOM      4  C   UNL     1       0.145 -30.785 -53.402  1.00  0.00     0.000 C 
BRANCH   4   5
ATOM      5  C   UNL     1       0.370 -30.643 -51.888  1.00  0.00     0.000 C 
BRANCH   5   6
ATOM      6  C   UNL     1      -0.430 -29.476 -51.283  1.00  0.00     0.000 C 
BRANCH   6   7
ATOM      7  C   UNL     1      -1.432 -28.865 -52.277  1.00  0.00     0.000 C 
BRANCH   7   8
ATOM      8  C   UNL     1      -1.260 -27.344 -52.427  1.00  0.00     0.000 C 
BRANCH   8   9
ATOM      9  C   UNL     1      -1.393 -26.868 -53.886  1.00  0.00     0.000 C 
BRANCH   9  10
ATOM     10  C   UNL     1      -0.123 -27.021 -54.743  1.00  0.00     0.000 C 
BRANCH  10  11
ATOM     11  C   UNL     1       1.171 -26.880 -53.928  1.00  0.00     0.000 C 
BRANCH  11  12
ATOM     12  C   UNL     1       1.790 -25.487 -54.114  1.00  0.00     0.006 C 
BRANCH  12  13
ATOM     13  C   UNL     1       1.708 -24.640 -52.838  1.00  0.00     0.053 C 
BRANCH  13  14
ATOM     14  C   UNL     1       0.432 -23.857 -52.774  1.00  0.00     0.041 C 
ATOM     15  O   UNL     1      -0.356 -24.009 -51.804  1.00  0.00    -0.550 OA
ATOM     16  O   UNL     1       0.096 -22.989 -53.805  1.00  0.00    -0.550 OA
ENDBRANCH  13  14
ENDBRANCH  12  13
ENDBRANCH  11  12
ENDBRANCH  10  11
ENDBRANCH   9  10
ENDBRANCH   8   9
ENDBRANCH   7   8
ENDBRANCH   6   7
ENDBRANCH   5   6
ENDBRANCH   4   5
ENDBRANCH   3   4
ENDBRANCH   2   3
ENDBRANCH   1   2
BRANCH   1  17
ATOM     17  C   UNL     1      -2.482 -33.067 -50.995  1.00  0.00     0.000 C 
BRANCH  17  18
ATOM     18  C   UNL     1      -3.499 -31.929 -51.217  1.00  0.00     0.000 C 
BRANCH  18  19
ATOM     19  C   UNL     1      -4.946 -32.385 -51.495  1.00  0.00     0.000 C 
BRANCH  19  20
ATOM     20  C   UNL     1      -5.536 -31.881 -52.824  1.00  0.00     0.000 C 
BRANCH  20  21
ATOM     21  C   UNL     1      -4.556 -30.992 -53.608  1.00  0.00     0.000 C 
BRANCH  21  22
ATOM     22  C   UNL     1      -5.251 -29.802 -54.291  1.00  0.00    -0.000 C 
BRANCH  22  23
ATOM     23  C   UNL     1      -4.788 -28.414 -53.802  1.00  0.00    -0.000 C 
BRANCH  23  24
ATOM     24  C   UNL     1      -5.632 -27.803 -52.665  1.00  0.00    -0.000 C 
BRANCH  24  25
ATOM     25  C   UNL     1      -5.244 -28.256 -51.246  1.00  0.00    -0.000 C 
BRANCH  25  26
ATOM     26  C   UNL     1      -6.432 -28.840 -50.463  1.00  0.00    -0.000 C 
BRANCH  26  27
ATOM     27  C   UNL     1      -6.040 -29.316 -49.054  1.00  0.00    -0.000 C 
BRANCH  27  28
ATOM     28  C   UNL     1      -6.420 -30.773 -48.725  1.00  0.00    -0.000 C 
BRANCH  28  29
ATOM     29  C   UNL     1      -7.848 -31.161 -49.165  1.00  0.00    -0.003 C 
ATOM     30  C   UNL     1      -8.924 -30.556 -48.261  1.00  0.00     0.004 C 
ENDBRANCH  28  29
ENDBRANCH  27  28
ENDBRANCH  26  27
ENDBRANCH  25  26
ENDBRANCH  24  25
ENDBRANCH  23  24
ENDBRANCH  22  23
ENDBRANCH  21  22
ENDBRANCH  20  21
ENDBRANCH  19  20
ENDBRANCH  18  19
ENDBRANCH  17  18
ENDBRANCH   1  17
TORSDOF 26
ENDMDL
MODEL 5
REMARK VINA RESULT:    -5.694      2.249      6.357
REMARK INTER + INTRA:         -17.838
REMARK INTER:                 -13.995
REMARK INTRA:                  -3.843
REMARK UNBOUND:                -3.489
REMARK SMILES CCCCCCCCCCCCCCCCCCCCCCCCCCCC(=O)[O-]
REMARK SMILES IDX 15 1 16 2 17 3 18 4 19 5 20 6 21 7 22 8 23 9 24 10 25 11
REMARK SMILES IDX 26 12 27 13 28 14 29 15 30 16 14 17 13 18 12 19 11 20 10 21
REMARK SMILES IDX 9 22 8 23 7 24 6 25 5 26 4 27 3 28 2 29 1 30
REMARK H PARENT
REMARK Flexibility Score: inf
ROOT
ATOM      1  C   UNL     1      -4.887 -31.782 -52.455  1.00  0.00     0.000 C 
ENDROOT
BRANCH   1   2
ATOM      2  C   UNL     1      -3.589 -31.855 -51.632  1.00  0.00     0.000 C 
BRANCH   2   3
ATOM      3  C   UNL     1      -3.004 -33.273 -51.571  1.00  0.00     0.000 C 
BRANCH   3   4
ATOM      4  C   UNL     1      -1.497 -33.301 -51.886  1.00  0.00     0.000 C 
BRANCH   4   5
ATOM      5  C   UNL     1      -1.144 -32.512 -53.157  1.00  0.00     0.000 C 
BRANCH   5   6
ATOM      6  C   UNL     1      -0.093 -31.419 -52.897  1.00  0.00     0.000 C 
BRANCH   6   7
ATOM      7  C   UNL     1      -0.079 -30.946 -51.433  1.00  0.00     0.000 C 
BRANCH   7   8
ATOM      8  C   UNL     1      -0.350 -29.438 -51.298  1.00  0.00     0.000 C 
BRANCH   8   9
ATOM      9  C   UNL     1      -1.499 -28.953 -52.201  1.00  0.00     0.000 C 
BRANCH   9  10
ATOM     10  C   UNL     1      -1.184 -27.705 -53.047  1.00  0.00     0.000 C 
BRANCH  10  11
ATOM     11  C   UNL     1       0.201 -27.763 -53.708  1.00  0.00     0.000 C 
BRANCH  11  12
ATOM     12  C   UNL     1       0.824 -26.362 -53.805  1.00  0.00     0.006 C 
BRANCH  12  13
ATOM     13  C   UNL     1      -0.061 -25.286 -53.163  1.00  0.00     0.053 C 
BRANCH  13  14
ATOM     14  C   UNL     1       0.657 -24.559 -52.067  1.00  0.00     0.041 C 
ATOM     15  O   UNL     1       0.008 -24.022 -51.132  1.00  0.00    -0.550 OA
ATOM     16  O   UNL     1       2.041 -24.442 -52.101  1.00  0.00    -0.550 OA
ENDBRANCH  13  14
ENDBRANCH  12  13
ENDBRANCH  11  12
ENDBRANCH  10  11
ENDBRANCH   9  10
ENDBRANCH   8   9
ENDBRANCH   7   8
ENDBRANCH   6   7
ENDBRANCH   5   6
ENDBRANCH   4   5
ENDBRANCH   3   4
ENDBRANCH   2   3
ENDBRANCH   1   2
BRANCH   1  17
ATOM     17  C   UNL     1      -6.145 -32.015 -51.599  1.00  0.00     0.000 C 
BRANCH  17  18
ATOM     18  C   UNL     1      -6.036 -31.530 -50.139  1.00  0.00     0.000 C 
BRANCH  18  19
ATOM     19  C   UNL     1      -7.380 -31.325 -49.412  1.00  0.00     0.000 C 
BRANCH  19  20
ATOM     20  C   UNL     1      -7.540 -29.956 -48.727  1.00  0.00     0.000 C 
BRANCH  20  21
ATOM     21  C   UNL     1      -6.286 -29.076 -48.864  1.00  0.00     0.000 C 
BRANCH  21  22
ATOM     22  C   UNL     1      -6.612 -27.649 -49.337  1.00  0.00    -0.000 C 
BRANCH  22  23
ATOM     23  C   UNL     1      -6.271 -27.364 -50.814  1.00  0.00    -0.000 C 
BRANCH  23  24
ATOM     24  C   UNL     1      -5.167 -28.256 -51.417  1.00  0.00    -0.000 C 
BRANCH  24  25
ATOM     25  C   UNL     1      -5.003 -28.151 -52.944  1.00  0.00    -0.000 C 
BRANCH  25  26
ATOM     26  C   UNL     1      -6.090 -27.283 -53.601  1.00  0.00    -0.000 C 
BRANCH  26  27
ATOM     27  C   UNL     1      -5.651 -26.705 -54.957  1.00  0.00    -0.000 C 
BRANCH  27  28
ATOM     28  C   UNL     1      -5.883 -25.191 -55.130  1.00  0.00    -0.000 C 
BRANCH  28  29
ATOM     29  C   UNL     1      -4.592 -24.349 -55.055  1.00  0.00    -0.003 C 
ATOM     30  C   UNL     1      -3.380 -25.172 -54.615  1.00  0.00     0.004 C 
ENDBRANCH  28  29
ENDBRANCH  27  28
ENDBRANCH  26  27
ENDBRANCH  25  26
ENDBRANCH  24  25
ENDBRANCH  23  24
ENDBRANCH  22  23
ENDBRANCH  21  22
ENDBRANCH  20  21
ENDBRANCH  19  20
ENDBRANCH  18  19
ENDBRANCH  17  18
ENDBRANCH   1  17
TORSDOF 26
ENDMDL
MODEL 6
REMARK VINA RESULT:    -5.658      2.637      6.825
REMARK INTER + INTRA:         -17.746
REMARK INTER:                 -13.765
REMARK INTRA:                  -3.981
REMARK UNBOUND:                -3.489
REMARK SMILES CCCCCCCCCCCCCCCCCCCCCCCCCCCC(=O)[O-]
REMARK SMILES IDX 15 1 16 2 17 3 18 4 19 5 20 6 21 7 22 8 23 9 24 10 25 11
REMARK SMILES IDX 26 12 27 13 28 14 29 15 30 16 14 17 13 18 12 19 11 20 10 21
REMARK SMILES IDX 9 22 8 23 7 24 6 25 5 26 4 27 3 28 2 29 1 30
REMARK H PARENT
REMARK Flexibility Score: inf
ROOT
ATOM      1  C   UNL     1      -1.356 -27.718 -53.053  1.00  0.00     0.000 C 
ENDROOT
BRANCH   1   2
ATOM      2  C   UNL     1      -1.400 -29.210 -52.684  1.00  0.00     0.000 C 
BRANCH   2   3
ATOM      3  C   UNL     1      -0.600 -29.531 -51.413  1.00  0.00     0.000 C 
BRANCH   3   4
ATOM      4  C   UNL     1       0.203 -30.839 -51.539  1.00  0.00     0.000 C 
BRANCH   4   5
ATOM      5  C   UNL     1       0.037 -31.504 -52.916  1.00  0.00     0.000 C 
BRANCH   5   6
ATOM      6  C   UNL     1      -0.252 -33.011 -52.808  1.00  0.00     0.000 C 
BRANCH   6   7
ATOM      7  C   UNL     1      -1.751 -33.336 -52.907  1.00  0.00     0.000 C 
BRANCH   7   8
ATOM      8  C   UNL     1      -2.342 -33.813 -51.569  1.00  0.00     0.000 C 
BRANCH   8   9
ATOM      9  C   UNL     1      -3.169 -32.726 -50.859  1.00  0.00     0.000 C 
BRANCH   9  10
ATOM     10  C   UNL     1      -3.952 -31.785 -51.793  1.00  0.00     0.000 C 
BRANCH  10  11
ATOM     11  C   UNL     1      -5.446 -32.131 -51.878  1.00  0.00     0.000 C 
BRANCH  11  12
ATOM     12  C   UNL     1      -6.172 -31.760 -50.577  1.00  0.00     0.006 C 
BRANCH  12  13
ATOM     13  C   UNL     1      -6.201 -30.245 -50.338  1.00  0.00     0.053 C 
BRANCH  13  14
ATOM     14  C   UNL     1      -7.128 -29.878 -49.219  1.00  0.00     0.041 C 
ATOM     15  O   UNL     1      -6.991 -28.782 -48.617  1.00  0.00    -0.550 OA
ATOM     16  O   UNL     1      -8.120 -30.765 -48.818  1.00  0.00    -0.550 OA
ENDBRANCH  13  14
ENDBRANCH  12  13
ENDBRANCH  11  12
ENDBRANCH  10  11
ENDBRANCH   9  10
ENDBRANCH   8   9
ENDBRANCH   7   8
ENDBRANCH   6   7
ENDBRANCH   5   6
ENDBRANCH   4   5
ENDBRANCH   3   4
ENDBRANCH   2   3
ENDBRANCH   1   2
BRANCH   1  17
ATOM     17  C   UNL     1       0.022 -27.278 -53.578  1.00  0.00     0.000 C 
BRANCH  17  18
ATOM     18  C   UNL     1       0.448 -25.852 -53.170  1.00  0.00     0.000 C 
BRANCH  18  19
ATOM     19  C   UNL     1      -0.039 -25.393 -51.780  1.00  0.00     0.000 C 
BRANCH  19  20
ATOM     20  C   UNL     1      -0.105 -23.867 -51.593  1.00  0.00     0.000 C 
BRANCH  20  21
ATOM     21  C   UNL     1      -0.371 -23.120 -52.911  1.00  0.00     0.000 C 
BRANCH  21  22
ATOM     22  C   UNL     1      -1.692 -22.331 -52.890  1.00  0.00    -0.000 C 
BRANCH  22  23
ATOM     23  C   UNL     1      -2.701 -22.730 -53.985  1.00  0.00    -0.000 C 
BRANCH  23  24
ATOM     24  C   UNL     1      -2.775 -24.240 -54.291  1.00  0.00    -0.000 C 
BRANCH  24  25
ATOM     25  C   UNL     1      -3.640 -24.619 -55.507  1.00  0.00    -0.000 C 
BRANCH  25  26
ATOM     26  C   UNL     1      -4.783 -25.582 -55.146  1.00  0.00    -0.000 C 
BRANCH  26  27
ATOM     27  C   UNL     1      -4.748 -26.024 -53.673  1.00  0.00    -0.000 C 
BRANCH  27  28
ATOM     28  C   UNL     1      -5.653 -27.221 -53.326  1.00  0.00    -0.000 C 
BRANCH  28  29
ATOM     29  C   UNL     1      -4.942 -28.588 -53.409  1.00  0.00    -0.003 C 
ATOM     30  C   UNL     1      -5.493 -29.469 -54.531  1.00  0.00     0.004 C 
ENDBRANCH  28  29
ENDBRANCH  27  28
ENDBRANCH  26  27
ENDBRANCH  25  26
ENDBRANCH  24  25
ENDBRANCH  23  24
ENDBRANCH  22  23
ENDBRANCH  21  22
ENDBRANCH  20  21
ENDBRANCH  19  20
ENDBRANCH  18  19
ENDBRANCH  17  18
ENDBRANCH   1  17
TORSDOF 26
ENDMDL
MODEL 7
REMARK VINA RESULT:    -5.651      1.118      2.092
REMARK INTER + INTRA:         -17.729
REMARK INTER:                 -14.053
REMARK INTRA:                  -3.676
REMARK UNBOUND:                -3.489
REMARK SMILES CCCCCCCCCCCCCCCCCCCCCCCCCCCC(=O)[O-]
REMARK SMILES IDX 15 1 16 2 17 3 18 4 19 5 20 6 21 7 22 8 23 9 24 10 25 11
REMARK SMILES IDX 26 12 27 13 28 14 29 15 30 16 14 17 13 18 12 19 11 20 10 21
REMARK SMILES IDX 9 22 8 23 7 24 6 25 5 26 4 27 3 28 2 29 1 30
REMARK H PARENT
REMARK Flexibility Score: inf
ROOT
ATOM      1  C   UNL     1      -1.963 -33.414 -51.358  1.00  0.00     0.000 C 
ENDROOT
BRANCH   1   2
ATOM      2  C   UNL     1      -3.422 -33.142 -50.956  1.00  0.00     0.000 C 
BRANCH   2   3
ATOM      3  C   UNL     1      -4.201 -32.374 -52.034  1.00  0.00     0.000 C 
BRANCH   3   4
ATOM      4  C   UNL     1      -5.665 -32.118 -51.631  1.00  0.00     0.000 C 
BRANCH   4   5
ATOM      5  C   UNL     1      -5.805 -31.660 -50.170  1.00  0.00     0.000 C 
BRANCH   5   6
ATOM      6  C   UNL     1      -7.265 -31.364 -49.785  1.00  0.00     0.000 C 
BRANCH   6   7
ATOM      7  C   UNL     1      -7.430 -30.002 -49.091  1.00  0.00     0.000 C 
BRANCH   7   8
ATOM      8  C   UNL     1      -6.152 -29.147 -49.157  1.00  0.00     0.000 C 
BRANCH   8   9
ATOM      9  C   UNL     1      -6.383 -27.777 -49.821  1.00  0.00     0.000 C 
BRANCH   9  10
ATOM     10  C   UNL     1      -5.900 -27.667 -51.279  1.00  0.00     0.000 C 
BRANCH  10  11
ATOM     11  C   UNL     1      -4.703 -28.578 -51.585  1.00  0.00     0.000 C 
BRANCH  11  12
ATOM     12  C   UNL     1      -4.564 -28.817 -53.096  1.00  0.00     0.006 C 
BRANCH  12  13
ATOM     13  C   UNL     1      -4.340 -27.514 -53.873  1.00  0.00     0.053 C 
BRANCH  13  14
ATOM     14  C   UNL     1      -5.405 -27.295 -54.905  1.00  0.00     0.041 C 
ATOM     15  O   UNL     1      -6.378 -28.088 -54.989  1.00  0.00    -0.550 OA
ATOM     16  O   UNL     1      -5.299 -26.236 -55.799  1.00  0.00    -0.550 OA
ENDBRANCH  13  14
ENDBRANCH  12  13
ENDBRANCH  11  12
ENDBRANCH  10  11
ENDBRANCH   9  10
ENDBRANCH   8   9
ENDBRANCH   7   8
ENDBRANCH   6   7
ENDBRANCH   5   6
ENDBRANCH   4   5
ENDBRANCH   3   4
ENDBRANCH   2   3
ENDBRANCH   1   2
BRANCH   1  17
ATOM     17  C   UNL     1      -1.688 -33.101 -52.840  1.00  0.00     0.000 C 
BRANCH  17  18
ATOM     18  C   UNL     1      -0.574 -32.062 -53.088  1.00  0.00     0.000 C 
BRANCH  18  19
ATOM     19  C   UNL     1      -1.028 -30.589 -53.047  1.00  0.00     0.000 C 
BRANCH  19  20
ATOM     20  C   UNL     1      -1.156 -29.994 -51.634  1.00  0.00     0.000 C 
BRANCH  20  21
ATOM     21  C   UNL     1      -0.444 -28.638 -51.495  1.00  0.00     0.000 C 
BRANCH  21  22
ATOM     22  C   UNL     1      -0.205 -27.952 -52.851  1.00  0.00    -0.000 C 
BRANCH  22  23
ATOM     23  C   UNL     1      -1.202 -26.825 -53.190  1.00  0.00    -0.000 C 
BRANCH  23  24
ATOM     24  C   UNL     1      -0.601 -25.621 -53.943  1.00  0.00    -0.000 C 
BRANCH  24  25
ATOM     25  C   UNL     1      -1.140 -24.245 -53.512  1.00  0.00    -0.000 C 
BRANCH  25  26
ATOM     26  C   UNL     1      -0.445 -23.702 -52.252  1.00  0.00    -0.000 C 
BRANCH  26  27
ATOM     27  C   UNL     1       0.992 -23.224 -52.523  1.00  0.00    -0.000 C 
BRANCH  27  28
ATOM     28  C   UNL     1       2.102 -24.153 -51.997  1.00  0.00    -0.000 C 
BRANCH  28  29
ATOM     29  C   UNL     1       3.303 -24.298 -52.956  1.00  0.00    -0.003 C 
ATOM     30  C   UNL     1       3.136 -25.464 -53.932  1.00  0.00     0.004 C 
ENDBRANCH  28  29
ENDBRANCH  27  28
ENDBRANCH  26  27
ENDBRANCH  25  26
ENDBRANCH  24  25
ENDBRANCH  23  24
ENDBRANCH  22  23
ENDBRANCH  21  22
ENDBRANCH  20  21
ENDBRANCH  19  20
ENDBRANCH  18  19
ENDBRANCH  17  18
ENDBRANCH   1  17
TORSDOF 26
ENDMDL
MODEL 8
REMARK VINA RESULT:    -5.636      2.853      5.990
REMARK INTER + INTRA:         -17.692
REMARK INTER:                 -13.420
REMARK INTRA:                  -4.272
REMARK UNBOUND:                -3.489
REMARK SMILES CCCCCCCCCCCCCCCCCCCCCCCCCCCC(=O)[O-]
REMARK SMILES IDX 15 1 16 2 17 3 18 4 19 5 20 6 21 7 22 8 23 9 24 10 25 11
REMARK SMILES IDX 26 12 27 13 28 14 29 15 30 16 14 17 13 18 12 19 11 20 10 21
REMARK SMILES IDX 9 22 8 23 7 24 6 25 5 26 4 27 3 28 2 29 1 30
REMARK H PARENT
REMARK Flexibility Score: inf
ROOT
ATOM      1  C   UNL     1      -7.031 -31.244 -49.224  1.00  0.00     0.000 C 
ENDROOT
BRANCH   1   2
ATOM      2  C   UNL     1      -5.761 -31.484 -50.057  1.00  0.00     0.000 C 
BRANCH   2   3
ATOM      3  C   UNL     1      -6.064 -32.041 -51.455  1.00  0.00     0.000 C 
BRANCH   3   4
ATOM      4  C   UNL     1      -5.205 -31.382 -52.550  1.00  0.00     0.000 C 
BRANCH   4   5
ATOM      5  C   UNL     1      -4.151 -30.421 -51.976  1.00  0.00     0.000 C 
BRANCH   5   6
ATOM      6  C   UNL     1      -3.236 -29.836 -53.065  1.00  0.00     0.000 C 
BRANCH   6   7
ATOM      7  C   UNL     1      -2.400 -28.647 -52.561  1.00  0.00     0.000 C 
BRANCH   7   8
ATOM      8  C   UNL     1      -1.082 -29.089 -51.902  1.00  0.00     0.000 C 
BRANCH   8   9
ATOM      9  C   UNL     1       0.050 -29.314 -52.921  1.00  0.00     0.000 C 
BRANCH   9  10
ATOM     10  C   UNL     1       0.608 -30.748 -52.973  1.00  0.00     0.000 C 
BRANCH  10  11
ATOM     11  C   UNL     1      -0.315 -31.724 -53.716  1.00  0.00     0.000 C 
BRANCH  11  12
ATOM     12  C   UNL     1      -0.382 -33.078 -52.994  1.00  0.00     0.006 C 
BRANCH  12  13
ATOM     13  C   UNL     1      -1.824 -33.504 -52.691  1.00  0.00     0.053 C 
BRANCH  13  14
ATOM     14  C   UNL     1      -2.163 -33.320 -51.242  1.00  0.00     0.041 C 
ATOM     15  O   UNL     1      -3.134 -33.941 -50.735  1.00  0.00    -0.550 OA
ATOM     16  O   UNL     1      -1.430 -32.433 -50.464  1.00  0.00    -0.550 OA
ENDBRANCH  13  14
ENDBRANCH  12  13
ENDBRANCH  11  12
ENDBRANCH  10  11
ENDBRANCH   9  10
ENDBRANCH   8   9
ENDBRANCH   7   8
ENDBRANCH   6   7
ENDBRANCH   5   6
ENDBRANCH   4   5
ENDBRANCH   3   4
ENDBRANCH   2   3
ENDBRANCH   1   2
BRANCH   1  17
ATOM     17  C   UNL     1      -7.479 -29.772 -49.236  1.00  0.00     0.000 C 
BRANCH  17  18
ATOM     18  C   UNL     1      -6.399 -28.761 -48.800  1.00  0.00     0.000 C 
BRANCH  18  19
ATOM     19  C   UNL     1      -6.041 -27.688 -49.848  1.00  0.00     0.000 C 
BRANCH  19  20
ATOM     20  C   UNL     1      -6.442 -28.038 -51.292  1.00  0.00     0.000 C 
BRANCH  20  21
ATOM     21  C   UNL     1      -6.028 -26.955 -52.301  1.00  0.00     0.000 C 
BRANCH  21  22
ATOM     22  C   UNL     1      -6.001 -27.472 -53.750  1.00  0.00    -0.000 C 
BRANCH  22  23
ATOM     23  C   UNL     1      -5.854 -26.377 -54.825  1.00  0.00    -0.000 C 
BRANCH  23  24
ATOM     24  C   UNL     1      -5.069 -25.125 -54.385  1.00  0.00    -0.000 C 
BRANCH  24  25
ATOM     25  C   UNL     1      -3.600 -25.080 -54.842  1.00  0.00    -0.000 C 
BRANCH  25  26
ATOM     26  C   UNL     1      -2.738 -24.140 -53.983  1.00  0.00    -0.000 C 
BRANCH  26  27
ATOM     27  C   UNL     1      -1.234 -24.270 -54.282  1.00  0.00    -0.000 C 
BRANCH  27  28
ATOM     28  C   UNL     1      -0.623 -25.652 -53.981  1.00  0.00    -0.000 C 
BRANCH  28  29
ATOM     29  C   UNL     1       0.405 -25.644 -52.831  1.00  0.00    -0.003 C 
ATOM     30  C   UNL     1       0.005 -24.703 -51.694  1.00  0.00     0.004 C 
ENDBRANCH  28  29
ENDBRANCH  27  28
ENDBRANCH  26  27
ENDBRANCH  25  26
ENDBRANCH  24  25
ENDBRANCH  23  24
ENDBRANCH  22  23
ENDBRANCH  21  22
ENDBRANCH  20  21
ENDBRANCH  19  20
ENDBRANCH  18  19
ENDBRANCH  17  18
ENDBRANCH   1  17
TORSDOF 26
ENDMDL
MODEL 9
REMARK VINA RESULT:    -5.620      2.098      5.527
REMARK INTER + INTRA:         -17.651
REMARK INTER:                 -14.278
REMARK INTRA:                  -3.373
REMARK UNBOUND:                -3.489
REMARK SMILES CCCCCCCCCCCCCCCCCCCCCCCCCCCC(=O)[O-]
REMARK SMILES IDX 15 1 16 2 17 3 18 4 19 5 20 6 21 7 22 8 23 9 24 10 25 11
REMARK SMILES IDX 26 12 27 13 28 14 29 15 30 16 14 17 13 18 12 19 11 20 10 21
REMARK SMILES IDX 9 22 8 23 7 24 6 25 5 26 4 27 3 28 2 29 1 30
REMARK H PARENT
REMARK Flexibility Score: inf
ROOT
ATOM      1  C   UNL     1      -0.387 -29.144 -51.268  1.00  0.00     0.000 C 
ENDROOT
BRANCH   1   2
ATOM      2  C   UNL     1      -0.419 -30.681 -51.238  1.00  0.00     0.000 C 
BRANCH   2   3
ATOM      3  C   UNL     1       0.646 -31.315 -52.145  1.00  0.00     0.000 C 
BRANCH   3   4
ATOM      4  C   UNL     1       0.142 -32.596 -52.836  1.00  0.00     0.000 C 
BRANCH   4   5
ATOM      5  C   UNL     1      -1.385 -32.612 -53.010  1.00  0.00     0.000 C 
BRANCH   5   6
ATOM      6  C   UNL     1      -2.044 -33.806 -52.297  1.00  0.00     0.000 C 
BRANCH   6   7
ATOM      7  C   UNL     1      -3.037 -33.371 -51.207  1.00  0.00     0.000 C 
BRANCH   7   8
ATOM      8  C   UNL     1      -3.857 -32.135 -51.614  1.00  0.00     0.000 C 
BRANCH   8   9
ATOM      9  C   UNL     1      -5.359 -32.287 -51.313  1.00  0.00     0.000 C 
BRANCH   9  10
ATOM     10  C   UNL     1      -6.081 -30.988 -50.911  1.00  0.00     0.000 C 
BRANCH  10  11
ATOM     11  C   UNL     1      -7.163 -31.209 -49.844  1.00  0.00     0.000 C 
BRANCH  11  12
ATOM     12  C   UNL     1      -7.284 -29.987 -48.921  1.00  0.00     0.006 C 
BRANCH  12  13
ATOM     13  C   UNL     1      -6.098 -29.026 -49.070  1.00  0.00     0.053 C 
BRANCH  13  14
ATOM     14  C   UNL     1      -6.553 -27.610 -49.259  1.00  0.00     0.041 C 
ATOM     15  O   UNL     1      -6.708 -27.143 -50.417  1.00  0.00    -0.550 OA
ATOM     16  O   UNL     1      -6.769 -26.796 -48.153  1.00  0.00    -0.550 OA
ENDBRANCH  13  14
ENDBRANCH  12  13
ENDBRANCH  11  12
ENDBRANCH  10  11
ENDBRANCH   9  10
ENDBRANCH   8   9
ENDBRANCH   7   8
ENDBRANCH   6   7
ENDBRANCH   5   6
ENDBRANCH   4   5
ENDBRANCH   3   4
ENDBRANCH   2   3
ENDBRANCH   1   2
BRANCH   1  17
ATOM     17  C   UNL     1      -1.088 -28.561 -52.508  1.00  0.00     0.000 C 
BRANCH  17  18
ATOM     18  C   UNL     1      -2.514 -29.094 -52.758  1.00  0.00     0.000 C 
BRANCH  18  19
ATOM     19  C   UNL     1      -3.575 -28.018 -53.064  1.00  0.00     0.000 C 
BRANCH  19  20
ATOM     20  C   UNL     1      -5.011 -28.552 -53.211  1.00  0.00     0.000 C 
BRANCH  20  21
ATOM     21  C   UNL     1      -5.574 -28.354 -54.628  1.00  0.00     0.000 C 
BRANCH  21  22
ATOM     22  C   UNL     1      -6.483 -27.117 -54.737  1.00  0.00    -0.000 C 
BRANCH  22  23
ATOM     23  C   UNL     1      -5.761 -25.766 -54.561  1.00  0.00    -0.000 C 
BRANCH  23  24
ATOM     24  C   UNL     1      -4.623 -25.494 -55.566  1.00  0.00    -0.000 C 
BRANCH  24  25
ATOM     25  C   UNL     1      -3.866 -24.170 -55.355  1.00  0.00    -0.000 C 
BRANCH  25  26
ATOM     26  C   UNL     1      -2.796 -24.266 -54.255  1.00  0.00    -0.000 C 
BRANCH  26  27
ATOM     27  C   UNL     1      -1.609 -25.159 -54.654  1.00  0.00    -0.000 C 
BRANCH  27  28
ATOM     28  C   UNL     1      -0.226 -24.651 -54.204  1.00  0.00    -0.000 C 
BRANCH  28  29
ATOM     29  C   UNL     1       0.371 -25.434 -53.015  1.00  0.00    -0.003 C 
ATOM     30  C   UNL     1      -0.026 -24.840 -51.663  1.00  0.00     0.004 C 
ENDBRANCH  28  29
ENDBRANCH  27  28
ENDBRANCH  26  27
ENDBRANCH  25  26
ENDBRANCH  24  25
ENDBRANCH  23  24
ENDBRANCH  22  23
ENDBRANCH  21  22
ENDBRANCH  20  21
ENDBRANCH  19  20
ENDBRANCH  18  19
ENDBRANCH  17  18
ENDBRANCH   1  17
TORSDOF 26
ENDMDL
