MODEL 1
REMARK VINA RESULT:    -5.384      0.000      0.000
REMARK INTER + INTRA:          -7.776
REMARK INTER:                  -7.273
REMARK INTRA:                  -0.503
REMARK UNBOUND:                -0.503
REMARK SMILES COc1ccc(-c2cc(=O)c3c(OC)c(OC)c(OC)c(OC)c3o2)cc1
REMARK SMILES IDX 7 1 8 2 9 3 10 4 11 5 24 6 25 7 21 8 18 9 15 10 12 11 6 12
REMARK SMILES IDX 3 13 4 14 27 15 5 16 26 17 2 18 1 19 22 20 23 21 13 22 14 23
REMARK SMILES IDX 19 24 20 25 16 26 17 27
REMARK H PARENT
REMARK Flexibility Score: inf
ROOT
ATOM      1  C   UNL     1      15.163  49.645  31.604  1.00  0.00     0.138 A 
ATOM      2  C   UNL     1      16.218  49.392  30.723  1.00  0.00     0.100 A 
ATOM      3  C   UNL     1      16.383  48.110  30.203  1.00  0.00     0.197 A 
ATOM      4  O   UNL     1      17.341  47.904  29.411  1.00  0.00    -0.289 OA
ATOM      5  C   UNL     1      15.480  47.081  30.566  1.00  0.00     0.115 A 
ATOM      6  C   UNL     1      14.413  47.423  31.432  1.00  0.00     0.188 A 
ATOM      7  O   UNL     1      14.312  48.667  31.899  1.00  0.00    -0.452 OA
ATOM      8  C   UNL     1      13.470  46.448  31.818  1.00  0.00     0.209 A 
ATOM      9  C   UNL     1      13.583  45.135  31.323  1.00  0.00     0.211 A 
ATOM     10  C   UNL     1      14.665  44.770  30.482  1.00  0.00     0.208 A 
ATOM     11  C   UNL     1      15.624  45.748  30.108  1.00  0.00     0.179 A 
ENDROOT
BRANCH   1  12
ATOM     12  C   UNL     1      14.967  50.981  32.222  1.00  0.00     0.018 A 
ATOM     13  C   UNL     1      14.666  53.543  33.374  1.00  0.00     0.118 A 
ATOM     14  C   UNL     1      15.736  52.721  33.743  1.00  0.00     0.047 A 
ATOM     15  C   UNL     1      13.747  53.081  32.414  1.00  0.00     0.047 A 
ATOM     16  C   UNL     1      15.886  51.452  33.175  1.00  0.00     0.016 A 
ATOM     17  C   UNL     1      13.899  51.815  31.839  1.00  0.00     0.016 A 
BRANCH  13  18
ATOM     18  O   UNL     1      14.555  54.805  33.976  1.00  0.00    -0.497 OA
ATOM     19  C   UNL     1      15.015  56.017  33.388  1.00  0.00     0.278 C 
ENDBRANCH  13  18
ENDBRANCH   1  12
BRANCH   8  20
ATOM     20  O   UNL     1      12.425  46.709  32.725  1.00  0.00    -0.490 OA
ATOM     21  C   UNL     1      11.076  47.035  32.410  1.00  0.00     0.278 C 
ENDBRANCH   8  20
BRANCH  11  22
ATOM     22  O   UNL     1      16.732  45.452  29.284  1.00  0.00    -0.492 OA
ATOM     23  C   UNL     1      16.733  45.157  27.888  1.00  0.00     0.278 C 
ENDBRANCH  11  22
BRANCH   9  24
ATOM     24  O   UNL     1      12.639  44.165  31.692  1.00  0.00    -0.490 OA
ATOM     25  C   UNL     1      12.777  43.314  32.831  1.00  0.00     0.279 C 
ENDBRANCH   9  24
BRANCH  10  26
ATOM     26  O   UNL     1      14.824  43.458  29.991  1.00  0.00    -0.490 OA
ATOM     27  C   UNL     1      14.107  42.834  28.932  1.00  0.00     0.278 C 
ENDBRANCH  10  26
TORSDOF 6
ENDMDL
MODEL 2
REMARK VINA RESULT:    -5.243      2.494      6.364
REMARK INTER + INTRA:          -7.585
REMARK INTER:                  -6.946
REMARK INTRA:                  -0.639
REMARK UNBOUND:                -0.503
REMARK SMILES COc1ccc(-c2cc(=O)c3c(OC)c(OC)c(OC)c(OC)c3o2)cc1
REMARK SMILES IDX 7 1 8 2 9 3 10 4 11 5 24 6 25 7 21 8 18 9 15 10 12 11 6 12
REMARK SMILES IDX 3 13 4 14 27 15 5 16 26 17 2 18 1 19 22 20 23 21 13 22 14 23
REMARK SMILES IDX 19 24 20 25 16 26 17 27
REMARK H PARENT
REMARK Flexibility Score: inf
ROOT
ATOM      1  C   UNL     1      14.165  46.723  31.397  1.00  0.00     0.138 A 
ATOM      2  C   UNL     1      14.961  45.756  30.777  1.00  0.00     0.100 A 
ATOM      3  C   UNL     1      15.796  46.129  29.727  1.00  0.00     0.197 A 
ATOM      4  O   UNL     1      16.505  45.241  29.180  1.00  0.00    -0.289 OA
ATOM      5  C   UNL     1      15.836  47.480  29.303  1.00  0.00     0.115 A 
ATOM      6  C   UNL     1      15.030  48.409  30.006  1.00  0.00     0.188 A 
ATOM      7  O   UNL     1      14.249  47.989  31.000  1.00  0.00    -0.452 OA
ATOM      8  C   UNL     1      15.037  49.773  29.644  1.00  0.00     0.209 A 
ATOM      9  C   UNL     1      15.863  50.210  28.592  1.00  0.00     0.211 A 
ATOM     10  C   UNL     1      16.649  49.287  27.858  1.00  0.00     0.208 A 
ATOM     11  C   UNL     1      16.629  47.911  28.211  1.00  0.00     0.179 A 
ENDROOT
BRANCH   1  12
ATOM     12  C   UNL     1      13.225  46.372  32.491  1.00  0.00     0.018 A 
ATOM     13  C   UNL     1      11.389  45.670  34.522  1.00  0.00     0.118 A 
ATOM     14  C   UNL     1      10.970  46.416  33.414  1.00  0.00     0.047 A 
ATOM     15  C   UNL     1      12.733  45.266  34.607  1.00  0.00     0.047 A 
ATOM     16  C   UNL     1      11.878  46.765  32.409  1.00  0.00     0.016 A 
ATOM     17  C   UNL     1      13.641  45.609  33.599  1.00  0.00     0.016 A 
BRANCH  13  18
ATOM     18  O   UNL     1      10.442  45.350  35.506  1.00  0.00    -0.497 OA
ATOM     19  C   UNL     1      10.619  45.592  36.897  1.00  0.00     0.278 C 
ENDBRANCH  13  18
ENDBRANCH   1  12
BRANCH   8  20
ATOM     20  O   UNL     1      14.212  50.733  30.262  1.00  0.00    -0.490 OA
ATOM     21  C   UNL     1      14.526  51.528  31.401  1.00  0.00     0.278 C 
ENDBRANCH   8  20
BRANCH  11  22
ATOM     22  O   UNL     1      17.376  46.935  27.516  1.00  0.00    -0.492 OA
ATOM     23  C   UNL     1      17.186  46.471  26.180  1.00  0.00     0.278 C 
ENDBRANCH  11  22
BRANCH   9  24
ATOM     24  O   UNL     1      15.884  51.568  28.239  1.00  0.00    -0.490 OA
ATOM     25  C   UNL     1      15.062  52.137  27.219  1.00  0.00     0.279 C 
ENDBRANCH   9  24
BRANCH  10  26
ATOM     26  O   UNL     1      17.466  49.686  26.780  1.00  0.00    -0.490 OA
ATOM     27  C   UNL     1      18.844  50.036  26.819  1.00  0.00     0.278 C 
ENDBRANCH  10  26
TORSDOF 6
ENDMDL
MODEL 3
REMARK VINA RESULT:    -5.184      2.449      3.842
REMARK INTER + INTRA:          -7.505
REMARK INTER:                  -6.795
REMARK INTRA:                  -0.710
REMARK UNBOUND:                -0.503
REMARK SMILES COc1ccc(-c2cc(=O)c3c(OC)c(OC)c(OC)c(OC)c3o2)cc1
REMARK SMILES IDX 7 1 8 2 9 3 10 4 11 5 24 6 25 7 21 8 18 9 15 10 12 11 6 12
REMARK SMILES IDX 3 13 4 14 27 15 5 16 26 17 2 18 1 19 22 20 23 21 13 22 14 23
REMARK SMILES IDX 19 24 20 25 16 26 17 27
REMARK H PARENT
REMARK Flexibility Score: inf
ROOT
ATOM      1  C   UNL     1      15.255  50.804  30.543  1.00  0.00     0.138 A 
ATOM      2  C   UNL     1      15.217  51.461  29.311  1.00  0.00     0.100 A 
ATOM      3  C   UNL     1      15.645  50.793  28.166  1.00  0.00     0.197 A 
ATOM      4  O   UNL     1      15.604  51.405  27.064  1.00  0.00    -0.289 OA
ATOM      5  C   UNL     1      16.107  49.457  28.259  1.00  0.00     0.115 A 
ATOM      6  C   UNL     1      16.078  48.845  29.536  1.00  0.00     0.188 A 
ATOM      7  O   UNL     1      15.661  49.539  30.595  1.00  0.00    -0.452 OA
ATOM      8  C   UNL     1      16.509  47.511  29.694  1.00  0.00     0.209 A 
ATOM      9  C   UNL     1      16.950  46.783  28.573  1.00  0.00     0.211 A 
ATOM     10  C   UNL     1      17.015  47.394  27.294  1.00  0.00     0.208 A 
ATOM     11  C   UNL     1      16.599  48.743  27.139  1.00  0.00     0.179 A 
ENDROOT
BRANCH   1  12
ATOM     12  C   UNL     1      14.853  51.482  31.801  1.00  0.00     0.018 A 
ATOM     13  C   UNL     1      14.161  52.800  34.203  1.00  0.00     0.118 A 
ATOM     14  C   UNL     1      15.196  51.859  34.183  1.00  0.00     0.047 A 
ATOM     15  C   UNL     1      13.476  53.090  33.009  1.00  0.00     0.047 A 
ATOM     16  C   UNL     1      15.539  51.205  32.996  1.00  0.00     0.016 A 
ATOM     17  C   UNL     1      13.822  52.441  31.818  1.00  0.00     0.016 A 
BRANCH  13  18
ATOM     18  O   UNL     1      13.851  53.425  35.420  1.00  0.00    -0.497 OA
ATOM     19  C   UNL     1      12.533  53.771  35.830  1.00  0.00     0.278 C 
ENDBRANCH  13  18
ENDBRANCH   1  12
BRANCH   8  20
ATOM     20  O   UNL     1      16.564  46.867  30.946  1.00  0.00    -0.490 OA
ATOM     21  C   UNL     1      15.504  46.185  31.607  1.00  0.00     0.278 C 
ENDBRANCH   8  20
BRANCH  11  22
ATOM     22  O   UNL     1      16.648  49.418  25.900  1.00  0.00    -0.492 OA
ATOM     23  C   UNL     1      17.804  49.818  25.165  1.00  0.00     0.278 C 
ENDBRANCH  11  22
BRANCH   9  24
ATOM     24  O   UNL     1      17.365  45.452  28.723  1.00  0.00    -0.490 OA
ATOM     25  C   UNL     1      16.514  44.325  28.506  1.00  0.00     0.279 C 
ENDBRANCH   9  24
BRANCH  10  26
ATOM     26  O   UNL     1      17.479  46.704  26.156  1.00  0.00    -0.490 OA
ATOM     27  C   UNL     1      16.702  46.013  25.185  1.00  0.00     0.278 C 
ENDBRANCH  10  26
TORSDOF 6
ENDMDL
MODEL 4
REMARK VINA RESULT:    -5.174      3.602     11.116
REMARK INTER + INTRA:          -7.492
REMARK INTER:                  -6.857
REMARK INTRA:                  -0.635
REMARK UNBOUND:                -0.503
REMARK SMILES COc1ccc(-c2cc(=O)c3c(OC)c(OC)c(OC)c(OC)c3o2)cc1
REMARK SMILES IDX 7 1 8 2 9 3 10 4 11 5 24 6 25 7 21 8 18 9 15 10 12 11 6 12
REMARK SMILES IDX 3 13 4 14 27 15 5 16 26 17 2 18 1 19 22 20 23 21 13 22 14 23
REMARK SMILES IDX 19 24 20 25 16 26 17 27
REMARK H PARENT
REMARK Flexibility Score: inf
ROOT
ATOM      1  C   UNL     1      14.930  55.022  32.305  1.00  0.00     0.138 A 
ATOM      2  C   UNL     1      16.091  55.710  31.941  1.00  0.00     0.100 A 
ATOM      3  C   UNL     1      16.086  57.103  31.931  1.00  0.00     0.197 A 
ATOM      4  O   UNL     1      17.144  57.703  31.599  1.00  0.00    -0.289 OA
ATOM      5  C   UNL     1      14.911  57.807  32.293  1.00  0.00     0.115 A 
ATOM      6  C   UNL     1      13.787  57.041  32.688  1.00  0.00     0.188 A 
ATOM      7  O   UNL     1      13.854  55.710  32.673  1.00  0.00    -0.452 OA
ATOM      8  C   UNL     1      12.592  57.682  33.077  1.00  0.00     0.209 A 
ATOM      9  C   UNL     1      12.528  59.088  33.089  1.00  0.00     0.211 A 
ATOM     10  C   UNL     1      13.635  59.867  32.665  1.00  0.00     0.208 A 
ATOM     11  C   UNL     1      14.831  59.221  32.256  1.00  0.00     0.179 A 
ENDROOT
BRANCH   1  12
ATOM     12  C   UNL     1      14.866  53.539  32.290  1.00  0.00     0.018 A 
ATOM     13  C   UNL     1      14.774  50.716  32.190  1.00  0.00     0.118 A 
ATOM     14  C   UNL     1      14.127  51.482  31.214  1.00  0.00     0.047 A 
ATOM     15  C   UNL     1      15.480  51.370  33.217  1.00  0.00     0.047 A 
ATOM     16  C   UNL     1      14.170  52.879  31.263  1.00  0.00     0.016 A 
ATOM     17  C   UNL     1      15.530  52.768  33.263  1.00  0.00     0.016 A 
BRANCH  13  18
ATOM     18  O   UNL     1      14.697  49.319  32.102  1.00  0.00    -0.497 OA
ATOM     19  C   UNL     1      14.910  48.579  30.905  1.00  0.00     0.278 C 
ENDBRANCH  13  18
ENDBRANCH   1  12
BRANCH   8  20
ATOM     20  O   UNL     1      11.422  56.977  33.419  1.00  0.00    -0.490 OA
ATOM     21  C   UNL     1      11.093  56.425  34.689  1.00  0.00     0.278 C 
ENDBRANCH   8  20
BRANCH  11  22
ATOM     22  O   UNL     1      15.967  59.932  31.811  1.00  0.00    -0.492 OA
ATOM     23  C   UNL     1      16.825  60.780  32.572  1.00  0.00     0.278 C 
ENDBRANCH  11  22
BRANCH   9  24
ATOM     24  O   UNL     1      11.346  59.730  33.490  1.00  0.00    -0.490 OA
ATOM     25  C   UNL     1      11.104  60.191  34.820  1.00  0.00     0.279 C 
ENDBRANCH   9  24
BRANCH  10  26
ATOM     26  O   UNL     1      13.595  61.276  32.638  1.00  0.00    -0.490 OA
ATOM     27  C   UNL     1      13.188  62.111  31.560  1.00  0.00     0.278 C 
ENDBRANCH  10  26
TORSDOF 6
ENDMDL
MODEL 5
REMARK VINA RESULT:    -5.130      1.641      3.947
REMARK INTER + INTRA:          -7.433
REMARK INTER:                  -6.773
REMARK INTRA:                  -0.660
REMARK UNBOUND:                -0.503
REMARK SMILES COc1ccc(-c2cc(=O)c3c(OC)c(OC)c(OC)c(OC)c3o2)cc1
REMARK SMILES IDX 7 1 8 2 9 3 10 4 11 5 24 6 25 7 21 8 18 9 15 10 12 11 6 12
REMARK SMILES IDX 3 13 4 14 27 15 5 16 26 17 2 18 1 19 22 20 23 21 13 22 14 23
REMARK SMILES IDX 19 24 20 25 16 26 17 27
REMARK H PARENT
REMARK Flexibility Score: inf
ROOT
ATOM      1  C   UNL     1      15.171  49.992  31.509  1.00  0.00     0.138 A 
ATOM      2  C   UNL     1      14.484  48.922  32.089  1.00  0.00     0.100 A 
ATOM      3  C   UNL     1      14.511  47.675  31.469  1.00  0.00     0.197 A 
ATOM      4  O   UNL     1      13.884  46.724  32.008  1.00  0.00    -0.289 OA
ATOM      5  C   UNL     1      15.235  47.502  30.264  1.00  0.00     0.115 A 
ATOM      6  C   UNL     1      15.938  48.623  29.758  1.00  0.00     0.188 A 
ATOM      7  O   UNL     1      15.870  49.791  30.397  1.00  0.00    -0.452 OA
ATOM      8  C   UNL     1      16.693  48.513  28.571  1.00  0.00     0.209 A 
ATOM      9  C   UNL     1      16.759  47.277  27.901  1.00  0.00     0.211 A 
ATOM     10  C   UNL     1      16.034  46.155  28.377  1.00  0.00     0.208 A 
ATOM     11  C   UNL     1      15.260  46.272  29.562  1.00  0.00     0.179 A 
ENDROOT
BRANCH   1  12
ATOM     12  C   UNL     1      15.140  51.352  32.104  1.00  0.00     0.018 A 
ATOM     13  C   UNL     1      15.159  53.944  33.230  1.00  0.00     0.118 A 
ATOM     14  C   UNL     1      15.913  52.915  33.805  1.00  0.00     0.047 A 
ATOM     15  C   UNL     1      14.398  53.673  32.079  1.00  0.00     0.047 A 
ATOM     16  C   UNL     1      15.904  51.632  33.250  1.00  0.00     0.016 A 
ATOM     17  C   UNL     1      14.393  52.391  31.518  1.00  0.00     0.016 A 
BRANCH  13  18
ATOM     18  O   UNL     1      15.196  55.212  33.828  1.00  0.00    -0.497 OA
ATOM     19  C   UNL     1      15.181  56.438  33.106  1.00  0.00     0.278 C 
ENDBRANCH  13  18
ENDBRANCH   1  12
BRANCH   8  20
ATOM     20  O   UNL     1      17.361  49.605  27.985  1.00  0.00    -0.490 OA
ATOM     21  C   UNL     1      16.790  50.625  27.174  1.00  0.00     0.278 C 
ENDBRANCH   8  20
BRANCH  11  22
ATOM     22  O   UNL     1      14.504  45.201  30.086  1.00  0.00    -0.492 OA
ATOM     23  C   UNL     1      13.344  44.589  29.524  1.00  0.00     0.278 C 
ENDBRANCH  11  22
BRANCH   9  24
ATOM     24  O   UNL     1      17.521  47.159  26.728  1.00  0.00    -0.490 OA
ATOM     25  C   UNL     1      16.980  47.285  25.413  1.00  0.00     0.279 C 
ENDBRANCH   9  24
BRANCH  10  26
ATOM     26  O   UNL     1      16.055  44.911  27.714  1.00  0.00    -0.490 OA
ATOM     27  C   UNL     1      16.984  43.849  27.894  1.00  0.00     0.278 C 
ENDBRANCH  10  26
TORSDOF 6
ENDMDL
MODEL 6
REMARK VINA RESULT:    -5.057      2.648      4.902
REMARK INTER + INTRA:          -7.333
REMARK INTER:                  -6.739
REMARK INTRA:                  -0.595
REMARK UNBOUND:                -0.503
REMARK SMILES COc1ccc(-c2cc(=O)c3c(OC)c(OC)c(OC)c(OC)c3o2)cc1
REMARK SMILES IDX 7 1 8 2 9 3 10 4 11 5 24 6 25 7 21 8 18 9 15 10 12 11 6 12
REMARK SMILES IDX 3 13 4 14 27 15 5 16 26 17 2 18 1 19 22 20 23 21 13 22 14 23
REMARK SMILES IDX 19 24 20 25 16 26 17 27
REMARK H PARENT
REMARK Flexibility Score: inf
ROOT
ATOM      1  C   UNL     1      15.193  50.090  31.046  1.00  0.00     0.138 A 
ATOM      2  C   UNL     1      15.014  48.726  31.292  1.00  0.00     0.100 A 
ATOM      3  C   UNL     1      15.430  47.799  30.340  1.00  0.00     0.197 A 
ATOM      4  O   UNL     1      15.259  46.573  30.581  1.00  0.00    -0.289 OA
ATOM      5  C   UNL     1      16.033  48.245  29.138  1.00  0.00     0.115 A 
ATOM      6  C   UNL     1      16.216  49.640  28.978  1.00  0.00     0.188 A 
ATOM      7  O   UNL     1      15.792  50.477  29.924  1.00  0.00    -0.452 OA
ATOM      8  C   UNL     1      16.825  50.148  27.811  1.00  0.00     0.209 A 
ATOM      9  C   UNL     1      17.269  49.259  26.813  1.00  0.00     0.211 A 
ATOM     10  C   UNL     1      17.062  47.862  26.945  1.00  0.00     0.208 A 
ATOM     11  C   UNL     1      16.433  47.353  28.112  1.00  0.00     0.179 A 
ENDROOT
BRANCH   1  12
ATOM     12  C   UNL     1      14.728  51.122  32.007  1.00  0.00     0.018 A 
ATOM     13  C   UNL     1      13.917  53.114  33.840  1.00  0.00     0.118 A 
ATOM     14  C   UNL     1      14.933  52.212  34.176  1.00  0.00     0.047 A 
ATOM     15  C   UNL     1      13.311  53.022  32.574  1.00  0.00     0.047 A 
ATOM     16  C   UNL     1      15.334  51.225  33.271  1.00  0.00     0.016 A 
ATOM     17  C   UNL     1      13.717  52.039  31.664  1.00  0.00     0.016 A 
BRANCH  13  18
ATOM     18  O   UNL     1      13.546  54.082  34.784  1.00  0.00    -0.497 OA
ATOM     19  C   UNL     1      12.647  53.846  35.862  1.00  0.00     0.278 C 
ENDBRANCH  13  18
ENDBRANCH   1  12
BRANCH   8  20
ATOM     20  O   UNL     1      16.978  51.526  27.564  1.00  0.00    -0.490 OA
ATOM     21  C   UNL     1      16.011  52.410  27.008  1.00  0.00     0.278 C 
ENDBRANCH   8  20
BRANCH  11  22
ATOM     22  O   UNL     1      16.184  45.976  28.304  1.00  0.00    -0.492 OA
ATOM     23  C   UNL     1      17.137  44.917  28.389  1.00  0.00     0.278 C 
ENDBRANCH  11  22
BRANCH   9  24
ATOM     24  O   UNL     1      17.889  49.759  25.658  1.00  0.00    -0.490 OA
ATOM     25  C   UNL     1      19.294  49.989  25.547  1.00  0.00     0.279 C 
ENDBRANCH   9  24
BRANCH  10  26
ATOM     26  O   UNL     1      17.468  46.947  25.953  1.00  0.00    -0.490 OA
ATOM     27  C   UNL     1      16.693  46.436  24.875  1.00  0.00     0.278 C 
ENDBRANCH  10  26
TORSDOF 6
ENDMDL
MODEL 7
REMARK VINA RESULT:    -4.912      2.387      8.542
REMARK INTER + INTRA:          -7.138
REMARK INTER:                  -6.486
REMARK INTRA:                  -0.652
REMARK UNBOUND:                -0.503
REMARK SMILES COc1ccc(-c2cc(=O)c3c(OC)c(OC)c(OC)c(OC)c3o2)cc1
REMARK SMILES IDX 7 1 8 2 9 3 10 4 11 5 24 6 25 7 21 8 18 9 15 10 12 11 6 12
REMARK SMILES IDX 3 13 4 14 27 15 5 16 26 17 2 18 1 19 22 20 23 21 13 22 14 23
REMARK SMILES IDX 19 24 20 25 16 26 17 27
REMARK H PARENT
REMARK Flexibility Score: inf
ROOT
ATOM      1  C   UNL     1      14.751  50.742  31.796  1.00  0.00     0.138 A 
ATOM      2  C   UNL     1      15.597  51.438  32.663  1.00  0.00     0.100 A 
ATOM      3  C   UNL     1      15.258  52.728  33.061  1.00  0.00     0.197 A 
ATOM      4  O   UNL     1      16.036  53.339  33.843  1.00  0.00    -0.289 OA
ATOM      5  C   UNL     1      14.060  53.320  32.590  1.00  0.00     0.115 A 
ATOM      6  C   UNL     1      13.234  52.537  31.745  1.00  0.00     0.188 A 
ATOM      7  O   UNL     1      13.617  51.309  31.397  1.00  0.00    -0.452 OA
ATOM      8  C   UNL     1      12.019  53.061  31.256  1.00  0.00     0.209 A 
ATOM      9  C   UNL     1      11.621  54.360  31.626  1.00  0.00     0.211 A 
ATOM     10  C   UNL     1      12.453  55.166  32.443  1.00  0.00     0.208 A 
ATOM     11  C   UNL     1      13.685  54.645  32.921  1.00  0.00     0.179 A 
ENDROOT
BRANCH   1  12
ATOM     12  C   UNL     1      15.086  49.382  31.305  1.00  0.00     0.018 A 
ATOM     13  C   UNL     1      15.794  46.797  30.406  1.00  0.00     0.118 A 
ATOM     14  C   UNL     1      16.603  47.899  30.106  1.00  0.00     0.047 A 
ATOM     15  C   UNL     1      14.628  46.992  31.169  1.00  0.00     0.047 A 
ATOM     16  C   UNL     1      16.254  49.178  30.549  1.00  0.00     0.016 A 
ATOM     17  C   UNL     1      14.281  48.270  31.618  1.00  0.00     0.016 A 
BRANCH  13  18
ATOM     18  O   UNL     1      16.184  45.535  29.934  1.00  0.00    -0.497 OA
ATOM     19  C   UNL     1      16.960  45.324  28.761  1.00  0.00     0.278 C 
ENDBRANCH  13  18
ENDBRANCH   1  12
BRANCH   8  20
ATOM     20  O   UNL     1      11.187  52.359  30.364  1.00  0.00    -0.490 OA
ATOM     21  C   UNL     1      10.137  51.457  30.698  1.00  0.00     0.278 C 
ENDBRANCH   8  20
BRANCH  11  22
ATOM     22  O   UNL     1      14.568  55.395  33.728  1.00  0.00    -0.492 OA
ATOM     23  C   UNL     1      15.343  56.534  33.356  1.00  0.00     0.278 C 
ENDBRANCH  11  22
BRANCH   9  24
ATOM     24  O   UNL     1      10.406  54.879  31.153  1.00  0.00    -0.490 OA
ATOM     25  C   UNL     1      10.292  55.702  29.991  1.00  0.00     0.279 C 
ENDBRANCH   9  24
BRANCH  10  26
ATOM     26  O   UNL     1      12.099  56.481  32.809  1.00  0.00    -0.490 OA
ATOM     27  C   UNL     1      11.361  56.894  33.954  1.00  0.00     0.278 C 
ENDBRANCH  10  26
TORSDOF 6
ENDMDL
MODEL 8
REMARK VINA RESULT:    -4.847      3.701     11.423
REMARK INTER + INTRA:          -7.049
REMARK INTER:                  -6.392
REMARK INTRA:                  -0.657
REMARK UNBOUND:                -0.503
REMARK SMILES COc1ccc(-c2cc(=O)c3c(OC)c(OC)c(OC)c(OC)c3o2)cc1
REMARK SMILES IDX 7 1 8 2 9 3 10 4 11 5 24 6 25 7 21 8 18 9 15 10 12 11 6 12
REMARK SMILES IDX 3 13 4 14 27 15 5 16 26 17 2 18 1 19 22 20 23 21 13 22 14 23
REMARK SMILES IDX 19 24 20 25 16 26 17 27
REMARK H PARENT
REMARK Flexibility Score: inf
ROOT
ATOM      1  C   UNL     1      13.166  54.405  32.951  1.00  0.00     0.138 A 
ATOM      2  C   UNL     1      11.976  54.524  33.675  1.00  0.00     0.100 A 
ATOM      3  C   UNL     1      11.478  55.791  33.968  1.00  0.00     0.197 A 
ATOM      4  O   UNL     1      10.404  55.876  34.623  1.00  0.00    -0.289 OA
ATOM      5  C   UNL     1      12.175  56.943  33.527  1.00  0.00     0.115 A 
ATOM      6  C   UNL     1      13.352  56.741  32.765  1.00  0.00     0.188 A 
ATOM      7  O   UNL     1      13.779  55.503  32.521  1.00  0.00    -0.452 OA
ATOM      8  C   UNL     1      14.083  57.847  32.282  1.00  0.00     0.209 A 
ATOM      9  C   UNL     1      13.627  59.153  32.544  1.00  0.00     0.211 A 
ATOM     10  C   UNL     1      12.469  59.369  33.334  1.00  0.00     0.208 A 
ATOM     11  C   UNL     1      11.744  58.257  33.835  1.00  0.00     0.179 A 
ENDROOT
BRANCH   1  12
ATOM     12  C   UNL     1      13.764  53.081  32.649  1.00  0.00     0.018 A 
ATOM     13  C   UNL     1      14.922  50.585  32.003  1.00  0.00     0.118 A 
ATOM     14  C   UNL     1      13.889  51.112  31.219  1.00  0.00     0.047 A 
ATOM     15  C   UNL     1      15.383  51.318  33.111  1.00  0.00     0.047 A 
ATOM     16  C   UNL     1      13.314  52.346  31.539  1.00  0.00     0.016 A 
ATOM     17  C   UNL     1      14.814  52.557  33.428  1.00  0.00     0.016 A 
BRANCH  13  18
ATOM     18  O   UNL     1      15.462  49.341  31.645  1.00  0.00    -0.497 OA
ATOM     19  C   UNL     1      16.275  49.120  30.498  1.00  0.00     0.278 C 
ENDBRANCH  13  18
ENDBRANCH   1  12
BRANCH   8  20
ATOM     20  O   UNL     1      15.293  57.714  31.574  1.00  0.00    -0.490 OA
ATOM     21  C   UNL     1      16.594  57.538  32.124  1.00  0.00     0.278 C 
ENDBRANCH   8  20
BRANCH  11  22
ATOM     22  O   UNL     1      10.590  58.398  34.637  1.00  0.00    -0.492 OA
ATOM     23  C   UNL     1      10.502  58.921  35.962  1.00  0.00     0.278 C 
ENDBRANCH  11  22
BRANCH   9  24
ATOM     24  O   UNL     1      14.343  60.254  32.053  1.00  0.00    -0.490 OA
ATOM     25  C   UNL     1      15.294  60.993  32.822  1.00  0.00     0.279 C 
ENDBRANCH   9  24
BRANCH  10  26
ATOM     26  O   UNL     1      12.001  60.664  33.640  1.00  0.00    -0.490 OA
ATOM     27  C   UNL     1      11.101  61.462  32.881  1.00  0.00     0.278 C 
ENDBRANCH  10  26
TORSDOF 6
ENDMDL
MODEL 9
REMARK VINA RESULT:    -4.774      2.422      8.940
REMARK INTER + INTRA:          -6.951
REMARK INTER:                  -6.412
REMARK INTRA:                  -0.539
REMARK UNBOUND:                -0.503
REMARK SMILES COc1ccc(-c2cc(=O)c3c(OC)c(OC)c(OC)c(OC)c3o2)cc1
REMARK SMILES IDX 7 1 8 2 9 3 10 4 11 5 24 6 25 7 21 8 18 9 15 10 12 11 6 12
REMARK SMILES IDX 3 13 4 14 27 15 5 16 26 17 2 18 1 19 22 20 23 21 13 22 14 23
REMARK SMILES IDX 19 24 20 25 16 26 17 27
REMARK H PARENT
REMARK Flexibility Score: inf
ROOT
ATOM      1  C   UNL     1      15.263  50.259  31.402  1.00  0.00     0.138 A 
ATOM      2  C   UNL     1      15.254  50.416  32.790  1.00  0.00     0.100 A 
ATOM      3  C   UNL     1      15.101  51.689  33.334  1.00  0.00     0.197 A 
ATOM      4  O   UNL     1      15.096  51.808  34.589  1.00  0.00    -0.289 OA
ATOM      5  C   UNL     1      14.950  52.808  32.478  1.00  0.00     0.115 A 
ATOM      6  C   UNL     1      14.929  52.564  31.083  1.00  0.00     0.188 A 
ATOM      7  O   UNL     1      15.085  51.323  30.625  1.00  0.00    -0.452 OA
ATOM      8  C   UNL     1      14.765  53.633  30.177  1.00  0.00     0.209 A 
ATOM      9  C   UNL     1      14.603  54.943  30.667  1.00  0.00     0.211 A 
ATOM     10  C   UNL     1      14.655  55.206  32.060  1.00  0.00     0.208 A 
ATOM     11  C   UNL     1      14.838  54.131  32.970  1.00  0.00     0.179 A 
ENDROOT
BRANCH   1  12
ATOM     12  C   UNL     1      15.467  48.931  30.769  1.00  0.00     0.018 A 
ATOM     13  C   UNL     1      15.805  46.424  29.509  1.00  0.00     0.118 A 
ATOM     14  C   UNL     1      14.532  46.859  29.893  1.00  0.00     0.047 A 
ATOM     15  C   UNL     1      16.914  47.256  29.750  1.00  0.00     0.047 A 
ATOM     16  C   UNL     1      14.363  48.099  30.518  1.00  0.00     0.016 A 
ATOM     17  C   UNL     1      16.746  48.499  30.369  1.00  0.00     0.016 A 
BRANCH  13  18
ATOM     18  O   UNL     1      15.924  45.171  28.891  1.00  0.00    -0.497 OA
ATOM     19  C   UNL     1      17.064  44.746  28.154  1.00  0.00     0.278 C 
ENDBRANCH  13  18
ENDBRANCH   1  12
BRANCH   8  20
ATOM     20  O   UNL     1      14.799  53.465  28.779  1.00  0.00    -0.490 OA
ATOM     21  C   UNL     1      15.955  53.365  27.955  1.00  0.00     0.278 C 
ENDBRANCH   8  20
BRANCH  11  22
ATOM     22  O   UNL     1      14.912  54.321  34.367  1.00  0.00    -0.492 OA
ATOM     23  C   UNL     1      13.838  54.550  35.279  1.00  0.00     0.278 C 
ENDBRANCH  11  22
BRANCH   9  24
ATOM     24  O   UNL     1      14.424  56.007  29.770  1.00  0.00    -0.490 OA
ATOM     25  C   UNL     1      15.494  56.802  29.257  1.00  0.00     0.279 C 
ENDBRANCH   9  24
BRANCH  10  26
ATOM     26  O   UNL     1      14.525  56.508  32.583  1.00  0.00    -0.490 OA
ATOM     27  C   UNL     1      15.568  57.407  32.941  1.00  0.00     0.278 C 
ENDBRANCH  10  26
TORSDOF 6
ENDMDL
