MODEL 1
REMARK VINA RESULT:    -3.278      0.000      0.000
REMARK INTER + INTRA:          -3.872
REMARK INTER:                  -3.853
REMARK INTRA:                  -0.018
REMARK UNBOUND:                -0.018
REMARK SMILES CCCCC(=O)[O-]
REMARK SMILES IDX 4 1 5 2 6 3 7 4 3 5 2 6 1 7
REMARK H PARENT
REMARK Flexibility Score: inf
ROOT
ATOM      1  C   UNL     1      45.164  27.389   3.190  1.00  0.00     0.053 C 
ENDROOT
BRANCH   1   2
ATOM      2  C   UNL     1      45.601  26.232   4.036  1.00  0.00     0.041 C 
ATOM      3  O   UNL     1      45.358  25.051   3.673  1.00  0.00    -0.550 OA
ATOM      4  O   UNL     1      46.304  26.457   5.212  1.00  0.00    -0.550 OA
ENDBRANCH   1   2
BRANCH   1   5
ATOM      5  C   UNL     1      43.852  27.110   2.435  1.00  0.00     0.006 C 
BRANCH   5   6
ATOM      6  C   UNL     1      42.962  28.352   2.253  1.00  0.00    -0.003 C 
ATOM      7  C   UNL     1      41.493  28.094   2.588  1.00  0.00     0.004 C 
ENDBRANCH   5   6
ENDBRANCH   1   5
TORSDOF 3
ENDMDL
MODEL 2
REMARK VINA RESULT:    -3.173     15.961     16.893
REMARK INTER + INTRA:          -3.748
REMARK INTER:                  -3.669
REMARK INTRA:                  -0.078
REMARK UNBOUND:                -0.018
REMARK SMILES CCCCC(=O)[O-]
REMARK SMILES IDX 4 1 5 2 6 3 7 4 3 5 2 6 1 7
REMARK H PARENT
REMARK Flexibility Score: inf
ROOT
ATOM      1  C   UNL     1      46.347  12.553  10.934  1.00  0.00     0.053 C 
ENDROOT
BRANCH   1   2
ATOM      2  C   UNL     1      46.895  11.352  11.645  1.00  0.00     0.041 C 
ATOM      3  O   UNL     1      47.125  11.397  12.883  1.00  0.00    -0.550 OA
ATOM      4  O   UNL     1      47.124  10.174  10.946  1.00  0.00    -0.550 OA
ENDBRANCH   1   2
BRANCH   1   5
ATOM      5  C   UNL     1      45.569  13.494  11.870  1.00  0.00     0.006 C 
BRANCH   5   6
ATOM      6  C   UNL     1      46.077  14.946  11.856  1.00  0.00    -0.003 C 
ATOM      7  C   UNL     1      46.889  15.312  13.098  1.00  0.00     0.004 C 
ENDBRANCH   5   6
ENDBRANCH   1   5
TORSDOF 3
ENDMDL
MODEL 3
REMARK VINA RESULT:    -3.135      2.016      2.245
REMARK INTER + INTRA:          -3.703
REMARK INTER:                  -3.666
REMARK INTRA:                  -0.037
REMARK UNBOUND:                -0.018
REMARK SMILES CCCCC(=O)[O-]
REMARK SMILES IDX 4 1 5 2 6 3 7 4 3 5 2 6 1 7
REMARK H PARENT
REMARK Flexibility Score: inf
ROOT
ATOM      1  C   UNL     1      44.209  27.428   2.780  1.00  0.00     0.053 C 
ENDROOT
BRANCH   1   2
ATOM      2  C   UNL     1      45.463  27.476   1.959  1.00  0.00     0.041 C 
ATOM      3  O   UNL     1      45.401  27.451   0.701  1.00  0.00    -0.550 OA
ATOM      4  O   UNL     1      46.699  27.577   2.583  1.00  0.00    -0.550 OA
ENDBRANCH   1   2
BRANCH   1   5
ATOM      5  C   UNL     1      42.935  27.421   1.917  1.00  0.00     0.006 C 
BRANCH   5   6
ATOM      6  C   UNL     1      41.732  28.117   2.578  1.00  0.00    -0.003 C 
ATOM      7  C   UNL     1      41.892  29.635   2.673  1.00  0.00     0.004 C 
ENDBRANCH   5   6
ENDBRANCH   1   5
TORSDOF 3
ENDMDL
MODEL 4
REMARK VINA RESULT:    -3.107      0.823      1.458
REMARK INTER + INTRA:          -3.670
REMARK INTER:                  -3.599
REMARK INTRA:                  -0.071
REMARK UNBOUND:                -0.018
REMARK SMILES CCCCC(=O)[O-]
REMARK SMILES IDX 4 1 5 2 6 3 7 4 3 5 2 6 1 7
REMARK H PARENT
REMARK Flexibility Score: inf
ROOT
ATOM      1  C   UNL     1      45.331  27.497   2.290  1.00  0.00     0.053 C 
ENDROOT
BRANCH   1   2
ATOM      2  C   UNL     1      45.500  26.703   3.550  1.00  0.00     0.041 C 
ATOM      3  O   UNL     1      45.863  27.270   4.614  1.00  0.00    -0.550 OA
ATOM      4  O   UNL     1      45.229  25.341   3.556  1.00  0.00    -0.550 OA
ENDBRANCH   1   2
BRANCH   1   5
ATOM      5  C   UNL     1      44.053  28.355   2.296  1.00  0.00     0.006 C 
BRANCH   5   6
ATOM      6  C   UNL     1      42.757  27.543   2.129  1.00  0.00    -0.003 C 
ATOM      7  C   UNL     1      41.512  28.291   2.606  1.00  0.00     0.004 C 
ENDBRANCH   5   6
ENDBRANCH   1   5
TORSDOF 3
ENDMDL
MODEL 5
REMARK VINA RESULT:    -2.946      2.789      4.150
REMARK INTER + INTRA:          -3.481
REMARK INTER:                  -3.461
REMARK INTRA:                  -0.019
REMARK UNBOUND:                -0.018
REMARK SMILES CCCCC(=O)[O-]
REMARK SMILES IDX 4 1 5 2 6 3 7 4 3 5 2 6 1 7
REMARK H PARENT
REMARK Flexibility Score: inf
ROOT
ATOM      1  C   UNL     1      43.666  27.111   2.164  1.00  0.00     0.053 C 
ENDROOT
BRANCH   1   2
ATOM      2  C   UNL     1      42.712  28.248   2.371  1.00  0.00     0.041 C 
ATOM      3  O   UNL     1      41.482  28.026   2.524  1.00  0.00    -0.550 OA
ATOM      4  O   UNL     1      43.185  29.552   2.423  1.00  0.00    -0.550 OA
ENDBRANCH   1   2
BRANCH   1   5
ATOM      5  C   UNL     1      44.906  27.205   3.070  1.00  0.00     0.006 C 
BRANCH   5   6
ATOM      6  C   UNL     1      45.161  25.941   3.910  1.00  0.00    -0.003 C 
ATOM      7  C   UNL     1      46.626  25.504   3.912  1.00  0.00     0.004 C 
ENDBRANCH   5   6
ENDBRANCH   1   5
TORSDOF 3
ENDMDL
MODEL 6
REMARK VINA RESULT:    -2.902      2.670      3.793
REMARK INTER + INTRA:          -3.429
REMARK INTER:                  -3.360
REMARK INTRA:                  -0.069
REMARK UNBOUND:                -0.018
REMARK SMILES CCCCC(=O)[O-]
REMARK SMILES IDX 4 1 5 2 6 3 7 4 3 5 2 6 1 7
REMARK H PARENT
REMARK Flexibility Score: inf
ROOT
ATOM      1  C   UNL     1      44.544  28.244   2.783  1.00  0.00     0.053 C 
ENDROOT
BRANCH   1   2
ATOM      2  C   UNL     1      44.420  27.449   1.519  1.00  0.00     0.041 C 
ATOM      3  O   UNL     1      43.380  26.775   1.291  1.00  0.00    -0.550 OA
ATOM      4  O   UNL     1      45.440  27.476   0.577  1.00  0.00    -0.550 OA
ENDBRANCH   1   2
BRANCH   1   5
ATOM      5  C   UNL     1      45.506  27.599   3.797  1.00  0.00     0.006 C 
BRANCH   5   6
ATOM      6  C   UNL     1      45.312  26.082   3.962  1.00  0.00    -0.003 C 
ATOM      7  C   UNL     1      46.625  25.300   3.937  1.00  0.00     0.004 C 
ENDBRANCH   5   6
ENDBRANCH   1   5
TORSDOF 3
ENDMDL
MODEL 7
REMARK VINA RESULT:    -2.886      2.749      4.307
REMARK INTER + INTRA:          -3.410
REMARK INTER:                  -3.394
REMARK INTRA:                  -0.016
REMARK UNBOUND:                -0.018
REMARK SMILES CCCCC(=O)[O-]
REMARK SMILES IDX 4 1 5 2 6 3 7 4 3 5 2 6 1 7
REMARK H PARENT
REMARK Flexibility Score: inf
ROOT
ATOM      1  C   UNL     1      46.069  27.152   4.841  1.00  0.00     0.053 C 
ENDROOT
BRANCH   1   2
ATOM      2  C   UNL     1      45.739  26.124   3.801  1.00  0.00     0.041 C 
ATOM      3  O   UNL     1      46.503  25.141   3.614  1.00  0.00    -0.550 OA
ATOM      4  O   UNL     1      44.571  26.236   3.058  1.00  0.00    -0.550 OA
ENDBRANCH   1   2
BRANCH   1   5
ATOM      5  C   UNL     1      46.536  26.526   6.167  1.00  0.00     0.006 C 
BRANCH   5   6
ATOM      6  C   UNL     1      46.161  27.350   7.411  1.00  0.00    -0.003 C 
ATOM      7  C   UNL     1      45.826  26.487   8.627  1.00  0.00     0.004 C 
ENDBRANCH   5   6
ENDBRANCH   1   5
TORSDOF 3
ENDMDL
MODEL 8
REMARK VINA RESULT:    -2.875     22.915     23.758
REMARK INTER + INTRA:          -3.397
REMARK INTER:                  -3.354
REMARK INTRA:                  -0.044
REMARK UNBOUND:                -0.018
REMARK SMILES CCCCC(=O)[O-]
REMARK SMILES IDX 4 1 5 2 6 3 7 4 3 5 2 6 1 7
REMARK H PARENT
REMARK Flexibility Score: inf
ROOT
ATOM      1  C   UNL     1      29.087  10.034  -5.029  1.00  0.00     0.053 C 
ENDROOT
BRANCH   1   2
ATOM      2  C   UNL     1      28.271  10.847  -4.070  1.00  0.00     0.041 C 
ATOM      3  O   UNL     1      28.431  12.094  -3.998  1.00  0.00    -0.550 OA
ATOM      4  O   UNL     1      27.314  10.231  -3.275  1.00  0.00    -0.550 OA
ENDBRANCH   1   2
BRANCH   1   5
ATOM      5  C   UNL     1      30.033  10.896  -5.884  1.00  0.00     0.006 C 
BRANCH   5   6
ATOM      6  C   UNL     1      31.525  10.609  -5.643  1.00  0.00    -0.003 C 
ATOM      7  C   UNL     1      32.349  10.587  -6.930  1.00  0.00     0.004 C 
ENDBRANCH   5   6
ENDBRANCH   1   5
TORSDOF 3
ENDMDL
MODEL 9
REMARK VINA RESULT:    -2.849      5.523      6.261
REMARK INTER + INTRA:          -3.367
REMARK INTER:                  -3.331
REMARK INTRA:                  -0.037
REMARK UNBOUND:                -0.018
REMARK SMILES CCCCC(=O)[O-]
REMARK SMILES IDX 4 1 5 2 6 3 7 4 3 5 2 6 1 7
REMARK H PARENT
REMARK Flexibility Score: inf
ROOT
ATOM      1  C   UNL     1      45.341  27.289   9.413  1.00  0.00     0.053 C 
ENDROOT
BRANCH   1   2
ATOM      2  C   UNL     1      46.238  26.088   9.398  1.00  0.00     0.041 C 
ATOM      3  O   UNL     1      46.872  25.782   8.354  1.00  0.00    -0.550 OA
ATOM      4  O   UNL     1      46.397  25.324  10.546  1.00  0.00    -0.550 OA
ENDBRANCH   1   2
BRANCH   1   5
ATOM      5  C   UNL     1      45.613  28.248   8.241  1.00  0.00     0.006 C 
BRANCH   5   6
ATOM      6  C   UNL     1      45.237  29.711   8.533  1.00  0.00    -0.003 C 
ATOM      7  C   UNL     1      44.664  29.917   9.936  1.00  0.00     0.004 C 
ENDBRANCH   5   6
ENDBRANCH   1   5
TORSDOF 3
ENDMDL
