MODEL 1
REMARK VINA RESULT:    -7.673      0.000      0.000
REMARK INTER + INTRA:          -9.771
REMARK INTER:                  -9.468
REMARK INTRA:                  -0.303
REMARK UNBOUND:                -0.303
REMARK SMILES Oc1cc(O)c2cc(O)c(-c3cc(O)c(O)c(O)c3)[o+]c2c1
REMARK SMILES IDX 10 1 20 2 21 3 22 4 2 5 3 6 4 7 6 8 7 9 8 10 11 11 12 12
REMARK SMILES IDX 13 13 19 14 15 15 17 16 14 17 16 19 18 21 9 23 1 25 5 27
REMARK H PARENT 14 18 16 20 18 22 9 24 1 26 5 28
REMARK Flexibility Score: inf
ROOT
ATOM      1  C   UNL     1     -53.098  34.528  21.731  1.00  0.00     0.402 A 
ATOM      2  O   UNL     1     -52.158  35.471  21.743  1.00  0.00    -0.202 OA
ATOM      3  C   UNL     1     -52.075  36.405  22.685  1.00  0.00     0.368 A 
ATOM      4  C   UNL     1     -51.060  37.364  22.622  1.00  0.00     0.162 A 
ATOM      5  C   UNL     1     -50.964  38.354  23.605  1.00  0.00     0.128 A 
ATOM      6  C   UNL     1     -51.888  38.386  24.658  1.00  0.00     0.093 A 
ATOM      7  C   UNL     1     -52.912  37.429  24.736  1.00  0.00     0.136 A 
ATOM      8  C   UNL     1     -53.008  36.433  23.745  1.00  0.00     0.125 A 
ATOM      9  C   UNL     1     -54.002  35.449  23.775  1.00  0.00     0.078 A 
ATOM     10  C   UNL     1     -54.049  34.478  22.771  1.00  0.00     0.223 A 
ENDROOT
BRANCH   1  11
ATOM     11  C   UNL     1     -53.093  33.547  20.623  1.00  0.00     0.091 A 
ATOM     12  C   UNL     1     -52.134  32.521  20.558  1.00  0.00     0.068 A 
ATOM     13  C   UNL     1     -52.160  31.588  19.512  1.00  0.00     0.162 A 
ATOM     14  C   UNL     1     -54.099  33.604  19.646  1.00  0.00     0.068 A 
ATOM     15  C   UNL     1     -53.154  31.666  18.528  1.00  0.00     0.200 A 
ATOM     16  C   UNL     1     -54.129  32.675  18.597  1.00  0.00     0.162 A 
BRANCH  13  17
ATOM     17  O   UNL     1     -51.205  30.576  19.447  1.00  0.00    -0.504 OA
ATOM     18  H   UNL     1     -51.464  29.598  19.503  1.00  0.00     0.293 HD
ENDBRANCH  13  17
BRANCH  15  19
ATOM     19  O   UNL     1     -53.162  30.731  17.492  1.00  0.00    -0.502 OA
ATOM     20  H   UNL     1     -52.611  29.882  17.527  1.00  0.00     0.293 HD
ENDBRANCH  15  19
BRANCH  16  21
ATOM     21  O   UNL     1     -55.125  32.751  17.624  1.00  0.00    -0.504 OA
ATOM     22  H   UNL     1     -55.773  33.530  17.586  1.00  0.00     0.293 HD
ENDBRANCH  16  21
ENDBRANCH   1  11
BRANCH  10  23
ATOM     23  O   UNL     1     -55.007  33.465  22.822  1.00  0.00    -0.500 OA
ATOM     24  H   UNL     1     -54.891  32.654  23.418  1.00  0.00     0.294 HD
ENDBRANCH  10  23
BRANCH   5  25
ATOM     25  O   UNL     1     -49.946  39.303  23.526  1.00  0.00    -0.507 OA
ATOM     26  H   UNL     1     -50.015  40.195  24.001  1.00  0.00     0.293 HD
ENDBRANCH   5  25
BRANCH   7  27
ATOM     27  O   UNL     1     -53.824  37.469  25.789  1.00  0.00    -0.507 OA
ATOM     28  H   UNL     1     -54.821  37.374  25.633  1.00  0.00     0.293 HD
ENDBRANCH   7  27
TORSDOF 7
ENDMDL
MODEL 2
REMARK VINA RESULT:    -7.593      0.117      1.792
REMARK INTER + INTRA:          -9.672
REMARK INTER:                  -9.332
REMARK INTRA:                  -0.340
REMARK UNBOUND:                -0.303
REMARK SMILES Oc1cc(O)c2cc(O)c(-c3cc(O)c(O)c(O)c3)[o+]c2c1
REMARK SMILES IDX 10 1 20 2 21 3 22 4 2 5 3 6 4 7 6 8 7 9 8 10 11 11 12 12
REMARK SMILES IDX 13 13 19 14 15 15 17 16 14 17 16 19 18 21 9 23 1 25 5 27
REMARK H PARENT 14 18 16 20 18 22 9 24 1 26 5 28
REMARK Flexibility Score: inf
ROOT
ATOM      1  C   UNL     1     -53.207  34.536  21.829  1.00  0.00     0.402 A 
ATOM      2  O   UNL     1     -52.256  35.468  21.829  1.00  0.00    -0.202 OA
ATOM      3  C   UNL     1     -52.149  36.401  22.770  1.00  0.00     0.368 A 
ATOM      4  C   UNL     1     -51.123  37.347  22.692  1.00  0.00     0.162 A 
ATOM      5  C   UNL     1     -51.002  38.336  23.674  1.00  0.00     0.128 A 
ATOM      6  C   UNL     1     -51.911  38.379  24.739  1.00  0.00     0.093 A 
ATOM      7  C   UNL     1     -52.946  37.436  24.831  1.00  0.00     0.136 A 
ATOM      8  C   UNL     1     -53.067  36.441  23.841  1.00  0.00     0.125 A 
ATOM      9  C   UNL     1     -54.073  35.469  23.885  1.00  0.00     0.078 A 
ATOM     10  C   UNL     1     -54.145  34.498  22.882  1.00  0.00     0.223 A 
ENDROOT
BRANCH   1  11
ATOM     11  C   UNL     1     -53.228  33.555  20.722  1.00  0.00     0.091 A 
ATOM     12  C   UNL     1     -54.183  33.633  19.693  1.00  0.00     0.068 A 
ATOM     13  C   UNL     1     -54.173  32.706  18.641  1.00  0.00     0.162 A 
ATOM     14  C   UNL     1     -52.241  32.559  20.662  1.00  0.00     0.068 A 
ATOM     15  C   UNL     1     -53.197  31.702  18.601  1.00  0.00     0.200 A 
ATOM     16  C   UNL     1     -52.225  31.630  19.612  1.00  0.00     0.162 A 
BRANCH  13  17
ATOM     17  O   UNL     1     -55.125  32.782  17.626  1.00  0.00    -0.504 OA
ATOM     18  H   UNL     1     -55.784  32.030  17.461  1.00  0.00     0.293 HD
ENDBRANCH  13  17
BRANCH  15  19
ATOM     19  O   UNL     1     -53.204  30.787  17.547  1.00  0.00    -0.502 OA
ATOM     20  H   UNL     1     -52.919  31.042  16.609  1.00  0.00     0.293 HD
ENDBRANCH  15  19
BRANCH  16  21
ATOM     21  O   UNL     1     -51.248  30.637  19.572  1.00  0.00    -0.504 OA
ATOM     22  H   UNL     1     -50.870  30.228  20.420  1.00  0.00     0.293 HD
ENDBRANCH  16  21
ENDBRANCH   1  11
BRANCH  10  23
ATOM     23  O   UNL     1     -55.115  33.498  22.945  1.00  0.00    -0.500 OA
ATOM     24  H   UNL     1     -55.207  32.897  23.757  1.00  0.00     0.294 HD
ENDBRANCH  10  23
BRANCH   5  25
ATOM     25  O   UNL     1     -49.973  39.272  23.581  1.00  0.00    -0.507 OA
ATOM     26  H   UNL     1     -49.408  39.357  22.745  1.00  0.00     0.293 HD
ENDBRANCH   5  25
BRANCH   7  27
ATOM     27  O   UNL     1     -53.844  37.487  25.896  1.00  0.00    -0.507 OA
ATOM     28  H   UNL     1     -54.665  36.894  25.928  1.00  0.00     0.293 HD
ENDBRANCH   7  27
TORSDOF 7
ENDMDL
MODEL 3
REMARK VINA RESULT:    -7.490      1.130      7.107
REMARK INTER + INTRA:          -9.545
REMARK INTER:                  -9.202
REMARK INTRA:                  -0.343
REMARK UNBOUND:                -0.303
REMARK SMILES Oc1cc(O)c2cc(O)c(-c3cc(O)c(O)c(O)c3)[o+]c2c1
REMARK SMILES IDX 10 1 20 2 21 3 22 4 2 5 3 6 4 7 6 8 7 9 8 10 11 11 12 12
REMARK SMILES IDX 13 13 19 14 15 15 17 16 14 17 16 19 18 21 9 23 1 25 5 27
REMARK H PARENT 14 18 16 20 18 22 9 24 1 26 5 28
REMARK Flexibility Score: inf
ROOT
ATOM      1  C   UNL     1     -53.033  35.541  21.793  1.00  0.00     0.402 A 
ATOM      2  O   UNL     1     -52.296  34.452  21.582  1.00  0.00    -0.202 OA
ATOM      3  C   UNL     1     -52.584  33.547  20.652  1.00  0.00     0.368 A 
ATOM      4  C   UNL     1     -51.760  32.428  20.498  1.00  0.00     0.162 A 
ATOM      5  C   UNL     1     -52.054  31.467  19.526  1.00  0.00     0.128 A 
ATOM      6  C   UNL     1     -53.176  31.625  18.702  1.00  0.00     0.093 A 
ATOM      7  C   UNL     1     -54.011  32.743  18.844  1.00  0.00     0.136 A 
ATOM      8  C   UNL     1     -53.715  33.710  19.824  1.00  0.00     0.125 A 
ATOM      9  C   UNL     1     -54.507  34.850  20.006  1.00  0.00     0.078 A 
ATOM     10  C   UNL     1     -54.166  35.783  20.988  1.00  0.00     0.223 A 
ENDROOT
BRANCH   1  11
ATOM     11  C   UNL     1     -52.617  36.472  22.865  1.00  0.00     0.091 A 
ATOM     12  C   UNL     1     -51.579  37.399  22.668  1.00  0.00     0.068 A 
ATOM     13  C   UNL     1     -51.214  38.288  23.689  1.00  0.00     0.162 A 
ATOM     14  C   UNL     1     -53.309  36.473  24.086  1.00  0.00     0.068 A 
ATOM     15  C   UNL     1     -51.895  38.267  24.912  1.00  0.00     0.200 A 
ATOM     16  C   UNL     1     -52.949  37.359  25.111  1.00  0.00     0.162 A 
BRANCH  13  17
ATOM     17  O   UNL     1     -50.180  39.201  23.492  1.00  0.00    -0.504 OA
ATOM     18  H   UNL     1     -50.363  40.190  23.373  1.00  0.00     0.293 HD
ENDBRANCH  13  17
BRANCH  15  19
ATOM     19  O   UNL     1     -51.517  39.157  25.919  1.00  0.00    -0.502 OA
ATOM     20  H   UNL     1     -51.139  38.841  26.804  1.00  0.00     0.293 HD
ENDBRANCH  15  19
BRANCH  16  21
ATOM     21  O   UNL     1     -53.635  37.341  26.325  1.00  0.00    -0.504 OA
ATOM     22  H   UNL     1     -54.046  38.181  26.717  1.00  0.00     0.293 HD
ENDBRANCH  16  21
ENDBRANCH   1  11
BRANCH  10  23
ATOM     23  O   UNL     1     -54.922  36.945  21.141  1.00  0.00    -0.500 OA
ATOM     24  H   UNL     1     -54.589  37.844  20.810  1.00  0.00     0.294 HD
ENDBRANCH  10  23
BRANCH   5  25
ATOM     25  O   UNL     1     -51.222  30.356  19.386  1.00  0.00    -0.507 OA
ATOM     26  H   UNL     1     -51.261  29.766  18.563  1.00  0.00     0.293 HD
ENDBRANCH   5  25
BRANCH   7  27
ATOM     27  O   UNL     1     -55.125  32.891  18.018  1.00  0.00    -0.507 OA
ATOM     28  H   UNL     1     -55.032  33.142  17.041  1.00  0.00     0.293 HD
ENDBRANCH   7  27
TORSDOF 7
ENDMDL
MODEL 4
REMARK VINA RESULT:    -7.433      1.364      7.208
REMARK INTER + INTRA:          -9.474
REMARK INTER:                  -9.324
REMARK INTRA:                  -0.150
REMARK UNBOUND:                -0.303
REMARK SMILES Oc1cc(O)c2cc(O)c(-c3cc(O)c(O)c(O)c3)[o+]c2c1
REMARK SMILES IDX 10 1 20 2 21 3 22 4 2 5 3 6 4 7 6 8 7 9 8 10 11 11 12 12
REMARK SMILES IDX 13 13 19 14 15 15 17 16 14 17 16 19 18 21 9 23 1 25 5 27
REMARK H PARENT 14 18 16 20 18 22 9 24 1 26 5 28
REMARK Flexibility Score: inf
ROOT
ATOM      1  C   UNL     1     -52.623  35.660  22.159  1.00  0.00     0.402 A 
ATOM      2  O   UNL     1     -51.994  34.529  21.849  1.00  0.00    -0.202 OA
ATOM      3  C   UNL     1     -52.405  33.706  20.889  1.00  0.00     0.368 A 
ATOM      4  C   UNL     1     -51.690  32.533  20.630  1.00  0.00     0.162 A 
ATOM      5  C   UNL     1     -52.114  31.657  19.625  1.00  0.00     0.128 A 
ATOM      6  C   UNL     1     -53.259  31.956  18.875  1.00  0.00     0.093 A 
ATOM      7  C   UNL     1     -53.987  33.129  19.123  1.00  0.00     0.136 A 
ATOM      8  C   UNL     1     -53.560  34.010  20.136  1.00  0.00     0.125 A 
ATOM      9  C   UNL     1     -54.240  35.199  20.422  1.00  0.00     0.078 A 
ATOM     10  C   UNL     1     -53.770  36.042  21.432  1.00  0.00     0.223 A 
ENDROOT
BRANCH   1  11
ATOM     11  C   UNL     1     -52.074  36.490  23.254  1.00  0.00     0.091 A 
ATOM     12  C   UNL     1     -52.870  36.884  24.344  1.00  0.00     0.068 A 
ATOM     13  C   UNL     1     -52.325  37.652  25.383  1.00  0.00     0.162 A 
ATOM     14  C   UNL     1     -50.716  36.846  23.237  1.00  0.00     0.068 A 
ATOM     15  C   UNL     1     -50.974  38.021  25.347  1.00  0.00     0.200 A 
ATOM     16  C   UNL     1     -50.165  37.613  24.273  1.00  0.00     0.162 A 
BRANCH  13  17
ATOM     17  O   UNL     1     -53.118  38.046  26.459  1.00  0.00    -0.504 OA
ATOM     18  H   UNL     1     -52.788  38.718  27.142  1.00  0.00     0.293 HD
ENDBRANCH  13  17
BRANCH  15  19
ATOM     19  O   UNL     1     -50.449  38.788  26.388  1.00  0.00    -0.502 OA
ATOM     20  H   UNL     1     -50.037  38.369  27.213  1.00  0.00     0.293 HD
ENDBRANCH  15  19
BRANCH  16  21
ATOM     21  O   UNL     1     -48.819  37.972  24.237  1.00  0.00    -0.504 OA
ATOM     22  H   UNL     1     -48.111  37.345  23.871  1.00  0.00     0.293 HD
ENDBRANCH  16  21
ENDBRANCH   1  11
BRANCH  10  23
ATOM     23  O   UNL     1     -54.415  37.252  21.690  1.00  0.00    -0.500 OA
ATOM     24  H   UNL     1     -55.406  37.374  21.515  1.00  0.00     0.294 HD
ENDBRANCH  10  23
BRANCH   5  25
ATOM     25  O   UNL     1     -51.389  30.492  19.380  1.00  0.00    -0.507 OA
ATOM     26  H   UNL     1     -51.254  30.141  18.439  1.00  0.00     0.293 HD
ENDBRANCH   5  25
BRANCH   7  27
ATOM     27  O   UNL     1     -55.125  33.417  18.370  1.00  0.00    -0.507 OA
ATOM     28  H   UNL     1     -55.065  33.657  17.387  1.00  0.00     0.293 HD
ENDBRANCH   7  27
TORSDOF 7
ENDMDL
MODEL 5
REMARK VINA RESULT:    -7.301      1.955      7.362
REMARK INTER + INTRA:          -9.311
REMARK INTER:                  -9.473
REMARK INTRA:                   0.162
REMARK UNBOUND:                -0.303
REMARK SMILES Oc1cc(O)c2cc(O)c(-c3cc(O)c(O)c(O)c3)[o+]c2c1
REMARK SMILES IDX 10 1 20 2 21 3 22 4 2 5 3 6 4 7 6 8 7 9 8 10 11 11 12 12
REMARK SMILES IDX 13 13 19 14 15 15 17 16 14 17 16 19 18 21 9 23 1 25 5 27
REMARK H PARENT 14 18 16 20 18 22 9 24 1 26 5 28
REMARK Flexibility Score: inf
ROOT
ATOM      1  C   UNL     1     -51.458  36.143  22.503  1.00  0.00     0.402 A 
ATOM      2  O   UNL     1     -51.090  34.941  22.064  1.00  0.00    -0.202 OA
ATOM      3  C   UNL     1     -51.841  34.199  21.255  1.00  0.00     0.368 A 
ATOM      4  C   UNL     1     -51.383  32.944  20.844  1.00  0.00     0.162 A 
ATOM      5  C   UNL     1     -52.165  32.153  19.997  1.00  0.00     0.128 A 
ATOM      6  C   UNL     1     -53.411  32.619  19.557  1.00  0.00     0.093 A 
ATOM      7  C   UNL     1     -53.884  33.877  19.961  1.00  0.00     0.136 A 
ATOM      8  C   UNL     1     -53.096  34.672  20.815  1.00  0.00     0.125 A 
ATOM      9  C   UNL     1     -53.511  35.939  21.243  1.00  0.00     0.078 A 
ATOM     10  C   UNL     1     -52.688  36.692  22.085  1.00  0.00     0.223 A 
ENDROOT
BRANCH   1  11
ATOM     11  C   UNL     1     -50.540  36.870  23.407  1.00  0.00     0.091 A 
ATOM     12  C   UNL     1     -50.436  38.272  23.374  1.00  0.00     0.068 A 
ATOM     13  C   UNL     1     -49.577  38.943  24.254  1.00  0.00     0.162 A 
ATOM     14  C   UNL     1     -49.797  36.154  24.359  1.00  0.00     0.068 A 
ATOM     15  C   UNL     1     -48.822  38.219  25.186  1.00  0.00     0.200 A 
ATOM     16  C   UNL     1     -48.936  36.820  25.242  1.00  0.00     0.162 A 
BRANCH  13  17
ATOM     17  O   UNL     1     -49.472  40.332  24.214  1.00  0.00    -0.504 OA
ATOM     18  H   UNL     1     -48.959  40.845  24.922  1.00  0.00     0.293 HD
ENDBRANCH  13  17
BRANCH  15  19
ATOM     19  O   UNL     1     -47.969  38.904  26.052  1.00  0.00    -0.502 OA
ATOM     20  H   UNL     1     -47.980  39.914  26.134  1.00  0.00     0.293 HD
ENDBRANCH  15  19
BRANCH  16  21
ATOM     21  O   UNL     1     -48.193  36.096  26.173  1.00  0.00    -0.504 OA
ATOM     22  H   UNL     1     -48.204  36.330  27.160  1.00  0.00     0.293 HD
ENDBRANCH  16  21
ENDBRANCH   1  11
BRANCH  10  23
ATOM     23  O   UNL     1     -53.074  37.974  22.475  1.00  0.00    -0.500 OA
ATOM     24  H   UNL     1     -52.393  38.672  22.753  1.00  0.00     0.294 HD
ENDBRANCH  10  23
BRANCH   5  25
ATOM     25  O   UNL     1     -51.694  30.903  19.597  1.00  0.00    -0.507 OA
ATOM     26  H   UNL     1     -52.298  30.232  19.136  1.00  0.00     0.293 HD
ENDBRANCH   5  25
BRANCH   7  27
ATOM     27  O   UNL     1     -55.125  34.331  19.516  1.00  0.00    -0.507 OA
ATOM     28  H   UNL     1     -55.872  34.554  20.163  1.00  0.00     0.293 HD
ENDBRANCH   7  27
TORSDOF 7
ENDMDL
MODEL 6
REMARK VINA RESULT:    -7.127      2.194      3.656
REMARK INTER + INTRA:          -9.097
REMARK INTER:                  -8.716
REMARK INTRA:                  -0.381
REMARK UNBOUND:                -0.303
REMARK SMILES Oc1cc(O)c2cc(O)c(-c3cc(O)c(O)c(O)c3)[o+]c2c1
REMARK SMILES IDX 10 1 20 2 21 3 22 4 2 5 3 6 4 7 6 8 7 9 8 10 11 11 12 12
REMARK SMILES IDX 13 13 19 14 15 15 17 16 14 17 16 19 18 21 9 23 1 25 5 27
REMARK H PARENT 14 18 16 20 18 22 9 24 1 26 5 28
REMARK Flexibility Score: inf
ROOT
ATOM      1  C   UNL     1     -51.302  36.066  22.689  1.00  0.00     0.402 A 
ATOM      2  O   UNL     1     -50.588  35.879  23.798  1.00  0.00    -0.202 OA
ATOM      3  C   UNL     1     -49.913  36.851  24.403  1.00  0.00     0.368 A 
ATOM      4  C   UNL     1     -49.183  36.569  25.562  1.00  0.00     0.162 A 
ATOM      5  C   UNL     1     -48.466  37.582  26.205  1.00  0.00     0.128 A 
ATOM      6  C   UNL     1     -48.478  38.885  25.689  1.00  0.00     0.093 A 
ATOM      7  C   UNL     1     -49.207  39.183  24.527  1.00  0.00     0.136 A 
ATOM      8  C   UNL     1     -49.928  38.162  23.880  1.00  0.00     0.125 A 
ATOM      9  C   UNL     1     -50.680  38.402  22.723  1.00  0.00     0.078 A 
ATOM     10  C   UNL     1     -51.384  37.355  22.122  1.00  0.00     0.223 A 
ENDROOT
BRANCH   1  11
ATOM     11  C   UNL     1     -52.004  34.903  22.102  1.00  0.00     0.091 A 
ATOM     12  C   UNL     1     -51.445  34.169  21.043  1.00  0.00     0.068 A 
ATOM     13  C   UNL     1     -52.116  33.056  20.516  1.00  0.00     0.162 A 
ATOM     14  C   UNL     1     -53.228  34.487  22.650  1.00  0.00     0.068 A 
ATOM     15  C   UNL     1     -53.347  32.661  21.053  1.00  0.00     0.200 A 
ATOM     16  C   UNL     1     -53.904  33.376  22.127  1.00  0.00     0.162 A 
BRANCH  13  17
ATOM     17  O   UNL     1     -51.561  32.334  19.461  1.00  0.00    -0.504 OA
ATOM     18  H   UNL     1     -52.129  31.736  18.872  1.00  0.00     0.293 HD
ENDBRANCH  13  17
BRANCH  15  19
ATOM     19  O   UNL     1     -54.002  31.553  20.514  1.00  0.00    -0.502 OA
ATOM     20  H   UNL     1     -54.943  31.297  20.788  1.00  0.00     0.293 HD
ENDBRANCH  15  19
BRANCH  16  21
ATOM     21  O   UNL     1     -55.125  32.981  22.671  1.00  0.00    -0.504 OA
ATOM     22  H   UNL     1     -55.780  33.654  23.052  1.00  0.00     0.293 HD
ENDBRANCH  16  21
ENDBRANCH   1  11
BRANCH  10  23
ATOM     23  O   UNL     1     -52.174  37.598  20.999  1.00  0.00    -0.500 OA
ATOM     24  H   UNL     1     -51.947  38.333  20.338  1.00  0.00     0.294 HD
ENDBRANCH  10  23
BRANCH   5  25
ATOM     25  O   UNL     1     -47.743  37.284  27.359  1.00  0.00    -0.507 OA
ATOM     26  H   UNL     1     -46.741  37.423  27.407  1.00  0.00     0.293 HD
ENDBRANCH   5  25
BRANCH   7  27
ATOM     27  O   UNL     1     -49.213  40.483  24.023  1.00  0.00    -0.507 OA
ATOM     28  H   UNL     1     -49.453  41.278  24.605  1.00  0.00     0.293 HD
ENDBRANCH   7  27
TORSDOF 7
ENDMDL
MODEL 7
REMARK VINA RESULT:    -6.785      3.699      8.730
REMARK INTER + INTRA:          -8.675
REMARK INTER:                  -8.295
REMARK INTRA:                  -0.380
REMARK UNBOUND:                -0.303
REMARK SMILES Oc1cc(O)c2cc(O)c(-c3cc(O)c(O)c(O)c3)[o+]c2c1
REMARK SMILES IDX 10 1 20 2 21 3 22 4 2 5 3 6 4 7 6 8 7 9 8 10 11 11 12 12
REMARK SMILES IDX 13 13 19 14 15 15 17 16 14 17 16 19 18 21 9 23 1 25 5 27
REMARK H PARENT 14 18 16 20 18 22 9 24 1 26 5 28
REMARK Flexibility Score: inf
ROOT
ATOM      1  C   UNL     1     -50.547  38.199  25.689  1.00  0.00     0.402 A 
ATOM      2  O   UNL     1     -50.229  37.306  24.754  1.00  0.00    -0.202 OA
ATOM      3  C   UNL     1     -51.029  37.001  23.737  1.00  0.00     0.368 A 
ATOM      4  C   UNL     1     -50.623  36.046  22.799  1.00  0.00     0.162 A 
ATOM      5  C   UNL     1     -51.456  35.714  21.727  1.00  0.00     0.128 A 
ATOM      6  C   UNL     1     -52.702  36.340  21.589  1.00  0.00     0.093 A 
ATOM      7  C   UNL     1     -53.124  37.300  22.521  1.00  0.00     0.136 A 
ATOM      8  C   UNL     1     -52.284  37.634  23.602  1.00  0.00     0.125 A 
ATOM      9  C   UNL     1     -52.647  38.590  24.557  1.00  0.00     0.078 A 
ATOM     10  C   UNL     1     -51.774  38.890  25.606  1.00  0.00     0.223 A 
ENDROOT
BRANCH   1  11
ATOM     11  C   UNL     1     -49.577  38.447  26.779  1.00  0.00     0.091 A 
ATOM     12  C   UNL     1     -49.703  37.817  28.029  1.00  0.00     0.068 A 
ATOM     13  C   UNL     1     -48.761  38.048  29.041  1.00  0.00     0.162 A 
ATOM     14  C   UNL     1     -48.475  39.285  26.546  1.00  0.00     0.068 A 
ATOM     15  C   UNL     1     -47.677  38.903  28.807  1.00  0.00     0.200 A 
ATOM     16  C   UNL     1     -47.530  39.520  27.554  1.00  0.00     0.162 A 
BRANCH  13  17
ATOM     17  O   UNL     1     -48.893  37.426  30.281  1.00  0.00    -0.504 OA
ATOM     18  H   UNL     1     -49.642  36.769  30.468  1.00  0.00     0.293 HD
ENDBRANCH  13  17
BRANCH  15  19
ATOM     19  O   UNL     1     -46.751  39.124  29.828  1.00  0.00    -0.502 OA
ATOM     20  H   UNL     1     -45.760  39.231  29.644  1.00  0.00     0.293 HD
ENDBRANCH  15  19
BRANCH  16  21
ATOM     21  O   UNL     1     -46.448  40.365  27.314  1.00  0.00    -0.504 OA
ATOM     22  H   UNL     1     -46.315  41.222  27.840  1.00  0.00     0.293 HD
ENDBRANCH  16  21
ENDBRANCH   1  11
BRANCH  10  23
ATOM     23  O   UNL     1     -52.108  39.876  26.534  1.00  0.00    -0.500 OA
ATOM     24  H   UNL     1     -51.865  40.849  26.385  1.00  0.00     0.294 HD
ENDBRANCH  10  23
BRANCH   5  25
ATOM     25  O   UNL     1     -51.036  34.760  20.802  1.00  0.00    -0.507 OA
ATOM     26  H   UNL     1     -50.888  33.794  21.068  1.00  0.00     0.293 HD
ENDBRANCH   5  25
BRANCH   7  27
ATOM     27  O   UNL     1     -54.365  37.918  22.374  1.00  0.00    -0.507 OA
ATOM     28  H   UNL     1     -54.807  38.013  21.467  1.00  0.00     0.293 HD
ENDBRANCH   7  27
TORSDOF 7
ENDMDL
MODEL 8
REMARK VINA RESULT:    -6.691      6.390      9.767
REMARK INTER + INTRA:          -8.559
REMARK INTER:                  -8.184
REMARK INTRA:                  -0.375
REMARK UNBOUND:                -0.303
REMARK SMILES Oc1cc(O)c2cc(O)c(-c3cc(O)c(O)c(O)c3)[o+]c2c1
REMARK SMILES IDX 10 1 20 2 21 3 22 4 2 5 3 6 4 7 6 8 7 9 8 10 11 11 12 12
REMARK SMILES IDX 13 13 19 14 15 15 17 16 14 17 16 19 18 21 9 23 1 25 5 27
REMARK H PARENT 14 18 16 20 18 22 9 24 1 26 5 28
REMARK Flexibility Score: inf
ROOT
ATOM      1  C   UNL     1     -48.151  39.667  28.187  1.00  0.00     0.402 A 
ATOM      2  O   UNL     1     -47.610  40.846  27.883  1.00  0.00    -0.202 OA
ATOM      3  C   UNL     1     -46.823  41.522  28.714  1.00  0.00     0.368 A 
ATOM      4  C   UNL     1     -46.300  42.757  28.319  1.00  0.00     0.162 A 
ATOM      5  C   UNL     1     -45.473  43.480  29.185  1.00  0.00     0.128 A 
ATOM      6  C   UNL     1     -45.168  42.967  30.452  1.00  0.00     0.093 A 
ATOM      7  C   UNL     1     -45.685  41.728  30.862  1.00  0.00     0.136 A 
ATOM      8  C   UNL     1     -46.518  41.001  29.990  1.00  0.00     0.125 A 
ATOM      9  C   UNL     1     -47.055  39.757  30.340  1.00  0.00     0.078 A 
ATOM     10  C   UNL     1     -47.870  39.073  29.435  1.00  0.00     0.223 A 
ENDROOT
BRANCH   1  11
ATOM     11  C   UNL     1     -49.019  39.014  27.182  1.00  0.00     0.091 A 
ATOM     12  C   UNL     1     -48.483  38.193  26.175  1.00  0.00     0.068 A 
ATOM     13  C   UNL     1     -49.324  37.566  25.245  1.00  0.00     0.162 A 
ATOM     14  C   UNL     1     -50.411  39.168  27.268  1.00  0.00     0.068 A 
ATOM     15  C   UNL     1     -50.711  37.743  25.324  1.00  0.00     0.200 A 
ATOM     16  C   UNL     1     -51.258  38.543  26.341  1.00  0.00     0.162 A 
BRANCH  13  17
ATOM     17  O   UNL     1     -48.789  36.757  24.244  1.00  0.00    -0.504 OA
ATOM     18  H   UNL     1     -49.320  36.521  23.414  1.00  0.00     0.293 HD
ENDBRANCH  13  17
BRANCH  15  19
ATOM     19  O   UNL     1     -51.533  37.113  24.389  1.00  0.00    -0.502 OA
ATOM     20  H   UNL     1     -51.165  36.688  23.546  1.00  0.00     0.293 HD
ENDBRANCH  15  19
BRANCH  16  21
ATOM     21  O   UNL     1     -52.638  38.716  26.428  1.00  0.00    -0.504 OA
ATOM     22  H   UNL     1     -53.129  38.638  27.312  1.00  0.00     0.293 HD
ENDBRANCH  16  21
ENDBRANCH   1  11
BRANCH  10  23
ATOM     23  O   UNL     1     -48.369  37.811  29.758  1.00  0.00    -0.500 OA
ATOM     24  H   UNL     1     -48.211  37.008  29.161  1.00  0.00     0.294 HD
ENDBRANCH  10  23
BRANCH   5  25
ATOM     25  O   UNL     1     -44.960  44.710  28.776  1.00  0.00    -0.507 OA
ATOM     26  H   UNL     1     -45.567  45.493  28.565  1.00  0.00     0.293 HD
ENDBRANCH   5  25
BRANCH   7  27
ATOM     27  O   UNL     1     -45.374  41.226  32.125  1.00  0.00    -0.507 OA
ATOM     28  H   UNL     1     -44.419  41.021  32.394  1.00  0.00     0.293 HD
ENDBRANCH   7  27
TORSDOF 7
ENDMDL
MODEL 9
REMARK VINA RESULT:    -6.526      4.132      7.307
REMARK INTER + INTRA:          -8.355
REMARK INTER:                  -8.002
REMARK INTRA:                  -0.354
REMARK UNBOUND:                -0.303
REMARK SMILES Oc1cc(O)c2cc(O)c(-c3cc(O)c(O)c(O)c3)[o+]c2c1
REMARK SMILES IDX 10 1 20 2 21 3 22 4 2 5 3 6 4 7 6 8 7 9 8 10 11 11 12 12
REMARK SMILES IDX 13 13 19 14 15 15 17 16 14 17 16 19 18 21 9 23 1 25 5 27
REMARK H PARENT 14 18 16 20 18 22 9 24 1 26 5 28
REMARK Flexibility Score: inf
ROOT
ATOM      1  C   UNL     1     -49.781  38.302  25.810  1.00  0.00     0.402 A 
ATOM      2  O   UNL     1     -50.088  38.003  27.071  1.00  0.00    -0.202 OA
ATOM      3  C   UNL     1     -49.360  38.395  28.111  1.00  0.00     0.368 A 
ATOM      4  C   UNL     1     -49.749  38.033  29.405  1.00  0.00     0.162 A 
ATOM      5  C   UNL     1     -48.990  38.437  30.507  1.00  0.00     0.128 A 
ATOM      6  C   UNL     1     -47.835  39.207  30.317  1.00  0.00     0.093 A 
ATOM      7  C   UNL     1     -47.432  39.579  29.025  1.00  0.00     0.136 A 
ATOM      8  C   UNL     1     -48.197  39.171  27.915  1.00  0.00     0.125 A 
ATOM      9  C   UNL     1     -47.849  39.519  26.605  1.00  0.00     0.078 A 
ATOM     10  C   UNL     1     -48.647  39.095  25.539  1.00  0.00     0.223 A 
ENDROOT
BRANCH   1  11
ATOM     11  C   UNL     1     -50.665  37.800  24.735  1.00  0.00     0.091 A 
ATOM     12  C   UNL     1     -51.864  38.456  24.407  1.00  0.00     0.068 A 
ATOM     13  C   UNL     1     -52.676  37.976  23.369  1.00  0.00     0.162 A 
ATOM     14  C   UNL     1     -50.273  36.679  23.986  1.00  0.00     0.068 A 
ATOM     15  C   UNL     1     -52.289  36.844  22.642  1.00  0.00     0.200 A 
ATOM     16  C   UNL     1     -51.081  36.195  22.948  1.00  0.00     0.162 A 
BRANCH  13  17
ATOM     17  O   UNL     1     -53.868  38.625  23.051  1.00  0.00    -0.504 OA
ATOM     18  H   UNL     1     -53.878  39.468  22.488  1.00  0.00     0.293 HD
ENDBRANCH  13  17
BRANCH  15  19
ATOM     19  O   UNL     1     -53.112  36.379  21.615  1.00  0.00    -0.502 OA
ATOM     20  H   UNL     1     -53.717  35.574  21.731  1.00  0.00     0.293 HD
ENDBRANCH  15  19
BRANCH  16  21
ATOM     21  O   UNL     1     -50.688  35.072  22.222  1.00  0.00    -0.504 OA
ATOM     22  H   UNL     1     -49.817  35.052  21.704  1.00  0.00     0.293 HD
ENDBRANCH  16  21
ENDBRANCH   1  11
BRANCH  10  23
ATOM     23  O   UNL     1     -48.333  39.479  24.235  1.00  0.00    -0.500 OA
ATOM     24  H   UNL     1     -48.606  38.919  23.436  1.00  0.00     0.294 HD
ENDBRANCH  10  23
BRANCH   5  25
ATOM     25  O   UNL     1     -49.392  38.067  31.789  1.00  0.00    -0.507 OA
ATOM     26  H   UNL     1     -49.803  37.160  31.974  1.00  0.00     0.293 HD
ENDBRANCH   5  25
BRANCH   7  27
ATOM     27  O   UNL     1     -46.281  40.347  28.847  1.00  0.00    -0.507 OA
ATOM     28  H   UNL     1     -45.956  40.610  27.925  1.00  0.00     0.293 HD
ENDBRANCH   7  27
TORSDOF 7
ENDMDL
