MODEL 1
REMARK VINA RESULT:    -4.919      0.000      0.000
REMARK INTER + INTRA:          -9.444
REMARK INTER:                  -8.658
REMARK INTRA:                  -0.786
REMARK UNBOUND:                -0.786
REMARK SMILES CCCCCCC=CCCCCCCCC(=O)[O-]
REMARK SMILES IDX 10 1 11 2 12 3 13 4 14 5 15 6 16 7 17 8 18 9 9 10 8 11 7 12
REMARK SMILES IDX 6 13 5 14 4 15 3 16 2 17 1 18
REMARK H PARENT
REMARK Flexibility Score: inf
ROOT
ATOM      1  C   UNL     1      38.045   7.416   5.328  1.00  0.00     0.004 C 
ENDROOT
BRANCH   1   2
ATOM      2  C   UNL     1      37.055   6.759   4.353  1.00  0.00     0.000 C 
BRANCH   2   3
ATOM      3  C   UNL     1      36.017   7.751   3.806  1.00  0.00     0.000 C 
BRANCH   3   4
ATOM      4  C   UNL     1      36.083   9.086   4.559  1.00  0.00     0.000 C 
BRANCH   4   5
ATOM      5  C   UNL     1      34.981  10.043   4.081  1.00  0.00     0.006 C 
BRANCH   5   6
ATOM      6  C   UNL     1      34.358   9.594   2.752  1.00  0.00     0.053 C 
BRANCH   6   7
ATOM      7  C   UNL     1      33.740  10.741   2.013  1.00  0.00     0.041 C 
ATOM      8  O   UNL     1      34.320  11.858   1.977  1.00  0.00    -0.550 OA
ATOM      9  O   UNL     1      32.540  10.566   1.337  1.00  0.00    -0.550 OA
ENDBRANCH   6   7
ENDBRANCH   5   6
ENDBRANCH   4   5
ENDBRANCH   3   4
ENDBRANCH   2   3
ENDBRANCH   1   2
BRANCH   1  10
ATOM     10  C   UNL     1      39.227   8.082   4.611  1.00  0.00     0.027 C 
BRANCH  10  11
ATOM     11  C   UNL     1      39.655   7.282   3.410  1.00  0.00    -0.031 C 
ATOM     12  C   UNL     1      40.436   7.828   2.468  1.00  0.00    -0.031 C 
BRANCH  12  13
ATOM     13  C   UNL     1      40.877   7.047   1.259  1.00  0.00     0.027 C 
BRANCH  13  14
ATOM     14  C   UNL     1      41.778   7.867   0.319  1.00  0.00     0.004 C 
BRANCH  14  15
ATOM     15  C   UNL     1      41.391   9.355   0.200  1.00  0.00     0.000 C 
BRANCH  15  16
ATOM     16  C   UNL     1      40.889   9.787  -1.190  1.00  0.00    -0.000 C 
BRANCH  16  17
ATOM     17  C   UNL     1      40.817   8.621  -2.186  1.00  0.00    -0.003 C 
ATOM     18  C   UNL     1      40.205   9.068  -3.511  1.00  0.00     0.004 C 
ENDBRANCH  16  17
ENDBRANCH  15  16
ENDBRANCH  14  15
ENDBRANCH  13  14
ENDBRANCH  12  13
ENDBRANCH  10  11
ENDBRANCH   1  10
TORSDOF 13
ENDMDL
MODEL 2
REMARK VINA RESULT:    -4.856      0.989      1.656
REMARK INTER + INTRA:          -9.332
REMARK INTER:                  -8.104
REMARK INTRA:                  -1.228
REMARK UNBOUND:                -0.786
REMARK SMILES CCCCCCC=CCCCCCCCC(=O)[O-]
REMARK SMILES IDX 10 1 11 2 12 3 13 4 14 5 15 6 16 7 17 8 18 9 9 10 8 11 7 12
REMARK SMILES IDX 6 13 5 14 4 15 3 16 2 17 1 18
REMARK H PARENT
REMARK Flexibility Score: inf
ROOT
ATOM      1  C   UNL     1      38.835   7.892   5.268  1.00  0.00     0.004 C 
ENDROOT
BRANCH   1   2
ATOM      2  C   UNL     1      37.838   7.185   4.337  1.00  0.00     0.000 C 
BRANCH   2   3
ATOM      3  C   UNL     1      36.518   7.956   4.186  1.00  0.00     0.000 C 
BRANCH   3   4
ATOM      4  C   UNL     1      36.563   9.277   4.963  1.00  0.00     0.000 C 
BRANCH   4   5
ATOM      5  C   UNL     1      35.614  10.314   4.343  1.00  0.00     0.006 C 
BRANCH   5   6
ATOM      6  C   UNL     1      34.503   9.659   3.512  1.00  0.00     0.053 C 
BRANCH   6   7
ATOM      7  C   UNL     1      34.023  10.562   2.417  1.00  0.00     0.041 C 
ATOM      8  O   UNL     1      34.833  11.315   1.815  1.00  0.00    -0.550 OA
ATOM      9  O   UNL     1      32.686  10.548   2.040  1.00  0.00    -0.550 OA
ENDBRANCH   6   7
ENDBRANCH   5   6
ENDBRANCH   4   5
ENDBRANCH   3   4
ENDBRANCH   2   3
ENDBRANCH   1   2
BRANCH   1  10
ATOM     10  C   UNL     1      40.079   8.402   4.526  1.00  0.00     0.027 C 
BRANCH  10  11
ATOM     11  C   UNL     1      40.363   7.567   3.307  1.00  0.00    -0.031 C 
ATOM     12  C   UNL     1      40.752   8.142   2.161  1.00  0.00    -0.031 C 
BRANCH  12  13
ATOM     13  C   UNL     1      41.042   7.328   0.928  1.00  0.00     0.027 C 
BRANCH  13  14
ATOM     14  C   UNL     1      41.934   8.075  -0.080  1.00  0.00     0.004 C 
BRANCH  14  15
ATOM     15  C   UNL     1      41.165   8.762  -1.227  1.00  0.00     0.000 C 
BRANCH  15  16
ATOM     16  C   UNL     1      40.642  10.174  -0.905  1.00  0.00    -0.000 C 
BRANCH  16  17
ATOM     17  C   UNL     1      41.601  10.976  -0.014  1.00  0.00    -0.003 C 
ATOM     18  C   UNL     1      40.845  11.692   1.101  1.00  0.00     0.004 C 
ENDBRANCH  16  17
ENDBRANCH  15  16
ENDBRANCH  14  15
ENDBRANCH  13  14
ENDBRANCH  12  13
ENDBRANCH  10  11
ENDBRANCH   1  10
TORSDOF 13
ENDMDL
MODEL 3
REMARK VINA RESULT:    -4.673      7.327     11.907
REMARK INTER + INTRA:          -9.010
REMARK INTER:                  -8.196
REMARK INTRA:                  -0.815
REMARK UNBOUND:                -0.786
REMARK SMILES CCCCCCC=CCCCCCCCC(=O)[O-]
REMARK SMILES IDX 10 1 11 2 12 3 13 4 14 5 15 6 16 7 17 8 18 9 9 10 8 11 7 12
REMARK SMILES IDX 6 13 5 14 4 15 3 16 2 17 1 18
REMARK H PARENT
REMARK Flexibility Score: inf
ROOT
ATOM      1  C   UNL     1      41.106   6.569  -8.980  1.00  0.00     0.004 C 
ENDROOT
BRANCH   1   2
ATOM      2  C   UNL     1      42.031   5.356  -8.795  1.00  0.00     0.000 C 
BRANCH   2   3
ATOM      3  C   UNL     1      41.725   4.222  -9.784  1.00  0.00     0.000 C 
BRANCH   3   4
ATOM      4  C   UNL     1      41.654   2.869  -9.064  1.00  0.00     0.000 C 
BRANCH   4   5
ATOM      5  C   UNL     1      41.801   3.045  -7.546  1.00  0.00     0.006 C 
BRANCH   5   6
ATOM      6  C   UNL     1      42.993   2.259  -6.983  1.00  0.00     0.053 C 
BRANCH   6   7
ATOM      7  C   UNL     1      42.563   1.264  -5.949  1.00  0.00     0.041 C 
ATOM      8  O   UNL     1      41.853   1.629  -4.975  1.00  0.00    -0.550 OA
ATOM      9  O   UNL     1      42.918  -0.072  -6.079  1.00  0.00    -0.550 OA
ENDBRANCH   6   7
ENDBRANCH   5   6
ENDBRANCH   4   5
ENDBRANCH   3   4
ENDBRANCH   2   3
ENDBRANCH   1   2
BRANCH   1  10
ATOM     10  C   UNL     1      39.666   6.290  -8.529  1.00  0.00     0.027 C 
BRANCH  10  11
ATOM     11  C   UNL     1      39.463   6.679  -7.089  1.00  0.00    -0.031 C 
ATOM     12  C   UNL     1      39.255   7.958  -6.750  1.00  0.00    -0.031 C 
BRANCH  12  13
ATOM     13  C   UNL     1      39.049   8.372  -5.318  1.00  0.00     0.027 C 
BRANCH  13  14
ATOM     14  C   UNL     1      40.365   8.745  -4.613  1.00  0.00     0.004 C 
BRANCH  14  15
ATOM     15  C   UNL     1      40.207   9.146  -3.133  1.00  0.00     0.000 C 
BRANCH  15  16
ATOM     16  C   UNL     1      41.378   8.741  -2.220  1.00  0.00    -0.000 C 
BRANCH  16  17
ATOM     17  C   UNL     1      41.084   8.978  -0.732  1.00  0.00    -0.003 C 
ATOM     18  C   UNL     1      41.443   7.751   0.101  1.00  0.00     0.004 C 
ENDBRANCH  16  17
ENDBRANCH  15  16
ENDBRANCH  14  15
ENDBRANCH  13  14
ENDBRANCH  12  13
ENDBRANCH  10  11
ENDBRANCH   1  10
TORSDOF 13
ENDMDL
MODEL 4
REMARK VINA RESULT:    -4.664     11.253     13.067
REMARK INTER + INTRA:          -8.994
REMARK INTER:                  -7.052
REMARK INTRA:                  -1.942
REMARK UNBOUND:                -0.786
REMARK SMILES CCCCCCC=CCCCCCCCC(=O)[O-]
REMARK SMILES IDX 10 1 11 2 12 3 13 4 14 5 15 6 16 7 17 8 18 9 9 10 8 11 7 12
REMARK SMILES IDX 6 13 5 14 4 15 3 16 2 17 1 18
REMARK H PARENT
REMARK Flexibility Score: inf
ROOT
ATOM      1  C   UNL     1      39.114   5.788  -7.586  1.00  0.00     0.004 C 
ENDROOT
BRANCH   1   2
ATOM      2  C   UNL     1      38.557   4.361  -7.708  1.00  0.00     0.000 C 
BRANCH   2   3
ATOM      3  C   UNL     1      39.517   3.300  -7.149  1.00  0.00     0.000 C 
BRANCH   3   4
ATOM      4  C   UNL     1      39.757   2.183  -8.172  1.00  0.00     0.000 C 
BRANCH   4   5
ATOM      5  C   UNL     1      38.496   1.923  -9.010  1.00  0.00     0.006 C 
BRANCH   5   6
ATOM      6  C   UNL     1      38.767   2.031 -10.517  1.00  0.00     0.053 C 
BRANCH   6   7
ATOM      7  C   UNL     1      37.881   3.048 -11.168  1.00  0.00     0.041 C 
ATOM      8  O   UNL     1      38.271   4.238 -11.300  1.00  0.00    -0.550 OA
ATOM      9  O   UNL     1      36.637   2.673 -11.659  1.00  0.00    -0.550 OA
ENDBRANCH   6   7
ENDBRANCH   5   6
ENDBRANCH   4   5
ENDBRANCH   3   4
ENDBRANCH   2   3
ENDBRANCH   1   2
BRANCH   1  10
ATOM     10  C   UNL     1      39.786   6.273  -8.878  1.00  0.00     0.027 C 
BRANCH  10  11
ATOM     11  C   UNL     1      41.165   5.688  -9.026  1.00  0.00    -0.031 C 
ATOM     12  C   UNL     1      41.455   4.872 -10.048  1.00  0.00    -0.031 C 
BRANCH  12  13
ATOM     13  C   UNL     1      42.827   4.275 -10.216  1.00  0.00     0.027 C 
BRANCH  13  14
ATOM     14  C   UNL     1      42.989   2.940  -9.468  1.00  0.00     0.004 C 
BRANCH  14  15
ATOM     15  C   UNL     1      43.306   3.084  -7.966  1.00  0.00     0.000 C 
BRANCH  15  16
ATOM     16  C   UNL     1      43.704   1.776  -7.257  1.00  0.00    -0.000 C 
BRANCH  16  17
ATOM     17  C   UNL     1      43.596   1.869  -5.729  1.00  0.00    -0.003 C 
ATOM     18  C   UNL     1      42.173   1.576  -5.260  1.00  0.00     0.004 C 
ENDBRANCH  16  17
ENDBRANCH  15  16
ENDBRANCH  14  15
ENDBRANCH  13  14
ENDBRANCH  12  13
ENDBRANCH  10  11
ENDBRANCH   1  10
TORSDOF 13
ENDMDL
MODEL 5
REMARK VINA RESULT:    -4.657      4.221      6.511
REMARK INTER + INTRA:          -8.982
REMARK INTER:                  -7.088
REMARK INTRA:                  -1.894
REMARK UNBOUND:                -0.786
REMARK SMILES CCCCCCC=CCCCCCCCC(=O)[O-]
REMARK SMILES IDX 10 1 11 2 12 3 13 4 14 5 15 6 16 7 17 8 18 9 9 10 8 11 7 12
REMARK SMILES IDX 6 13 5 14 4 15 3 16 2 17 1 18
REMARK H PARENT
REMARK Flexibility Score: inf
ROOT
ATOM      1  C   UNL     1      34.431   6.519   7.224  1.00  0.00     0.004 C 
ENDROOT
BRANCH   1   2
ATOM      2  C   UNL     1      34.812   5.571   6.075  1.00  0.00     0.000 C 
BRANCH   2   3
ATOM      3  C   UNL     1      36.238   5.811   5.557  1.00  0.00     0.000 C 
BRANCH   3   4
ATOM      4  C   UNL     1      36.217   6.328   4.113  1.00  0.00     0.000 C 
BRANCH   4   5
ATOM      5  C   UNL     1      37.572   6.939   3.728  1.00  0.00     0.006 C 
BRANCH   5   6
ATOM      6  C   UNL     1      38.268   7.609   4.920  1.00  0.00     0.053 C 
BRANCH   6   7
ATOM      7  C   UNL     1      39.502   8.347   4.501  1.00  0.00     0.041 C 
ATOM      8  O   UNL     1      40.459   7.729   3.965  1.00  0.00    -0.550 OA
ATOM      9  O   UNL     1      39.581   9.723   4.671  1.00  0.00    -0.550 OA
ENDBRANCH   6   7
ENDBRANCH   5   6
ENDBRANCH   4   5
ENDBRANCH   3   4
ENDBRANCH   2   3
ENDBRANCH   1   2
BRANCH   1  10
ATOM     10  C   UNL     1      35.656   7.157   7.894  1.00  0.00     0.027 C 
BRANCH  10  11
ATOM     11  C   UNL     1      35.632   8.656   7.753  1.00  0.00    -0.031 C 
ATOM     12  C   UNL     1      35.178   9.229   6.630  1.00  0.00    -0.031 C 
BRANCH  12  13
ATOM     13  C   UNL     1      35.144  10.725   6.466  1.00  0.00     0.027 C 
BRANCH  13  14
ATOM     14  C   UNL     1      35.300  11.164   5.000  1.00  0.00     0.004 C 
BRANCH  14  15
ATOM     15  C   UNL     1      35.618  10.017   4.019  1.00  0.00     0.000 C 
BRANCH  15  16
ATOM     16  C   UNL     1      34.517   9.720   2.986  1.00  0.00    -0.000 C 
BRANCH  16  17
ATOM     17  C   UNL     1      34.214  10.919   2.076  1.00  0.00    -0.003 C 
ATOM     18  C   UNL     1      32.745  10.939   1.663  1.00  0.00     0.004 C 
ENDBRANCH  16  17
ENDBRANCH  15  16
ENDBRANCH  14  15
ENDBRANCH  13  14
ENDBRANCH  12  13
ENDBRANCH  10  11
ENDBRANCH   1  10
TORSDOF 13
ENDMDL
MODEL 6
REMARK VINA RESULT:    -4.657      5.531      9.444
REMARK INTER + INTRA:          -8.982
REMARK INTER:                  -8.203
REMARK INTRA:                  -0.779
REMARK UNBOUND:                -0.786
REMARK SMILES CCCCCCC=CCCCCCCCC(=O)[O-]
REMARK SMILES IDX 10 1 11 2 12 3 13 4 14 5 15 6 16 7 17 8 18 9 9 10 8 11 7 12
REMARK SMILES IDX 6 13 5 14 4 15 3 16 2 17 1 18
REMARK H PARENT
REMARK Flexibility Score: inf
ROOT
ATOM      1  C   UNL     1      40.069   8.320  -5.823  1.00  0.00     0.004 C 
ENDROOT
BRANCH   1   2
ATOM      2  C   UNL     1      39.180   8.728  -4.637  1.00  0.00     0.000 C 
BRANCH   2   3
ATOM      3  C   UNL     1      39.993   9.185  -3.417  1.00  0.00     0.000 C 
BRANCH   3   4
ATOM      4  C   UNL     1      41.465   8.774  -3.552  1.00  0.00     0.000 C 
BRANCH   4   5
ATOM      5  C   UNL     1      42.145   8.702  -2.178  1.00  0.00     0.006 C 
BRANCH   5   6
ATOM      6  C   UNL     1      41.140   8.456  -1.044  1.00  0.00     0.053 C 
BRANCH   6   7
ATOM      7  C   UNL     1      41.198   9.535  -0.007  1.00  0.00     0.041 C 
ATOM      8  O   UNL     1      41.203   9.239   1.217  1.00  0.00    -0.550 OA
ATOM      9  O   UNL     1      41.283  10.866  -0.393  1.00  0.00    -0.550 OA
ENDBRANCH   6   7
ENDBRANCH   5   6
ENDBRANCH   4   5
ENDBRANCH   3   4
ENDBRANCH   2   3
ENDBRANCH   1   2
BRANCH   1  10
ATOM     10  C   UNL     1      39.257   7.837  -7.033  1.00  0.00     0.027 C 
BRANCH  10  11
ATOM     11  C   UNL     1      39.718   6.478  -7.487  1.00  0.00    -0.031 C 
ATOM     12  C   UNL     1      38.922   5.407  -7.355  1.00  0.00    -0.031 C 
BRANCH  12  13
ATOM     13  C   UNL     1      39.360   4.039  -7.802  1.00  0.00     0.027 C 
BRANCH  13  14
ATOM     14  C   UNL     1      40.885   3.933  -7.984  1.00  0.00     0.004 C 
BRANCH  14  15
ATOM     15  C   UNL     1      41.477   2.554  -7.632  1.00  0.00     0.000 C 
BRANCH  15  16
ATOM     16  C   UNL     1      42.970   2.563  -7.258  1.00  0.00    -0.000 C 
BRANCH  16  17
ATOM     17  C   UNL     1      43.210   2.350  -5.757  1.00  0.00    -0.003 C 
ATOM     18  C   UNL     1      42.747   0.963  -5.318  1.00  0.00     0.004 C 
ENDBRANCH  16  17
ENDBRANCH  15  16
ENDBRANCH  14  15
ENDBRANCH  13  14
ENDBRANCH  12  13
ENDBRANCH  10  11
ENDBRANCH   1  10
TORSDOF 13
ENDMDL
MODEL 7
REMARK VINA RESULT:    -4.656     11.103     12.949
REMARK INTER + INTRA:          -8.980
REMARK INTER:                  -6.846
REMARK INTRA:                  -2.134
REMARK UNBOUND:                -0.786
REMARK SMILES CCCCCCC=CCCCCCCCC(=O)[O-]
REMARK SMILES IDX 10 1 11 2 12 3 13 4 14 5 15 6 16 7 17 8 18 9 9 10 8 11 7 12
REMARK SMILES IDX 6 13 5 14 4 15 3 16 2 17 1 18
REMARK H PARENT
REMARK Flexibility Score: inf
ROOT
ATOM      1  C   UNL     1      38.181   3.651  -9.412  1.00  0.00     0.004 C 
ENDROOT
BRANCH   1   2
ATOM      2  C   UNL     1      38.798   3.294  -8.050  1.00  0.00     0.000 C 
BRANCH   2   3
ATOM      3  C   UNL     1      39.167   4.536  -7.224  1.00  0.00     0.000 C 
BRANCH   3   4
ATOM      4  C   UNL     1      39.136   5.801  -8.091  1.00  0.00     0.000 C 
BRANCH   4   5
ATOM      5  C   UNL     1      40.555   6.325  -8.353  1.00  0.00     0.006 C 
BRANCH   5   6
ATOM      6  C   UNL     1      40.804   6.609  -9.840  1.00  0.00     0.053 C 
BRANCH   6   7
ATOM      7  C   UNL     1      39.673   7.374 -10.456  1.00  0.00     0.041 C 
ATOM      8  O   UNL     1      39.538   8.604 -10.222  1.00  0.00    -0.550 OA
ATOM      9  O   UNL     1      38.789   6.735 -11.315  1.00  0.00    -0.550 OA
ENDBRANCH   6   7
ENDBRANCH   5   6
ENDBRANCH   4   5
ENDBRANCH   3   4
ENDBRANCH   2   3
ENDBRANCH   1   2
BRANCH   1  10
ATOM     10  C   UNL     1      38.918   2.992 -10.586  1.00  0.00     0.027 C 
BRANCH  10  11
ATOM     11  C   UNL     1      40.374   2.785 -10.265  1.00  0.00    -0.031 C 
ATOM     12  C   UNL     1      41.326   3.390 -10.989  1.00  0.00    -0.031 C 
BRANCH  12  13
ATOM     13  C   UNL     1      42.788   3.199 -10.688  1.00  0.00     0.027 C 
BRANCH  13  14
ATOM     14  C   UNL     1      43.190   3.766  -9.315  1.00  0.00     0.004 C 
BRANCH  14  15
ATOM     15  C   UNL     1      43.494   2.696  -8.246  1.00  0.00     0.000 C 
BRANCH  15  16
ATOM     16  C   UNL     1      42.469   2.610  -7.102  1.00  0.00    -0.000 C 
BRANCH  16  17
ATOM     17  C   UNL     1      43.110   2.263  -5.751  1.00  0.00    -0.003 C 
ATOM     18  C   UNL     1      42.801   0.823  -5.350  1.00  0.00     0.004 C 
ENDBRANCH  16  17
ENDBRANCH  15  16
ENDBRANCH  14  15
ENDBRANCH  13  14
ENDBRANCH  12  13
ENDBRANCH  10  11
ENDBRANCH   1  10
TORSDOF 13
ENDMDL
MODEL 8
REMARK VINA RESULT:    -4.650      1.790      3.201
REMARK INTER + INTRA:          -8.971
REMARK INTER:                  -7.820
REMARK INTRA:                  -1.151
REMARK UNBOUND:                -0.786
REMARK SMILES CCCCCCC=CCCCCCCCC(=O)[O-]
REMARK SMILES IDX 10 1 11 2 12 3 13 4 14 5 15 6 16 7 17 8 18 9 9 10 8 11 7 12
REMARK SMILES IDX 6 13 5 14 4 15 3 16 2 17 1 18
REMARK H PARENT
REMARK Flexibility Score: inf
ROOT
ATOM      1  C   UNL     1      39.364  10.412   4.391  1.00  0.00     0.004 C 
ENDROOT
BRANCH   1   2
ATOM      2  C   UNL     1      38.740  10.820   5.735  1.00  0.00     0.000 C 
BRANCH   2   3
ATOM      3  C   UNL     1      37.270  10.391   5.860  1.00  0.00     0.000 C 
BRANCH   3   4
ATOM      4  C   UNL     1      36.528  10.578   4.531  1.00  0.00     0.000 C 
BRANCH   4   5
ATOM      5  C   UNL     1      35.139   9.926   4.579  1.00  0.00     0.006 C 
BRANCH   5   6
ATOM      6  C   UNL     1      34.690   9.413   3.204  1.00  0.00     0.053 C 
BRANCH   6   7
ATOM      7  C   UNL     1      34.001  10.480   2.411  1.00  0.00     0.041 C 
ATOM      8  O   UNL     1      32.745  10.495   2.324  1.00  0.00    -0.550 OA
ATOM      9  O   UNL     1      34.745  11.478   1.795  1.00  0.00    -0.550 OA
ENDBRANCH   6   7
ENDBRANCH   5   6
ENDBRANCH   4   5
ENDBRANCH   3   4
ENDBRANCH   2   3
ENDBRANCH   1   2
BRANCH   1  10
ATOM     10  C   UNL     1      40.284  11.495   3.813  1.00  0.00     0.027 C 
BRANCH  10  11
ATOM     11  C   UNL     1      41.082  10.966   2.652  1.00  0.00    -0.031 C 
ATOM     12  C   UNL     1      40.963  11.513   1.434  1.00  0.00    -0.031 C 
BRANCH  12  13
ATOM     13  C   UNL     1      41.751  11.001   0.258  1.00  0.00     0.027 C 
BRANCH  13  14
ATOM     14  C   UNL     1      40.878  10.240  -0.754  1.00  0.00     0.004 C 
BRANCH  14  15
ATOM     15  C   UNL     1      41.335   8.793  -1.032  1.00  0.00     0.000 C 
BRANCH  15  16
ATOM     16  C   UNL     1      41.851   8.026   0.199  1.00  0.00    -0.000 C 
BRANCH  16  17
ATOM     17  C   UNL     1      40.826   7.026   0.750  1.00  0.00    -0.003 C 
ATOM     18  C   UNL     1      40.611   7.229   2.248  1.00  0.00     0.004 C 
ENDBRANCH  16  17
ENDBRANCH  15  16
ENDBRANCH  14  15
ENDBRANCH  13  14
ENDBRANCH  12  13
ENDBRANCH  10  11
ENDBRANCH   1  10
TORSDOF 13
ENDMDL
MODEL 9
REMARK VINA RESULT:    -4.493     11.899     13.470
REMARK INTER + INTRA:          -8.694
REMARK INTER:                  -6.536
REMARK INTRA:                  -2.158
REMARK UNBOUND:                -0.786
REMARK SMILES CCCCCCC=CCCCCCCCC(=O)[O-]
REMARK SMILES IDX 10 1 11 2 12 3 13 4 14 5 15 6 16 7 17 8 18 9 9 10 8 11 7 12
REMARK SMILES IDX 6 13 5 14 4 15 3 16 2 17 1 18
REMARK H PARENT
REMARK Flexibility Score: inf
ROOT
ATOM      1  C   UNL     1      41.289   2.358  -6.514  1.00  0.00     0.004 C 
ENDROOT
BRANCH   1   2
ATOM      2  C   UNL     1      40.306   2.949  -7.537  1.00  0.00     0.000 C 
BRANCH   2   3
ATOM      3  C   UNL     1      39.571   1.869  -8.344  1.00  0.00     0.000 C 
BRANCH   3   4
ATOM      4  C   UNL     1      38.496   2.493  -9.244  1.00  0.00     0.000 C 
BRANCH   4   5
ATOM      5  C   UNL     1      38.906   2.420 -10.722  1.00  0.00     0.006 C 
BRANCH   5   6
ATOM      6  C   UNL     1      37.693   2.445 -11.662  1.00  0.00     0.053 C 
BRANCH   6   7
ATOM      7  C   UNL     1      36.785   3.598 -11.365  1.00  0.00     0.041 C 
ATOM      8  O   UNL     1      37.153   4.776 -11.615  1.00  0.00    -0.550 OA
ATOM      9  O   UNL     1      35.518   3.368 -10.844  1.00  0.00    -0.550 OA
ENDBRANCH   6   7
ENDBRANCH   5   6
ENDBRANCH   4   5
ENDBRANCH   3   4
ENDBRANCH   2   3
ENDBRANCH   1   2
BRANCH   1  10
ATOM     10  C   UNL     1      42.756   2.558  -6.919  1.00  0.00     0.027 C 
BRANCH  10  11
ATOM     11  C   UNL     1      42.862   3.269  -8.241  1.00  0.00    -0.031 C 
ATOM     12  C   UNL     1      43.511   2.706  -9.269  1.00  0.00    -0.031 C 
BRANCH  12  13
ATOM     13  C   UNL     1      43.630   3.398 -10.601  1.00  0.00     0.027 C 
BRANCH  13  14
ATOM     14  C   UNL     1      42.302   3.423 -11.377  1.00  0.00     0.004 C 
BRANCH  14  15
ATOM     15  C   UNL     1      41.954   4.788 -12.005  1.00  0.00     0.000 C 
BRANCH  15  16
ATOM     16  C   UNL     1      40.700   5.469 -11.428  1.00  0.00    -0.000 C 
BRANCH  16  17
ATOM     17  C   UNL     1      40.853   5.845  -9.948  1.00  0.00    -0.003 C 
ATOM     18  C   UNL     1      39.493   6.069  -9.294  1.00  0.00     0.004 C 
ENDBRANCH  16  17
ENDBRANCH  15  16
ENDBRANCH  14  15
ENDBRANCH  13  14
ENDBRANCH  12  13
ENDBRANCH  10  11
ENDBRANCH   1  10
TORSDOF 13
ENDMDL
