MODEL 1
REMARK VINA RESULT:    -3.754      0.000      0.000
REMARK INTER + INTRA:          -4.509
REMARK INTER:                  -4.412
REMARK INTRA:                  -0.097
REMARK UNBOUND:                -0.097
REMARK SMILES CCCCC(=O)[O-]
REMARK SMILES IDX 4 1 5 2 6 3 7 4 3 5 2 6 1 7
REMARK H PARENT
REMARK Flexibility Score: inf
ROOT
ATOM      1  C   UNL     1       4.852  17.800  -6.529  1.00  0.00     0.053 C 
ENDROOT
BRANCH   1   2
ATOM      2  C   UNL     1       6.114  17.765  -5.724  1.00  0.00     0.041 C 
ATOM      3  O   UNL     1       6.142  18.266  -4.569  1.00  0.00    -0.550 OA
ATOM      4  O   UNL     1       7.268  17.207  -6.260  1.00  0.00    -0.550 OA
ENDBRANCH   1   2
BRANCH   1   5
ATOM      5  C   UNL     1       3.973  16.565  -6.276  1.00  0.00     0.006 C 
BRANCH   5   6
ATOM      6  C   UNL     1       4.408  15.312  -7.056  1.00  0.00    -0.003 C 
ATOM      7  C   UNL     1       4.915  15.633  -8.462  1.00  0.00     0.004 C 
ENDBRANCH   5   6
ENDBRANCH   1   5
TORSDOF 3
ENDMDL
MODEL 2
REMARK VINA RESULT:    -3.679      1.875      2.834
REMARK INTER + INTRA:          -4.421
REMARK INTER:                  -4.336
REMARK INTRA:                  -0.085
REMARK UNBOUND:                -0.097
REMARK SMILES CCCCC(=O)[O-]
REMARK SMILES IDX 4 1 5 2 6 3 7 4 3 5 2 6 1 7
REMARK H PARENT
REMARK Flexibility Score: inf
ROOT
ATOM      1  C   UNL     1       6.278  15.692  -7.542  1.00  0.00     0.053 C 
ENDROOT
BRANCH   1   2
ATOM      2  C   UNL     1       7.572  16.375  -7.857  1.00  0.00     0.041 C 
ATOM      3  O   UNL     1       7.873  17.456  -7.286  1.00  0.00    -0.550 OA
ATOM      4  O   UNL     1       8.432  15.835  -8.806  1.00  0.00    -0.550 OA
ENDBRANCH   1   2
BRANCH   1   5
ATOM      5  C   UNL     1       5.068  16.604  -7.798  1.00  0.00     0.006 C 
BRANCH   5   6
ATOM      6  C   UNL     1       4.210  16.877  -6.549  1.00  0.00    -0.003 C 
ATOM      7  C   UNL     1       4.947  17.697  -5.490  1.00  0.00     0.004 C 
ENDBRANCH   5   6
ENDBRANCH   1   5
TORSDOF 3
ENDMDL
MODEL 3
REMARK VINA RESULT:    -3.656      0.426      1.289
REMARK INTER + INTRA:          -4.393
REMARK INTER:                  -4.286
REMARK INTRA:                  -0.108
REMARK UNBOUND:                -0.097
REMARK SMILES CCCCC(=O)[O-]
REMARK SMILES IDX 4 1 5 2 6 3 7 4 3 5 2 6 1 7
REMARK H PARENT
REMARK Flexibility Score: inf
ROOT
ATOM      1  C   UNL     1       4.862  17.653  -6.912  1.00  0.00     0.053 C 
ENDROOT
BRANCH   1   2
ATOM      2  C   UNL     1       6.171  17.801  -6.201  1.00  0.00     0.041 C 
ATOM      3  O   UNL     1       7.245  17.491  -6.781  1.00  0.00    -0.550 OA
ATOM      4  O   UNL     1       6.203  18.250  -4.887  1.00  0.00    -0.550 OA
ENDBRANCH   1   2
BRANCH   1   5
ATOM      5  C   UNL     1       4.138  16.355  -6.523  1.00  0.00     0.006 C 
BRANCH   5   6
ATOM      6  C   UNL     1       4.639  15.106  -7.270  1.00  0.00    -0.003 C 
ATOM      7  C   UNL     1       4.971  15.385  -8.736  1.00  0.00     0.004 C 
ENDBRANCH   5   6
ENDBRANCH   1   5
TORSDOF 3
ENDMDL
MODEL 4
REMARK VINA RESULT:    -3.483     13.514     14.419
REMARK INTER + INTRA:          -4.190
REMARK INTER:                  -4.077
REMARK INTRA:                  -0.113
REMARK UNBOUND:                -0.097
REMARK SMILES CCCCC(=O)[O-]
REMARK SMILES IDX 4 1 5 2 6 3 7 4 3 5 2 6 1 7
REMARK H PARENT
REMARK Flexibility Score: inf
ROOT
ATOM      1  C   UNL     1      19.180  19.121 -12.720  1.00  0.00     0.053 C 
ENDROOT
BRANCH   1   2
ATOM      2  C   UNL     1      18.957  18.230 -11.539  1.00  0.00     0.041 C 
ATOM      3  O   UNL     1      18.586  18.717 -10.439  1.00  0.00    -0.550 OA
ATOM      4  O   UNL     1      19.190  16.864 -11.643  1.00  0.00    -0.550 OA
ENDBRANCH   1   2
BRANCH   1   5
ATOM      5  C   UNL     1      17.869  19.446 -13.453  1.00  0.00     0.006 C 
BRANCH   5   6
ATOM      6  C   UNL     1      17.277  20.823 -13.105  1.00  0.00    -0.003 C 
ATOM      7  C   UNL     1      16.117  20.739 -12.112  1.00  0.00     0.004 C 
ENDBRANCH   5   6
ENDBRANCH   1   5
TORSDOF 3
ENDMDL
MODEL 5
REMARK VINA RESULT:    -3.469     12.782     13.781
REMARK INTER + INTRA:          -4.174
REMARK INTER:                  -4.145
REMARK INTRA:                  -0.030
REMARK UNBOUND:                -0.097
REMARK SMILES CCCCC(=O)[O-]
REMARK SMILES IDX 4 1 5 2 6 3 7 4 3 5 2 6 1 7
REMARK H PARENT
REMARK Flexibility Score: inf
ROOT
ATOM      1  C   UNL     1      16.772  19.764 -12.259  1.00  0.00     0.053 C 
ENDROOT
BRANCH   1   2
ATOM      2  C   UNL     1      18.042  19.010 -12.014  1.00  0.00     0.041 C 
ATOM      3  O   UNL     1      18.722  18.583 -12.984  1.00  0.00    -0.550 OA
ATOM      4  O   UNL     1      18.458  18.751 -10.715  1.00  0.00    -0.550 OA
ENDBRANCH   1   2
BRANCH   1   5
ATOM      5  C   UNL     1      17.027  21.116 -12.944  1.00  0.00     0.006 C 
BRANCH   5   6
ATOM      6  C   UNL     1      15.908  22.151 -12.732  1.00  0.00    -0.003 C 
ATOM      7  C   UNL     1      14.719  21.588 -11.952  1.00  0.00     0.004 C 
ENDBRANCH   5   6
ENDBRANCH   1   5
TORSDOF 3
ENDMDL
MODEL 6
REMARK VINA RESULT:    -3.432     13.605     14.371
REMARK INTER + INTRA:          -4.130
REMARK INTER:                  -4.025
REMARK INTRA:                  -0.105
REMARK UNBOUND:                -0.097
REMARK SMILES CCCCC(=O)[O-]
REMARK SMILES IDX 4 1 5 2 6 3 7 4 3 5 2 6 1 7
REMARK H PARENT
REMARK Flexibility Score: inf
ROOT
ATOM      1  C   UNL     1      18.050  20.421 -13.429  1.00  0.00     0.053 C 
ENDROOT
BRANCH   1   2
ATOM      2  C   UNL     1      16.921  20.889 -12.564  1.00  0.00     0.041 C 
ATOM      3  O   UNL     1      16.576  20.220 -11.555  1.00  0.00    -0.550 OA
ATOM      4  O   UNL     1      16.228  22.048 -12.890  1.00  0.00    -0.550 OA
ENDBRANCH   1   2
BRANCH   1   5
ATOM      5  C   UNL     1      17.774  19.036 -14.036  1.00  0.00     0.006 C 
BRANCH   5   6
ATOM      6  C   UNL     1      18.859  17.988 -13.733  1.00  0.00    -0.003 C 
ATOM      7  C   UNL     1      19.007  17.700 -12.239  1.00  0.00     0.004 C 
ENDBRANCH   5   6
ENDBRANCH   1   5
TORSDOF 3
ENDMDL
MODEL 7
REMARK VINA RESULT:    -3.395      2.327      2.869
REMARK INTER + INTRA:          -4.087
REMARK INTER:                  -4.066
REMARK INTRA:                  -0.021
REMARK UNBOUND:                -0.097
REMARK SMILES CCCCC(=O)[O-]
REMARK SMILES IDX 4 1 5 2 6 3 7 4 3 5 2 6 1 7
REMARK H PARENT
REMARK Flexibility Score: inf
ROOT
ATOM      1  C   UNL     1       6.116  16.845  -7.413  1.00  0.00     0.053 C 
ENDROOT
BRANCH   1   2
ATOM      2  C   UNL     1       5.752  17.694  -6.235  1.00  0.00     0.041 C 
ATOM      3  O   UNL     1       6.505  18.639  -5.879  1.00  0.00    -0.550 OA
ATOM      4  O   UNL     1       4.599  17.421  -5.509  1.00  0.00    -0.550 OA
ENDBRANCH   1   2
BRANCH   1   5
ATOM      5  C   UNL     1       7.619  16.905  -7.725  1.00  0.00     0.006 C 
BRANCH   5   6
ATOM      6  C   UNL     1       8.021  16.194  -9.029  1.00  0.00    -0.003 C 
ATOM      7  C   UNL     1       8.054  14.672  -8.891  1.00  0.00     0.004 C 
ENDBRANCH   5   6
ENDBRANCH   1   5
TORSDOF 3
ENDMDL
MODEL 8
REMARK VINA RESULT:    -3.383     12.681     13.561
REMARK INTER + INTRA:          -4.073
REMARK INTER:                  -4.041
REMARK INTRA:                  -0.032
REMARK UNBOUND:                -0.097
REMARK SMILES CCCCC(=O)[O-]
REMARK SMILES IDX 4 1 5 2 6 3 7 4 3 5 2 6 1 7
REMARK H PARENT
REMARK Flexibility Score: inf
ROOT
ATOM      1  C   UNL     1      16.252  20.247 -12.251  1.00  0.00     0.053 C 
ENDROOT
BRANCH   1   2
ATOM      2  C   UNL     1      15.470  21.524 -12.249  1.00  0.00     0.041 C 
ATOM      3  O   UNL     1      15.882  22.520 -12.899  1.00  0.00    -0.550 OA
ATOM      4  O   UNL     1      14.303  21.624 -11.502  1.00  0.00    -0.550 OA
ENDBRANCH   1   2
BRANCH   1   5
ATOM      5  C   UNL     1      17.519  20.350 -13.114  1.00  0.00     0.006 C 
BRANCH   5   6
ATOM      6  C   UNL     1      18.490  19.166 -12.951  1.00  0.00    -0.003 C 
ATOM      7  C   UNL     1      18.510  18.607 -11.528  1.00  0.00     0.004 C 
ENDBRANCH   5   6
ENDBRANCH   1   5
TORSDOF 3
ENDMDL
MODEL 9
REMARK VINA RESULT:    -3.377     12.616     13.434
REMARK INTER + INTRA:          -4.066
REMARK INTER:                  -4.037
REMARK INTRA:                  -0.030
REMARK UNBOUND:                -0.097
REMARK SMILES CCCCC(=O)[O-]
REMARK SMILES IDX 4 1 5 2 6 3 7 4 3 5 2 6 1 7
REMARK H PARENT
REMARK Flexibility Score: inf
ROOT
ATOM      1  C   UNL     1      16.695  21.192 -12.608  1.00  0.00     0.053 C 
ENDROOT
BRANCH   1   2
ATOM      2  C   UNL     1      17.206  19.786 -12.565  1.00  0.00     0.041 C 
ATOM      3  O   UNL     1      17.473  19.243 -11.460  1.00  0.00    -0.550 OA
ATOM      4  O   UNL     1      17.418  19.085 -13.745  1.00  0.00    -0.550 OA
ENDBRANCH   1   2
BRANCH   1   5
ATOM      5  C   UNL     1      15.293  21.316 -11.992  1.00  0.00     0.006 C 
BRANCH   5   6
ATOM      6  C   UNL     1      14.529  22.583 -12.414  1.00  0.00    -0.003 C 
ATOM      7  C   UNL     1      15.322  23.461 -13.382  1.00  0.00     0.004 C 
ENDBRANCH   5   6
ENDBRANCH   1   5
TORSDOF 3
ENDMDL
