MODEL 1
REMARK VINA RESULT:    -5.075      0.000      0.000
REMARK INTER + INTRA:          -6.941
REMARK INTER:                  -6.559
REMARK INTRA:                  -0.382
REMARK UNBOUND:                -0.382
REMARK SMILES CCO[C@H]1O[C@H](CO)[C@H](O)[C@H](O)[C@@H]1O
REMARK SMILES IDX 4 1 13 2 11 3 9 4 6 5 5 6 3 7 2 8 1 9 14 10 12 12 7 14 8 15
REMARK SMILES IDX 10 17
REMARK H PARENT 14 11 12 13 8 16 10 18
REMARK Flexibility Score: inf
ROOT
ATOM      1  C   UNL     1      23.165   2.583  40.241  1.00  0.00     0.281 C 
ATOM      2  C   UNL     1      22.065   3.640  39.953  1.00  0.00     0.202 C 
ATOM      3  C   UNL     1      21.981   3.963  38.448  1.00  0.00     0.179 C 
ATOM      4  C   UNL     1      23.376   4.226  37.847  1.00  0.00     0.177 C 
ATOM      5  C   UNL     1      24.329   3.081  38.258  1.00  0.00     0.178 C 
ATOM      6  O   UNL     1      24.409   2.964  39.671  1.00  0.00    -0.341 OA
ENDROOT
BRANCH   1   7
ATOM      7  O   UNL     1      22.777   1.303  39.754  1.00  0.00    -0.350 OA
BRANCH   7   8
ATOM      8  C   UNL     1      21.679   0.773  40.475  1.00  0.00     0.160 C 
ATOM      9  C   UNL     1      21.742  -0.751  40.488  1.00  0.00     0.035 C 
ENDBRANCH   7   8
ENDBRANCH   1   7
BRANCH   2  10
ATOM     10  O   UNL     1      22.258   4.807  40.717  1.00  0.00    -0.385 OA
ATOM     11  H   UNL     1      23.228   4.905  40.901  1.00  0.00     0.211 HD
ENDBRANCH   2  10
BRANCH   3  12
ATOM     12  O   UNL     1      21.131   5.063  38.243  1.00  0.00    -0.387 OA
ATOM     13  H   UNL     1      20.441   4.773  37.591  1.00  0.00     0.211 HD
ENDBRANCH   3  12
BRANCH   5  14
ATOM     14  C   UNL     1      25.740   3.279  37.687  1.00  0.00     0.191 C 
BRANCH  14  15
ATOM     15  O   UNL     1      25.707   4.102  36.553  1.00  0.00    -0.394 OA
ATOM     16  H   UNL     1      26.295   3.670  35.881  1.00  0.00     0.210 HD
ENDBRANCH  14  15
ENDBRANCH   5  14
BRANCH   4  17
ATOM     17  O   UNL     1      23.879   5.463  38.287  1.00  0.00    -0.387 OA
ATOM     18  H   UNL     1      23.840   5.456  39.278  1.00  0.00     0.211 HD
ENDBRANCH   4  17
TORSDOF 7
ENDMDL
MODEL 2
REMARK VINA RESULT:    -4.587      1.835      4.684
REMARK INTER + INTRA:          -6.309
REMARK INTER:                  -5.942
REMARK INTRA:                  -0.368
REMARK UNBOUND:                -0.382
REMARK SMILES CCO[C@H]1O[C@H](CO)[C@H](O)[C@H](O)[C@@H]1O
REMARK SMILES IDX 4 1 13 2 11 3 9 4 6 5 5 6 3 7 2 8 1 9 14 10 12 12 7 14 8 15
REMARK SMILES IDX 10 17
REMARK H PARENT 14 11 12 13 8 16 10 18
REMARK Flexibility Score: inf
ROOT
ATOM      1  C   UNL     1      21.833   4.401  37.516  1.00  0.00     0.281 C 
ATOM      2  C   UNL     1      23.304   4.141  37.938  1.00  0.00     0.202 C 
ATOM      3  C   UNL     1      23.409   2.923  38.878  1.00  0.00     0.179 C 
ATOM      4  C   UNL     1      22.360   2.988  40.006  1.00  0.00     0.177 C 
ATOM      5  C   UNL     1      20.972   3.271  39.391  1.00  0.00     0.178 C 
ATOM      6  O   UNL     1      20.978   4.481  38.648  1.00  0.00    -0.341 OA
ENDROOT
BRANCH   1   7
ATOM      7  O   UNL     1      21.375   3.387  36.629  1.00  0.00    -0.350 OA
BRANCH   7   8
ATOM      8  C   UNL     1      20.774   3.931  35.468  1.00  0.00     0.160 C 
ATOM      9  C   UNL     1      21.757   4.842  34.741  1.00  0.00     0.035 C 
ENDBRANCH   7   8
ENDBRANCH   1   7
BRANCH   2  10
ATOM     10  O   UNL     1      23.885   5.286  38.517  1.00  0.00    -0.385 OA
ATOM     11  H   UNL     1      24.855   5.118  38.641  1.00  0.00     0.211 HD
ENDBRANCH   2  10
BRANCH   3  12
ATOM     12  O   UNL     1      24.709   2.839  39.405  1.00  0.00    -0.387 OA
ATOM     13  H   UNL     1      25.334   2.948  38.642  1.00  0.00     0.211 HD
ENDBRANCH   3  12
BRANCH   5  14
ATOM     14  C   UNL     1      19.875   3.344  40.464  1.00  0.00     0.191 C 
BRANCH  14  15
ATOM     15  O   UNL     1      19.906   4.581  41.123  1.00  0.00    -0.394 OA
ATOM     16  H   UNL     1      20.207   5.245  40.450  1.00  0.00     0.210 HD
ENDBRANCH  14  15
ENDBRANCH   5  14
BRANCH   4  17
ATOM     17  O   UNL     1      22.697   3.986  40.938  1.00  0.00    -0.387 OA
ATOM     18  H   UNL     1      23.084   3.527  41.728  1.00  0.00     0.211 HD
ENDBRANCH   4  17
TORSDOF 7
ENDMDL
MODEL 3
REMARK VINA RESULT:    -4.561      1.513      2.952
REMARK INTER + INTRA:          -6.276
REMARK INTER:                  -6.096
REMARK INTRA:                  -0.180
REMARK UNBOUND:                -0.382
REMARK SMILES CCO[C@H]1O[C@H](CO)[C@H](O)[C@H](O)[C@@H]1O
REMARK SMILES IDX 4 1 13 2 11 3 9 4 6 5 5 6 3 7 2 8 1 9 14 10 12 12 7 14 8 15
REMARK SMILES IDX 10 17
REMARK H PARENT 14 11 12 13 8 16 10 18
REMARK Flexibility Score: inf
ROOT
ATOM      1  C   UNL     1      21.607   3.101  39.825  1.00  0.00     0.281 C 
ATOM      2  C   UNL     1      22.172   2.850  38.400  1.00  0.00     0.202 C 
ATOM      3  C   UNL     1      23.712   2.892  38.394  1.00  0.00     0.179 C 
ATOM      4  C   UNL     1      24.247   4.127  39.149  1.00  0.00     0.177 C 
ATOM      5  C   UNL     1      23.556   4.215  40.528  1.00  0.00     0.178 C 
ATOM      6  O   UNL     1      22.145   4.288  40.390  1.00  0.00    -0.341 OA
ENDROOT
BRANCH   1   7
ATOM      7  O   UNL     1      21.870   1.992  40.676  1.00  0.00    -0.350 OA
BRANCH   7   8
ATOM      8  C   UNL     1      20.970   0.923  40.447  1.00  0.00     0.160 C 
ATOM      9  C   UNL     1      20.985  -0.043  41.626  1.00  0.00     0.035 C 
ENDBRANCH   7   8
ENDBRANCH   1   7
BRANCH   2  10
ATOM     10  O   UNL     1      21.630   3.752  37.464  1.00  0.00    -0.385 OA
ATOM     11  H   UNL     1      22.060   3.587  36.585  1.00  0.00     0.211 HD
ENDBRANCH   2  10
BRANCH   3  12
ATOM     12  O   UNL     1      24.185   2.870  37.072  1.00  0.00    -0.387 OA
ATOM     13  H   UNL     1      24.425   1.929  36.870  1.00  0.00     0.211 HD
ENDBRANCH   3  12
BRANCH   5  14
ATOM     14  C   UNL     1      24.048   5.424  41.337  1.00  0.00     0.191 C 
BRANCH  14  15
ATOM     15  O   UNL     1      23.007   5.964  42.105  1.00  0.00    -0.394 OA
ATOM     16  H   UNL     1      22.892   6.899  41.794  1.00  0.00     0.210 HD
ENDBRANCH  14  15
ENDBRANCH   5  14
BRANCH   4  17
ATOM     17  O   UNL     1      24.014   5.298  38.408  1.00  0.00    -0.387 OA
ATOM     18  H   UNL     1      23.184   5.150  37.884  1.00  0.00     0.211 HD
ENDBRANCH   4  17
TORSDOF 7
ENDMDL
MODEL 4
REMARK VINA RESULT:    -4.514     14.731     16.339
REMARK INTER + INTRA:          -6.215
REMARK INTER:                  -5.827
REMARK INTRA:                  -0.388
REMARK UNBOUND:                -0.382
REMARK SMILES CCO[C@H]1O[C@H](CO)[C@H](O)[C@H](O)[C@@H]1O
REMARK SMILES IDX 4 1 13 2 11 3 9 4 6 5 5 6 3 7 2 8 1 9 14 10 12 12 7 14 8 15
REMARK SMILES IDX 10 17
REMARK H PARENT 14 11 12 13 8 16 10 18
REMARK Flexibility Score: inf
ROOT
ATOM      1  C   UNL     1      37.936  -0.422  44.606  1.00  0.00     0.281 C 
ATOM      2  C   UNL     1      38.846  -0.111  45.825  1.00  0.00     0.202 C 
ATOM      3  C   UNL     1      38.107   0.752  46.867  1.00  0.00     0.179 C 
ATOM      4  C   UNL     1      37.392   1.949  46.207  1.00  0.00     0.177 C 
ATOM      5  C   UNL     1      36.557   1.442  45.010  1.00  0.00     0.178 C 
ATOM      6  O   UNL     1      37.375   0.767  44.065  1.00  0.00    -0.341 OA
ENDROOT
BRANCH   1   7
ATOM      7  O   UNL     1      36.902  -1.331  44.965  1.00  0.00    -0.350 OA
BRANCH   7   8
ATOM      8  C   UNL     1      37.415  -2.603  45.318  1.00  0.00     0.160 C 
ATOM      9  C   UNL     1      37.399  -3.533  44.111  1.00  0.00     0.035 C 
ENDBRANCH   7   8
ENDBRANCH   1   7
BRANCH   2  10
ATOM     10  O   UNL     1      40.056   0.491  45.427  1.00  0.00    -0.385 OA
ATOM     11  H   UNL     1      40.156   0.375  44.447  1.00  0.00     0.211 HD
ENDBRANCH   2  10
BRANCH   3  12
ATOM     12  O   UNL     1      39.010   1.188  47.851  1.00  0.00    -0.387 OA
ATOM     13  H   UNL     1      39.920   1.097  47.465  1.00  0.00     0.211 HD
ENDBRANCH   3  12
BRANCH   5  14
ATOM     14  C   UNL     1      35.813   2.585  44.307  1.00  0.00     0.191 C 
BRANCH  14  15
ATOM     15  O   UNL     1      35.742   3.715  45.134  1.00  0.00    -0.394 OA
ATOM     16  H   UNL     1      35.661   3.373  46.062  1.00  0.00     0.210 HD
ENDBRANCH  14  15
ENDBRANCH   5  14
BRANCH   4  17
ATOM     17  O   UNL     1      38.327   2.909  45.781  1.00  0.00    -0.387 OA
ATOM     18  H   UNL     1      38.708   2.583  44.925  1.00  0.00     0.211 HD
ENDBRANCH   4  17
TORSDOF 7
ENDMDL
MODEL 5
REMARK VINA RESULT:    -4.503     16.009     16.939
REMARK INTER + INTRA:          -6.202
REMARK INTER:                  -5.793
REMARK INTRA:                  -0.408
REMARK UNBOUND:                -0.382
REMARK SMILES CCO[C@H]1O[C@H](CO)[C@H](O)[C@H](O)[C@@H]1O
REMARK SMILES IDX 4 1 13 2 11 3 9 4 6 5 5 6 3 7 2 8 1 9 14 10 12 12 7 14 8 15
REMARK SMILES IDX 10 17
REMARK H PARENT 14 11 12 13 8 16 10 18
REMARK Flexibility Score: inf
ROOT
ATOM      1  C   UNL     1      39.658   0.176  45.586  1.00  0.00     0.281 C 
ATOM      2  C   UNL     1      38.699   0.745  46.667  1.00  0.00     0.202 C 
ATOM      3  C   UNL     1      37.569   1.577  46.030  1.00  0.00     0.179 C 
ATOM      4  C   UNL     1      38.118   2.575  44.990  1.00  0.00     0.177 C 
ATOM      5  C   UNL     1      39.059   1.827  44.020  1.00  0.00     0.178 C 
ATOM      6  O   UNL     1      40.125   1.202  44.720  1.00  0.00    -0.341 OA
ENDROOT
BRANCH   1   7
ATOM      7  O   UNL     1      39.018  -0.846  44.831  1.00  0.00    -0.350 OA
BRANCH   7   8
ATOM      8  C   UNL     1      38.634  -1.942  45.642  1.00  0.00     0.160 C 
ATOM      9  C   UNL     1      37.177  -2.307  45.382  1.00  0.00     0.035 C 
ENDBRANCH   7   8
ENDBRANCH   1   7
BRANCH   2  10
ATOM     10  O   UNL     1      39.399   1.490  47.637  1.00  0.00    -0.385 OA
ATOM     11  H   UNL     1      39.932   0.862  48.191  1.00  0.00     0.211 HD
ENDBRANCH   2  10
BRANCH   3  12
ATOM     12  O   UNL     1      36.846   2.245  47.033  1.00  0.00    -0.387 OA
ATOM     13  H   UNL     1      35.941   1.838  47.052  1.00  0.00     0.211 HD
ENDBRANCH   3  12
BRANCH   5  14
ATOM     14  C   UNL     1      39.640   2.764  42.951  1.00  0.00     0.191 C 
BRANCH  14  15
ATOM     15  O   UNL     1      38.795   3.862  42.740  1.00  0.00    -0.394 OA
ATOM     16  H   UNL     1      38.626   3.897  41.763  1.00  0.00     0.210 HD
ENDBRANCH  14  15
ENDBRANCH   5  14
BRANCH   4  17
ATOM     17  O   UNL     1      38.803   3.626  45.626  1.00  0.00    -0.387 OA
ATOM     18  H   UNL     1      39.286   3.231  46.398  1.00  0.00     0.211 HD
ENDBRANCH   4  17
TORSDOF 7
ENDMDL
MODEL 6
REMARK VINA RESULT:    -4.498     14.792     16.468
REMARK INTER + INTRA:          -6.195
REMARK INTER:                  -5.812
REMARK INTRA:                  -0.383
REMARK UNBOUND:                -0.382
REMARK SMILES CCO[C@H]1O[C@H](CO)[C@H](O)[C@H](O)[C@@H]1O
REMARK SMILES IDX 4 1 13 2 11 3 9 4 6 5 5 6 3 7 2 8 1 9 14 10 12 12 7 14 8 15
REMARK SMILES IDX 10 17
REMARK H PARENT 14 11 12 13 8 16 10 18
REMARK Flexibility Score: inf
ROOT
ATOM      1  C   UNL     1      36.630   0.781  45.145  1.00  0.00     0.281 C 
ATOM      2  C   UNL     1      37.477   1.910  45.792  1.00  0.00     0.202 C 
ATOM      3  C   UNL     1      38.953   1.822  45.353  1.00  0.00     0.179 C 
ATOM      4  C   UNL     1      39.495   0.384  45.478  1.00  0.00     0.177 C 
ATOM      5  C   UNL     1      38.509  -0.590  44.793  1.00  0.00     0.178 C 
ATOM      6  O   UNL     1      37.214  -0.495  45.368  1.00  0.00    -0.341 OA
ENDROOT
BRANCH   1   7
ATOM      7  O   UNL     1      36.468   1.007  43.749  1.00  0.00    -0.350 OA
BRANCH   7   8
ATOM      8  C   UNL     1      35.280   0.417  43.252  1.00  0.00     0.160 C 
ATOM      9  C   UNL     1      34.103   0.751  44.162  1.00  0.00     0.035 C 
ENDBRANCH   7   8
ENDBRANCH   1   7
BRANCH   2  10
ATOM     10  O   UNL     1      37.359   1.905  47.195  1.00  0.00    -0.385 OA
ATOM     11  H   UNL     1      36.402   2.018  47.430  1.00  0.00     0.211 HD
ENDBRANCH   2  10
BRANCH   3  12
ATOM     12  O   UNL     1      39.728   2.717  46.108  1.00  0.00    -0.387 OA
ATOM     13  H   UNL     1      40.521   2.212  46.424  1.00  0.00     0.211 HD
ENDBRANCH   3  12
BRANCH   5  14
ATOM     14  C   UNL     1      38.992  -2.045  44.877  1.00  0.00     0.191 C 
BRANCH  14  15
ATOM     15  O   UNL     1      38.893  -2.527  46.189  1.00  0.00    -0.394 OA
ATOM     16  H   UNL     1      38.043  -2.168  46.552  1.00  0.00     0.210 HD
ENDBRANCH  14  15
ENDBRANCH   5  14
BRANCH   4  17
ATOM     17  O   UNL     1      39.669   0.036  46.829  1.00  0.00    -0.387 OA
ATOM     18  H   UNL     1      40.350  -0.685  46.857  1.00  0.00     0.211 HD
ENDBRANCH   4  17
TORSDOF 7
ENDMDL
MODEL 7
REMARK VINA RESULT:    -4.484     15.101     17.099
REMARK INTER + INTRA:          -6.177
REMARK INTER:                  -5.787
REMARK INTRA:                  -0.390
REMARK UNBOUND:                -0.382
REMARK SMILES CCO[C@H]1O[C@H](CO)[C@H](O)[C@H](O)[C@@H]1O
REMARK SMILES IDX 4 1 13 2 11 3 9 4 6 5 5 6 3 7 2 8 1 9 14 10 12 12 7 14 8 15
REMARK SMILES IDX 10 17
REMARK H PARENT 14 11 12 13 8 16 10 18
REMARK Flexibility Score: inf
ROOT
ATOM      1  C   UNL     1      38.273   2.247  45.807  1.00  0.00     0.281 C 
ATOM      2  C   UNL     1      39.281   1.210  46.370  1.00  0.00     0.202 C 
ATOM      3  C   UNL     1      39.344  -0.048  45.482  1.00  0.00     0.179 C 
ATOM      4  C   UNL     1      37.934  -0.565  45.133  1.00  0.00     0.177 C 
ATOM      5  C   UNL     1      37.079   0.611  44.610  1.00  0.00     0.178 C 
ATOM      6  O   UNL     1      37.003   1.655  45.570  1.00  0.00    -0.341 OA
ENDROOT
BRANCH   1   7
ATOM      7  O   UNL     1      38.768   2.836  44.611  1.00  0.00    -0.350 OA
BRANCH   7   8
ATOM      8  C   UNL     1      39.908   3.642  44.850  1.00  0.00     0.160 C 
ATOM      9  C   UNL     1      39.523   5.117  44.841  1.00  0.00     0.035 C 
ENDBRANCH   7   8
ENDBRANCH   1   7
BRANCH   2  10
ATOM     10  O   UNL     1      38.988   0.878  47.708  1.00  0.00    -0.385 OA
ATOM     11  H   UNL     1      39.839   0.845  48.217  1.00  0.00     0.211 HD
ENDBRANCH   2  10
BRANCH   3  12
ATOM     12  O   UNL     1      40.100  -1.046  46.120  1.00  0.00    -0.387 OA
ATOM     13  H   UNL     1      39.672  -1.209  47.000  1.00  0.00     0.211 HD
ENDBRANCH   3  12
BRANCH   5  14
ATOM     14  C   UNL     1      35.658   0.163  44.238  1.00  0.00     0.191 C 
BRANCH  14  15
ATOM     15  O   UNL     1      35.666  -1.139  43.721  1.00  0.00    -0.394 OA
ATOM     16  H   UNL     1      35.464  -1.740  44.483  1.00  0.00     0.210 HD
ENDBRANCH  14  15
ENDBRANCH   5  14
BRANCH   4  17
ATOM     17  O   UNL     1      37.328  -1.149  46.259  1.00  0.00    -0.387 OA
ATOM     18  H   UNL     1      36.977  -0.407  46.817  1.00  0.00     0.211 HD
ENDBRANCH   4  17
TORSDOF 7
ENDMDL
MODEL 8
REMARK VINA RESULT:    -4.466     13.756     15.387
REMARK INTER + INTRA:          -6.154
REMARK INTER:                  -5.731
REMARK INTRA:                  -0.423
REMARK UNBOUND:                -0.382
REMARK SMILES CCO[C@H]1O[C@H](CO)[C@H](O)[C@H](O)[C@@H]1O
REMARK SMILES IDX 4 1 13 2 11 3 9 4 6 5 5 6 3 7 2 8 1 9 14 10 12 12 7 14 8 15
REMARK SMILES IDX 10 17
REMARK H PARENT 14 11 12 13 8 16 10 18
REMARK Flexibility Score: inf
ROOT
ATOM      1  C   UNL     1      37.970   2.720  44.883  1.00  0.00     0.281 C 
ATOM      2  C   UNL     1      36.454   2.408  45.003  1.00  0.00     0.202 C 
ATOM      3  C   UNL     1      35.628   3.265  44.023  1.00  0.00     0.179 C 
ATOM      4  C   UNL     1      36.042   4.749  44.082  1.00  0.00     0.177 C 
ATOM      5  C   UNL     1      37.579   4.851  43.966  1.00  0.00     0.178 C 
ATOM      6  O   UNL     1      38.221   4.114  44.997  1.00  0.00    -0.341 OA
ENDROOT
BRANCH   1   7
ATOM      7  O   UNL     1      38.492   2.229  43.653  1.00  0.00    -0.350 OA
BRANCH   7   8
ATOM      8  C   UNL     1      39.034   0.928  43.790  1.00  0.00     0.160 C 
ATOM      9  C   UNL     1      39.881   0.838  45.055  1.00  0.00     0.035 C 
ENDBRANCH   7   8
ENDBRANCH   1   7
BRANCH   2  10
ATOM     10  O   UNL     1      35.999   2.561  46.327  1.00  0.00    -0.385 OA
ATOM     11  H   UNL     1      35.123   3.027  46.306  1.00  0.00     0.211 HD
ENDBRANCH   2  10
BRANCH   3  12
ATOM     12  O   UNL     1      34.259   3.115  44.297  1.00  0.00    -0.387 OA
ATOM     13  H   UNL     1      33.970   2.274  43.856  1.00  0.00     0.211 HD
ENDBRANCH   3  12
BRANCH   5  14
ATOM     14  C   UNL     1      38.061   6.308  44.014  1.00  0.00     0.191 C 
BRANCH  14  15
ATOM     15  O   UNL     1      38.093   6.778  45.334  1.00  0.00    -0.394 OA
ATOM     16  H   UNL     1      37.170   6.678  45.685  1.00  0.00     0.210 HD
ENDBRANCH  14  15
ENDBRANCH   5  14
BRANCH   4  17
ATOM     17  O   UNL     1      35.601   5.338  45.280  1.00  0.00    -0.387 OA
ATOM     18  H   UNL     1      35.752   6.315  45.196  1.00  0.00     0.211 HD
ENDBRANCH   4  17
TORSDOF 7
ENDMDL
MODEL 9
REMARK VINA RESULT:    -4.465      1.898      4.068
REMARK INTER + INTRA:          -6.152
REMARK INTER:                  -5.741
REMARK INTRA:                  -0.411
REMARK UNBOUND:                -0.382
REMARK SMILES CCO[C@H]1O[C@H](CO)[C@H](O)[C@H](O)[C@@H]1O
REMARK SMILES IDX 4 1 13 2 11 3 9 4 6 5 5 6 3 7 2 8 1 9 14 10 12 12 7 14 8 15
REMARK SMILES IDX 10 17
REMARK H PARENT 14 11 12 13 8 16 10 18
REMARK Flexibility Score: inf
ROOT
ATOM      1  C   UNL     1      24.146   3.026  38.394  1.00  0.00     0.281 C 
ATOM      2  C   UNL     1      22.705   2.486  38.181  1.00  0.00     0.202 C 
ATOM      3  C   UNL     1      21.652   3.484  38.702  1.00  0.00     0.179 C 
ATOM      4  C   UNL     1      22.005   3.993  40.115  1.00  0.00     0.177 C 
ATOM      5  C   UNL     1      23.475   4.467  40.129  1.00  0.00     0.178 C 
ATOM      6  O   UNL     1      24.355   3.420  39.743  1.00  0.00    -0.341 OA
ENDROOT
BRANCH   1   7
ATOM      7  O   UNL     1      24.411   4.117  37.520  1.00  0.00    -0.350 OA
BRANCH   7   8
ATOM      8  C   UNL     1      24.547   3.696  36.174  1.00  0.00     0.160 C 
ATOM      9  C   UNL     1      25.953   3.163  35.926  1.00  0.00     0.035 C 
ENDBRANCH   7   8
ENDBRANCH   1   7
BRANCH   2  10
ATOM     10  O   UNL     1      22.540   1.215  38.765  1.00  0.00    -0.385 OA
ATOM     11  H   UNL     1      22.108   1.330  39.651  1.00  0.00     0.211 HD
ENDBRANCH   2  10
BRANCH   3  12
ATOM     12  O   UNL     1      20.381   2.886  38.688  1.00  0.00    -0.387 OA
ATOM     13  H   UNL     1      20.434   2.088  39.275  1.00  0.00     0.211 HD
ENDBRANCH   3  12
BRANCH   5  14
ATOM     14  C   UNL     1      23.893   4.993  41.510  1.00  0.00     0.191 C 
BRANCH  14  15
ATOM     15  O   UNL     1      22.796   5.547  42.183  1.00  0.00    -0.394 OA
ATOM     16  H   UNL     1      22.137   5.791  41.484  1.00  0.00     0.210 HD
ENDBRANCH  14  15
ENDBRANCH   5  14
BRANCH   4  17
ATOM     17  O   UNL     1      21.807   2.980  41.069  1.00  0.00    -0.387 OA
ATOM     18  H   UNL     1      20.862   2.687  40.989  1.00  0.00     0.211 HD
ENDBRANCH   4  17
TORSDOF 7
ENDMDL
