MODEL 1
REMARK VINA RESULT:    -3.422      0.000      0.000
REMARK INTER + INTRA:          -5.149
REMARK INTER:                  -4.622
REMARK INTRA:                  -0.527
REMARK UNBOUND:                -0.527
REMARK SMILES [NH3+]CCCC[C@H]([NH3+])C(=O)[O-]
REMARK SMILES IDX 4 1 3 2 2 3 1 4 5 8 6 9 7 10 8 14 9 15 10 16
REMARK H PARENT 1 5 1 6 1 7 7 11 7 12 7 13
REMARK Flexibility Score: inf
ROOT
ATOM      1  C   UNL     1       3.411  11.352  -3.619  1.00  0.00     0.012 C 
ENDROOT
BRANCH   1   2
ATOM      2  C   UNL     1       3.798   9.868  -3.542  1.00  0.00     0.061 C 
BRANCH   2   3
ATOM      3  C   UNL     1       2.729   9.015  -2.839  1.00  0.00     0.258 C 
BRANCH   3   4
ATOM      4  N   UNL     1       1.882   8.296  -3.793  1.00  0.00    -0.358 N 
ATOM      5  H   UNL     1       1.406   8.969  -4.436  1.00  0.00     0.344 HD
ATOM      6  H   UNL     1       2.450   7.615  -4.346  1.00  0.00     0.344 HD
ATOM      7  H   UNL     1       1.147   7.771  -3.265  1.00  0.00     0.344 HD
ENDBRANCH   3   4
ENDBRANCH   2   3
ENDBRANCH   1   2
BRANCH   1   8
ATOM      8  C   UNL     1       2.241  11.664  -2.672  1.00  0.00     0.072 C 
BRANCH   8   9
ATOM      9  C   UNL     1       1.156  12.529  -3.350  1.00  0.00     0.227 C 
BRANCH   9  10
ATOM     10  N   UNL     1       0.125  12.912  -2.378  1.00  0.00    -0.350 N 
ATOM     11  H   UNL     1      -0.101  13.927  -2.482  1.00  0.00     0.345 HD
ATOM     12  H   UNL     1      -0.745  12.349  -2.520  1.00  0.00     0.345 HD
ATOM     13  H   UNL     1       0.479  12.754  -1.406  1.00  0.00     0.345 HD
ENDBRANCH   9  10
BRANCH   9  14
ATOM     14  C   UNL     1       0.524  11.796  -4.506  1.00  0.00     0.099 C 
ATOM     15  O   UNL     1       0.569  12.285  -5.665  1.00  0.00    -0.544 OA
ATOM     16  O   UNL     1      -0.106  10.574  -4.302  1.00  0.00    -0.544 OA
ENDBRANCH   9  14
ENDBRANCH   8   9
ENDBRANCH   1   8
TORSDOF 7
ENDMDL
MODEL 2
REMARK VINA RESULT:    -3.335      2.379      3.146
REMARK INTER + INTRA:          -5.031
REMARK INTER:                  -4.649
REMARK INTRA:                  -0.382
REMARK UNBOUND:                -0.527
REMARK SMILES [NH3+]CCCC[C@H]([NH3+])C(=O)[O-]
REMARK SMILES IDX 4 1 3 2 2 3 1 4 5 8 6 9 7 10 8 14 9 15 10 16
REMARK H PARENT 1 5 1 6 1 7 7 11 7 12 7 13
REMARK Flexibility Score: inf
ROOT
ATOM      1  C   UNL     1       2.246  13.197  -4.927  1.00  0.00     0.012 C 
ENDROOT
BRANCH   1   2
ATOM      2  C   UNL     1       3.243  13.146  -6.096  1.00  0.00     0.061 C 
BRANCH   2   3
ATOM      3  C   UNL     1       4.614  12.590  -5.678  1.00  0.00     0.258 C 
BRANCH   3   4
ATOM      4  N   UNL     1       4.502  11.583  -4.620  1.00  0.00    -0.358 N 
ATOM      5  H   UNL     1       4.842  11.972  -3.711  1.00  0.00     0.344 HD
ATOM      6  H   UNL     1       3.512  11.261  -4.524  1.00  0.00     0.344 HD
ATOM      7  H   UNL     1       5.100  10.761  -4.869  1.00  0.00     0.344 HD
ENDBRANCH   3   4
ENDBRANCH   2   3
ENDBRANCH   1   2
BRANCH   1   8
ATOM      8  C   UNL     1       0.977  12.393  -5.253  1.00  0.00     0.072 C 
BRANCH   8   9
ATOM      9  C   UNL     1       0.366  11.733  -3.998  1.00  0.00     0.227 C 
BRANCH   9  10
ATOM     10  N   UNL     1       0.390  12.665  -2.866  1.00  0.00    -0.350 N 
ATOM     11  H   UNL     1       0.481  12.133  -1.970  1.00  0.00     0.345 HD
ATOM     12  H   UNL     1       1.191  13.333  -2.953  1.00  0.00     0.345 HD
ATOM     13  H   UNL     1      -0.505  13.207  -2.834  1.00  0.00     0.345 HD
ENDBRANCH   9  10
BRANCH   9  14
ATOM     14  C   UNL     1       1.103  10.469  -3.638  1.00  0.00     0.099 C 
ATOM     15  O   UNL     1       0.747   9.367  -4.132  1.00  0.00    -0.544 OA
ATOM     16  O   UNL     1       2.184  10.511  -2.765  1.00  0.00    -0.544 OA
ENDBRANCH   9  14
ENDBRANCH   8   9
ENDBRANCH   1   8
TORSDOF 7
ENDMDL
MODEL 3
REMARK VINA RESULT:    -3.219      1.963      2.286
REMARK INTER + INTRA:          -4.875
REMARK INTER:                  -4.328
REMARK INTRA:                  -0.548
REMARK UNBOUND:                -0.527
REMARK SMILES [NH3+]CCCC[C@H]([NH3+])C(=O)[O-]
REMARK SMILES IDX 4 1 3 2 2 3 1 4 5 8 6 9 7 10 8 14 9 15 10 16
REMARK H PARENT 1 5 1 6 1 7 7 11 7 12 7 13
REMARK Flexibility Score: inf
ROOT
ATOM      1  C   UNL     1       1.305  10.103  -2.315  1.00  0.00     0.012 C 
ENDROOT
BRANCH   1   2
ATOM      2  C   UNL     1       2.806   9.830  -2.135  1.00  0.00     0.061 C 
BRANCH   2   3
ATOM      3  C   UNL     1       3.512   9.513  -3.464  1.00  0.00     0.258 C 
BRANCH   3   4
ATOM      4  N   UNL     1       4.379  10.609  -3.904  1.00  0.00    -0.358 N 
ATOM      5  H   UNL     1       4.757  10.412  -4.858  1.00  0.00     0.344 HD
ATOM      6  H   UNL     1       3.854  11.512  -3.906  1.00  0.00     0.344 HD
ATOM      7  H   UNL     1       5.185  10.690  -3.242  1.00  0.00     0.344 HD
ENDBRANCH   3   4
ENDBRANCH   2   3
ENDBRANCH   1   2
BRANCH   1   8
ATOM      8  C   UNL     1       1.056  11.578  -2.671  1.00  0.00     0.072 C 
BRANCH   8   9
ATOM      9  C   UNL     1       0.384  11.740  -4.053  1.00  0.00     0.227 C 
BRANCH   9  10
ATOM     10  N   UNL     1       0.135  10.427  -4.658  1.00  0.00    -0.350 N 
ATOM     11  H   UNL     1      -0.602  10.510  -5.395  1.00  0.00     0.345 HD
ATOM     12  H   UNL     1       1.010  10.045  -5.087  1.00  0.00     0.345 HD
ATOM     13  H   UNL     1      -0.207   9.759  -3.928  1.00  0.00     0.345 HD
ENDBRANCH   9  10
BRANCH   9  14
ATOM     14  C   UNL     1       1.236  12.576  -4.973  1.00  0.00     0.099 C 
ATOM     15  O   UNL     1       0.714  13.169  -5.953  1.00  0.00    -0.544 OA
ATOM     16  O   UNL     1       2.601  12.703  -4.743  1.00  0.00    -0.544 OA
ENDBRANCH   9  14
ENDBRANCH   8   9
ENDBRANCH   1   8
TORSDOF 7
ENDMDL
MODEL 4
REMARK VINA RESULT:    -3.163      2.131      3.520
REMARK INTER + INTRA:          -4.799
REMARK INTER:                  -4.280
REMARK INTRA:                  -0.519
REMARK UNBOUND:                -0.527
REMARK SMILES [NH3+]CCCC[C@H]([NH3+])C(=O)[O-]
REMARK SMILES IDX 4 1 3 2 2 3 1 4 5 8 6 9 7 10 8 14 9 15 10 16
REMARK H PARENT 1 5 1 6 1 7 7 11 7 12 7 13
REMARK Flexibility Score: inf
ROOT
ATOM      1  C   UNL     1       3.029  11.991  -4.268  1.00  0.00     0.012 C 
ENDROOT
BRANCH   1   2
ATOM      2  C   UNL     1       1.850  12.516  -5.101  1.00  0.00     0.061 C 
BRANCH   2   3
ATOM      3  C   UNL     1       0.488  12.085  -4.532  1.00  0.00     0.258 C 
BRANCH   3   4
ATOM      4  N   UNL     1      -0.140  11.036  -5.338  1.00  0.00    -0.358 N 
ATOM      5  H   UNL     1       0.584  10.511  -5.879  1.00  0.00     0.344 HD
ATOM      6  H   UNL     1      -0.677  10.378  -4.728  1.00  0.00     0.344 HD
ATOM      7  H   UNL     1      -0.800  11.479  -6.017  1.00  0.00     0.344 HD
ENDBRANCH   3   4
ENDBRANCH   2   3
ENDBRANCH   1   2
BRANCH   1   8
ATOM      8  C   UNL     1       2.538  11.383  -2.944  1.00  0.00     0.072 C 
BRANCH   8   9
ATOM      9  C   UNL     1       2.942   9.899  -2.798  1.00  0.00     0.227 C 
BRANCH   9  10
ATOM     10  N   UNL     1       3.962   9.545  -3.791  1.00  0.00    -0.350 N 
ATOM     11  H   UNL     1       3.841  10.132  -4.648  1.00  0.00     0.345 HD
ATOM     12  H   UNL     1       4.922   9.694  -3.404  1.00  0.00     0.345 HD
ATOM     13  H   UNL     1       3.855   8.541  -4.065  1.00  0.00     0.345 HD
ENDBRANCH   9  10
BRANCH   9  14
ATOM     14  C   UNL     1       1.744   8.997  -2.947  1.00  0.00     0.099 C 
ATOM     15  O   UNL     1       1.329   8.680  -4.092  1.00  0.00    -0.544 OA
ATOM     16  O   UNL     1       1.094   8.502  -1.822  1.00  0.00    -0.544 OA
ENDBRANCH   9  14
ENDBRANCH   8   9
ENDBRANCH   1   8
TORSDOF 7
ENDMDL
MODEL 5
REMARK VINA RESULT:    -3.089      2.081      2.952
REMARK INTER + INTRA:          -4.699
REMARK INTER:                  -4.139
REMARK INTRA:                  -0.560
REMARK UNBOUND:                -0.527
REMARK SMILES [NH3+]CCCC[C@H]([NH3+])C(=O)[O-]
REMARK SMILES IDX 4 1 3 2 2 3 1 4 5 8 6 9 7 10 8 14 9 15 10 16
REMARK H PARENT 1 5 1 6 1 7 7 11 7 12 7 13
REMARK Flexibility Score: inf
ROOT
ATOM      1  C   UNL     1       3.502  11.529  -3.911  1.00  0.00     0.012 C 
ENDROOT
BRANCH   1   2
ATOM      2  C   UNL     1       3.027  12.928  -4.331  1.00  0.00     0.061 C 
BRANCH   2   3
ATOM      3  C   UNL     1       2.392  12.940  -5.731  1.00  0.00     0.258 C 
BRANCH   3   4
ATOM      4  N   UNL     1       0.929  12.877  -5.674  1.00  0.00    -0.358 N 
ATOM      5  H   UNL     1       0.624  12.094  -5.052  1.00  0.00     0.344 HD
ATOM      6  H   UNL     1       0.537  13.782  -5.329  1.00  0.00     0.344 HD
ATOM      7  H   UNL     1       0.560  12.694  -6.636  1.00  0.00     0.344 HD
ENDBRANCH   3   4
ENDBRANCH   2   3
ENDBRANCH   1   2
BRANCH   1   8
ATOM      8  C   UNL     1       2.974  11.168  -2.514  1.00  0.00     0.072 C 
BRANCH   8   9
ATOM      9  C   UNL     1       1.431  11.119  -2.466  1.00  0.00     0.227 C 
BRANCH   9  10
ATOM     10  N   UNL     1       0.967  10.910  -1.090  1.00  0.00    -0.350 N 
ATOM     11  H   UNL     1       1.779  10.952  -0.432  1.00  0.00     0.345 HD
ATOM     12  H   UNL     1       0.267  11.639  -0.821  1.00  0.00     0.345 HD
ATOM     13  H   UNL     1       0.527   9.965  -1.004  1.00  0.00     0.345 HD
ENDBRANCH   9  10
BRANCH   9  14
ATOM     14  C   UNL     1       0.897  10.029  -3.359  1.00  0.00     0.099 C 
ATOM     15  O   UNL     1       0.145  10.316  -4.327  1.00  0.00    -0.544 OA
ATOM     16  O   UNL     1       1.235   8.701  -3.125  1.00  0.00    -0.544 OA
ENDBRANCH   9  14
ENDBRANCH   8   9
ENDBRANCH   1   8
TORSDOF 7
ENDMDL
MODEL 6
REMARK VINA RESULT:    -3.080      3.206      4.332
REMARK INTER + INTRA:          -4.687
REMARK INTER:                  -4.136
REMARK INTRA:                  -0.551
REMARK UNBOUND:                -0.527
REMARK SMILES [NH3+]CCCC[C@H]([NH3+])C(=O)[O-]
REMARK SMILES IDX 4 1 3 2 2 3 1 4 5 8 6 9 7 10 8 14 9 15 10 16
REMARK H PARENT 1 5 1 6 1 7 7 11 7 12 7 13
REMARK Flexibility Score: inf
ROOT
ATOM      1  C   UNL     1       3.302  13.077  -6.405  1.00  0.00     0.012 C 
ENDROOT
BRANCH   1   2
ATOM      2  C   UNL     1       2.721  14.250  -5.601  1.00  0.00     0.061 C 
BRANCH   2   3
ATOM      3  C   UNL     1       1.213  14.098  -5.342  1.00  0.00     0.258 C 
BRANCH   3   4
ATOM      4  N   UNL     1       0.729  12.755  -5.669  1.00  0.00    -0.358 N 
ATOM      5  H   UNL     1      -0.176  12.566  -5.181  1.00  0.00     0.344 HD
ATOM      6  H   UNL     1       0.608  12.651  -6.702  1.00  0.00     0.344 HD
ATOM      7  H   UNL     1       1.431  12.052  -5.340  1.00  0.00     0.344 HD
ENDBRANCH   3   4
ENDBRANCH   2   3
ENDBRANCH   1   2
BRANCH   1   8
ATOM      8  C   UNL     1       4.514  12.466  -5.684  1.00  0.00     0.072 C 
BRANCH   8   9
ATOM      9  C   UNL     1       4.288  12.343  -4.161  1.00  0.00     0.227 C 
BRANCH   9  10
ATOM     10  N   UNL     1       5.572  12.318  -3.453  1.00  0.00    -0.350 N 
ATOM     11  H   UNL     1       5.629  11.464  -2.851  1.00  0.00     0.345 HD
ATOM     12  H   UNL     1       6.369  12.314  -4.131  1.00  0.00     0.345 HD
ATOM     13  H   UNL     1       5.653  13.159  -2.835  1.00  0.00     0.345 HD
ENDBRANCH   9  10
BRANCH   9  14
ATOM     14  C   UNL     1       3.494  11.105  -3.831  1.00  0.00     0.099 C 
ATOM     15  O   UNL     1       2.254  11.183  -3.632  1.00  0.00    -0.544 OA
ATOM     16  O   UNL     1       4.125   9.869  -3.750  1.00  0.00    -0.544 OA
ENDBRANCH   9  14
ENDBRANCH   8   9
ENDBRANCH   1   8
TORSDOF 7
ENDMDL
MODEL 7
REMARK VINA RESULT:    -3.080      2.362      4.105
REMARK INTER + INTRA:          -4.687
REMARK INTER:                  -4.173
REMARK INTRA:                  -0.515
REMARK UNBOUND:                -0.527
REMARK SMILES [NH3+]CCCC[C@H]([NH3+])C(=O)[O-]
REMARK SMILES IDX 4 1 3 2 2 3 1 4 5 8 6 9 7 10 8 14 9 15 10 16
REMARK H PARENT 1 5 1 6 1 7 7 11 7 12 7 13
REMARK Flexibility Score: inf
ROOT
ATOM      1  C   UNL     1       0.250  11.135  -4.537  1.00  0.00     0.012 C 
ENDROOT
BRANCH   1   2
ATOM      2  C   UNL     1       1.216  12.327  -4.605  1.00  0.00     0.061 C 
BRANCH   2   3
ATOM      3  C   UNL     1       0.789  13.486  -3.690  1.00  0.00     0.258 C 
BRANCH   3   4
ATOM      4  N   UNL     1       0.091  13.015  -2.492  1.00  0.00    -0.358 N 
ATOM      5  H   UNL     1      -0.142  13.821  -1.867  1.00  0.00     0.344 HD
ATOM      6  H   UNL     1      -0.781  12.502  -2.754  1.00  0.00     0.344 HD
ATOM      7  H   UNL     1       0.720  12.364  -1.967  1.00  0.00     0.344 HD
ENDBRANCH   3   4
ENDBRANCH   2   3
ENDBRANCH   1   2
BRANCH   1   8
ATOM      8  C   UNL     1       1.009   9.829  -4.250  1.00  0.00     0.072 C 
BRANCH   8   9
ATOM      9  C   UNL     1       2.061   9.999  -3.132  1.00  0.00     0.227 C 
BRANCH   9  10
ATOM     10  N   UNL     1       3.214   9.125  -3.378  1.00  0.00    -0.350 N 
ATOM     11  H   UNL     1       3.383   9.041  -4.406  1.00  0.00     0.345 HD
ATOM     12  H   UNL     1       4.073   9.508  -2.918  1.00  0.00     0.345 HD
ATOM     13  H   UNL     1       3.021   8.169  -2.999  1.00  0.00     0.345 HD
ENDBRANCH   9  10
BRANCH   9  14
ATOM     14  C   UNL     1       1.467   9.697  -1.781  1.00  0.00     0.099 C 
ATOM     15  O   UNL     1       1.385  10.602  -0.910  1.00  0.00    -0.544 OA
ATOM     16  O   UNL     1       1.000   8.421  -1.488  1.00  0.00    -0.544 OA
ENDBRANCH   9  14
ENDBRANCH   8   9
ENDBRANCH   1   8
TORSDOF 7
ENDMDL
MODEL 8
REMARK VINA RESULT:    -2.940      2.751      3.235
REMARK INTER + INTRA:          -4.498
REMARK INTER:                  -4.041
REMARK INTRA:                  -0.457
REMARK UNBOUND:                -0.527
REMARK SMILES [NH3+]CCCC[C@H]([NH3+])C(=O)[O-]
REMARK SMILES IDX 4 1 3 2 2 3 1 4 5 8 6 9 7 10 8 14 9 15 10 16
REMARK H PARENT 1 5 1 6 1 7 7 11 7 12 7 13
REMARK Flexibility Score: inf
ROOT
ATOM      1  C   UNL     1       0.674  11.932  -4.073  1.00  0.00     0.012 C 
ENDROOT
BRANCH   1   2
ATOM      2  C   UNL     1       0.628  10.404  -4.224  1.00  0.00     0.061 C 
BRANCH   2   3
ATOM      3  C   UNL     1       1.381   9.677  -3.098  1.00  0.00     0.258 C 
BRANCH   3   4
ATOM      4  N   UNL     1       2.624   9.064  -3.572  1.00  0.00    -0.358 N 
ATOM      5  H   UNL     1       2.494   8.036  -3.708  1.00  0.00     0.344 HD
ATOM      6  H   UNL     1       2.933   9.508  -4.466  1.00  0.00     0.344 HD
ATOM      7  H   UNL     1       3.369   9.208  -2.850  1.00  0.00     0.344 HD
ENDBRANCH   3   4
ENDBRANCH   2   3
ENDBRANCH   1   2
BRANCH   1   8
ATOM      8  C   UNL     1       1.277  12.589  -5.325  1.00  0.00     0.072 C 
BRANCH   8   9
ATOM      9  C   UNL     1       2.576  13.364  -5.010  1.00  0.00     0.227 C 
BRANCH   9  10
ATOM     10  N   UNL     1       2.704  14.528  -5.894  1.00  0.00    -0.350 N 
ATOM     11  H   UNL     1       3.699  14.634  -6.200  1.00  0.00     0.345 HD
ATOM     12  H   UNL     1       2.094  14.421  -6.738  1.00  0.00     0.345 HD
ATOM     13  H   UNL     1       2.427  15.396  -5.379  1.00  0.00     0.345 HD
ENDBRANCH   9  10
BRANCH   9  14
ATOM     14  C   UNL     1       3.784  12.475  -5.153  1.00  0.00     0.099 C 
ATOM     15  O   UNL     1       4.462  12.495  -6.213  1.00  0.00    -0.544 OA
ATOM     16  O   UNL     1       4.162  11.633  -4.114  1.00  0.00    -0.544 OA
ENDBRANCH   9  14
ENDBRANCH   8   9
ENDBRANCH   1   8
TORSDOF 7
ENDMDL
MODEL 9
REMARK VINA RESULT:    -2.908      2.642      3.643
REMARK INTER + INTRA:          -4.455
REMARK INTER:                  -3.966
REMARK INTRA:                  -0.490
REMARK UNBOUND:                -0.527
REMARK SMILES [NH3+]CCCC[C@H]([NH3+])C(=O)[O-]
REMARK SMILES IDX 4 1 3 2 2 3 1 4 5 8 6 9 7 10 8 14 9 15 10 16
REMARK H PARENT 1 5 1 6 1 7 7 11 7 12 7 13
REMARK Flexibility Score: inf
ROOT
ATOM      1  C   UNL     1       0.659  12.419  -4.448  1.00  0.00     0.012 C 
ENDROOT
BRANCH   1   2
ATOM      2  C   UNL     1       1.560  12.911  -5.590  1.00  0.00     0.061 C 
BRANCH   2   3
ATOM      3  C   UNL     1       2.907  13.456  -5.087  1.00  0.00     0.258 C 
BRANCH   3   4
ATOM      4  N   UNL     1       4.010  12.528  -5.344  1.00  0.00    -0.358 N 
ATOM      5  H   UNL     1       3.649  11.648  -5.779  1.00  0.00     0.344 HD
ATOM      6  H   UNL     1       4.722  12.970  -5.968  1.00  0.00     0.344 HD
ATOM      7  H   UNL     1       4.465  12.282  -4.435  1.00  0.00     0.344 HD
ENDBRANCH   3   4
ENDBRANCH   2   3
ENDBRANCH   1   2
BRANCH   1   8
ATOM      8  C   UNL     1       0.575  10.884  -4.438  1.00  0.00     0.072 C 
BRANCH   8   9
ATOM      9  C   UNL     1       0.949  10.287  -3.063  1.00  0.00     0.227 C 
BRANCH   9  10
ATOM     10  N   UNL     1       0.972  11.337  -2.038  1.00  0.00    -0.350 N 
ATOM     11  H   UNL     1       1.131  10.910  -1.097  1.00  0.00     0.345 HD
ATOM     12  H   UNL     1       1.730  12.030  -2.235  1.00  0.00     0.345 HD
ATOM     13  H   UNL     1       0.051  11.834  -2.020  1.00  0.00     0.345 HD
ENDBRANCH   9  10
BRANCH   9  14
ATOM     14  C   UNL     1       2.287   9.595  -3.120  1.00  0.00     0.099 C 
ATOM     15  O   UNL     1       3.262  10.150  -3.690  1.00  0.00    -0.544 OA
ATOM     16  O   UNL     1       2.455   8.344  -2.537  1.00  0.00    -0.544 OA
ENDBRANCH   9  14
ENDBRANCH   8   9
ENDBRANCH   1   8
TORSDOF 7
ENDMDL
