MODEL 1
REMARK VINA RESULT:    -1.937      0.000      0.000
REMARK INTER + INTRA:          -4.534
REMARK INTER:                  -2.617
REMARK INTRA:                  -1.917
REMARK UNBOUND:                -1.917
REMARK SMILES C=CC(C)=CCC=C(C)CCC=C(C)C
REMARK SMILES IDX 8 1 7 2 9 3 10 4 11 5 12 6 14 7 13 8 15 9 6 10 5 11 3 12
REMARK SMILES IDX 4 13 2 14 1 15
REMARK H PARENT
REMARK Flexibility Score: inf
ROOT
ATOM      1  C   UNL     1     162.984 158.345 138.199  1.00  0.00    -0.077 C 
ATOM      2  C   UNL     1     163.832 157.392 137.750  1.00  0.00    -0.024 C 
ATOM      3  C   UNL     1     162.215 158.179 139.489  1.00  0.00     0.039 C 
ENDROOT
BRANCH   1   4
ATOM      4  C   UNL     1     162.806 159.613 137.393  1.00  0.00     0.034 C 
BRANCH   4   5
ATOM      5  C   UNL     1     164.118 160.400 137.321  1.00  0.00     0.032 C 
BRANCH   5   6
ATOM      6  C   UNL     1     164.656 160.674 138.703  1.00  0.00    -0.028 C 
ATOM      7  C   UNL     1     166.840 159.535 138.255  1.00  0.00     0.039 C 
ATOM      8  C   UNL     1     165.866 160.270 139.146  1.00  0.00    -0.080 C 
ATOM      9  C   UNL     1     166.252 160.582 140.569  1.00  0.00     0.039 C 
ENDBRANCH   5   6
ENDBRANCH   4   5
ENDBRANCH   1   4
BRANCH   2  10
ATOM     10  C   UNL     1     164.087 156.086 138.459  1.00  0.00     0.055 C 
BRANCH  10  11
ATOM     11  C   UNL     1     165.549 155.912 138.779  1.00  0.00    -0.020 C 
ATOM     12  C   UNL     1     166.114 156.311 139.935  1.00  0.00    -0.055 C 
ATOM     13  C   UNL     1     165.303 156.976 141.025  1.00  0.00     0.044 C 
BRANCH  12  14
ATOM     14  C   UNL     1     167.555 156.014 140.146  1.00  0.00    -0.005 C 
ATOM     15  C   UNL     1     168.451 156.931 140.512  1.00  0.00     0.009 C 
ENDBRANCH  12  14
ENDBRANCH  10  11
ENDBRANCH   2  10
TORSDOF 6
ENDMDL
MODEL 2
REMARK VINA RESULT:    -1.918      1.411      4.609
REMARK INTER + INTRA:          -4.507
REMARK INTER:                  -2.612
REMARK INTRA:                  -1.895
REMARK UNBOUND:                -1.917
REMARK SMILES C=CC(C)=CCC=C(C)CCC=C(C)C
REMARK SMILES IDX 8 1 7 2 9 3 10 4 11 5 12 6 14 7 13 8 15 9 6 10 5 11 3 12
REMARK SMILES IDX 4 13 2 14 1 15
REMARK H PARENT
REMARK Flexibility Score: inf
ROOT
ATOM      1  C   UNL     1     166.393 156.388 140.766  1.00  0.00    -0.077 C 
ATOM      2  C   UNL     1     165.242 156.061 140.136  1.00  0.00    -0.024 C 
ATOM      3  C   UNL     1     167.651 156.721 139.996  1.00  0.00     0.039 C 
ENDROOT
BRANCH   1   4
ATOM      4  C   UNL     1     166.421 156.431 142.277  1.00  0.00     0.034 C 
BRANCH   4   5
ATOM      5  C   UNL     1     165.416 157.457 142.812  1.00  0.00     0.032 C 
BRANCH   5   6
ATOM      6  C   UNL     1     165.696 158.826 142.246  1.00  0.00    -0.028 C 
ATOM      7  C   UNL     1     163.374 159.109 141.353  1.00  0.00     0.039 C 
ATOM      8  C   UNL     1     164.797 159.571 141.566  1.00  0.00    -0.080 C 
ATOM      9  C   UNL     1     165.233 160.907 141.024  1.00  0.00     0.039 C 
ENDBRANCH   5   6
ENDBRANCH   4   5
ENDBRANCH   1   4
BRANCH   2  10
ATOM     10  C   UNL     1     165.091 155.977 138.638  1.00  0.00     0.055 C 
BRANCH  10  11
ATOM     11  C   UNL     1     163.961 156.847 138.151  1.00  0.00    -0.020 C 
ATOM     12  C   UNL     1     164.101 158.151 137.845  1.00  0.00    -0.055 C 
ATOM     13  C   UNL     1     165.433 158.856 137.968  1.00  0.00     0.044 C 
BRANCH  12  14
ATOM     14  C   UNL     1     162.916 158.872 137.310  1.00  0.00    -0.005 C 
ATOM     15  C   UNL     1     162.459 160.018 137.816  1.00  0.00     0.009 C 
ENDBRANCH  12  14
ENDBRANCH  10  11
ENDBRANCH   2  10
TORSDOF 6
ENDMDL
MODEL 3
REMARK VINA RESULT:    -1.870      0.956      4.115
REMARK INTER + INTRA:          -4.443
REMARK INTER:                  -2.483
REMARK INTRA:                  -1.960
REMARK UNBOUND:                -1.917
REMARK SMILES C=CC(C)=CCC=C(C)CCC=C(C)C
REMARK SMILES IDX 8 1 7 2 9 3 10 4 11 5 12 6 14 7 13 8 15 9 6 10 5 11 3 12
REMARK SMILES IDX 4 13 2 14 1 15
REMARK H PARENT
REMARK Flexibility Score: inf
ROOT
ATOM      1  C   UNL     1     166.770 156.511 140.336  1.00  0.00    -0.077 C 
ATOM      2  C   UNL     1     166.232 156.241 139.124  1.00  0.00    -0.024 C 
ATOM      3  C   UNL     1     165.945 156.452 141.601  1.00  0.00     0.039 C 
ENDROOT
BRANCH   1   4
ATOM      4  C   UNL     1     168.235 156.874 140.428  1.00  0.00     0.034 C 
BRANCH   4   5
ATOM      5  C   UNL     1     168.512 158.204 139.720  1.00  0.00     0.032 C 
BRANCH   5   6
ATOM      6  C   UNL     1     167.554 159.271 140.188  1.00  0.00    -0.028 C 
ATOM      7  C   UNL     1     166.643 159.687 137.894  1.00  0.00     0.039 C 
ATOM      8  C   UNL     1     166.726 159.964 139.377  1.00  0.00    -0.080 C 
ATOM      9  C   UNL     1     165.851 161.030 139.984  1.00  0.00     0.039 C 
ENDBRANCH   5   6
ENDBRANCH   4   5
ENDBRANCH   1   4
BRANCH   2  10
ATOM     10  C   UNL     1     164.786 155.875 138.904  1.00  0.00     0.055 C 
BRANCH  10  11
ATOM     11  C   UNL     1     164.101 156.868 138.000  1.00  0.00    -0.020 C 
ATOM     12  C   UNL     1     163.427 157.944 138.448  1.00  0.00    -0.055 C 
ATOM     13  C   UNL     1     163.306 158.246 139.925  1.00  0.00     0.044 C 
BRANCH  12  14
ATOM     14  C   UNL     1     162.858 158.878 137.441  1.00  0.00    -0.005 C 
ATOM     15  C   UNL     1     162.910 160.206 137.554  1.00  0.00     0.009 C 
ENDBRANCH  12  14
ENDBRANCH  10  11
ENDBRANCH   2  10
TORSDOF 6
ENDMDL
MODEL 4
REMARK VINA RESULT:    -1.862     13.627     16.545
REMARK INTER + INTRA:          -4.433
REMARK INTER:                  -2.615
REMARK INTRA:                  -1.818
REMARK UNBOUND:                -1.917
REMARK SMILES C=CC(C)=CCC=C(C)CCC=C(C)C
REMARK SMILES IDX 8 1 7 2 9 3 10 4 11 5 12 6 14 7 13 8 15 9 6 10 5 11 3 12
REMARK SMILES IDX 4 13 2 14 1 15
REMARK H PARENT
REMARK Flexibility Score: inf
ROOT
ATOM      1  C   UNL     1     168.715 174.154 138.259  1.00  0.00    -0.077 C 
ATOM      2  C   UNL     1     167.722 175.016 137.943  1.00  0.00    -0.024 C 
ATOM      3  C   UNL     1     169.435 174.225 139.586  1.00  0.00     0.039 C 
ENDROOT
BRANCH   1   4
ATOM      4  C   UNL     1     169.110 173.087 137.263  1.00  0.00     0.034 C 
BRANCH   4   5
ATOM      5  C   UNL     1     167.945 172.125 137.005  1.00  0.00     0.032 C 
BRANCH   5   6
ATOM      6  C   UNL     1     167.463 171.509 138.294  1.00  0.00    -0.028 C 
ATOM      7  C   UNL     1     165.131 172.380 138.027  1.00  0.00     0.039 C 
ATOM      8  C   UNL     1     166.209 171.635 138.780  1.00  0.00    -0.080 C 
ATOM      9  C   UNL     1     165.883 170.995 140.104  1.00  0.00     0.039 C 
ENDBRANCH   5   6
ENDBRANCH   4   5
ENDBRANCH   1   4
BRANCH   2  10
ATOM     10  C   UNL     1     167.245 176.125 138.848  1.00  0.00     0.055 C 
BRANCH  10  11
ATOM     11  C   UNL     1     165.768 176.011 139.122  1.00  0.00    -0.020 C 
ATOM     12  C   UNL     1     165.253 175.360 140.183  1.00  0.00    -0.055 C 
ATOM     13  C   UNL     1     166.139 174.681 141.203  1.00  0.00     0.044 C 
BRANCH  12  14
ATOM     14  C   UNL     1     163.779 175.386 140.368  1.00  0.00    -0.005 C 
ATOM     15  C   UNL     1     162.954 176.121 139.621  1.00  0.00     0.009 C 
ENDBRANCH  12  14
ENDBRANCH  10  11
ENDBRANCH   2  10
TORSDOF 6
ENDMDL
MODEL 5
REMARK VINA RESULT:    -1.861     13.611     15.797
REMARK INTER + INTRA:          -4.431
REMARK INTER:                  -2.511
REMARK INTRA:                  -1.921
REMARK UNBOUND:                -1.917
REMARK SMILES C=CC(C)=CCC=C(C)CCC=C(C)C
REMARK SMILES IDX 8 1 7 2 9 3 10 4 11 5 12 6 14 7 13 8 15 9 6 10 5 11 3 12
REMARK SMILES IDX 4 13 2 14 1 15
REMARK H PARENT
REMARK Flexibility Score: inf
ROOT
ATOM      1  C   UNL     1     166.140 175.092 139.830  1.00  0.00    -0.077 C 
ATOM      2  C   UNL     1     166.857 174.936 140.966  1.00  0.00    -0.024 C 
ATOM      3  C   UNL     1     164.904 174.266 139.552  1.00  0.00     0.039 C 
ENDROOT
BRANCH   1   4
ATOM      4  C   UNL     1     166.579 176.124 138.816  1.00  0.00     0.034 C 
BRANCH   4   5
ATOM      5  C   UNL     1     168.015 175.856 138.353  1.00  0.00     0.032 C 
BRANCH   5   6
ATOM      6  C   UNL     1     168.143 174.466 137.783  1.00  0.00    -0.028 C 
ATOM      7  C   UNL     1     169.958 173.805 139.375  1.00  0.00     0.039 C 
ATOM      8  C   UNL     1     169.028 173.541 138.214  1.00  0.00    -0.080 C 
ATOM      9  C   UNL     1     169.068 172.205 137.520  1.00  0.00     0.039 C 
ENDBRANCH   5   6
ENDBRANCH   4   5
ENDBRANCH   1   4
BRANCH   2  10
ATOM     10  C   UNL     1     166.524 173.937 142.046  1.00  0.00     0.055 C 
BRANCH  10  11
ATOM     11  C   UNL     1     167.674 172.997 142.297  1.00  0.00    -0.020 C 
ATOM     12  C   UNL     1     167.849 171.837 141.635  1.00  0.00    -0.055 C 
ATOM     13  C   UNL     1     166.883 171.382 140.564  1.00  0.00     0.044 C 
BRANCH  12  14
ATOM     14  C   UNL     1     169.066 171.040 141.937  1.00  0.00    -0.005 C 
ATOM     15  C   UNL     1     170.176 171.558 142.464  1.00  0.00     0.009 C 
ENDBRANCH  12  14
ENDBRANCH  10  11
ENDBRANCH   2  10
TORSDOF 6
ENDMDL
MODEL 6
REMARK VINA RESULT:    -1.833     13.585     16.193
REMARK INTER + INTRA:          -4.393
REMARK INTER:                  -2.573
REMARK INTRA:                  -1.820
REMARK UNBOUND:                -1.917
REMARK SMILES C=CC(C)=CCC=C(C)CCC=C(C)C
REMARK SMILES IDX 8 1 7 2 9 3 10 4 11 5 12 6 14 7 13 8 15 9 6 10 5 11 3 12
REMARK SMILES IDX 4 13 2 14 1 15
REMARK H PARENT
REMARK Flexibility Score: inf
ROOT
ATOM      1  C   UNL     1     165.362 175.495 140.476  1.00  0.00    -0.077 C 
ATOM      2  C   UNL     1     165.837 175.757 139.237  1.00  0.00    -0.024 C 
ATOM      3  C   UNL     1     166.250 175.567 141.697  1.00  0.00     0.039 C 
ENDROOT
BRANCH   1   4
ATOM      4  C   UNL     1     163.905 175.128 140.645  1.00  0.00     0.034 C 
BRANCH   4   5
ATOM      5  C   UNL     1     163.581 173.827 139.904  1.00  0.00     0.032 C 
BRANCH   5   6
ATOM      6  C   UNL     1     164.537 172.731 140.304  1.00  0.00    -0.028 C 
ATOM      7  C   UNL     1     165.331 172.348 137.961  1.00  0.00     0.039 C 
ATOM      8  C   UNL     1     165.312 172.040 139.440  1.00  0.00    -0.080 C 
ATOM      9  C   UNL     1     166.191 170.943 139.981  1.00  0.00     0.039 C 
ENDBRANCH   5   6
ENDBRANCH   4   5
ENDBRANCH   1   4
BRANCH   2  10
ATOM     10  C   UNL     1     167.269 176.125 138.941  1.00  0.00     0.055 C 
BRANCH  10  11
ATOM     11  C   UNL     1     167.899 175.148 137.983  1.00  0.00    -0.020 C 
ATOM     12  C   UNL     1     168.588 174.058 138.373  1.00  0.00    -0.055 C 
ATOM     13  C   UNL     1     168.782 173.725 139.835  1.00  0.00     0.044 C 
BRANCH  12  14
ATOM     14  C   UNL     1     169.098 173.142 137.319  1.00  0.00    -0.005 C 
ATOM     15  C   UNL     1     170.180 172.377 137.467  1.00  0.00     0.009 C 
ENDBRANCH  12  14
ENDBRANCH  10  11
ENDBRANCH   2  10
TORSDOF 6
ENDMDL
MODEL 7
REMARK VINA RESULT:    -1.819     13.010     15.528
REMARK INTER + INTRA:          -4.374
REMARK INTER:                  -2.590
REMARK INTRA:                  -1.784
REMARK UNBOUND:                -1.917
REMARK SMILES C=CC(C)=CCC=C(C)CCC=C(C)C
REMARK SMILES IDX 8 1 7 2 9 3 10 4 11 5 12 6 14 7 13 8 15 9 6 10 5 11 3 12
REMARK SMILES IDX 4 13 2 14 1 15
REMARK H PARENT
REMARK Flexibility Score: inf
ROOT
ATOM      1  C   UNL     1     168.221 175.151 138.447  1.00  0.00    -0.077 C 
ATOM      2  C   UNL     1     168.223 174.099 137.596  1.00  0.00    -0.024 C 
ATOM      3  C   UNL     1     169.349 175.382 139.425  1.00  0.00     0.039 C 
ENDROOT
BRANCH   1   4
ATOM      4  C   UNL     1     167.064 176.125 138.413  1.00  0.00     0.034 C 
BRANCH   4   5
ATOM      5  C   UNL     1     166.112 175.881 139.588  1.00  0.00     0.032 C 
BRANCH   5   6
ATOM      6  C   UNL     1     165.452 174.530 139.471  1.00  0.00    -0.028 C 
ATOM      7  C   UNL     1     166.718 173.566 141.404  1.00  0.00     0.039 C 
ATOM      8  C   UNL     1     165.731 173.472 140.264  1.00  0.00    -0.080 C 
ATOM      9  C   UNL     1     165.020 172.170 140.002  1.00  0.00     0.039 C 
ENDBRANCH   5   6
ENDBRANCH   4   5
ENDBRANCH   1   4
BRANCH   2  10
ATOM     10  C   UNL     1     169.313 173.059 137.541  1.00  0.00     0.055 C 
BRANCH  10  11
ATOM     11  C   UNL     1     168.817 171.719 138.018  1.00  0.00    -0.020 C 
ATOM     12  C   UNL     1     169.086 171.212 139.236  1.00  0.00    -0.055 C 
ATOM     13  C   UNL     1     169.924 171.970 140.242  1.00  0.00     0.044 C 
BRANCH  12  14
ATOM     14  C   UNL     1     168.475 169.907 139.599  1.00  0.00    -0.005 C 
ATOM     15  C   UNL     1     167.378 169.420 139.018  1.00  0.00     0.009 C 
ENDBRANCH  12  14
ENDBRANCH  10  11
ENDBRANCH   2  10
TORSDOF 6
ENDMDL
MODEL 8
REMARK VINA RESULT:    -1.194     12.840     15.811
REMARK INTER + INTRA:          -3.529
REMARK INTER:                  -1.603
REMARK INTRA:                  -1.926
REMARK UNBOUND:                -1.917
REMARK SMILES C=CC(C)=CCC=C(C)CCC=C(C)C
REMARK SMILES IDX 8 1 7 2 9 3 10 4 11 5 12 6 14 7 13 8 15 9 6 10 5 11 3 12
REMARK SMILES IDX 4 13 2 14 1 15
REMARK H PARENT
REMARK Flexibility Score: inf
ROOT
ATOM      1  C   UNL     1     169.738 171.183 139.140  1.00  0.00    -0.077 C 
ATOM      2  C   UNL     1     168.951 171.731 138.186  1.00  0.00    -0.024 C 
ATOM      3  C   UNL     1     171.085 171.772 139.490  1.00  0.00     0.039 C 
ENDROOT
BRANCH   1   4
ATOM      4  C   UNL     1     169.255 169.956 139.880  1.00  0.00     0.034 C 
BRANCH   4   5
ATOM      5  C   UNL     1     167.904 170.222 140.551  1.00  0.00     0.032 C 
BRANCH   5   6
ATOM      6  C   UNL     1     167.984 171.421 141.462  1.00  0.00    -0.028 C 
ATOM      7  C   UNL     1     166.049 172.579 140.374  1.00  0.00     0.039 C 
ATOM      8  C   UNL     1     167.175 172.500 141.379  1.00  0.00    -0.080 C 
ATOM      9  C   UNL     1     167.401 173.643 142.334  1.00  0.00     0.039 C 
ENDBRANCH   5   6
ENDBRANCH   4   5
ENDBRANCH   1   4
BRANCH   2  10
ATOM     10  C   UNL     1     169.324 172.947 137.376  1.00  0.00     0.055 C 
BRANCH  10  11
ATOM     11  C   UNL     1     168.266 174.015 137.471  1.00  0.00    -0.020 C 
ATOM     12  C   UNL     1     168.246 174.964 138.427  1.00  0.00    -0.055 C 
ATOM     13  C   UNL     1     169.308 175.031 139.500  1.00  0.00     0.044 C 
BRANCH  12  14
ATOM     14  C   UNL     1     167.180 175.998 138.359  1.00  0.00    -0.005 C 
ATOM     15  C   UNL     1     166.217 176.125 139.272  1.00  0.00     0.009 C 
ENDBRANCH  12  14
ENDBRANCH  10  11
ENDBRANCH   2  10
TORSDOF 6
ENDMDL
