MODEL 1
REMARK VINA RESULT:    -4.594      0.000      0.000
REMARK INTER + INTRA:          -4.728
REMARK INTER:                  -4.728
REMARK INTRA:                   0.000
REMARK UNBOUND:                 0.000
REMARK SMILES Cc1ccccc1O
REMARK SMILES IDX 1 1 2 2 3 3 4 4 5 5 6 6 7 7 8 8
REMARK H PARENT 8 9
REMARK Flexibility Score: inf
ROOT
ATOM      1  C   UNL     1     117.850  53.587  -2.752  1.00  0.00     0.048 C 
ATOM      2  C   UNL     1     116.949  52.458  -2.340  1.00  0.00    -0.009 A 
ATOM      3  C   UNL     1     116.125  52.585  -1.210  1.00  0.00     0.007 A 
ATOM      4  C   UNL     1     115.286  51.534  -0.826  1.00  0.00     0.001 A 
ATOM      5  C   UNL     1     115.262  50.351  -1.568  1.00  0.00     0.004 A 
ATOM      6  C   UNL     1     116.077  50.215  -2.693  1.00  0.00     0.046 A 
ATOM      7  C   UNL     1     116.922  51.264  -3.086  1.00  0.00     0.118 A 
ENDROOT
BRANCH   7   8
ATOM      8  O   UNL     1     117.734  51.124  -4.211  1.00  0.00    -0.508 OA
ATOM      9  H   UNL     1     117.566  51.656  -5.057  1.00  0.00     0.293 HD
ENDBRANCH   7   8
TORSDOF 1
ENDMDL
MODEL 2
REMARK VINA RESULT:    -4.495      1.380      2.841
REMARK INTER + INTRA:          -4.626
REMARK INTER:                  -4.626
REMARK INTRA:                   0.000
REMARK UNBOUND:                 0.000
REMARK SMILES Cc1ccccc1O
REMARK SMILES IDX 1 1 2 2 3 3 4 4 5 5 6 6 7 7 8 8
REMARK H PARENT 8 9
REMARK Flexibility Score: inf
ROOT
ATOM      1  C   UNL     1     115.747  52.366  -0.738  1.00  0.00     0.048 C 
ATOM      2  C   UNL     1     116.593  52.334  -1.979  1.00  0.00    -0.009 A 
ATOM      3  C   UNL     1     117.381  53.443  -2.327  1.00  0.00     0.007 A 
ATOM      4  C   UNL     1     118.170  53.414  -3.482  1.00  0.00     0.001 A 
ATOM      5  C   UNL     1     118.177  52.279  -4.296  1.00  0.00     0.004 A 
ATOM      6  C   UNL     1     117.397  51.171  -3.958  1.00  0.00     0.046 A 
ATOM      7  C   UNL     1     116.603  51.191  -2.801  1.00  0.00     0.118 A 
ENDROOT
BRANCH   7   8
ATOM      8  O   UNL     1     115.826  50.082  -2.467  1.00  0.00    -0.508 OA
ATOM      9  H   UNL     1     116.073  49.473  -1.696  1.00  0.00     0.293 HD
ENDBRANCH   7   8
TORSDOF 1
ENDMDL
MODEL 3
REMARK VINA RESULT:    -4.384      1.721      3.618
REMARK INTER + INTRA:          -4.512
REMARK INTER:                  -4.512
REMARK INTRA:                   0.000
REMARK UNBOUND:                 0.000
REMARK SMILES Cc1ccccc1O
REMARK SMILES IDX 1 1 2 2 3 3 4 4 5 5 6 6 7 7 8 8
REMARK H PARENT 8 9
REMARK Flexibility Score: inf
ROOT
ATOM      1  C   UNL     1     115.803  50.042  -2.340  1.00  0.00     0.048 C 
ATOM      2  C   UNL     1     116.654  51.218  -2.729  1.00  0.00    -0.009 A 
ATOM      3  C   UNL     1     117.511  51.136  -3.838  1.00  0.00     0.007 A 
ATOM      4  C   UNL     1     118.303  52.230  -4.200  1.00  0.00     0.001 A 
ATOM      5  C   UNL     1     118.245  53.412  -3.458  1.00  0.00     0.004 A 
ATOM      6  C   UNL     1     117.396  53.503  -2.354  1.00  0.00     0.046 A 
ATOM      7  C   UNL     1     116.598  52.410  -1.983  1.00  0.00     0.118 A 
ENDROOT
BRANCH   7   8
ATOM      8  O   UNL     1     115.751  52.506  -0.879  1.00  0.00    -0.508 OA
ATOM      9  H   UNL     1     114.836  52.069  -0.872  1.00  0.00     0.293 HD
ENDBRANCH   7   8
TORSDOF 1
ENDMDL
MODEL 4
REMARK VINA RESULT:    -4.327      1.912      2.857
REMARK INTER + INTRA:          -4.453
REMARK INTER:                  -4.453
REMARK INTRA:                   0.000
REMARK UNBOUND:                 0.000
REMARK SMILES Cc1ccccc1O
REMARK SMILES IDX 1 1 2 2 3 3 4 4 5 5 6 6 7 7 8 8
REMARK H PARENT 8 9
REMARK Flexibility Score: inf
ROOT
ATOM      1  C   UNL     1     118.910  52.392  -5.446  1.00  0.00     0.048 C 
ATOM      2  C   UNL     1     118.076  52.276  -4.202  1.00  0.00    -0.009 A 
ATOM      3  C   UNL     1     117.323  51.115  -3.960  1.00  0.00     0.007 A 
ATOM      4  C   UNL     1     116.546  51.007  -2.802  1.00  0.00     0.001 A 
ATOM      5  C   UNL     1     116.516  52.054  -1.879  1.00  0.00     0.004 A 
ATOM      6  C   UNL     1     117.261  53.212  -2.111  1.00  0.00     0.046 A 
ATOM      7  C   UNL     1     118.043  53.330  -3.269  1.00  0.00     0.118 A 
ENDROOT
BRANCH   7   8
ATOM      8  O   UNL     1     118.786  54.489  -3.497  1.00  0.00    -0.508 OA
ATOM      9  H   UNL     1     119.798  54.490  -3.444  1.00  0.00     0.293 HD
ENDBRANCH   7   8
TORSDOF 1
ENDMDL
MODEL 5
REMARK VINA RESULT:    -3.723      2.114      3.356
REMARK INTER + INTRA:          -3.832
REMARK INTER:                  -3.832
REMARK INTRA:                   0.000
REMARK UNBOUND:                 0.000
REMARK SMILES Cc1ccccc1O
REMARK SMILES IDX 1 1 2 2 3 3 4 4 5 5 6 6 7 7 8 8
REMARK H PARENT 8 9
REMARK Flexibility Score: inf
ROOT
ATOM      1  C   UNL     1     117.840  53.632  -2.408  1.00  0.00     0.048 C 
ATOM      2  C   UNL     1     117.831  52.671  -3.562  1.00  0.00    -0.009 A 
ATOM      3  C   UNL     1     118.354  53.055  -4.808  1.00  0.00     0.007 A 
ATOM      4  C   UNL     1     118.346  52.161  -5.883  1.00  0.00     0.001 A 
ATOM      5  C   UNL     1     117.816  50.879  -5.723  1.00  0.00     0.004 A 
ATOM      6  C   UNL     1     117.294  50.487  -4.489  1.00  0.00     0.046 A 
ATOM      7  C   UNL     1     117.298  51.377  -3.404  1.00  0.00     0.118 A 
ENDROOT
BRANCH   7   8
ATOM      8  O   UNL     1     116.775  50.982  -2.173  1.00  0.00    -0.508 OA
ATOM      9  H   UNL     1     117.262  51.170  -1.304  1.00  0.00     0.293 HD
ENDBRANCH   7   8
TORSDOF 1
ENDMDL
MODEL 6
REMARK VINA RESULT:    -3.526      2.348      2.636
REMARK INTER + INTRA:          -3.629
REMARK INTER:                  -3.629
REMARK INTRA:                   0.000
REMARK UNBOUND:                 0.000
REMARK SMILES Cc1ccccc1O
REMARK SMILES IDX 1 1 2 2 3 3 4 4 5 5 6 6 7 7 8 8
REMARK H PARENT 8 9
REMARK Flexibility Score: inf
ROOT
ATOM      1  C   UNL     1     118.134  52.466   1.349  1.00  0.00     0.048 C 
ATOM      2  C   UNL     1     117.418  51.852   0.179  1.00  0.00    -0.009 A 
ATOM      3  C   UNL     1     116.092  52.215  -0.109  1.00  0.00     0.007 A 
ATOM      4  C   UNL     1     115.424  51.644  -1.197  1.00  0.00     0.001 A 
ATOM      5  C   UNL     1     116.075  50.709  -2.004  1.00  0.00     0.004 A 
ATOM      6  C   UNL     1     117.393  50.341  -1.726  1.00  0.00     0.046 A 
ATOM      7  C   UNL     1     118.071  50.909  -0.637  1.00  0.00     0.118 A 
ENDROOT
BRANCH   7   8
ATOM      8  O   UNL     1     119.387  50.539  -0.363  1.00  0.00    -0.508 OA
ATOM      9  H   UNL     1     120.074  51.215  -0.048  1.00  0.00     0.293 HD
ENDBRANCH   7   8
TORSDOF 1
ENDMDL
MODEL 7
REMARK VINA RESULT:    -3.504      1.993      2.914
REMARK INTER + INTRA:          -3.606
REMARK INTER:                  -3.606
REMARK INTRA:                   0.000
REMARK UNBOUND:                 0.000
REMARK SMILES Cc1ccccc1O
REMARK SMILES IDX 1 1 2 2 3 3 4 4 5 5 6 6 7 7 8 8
REMARK H PARENT 8 9
REMARK Flexibility Score: inf
ROOT
ATOM      1  C   UNL     1     117.355  52.130   0.812  1.00  0.00     0.048 C 
ATOM      2  C   UNL     1     117.353  52.021  -0.686  1.00  0.00    -0.009 A 
ATOM      3  C   UNL     1     118.087  52.932  -1.463  1.00  0.00     0.007 A 
ATOM      4  C   UNL     1     118.086  52.832  -2.858  1.00  0.00     0.001 A 
ATOM      5  C   UNL     1     117.353  51.823  -3.486  1.00  0.00     0.004 A 
ATOM      6  C   UNL     1     116.620  50.912  -2.723  1.00  0.00     0.046 A 
ATOM      7  C   UNL     1     116.615  51.005  -1.323  1.00  0.00     0.118 A 
ENDROOT
BRANCH   7   8
ATOM      8  O   UNL     1     115.882  50.093  -0.564  1.00  0.00    -0.508 OA
ATOM      9  H   UNL     1     114.869  50.067  -0.598  1.00  0.00     0.293 HD
ENDBRANCH   7   8
TORSDOF 1
ENDMDL
MODEL 8
REMARK VINA RESULT:    -3.467      9.518     10.420
REMARK INTER + INTRA:          -3.568
REMARK INTER:                  -3.568
REMARK INTRA:                   0.000
REMARK UNBOUND:                 0.000
REMARK SMILES Cc1ccccc1O
REMARK SMILES IDX 1 1 2 2 3 3 4 4 5 5 6 6 7 7 8 8
REMARK H PARENT 8 9
REMARK Flexibility Score: inf
ROOT
ATOM      1  C   UNL     1     125.981  57.110   0.607  1.00  0.00     0.048 C 
ATOM      2  C   UNL     1     125.835  55.713   0.074  1.00  0.00    -0.009 A 
ATOM      3  C   UNL     1     125.123  55.478  -1.113  1.00  0.00     0.007 A 
ATOM      4  C   UNL     1     124.987  54.178  -1.610  1.00  0.00     0.001 A 
ATOM      5  C   UNL     1     125.561  53.105  -0.926  1.00  0.00     0.004 A 
ATOM      6  C   UNL     1     126.271  53.327   0.256  1.00  0.00     0.046 A 
ATOM      7  C   UNL     1     126.412  54.628   0.762  1.00  0.00     0.118 A 
ENDROOT
BRANCH   7   8
ATOM      8  O   UNL     1     127.123  54.846   1.942  1.00  0.00    -0.508 OA
ATOM      9  H   UNL     1     127.751  55.635   2.046  1.00  0.00     0.293 HD
ENDBRANCH   7   8
TORSDOF 1
ENDMDL
