MODEL 1
REMARK VINA RESULT:    -3.766      0.000      0.000
REMARK INTER + INTRA:          -5.766
REMARK INTER:                  -5.087
REMARK INTRA:                  -0.680
REMARK UNBOUND:                -0.680
REMARK SMILES CCCCCCCC(=O)[O-]
REMARK SMILES IDX 5 1 6 2 7 3 8 4 9 5 10 6 4 7 3 8 2 9 1 10
REMARK H PARENT
REMARK Flexibility Score: inf
ROOT
ATOM      1  C   UNL     1      47.631  34.672 -16.178  1.00  0.00     0.000 C 
ENDROOT
BRANCH   1   2
ATOM      2  C   UNL     1      47.113  34.933 -14.759  1.00  0.00     0.006 C 
BRANCH   2   3
ATOM      3  C   UNL     1      48.207  34.676 -13.718  1.00  0.00     0.053 C 
BRANCH   3   4
ATOM      4  C   UNL     1      48.951  35.938 -13.417  1.00  0.00     0.041 C 
ATOM      5  O   UNL     1      50.065  35.895 -12.833  1.00  0.00    -0.550 OA
ATOM      6  O   UNL     1      48.389  37.168 -13.737  1.00  0.00    -0.550 OA
ENDBRANCH   3   4
ENDBRANCH   2   3
ENDBRANCH   1   2
BRANCH   1   7
ATOM      7  C   UNL     1      47.467  35.914 -17.061  1.00  0.00     0.000 C 
BRANCH   7   8
ATOM      8  C   UNL     1      48.796  36.666 -17.207  1.00  0.00    -0.000 C 
BRANCH   8   9
ATOM      9  C   UNL     1      49.987  35.714 -17.047  1.00  0.00    -0.003 C 
ATOM     10  C   UNL     1      51.179  36.425 -16.412  1.00  0.00     0.004 C 
ENDBRANCH   8   9
ENDBRANCH   7   8
ENDBRANCH   1   7
TORSDOF 6
ENDMDL
MODEL 2
REMARK VINA RESULT:    -3.711     17.632     19.002
REMARK INTER + INTRA:          -5.692
REMARK INTER:                  -5.395
REMARK INTRA:                  -0.297
REMARK UNBOUND:                -0.680
REMARK SMILES CCCCCCCC(=O)[O-]
REMARK SMILES IDX 5 1 6 2 7 3 8 4 9 5 10 6 4 7 3 8 2 9 1 10
REMARK H PARENT
REMARK Flexibility Score: inf
ROOT
ATOM      1  C   UNL     1      38.374  21.475 -24.412  1.00  0.00     0.000 C 
ENDROOT
BRANCH   1   2
ATOM      2  C   UNL     1      39.678  21.850 -25.125  1.00  0.00     0.006 C 
BRANCH   2   3
ATOM      3  C   UNL     1      40.043  23.316 -24.871  1.00  0.00     0.053 C 
BRANCH   3   4
ATOM      4  C   UNL     1      41.217  23.411 -23.949  1.00  0.00     0.041 C 
ATOM      5  O   UNL     1      41.901  22.388 -23.684  1.00  0.00    -0.550 OA
ATOM      6  O   UNL     1      41.527  24.622 -23.343  1.00  0.00    -0.550 OA
ENDBRANCH   3   4
ENDBRANCH   2   3
ENDBRANCH   1   2
BRANCH   1   7
ATOM      7  C   UNL     1      38.587  20.297 -23.455  1.00  0.00     0.000 C 
BRANCH   7   8
ATOM      8  C   UNL     1      37.419  20.168 -22.470  1.00  0.00    -0.000 C 
BRANCH   8   9
ATOM      9  C   UNL     1      37.419  21.323 -21.461  1.00  0.00    -0.003 C 
ATOM     10  C   UNL     1      36.073  22.042 -21.447  1.00  0.00     0.004 C 
ENDBRANCH   8   9
ENDBRANCH   7   8
ENDBRANCH   1   7
TORSDOF 6
ENDMDL
MODEL 3
REMARK VINA RESULT:    -3.638      2.359      3.263
REMARK INTER + INTRA:          -5.594
REMARK INTER:                  -5.258
REMARK INTRA:                  -0.336
REMARK UNBOUND:                -0.680
REMARK SMILES CCCCCCCC(=O)[O-]
REMARK SMILES IDX 5 1 6 2 7 3 8 4 9 5 10 6 4 7 3 8 2 9 1 10
REMARK H PARENT
REMARK Flexibility Score: inf
ROOT
ATOM      1  C   UNL     1      48.049  35.081 -14.020  1.00  0.00     0.000 C 
ENDROOT
BRANCH   1   2
ATOM      2  C   UNL     1      47.103  34.612 -12.908  1.00  0.00     0.006 C 
BRANCH   2   3
ATOM      3  C   UNL     1      45.655  34.557 -13.405  1.00  0.00     0.053 C 
BRANCH   3   4
ATOM      4  C   UNL     1      44.914  35.791 -12.998  1.00  0.00     0.041 C 
ATOM      5  O   UNL     1      44.280  35.821 -11.911  1.00  0.00    -0.550 OA
ATOM      6  O   UNL     1      44.882  36.892 -13.845  1.00  0.00    -0.550 OA
ENDBRANCH   3   4
ENDBRANCH   2   3
ENDBRANCH   1   2
BRANCH   1   7
ATOM      7  C   UNL     1      47.503  34.708 -15.402  1.00  0.00     0.000 C 
BRANCH   7   8
ATOM      8  C   UNL     1      48.585  34.850 -16.479  1.00  0.00    -0.000 C 
BRANCH   8   9
ATOM      9  C   UNL     1      48.540  36.240 -17.125  1.00  0.00    -0.003 C 
ATOM     10  C   UNL     1      47.103  36.679 -17.388  1.00  0.00     0.004 C 
ENDBRANCH   8   9
ENDBRANCH   7   8
ENDBRANCH   1   7
TORSDOF 6
ENDMDL
MODEL 4
REMARK VINA RESULT:    -3.621      2.416      3.092
REMARK INTER + INTRA:          -5.571
REMARK INTER:                  -5.306
REMARK INTRA:                  -0.265
REMARK UNBOUND:                -0.680
REMARK SMILES CCCCCCCC(=O)[O-]
REMARK SMILES IDX 5 1 6 2 7 3 8 4 9 5 10 6 4 7 3 8 2 9 1 10
REMARK H PARENT
REMARK Flexibility Score: inf
ROOT
ATOM      1  C   UNL     1      47.844  34.687 -14.513  1.00  0.00     0.000 C 
ENDROOT
BRANCH   1   2
ATOM      2  C   UNL     1      46.513  35.167 -13.920  1.00  0.00     0.006 C 
BRANCH   2   3
ATOM      3  C   UNL     1      46.045  34.236 -12.796  1.00  0.00     0.053 C 
BRANCH   3   4
ATOM      4  C   UNL     1      45.785  35.014 -11.546  1.00  0.00     0.041 C 
ATOM      5  O   UNL     1      44.825  35.827 -11.493  1.00  0.00    -0.550 OA
ATOM      6  O   UNL     1      46.633  34.878 -10.454  1.00  0.00    -0.550 OA
ENDBRANCH   3   4
ENDBRANCH   2   3
ENDBRANCH   1   2
BRANCH   1   7
ATOM      7  C   UNL     1      47.780  34.642 -16.043  1.00  0.00     0.000 C 
BRANCH   7   8
ATOM      8  C   UNL     1      49.074  35.179 -16.666  1.00  0.00    -0.000 C 
BRANCH   8   9
ATOM      9  C   UNL     1      48.866  36.583 -17.244  1.00  0.00    -0.003 C 
ATOM     10  C   UNL     1      47.395  36.835 -17.563  1.00  0.00     0.004 C 
ENDBRANCH   8   9
ENDBRANCH   7   8
ENDBRANCH   1   7
TORSDOF 6
ENDMDL
MODEL 5
REMARK VINA RESULT:    -3.576     17.941     19.283
REMARK INTER + INTRA:          -5.510
REMARK INTER:                  -5.104
REMARK INTRA:                  -0.406
REMARK UNBOUND:                -0.680
REMARK SMILES CCCCCCCC(=O)[O-]
REMARK SMILES IDX 5 1 6 2 7 3 8 4 9 5 10 6 4 7 3 8 2 9 1 10
REMARK H PARENT
REMARK Flexibility Score: inf
ROOT
ATOM      1  C   UNL     1      38.194  21.674 -24.562  1.00  0.00     0.000 C 
ENDROOT
BRANCH   1   2
ATOM      2  C   UNL     1      39.610  21.846 -25.125  1.00  0.00     0.006 C 
BRANCH   2   3
ATOM      3  C   UNL     1      40.093  23.291 -24.966  1.00  0.00     0.053 C 
BRANCH   3   4
ATOM      4  C   UNL     1      41.212  23.363 -23.976  1.00  0.00     0.041 C 
ATOM      5  O   UNL     1      41.834  22.320 -23.644  1.00  0.00    -0.550 OA
ATOM      6  O   UNL     1      41.535  24.576 -23.382  1.00  0.00    -0.550 OA
ENDBRANCH   3   4
ENDBRANCH   2   3
ENDBRANCH   1   2
BRANCH   1   7
ATOM      7  C   UNL     1      38.234  21.172 -23.114  1.00  0.00     0.000 C 
BRANCH   7   8
ATOM      8  C   UNL     1      39.154  19.953 -22.979  1.00  0.00    -0.000 C 
BRANCH   8   9
ATOM      9  C   UNL     1      38.362  18.710 -22.554  1.00  0.00    -0.003 C 
ATOM     10  C   UNL     1      36.938  19.077 -22.146  1.00  0.00     0.004 C 
ENDBRANCH   8   9
ENDBRANCH   7   8
ENDBRANCH   1   7
TORSDOF 6
ENDMDL
MODEL 6
REMARK VINA RESULT:    -3.492      2.351      4.490
REMARK INTER + INTRA:          -5.397
REMARK INTER:                  -4.959
REMARK INTRA:                  -0.438
REMARK UNBOUND:                -0.680
REMARK SMILES CCCCCCCC(=O)[O-]
REMARK SMILES IDX 5 1 6 2 7 3 8 4 9 5 10 6 4 7 3 8 2 9 1 10
REMARK H PARENT
REMARK Flexibility Score: inf
ROOT
ATOM      1  C   UNL     1      48.197  35.250 -14.334  1.00  0.00     0.000 C 
ENDROOT
BRANCH   1   2
ATOM      2  C   UNL     1      47.624  34.726 -15.656  1.00  0.00     0.006 C 
BRANCH   2   3
ATOM      3  C   UNL     1      47.782  35.763 -16.772  1.00  0.00     0.053 C 
BRANCH   3   4
ATOM      4  C   UNL     1      49.224  36.106 -16.969  1.00  0.00     0.041 C 
ATOM      5  O   UNL     1      49.610  37.301 -16.882  1.00  0.00    -0.550 OA
ATOM      6  O   UNL     1      50.136  35.110 -17.299  1.00  0.00    -0.550 OA
ENDBRANCH   3   4
ENDBRANCH   2   3
ENDBRANCH   1   2
BRANCH   1   7
ATOM      7  C   UNL     1      47.421  34.690 -13.136  1.00  0.00     0.000 C 
BRANCH   7   8
ATOM      8  C   UNL     1      45.959  34.416 -13.507  1.00  0.00    -0.000 C 
BRANCH   8   9
ATOM      9  C   UNL     1      45.017  35.385 -12.783  1.00  0.00    -0.003 C 
ATOM     10  C   UNL     1      44.904  36.708 -13.533  1.00  0.00     0.004 C 
ENDBRANCH   8   9
ENDBRANCH   7   8
ENDBRANCH   1   7
TORSDOF 6
ENDMDL
MODEL 7
REMARK VINA RESULT:    -3.462      2.015      4.095
REMARK INTER + INTRA:          -5.356
REMARK INTER:                  -5.097
REMARK INTRA:                  -0.258
REMARK UNBOUND:                -0.680
REMARK SMILES CCCCCCCC(=O)[O-]
REMARK SMILES IDX 5 1 6 2 7 3 8 4 9 5 10 6 4 7 3 8 2 9 1 10
REMARK H PARENT
REMARK Flexibility Score: inf
ROOT
ATOM      1  C   UNL     1      47.984  34.705 -16.373  1.00  0.00     0.000 C 
ENDROOT
BRANCH   1   2
ATOM      2  C   UNL     1      48.805  35.873 -16.934  1.00  0.00     0.006 C 
BRANCH   2   3
ATOM      3  C   UNL     1      50.239  35.435 -17.249  1.00  0.00     0.053 C 
BRANCH   3   4
ATOM      4  C   UNL     1      51.222  36.310 -16.539  1.00  0.00     0.041 C 
ATOM      5  O   UNL     1      52.429  36.328 -16.896  1.00  0.00    -0.550 OA
ATOM      6  O   UNL     1      50.815  37.068 -15.448  1.00  0.00    -0.550 OA
ENDBRANCH   3   4
ENDBRANCH   2   3
ENDBRANCH   1   2
BRANCH   1   7
ATOM      7  C   UNL     1      47.180  35.138 -15.142  1.00  0.00     0.000 C 
BRANCH   7   8
ATOM      8  C   UNL     1      47.898  34.742 -13.847  1.00  0.00    -0.000 C 
BRANCH   8   9
ATOM      9  C   UNL     1      46.934  34.765 -12.654  1.00  0.00    -0.003 C 
ATOM     10  C   UNL     1      45.481  34.775 -13.120  1.00  0.00     0.004 C 
ENDBRANCH   8   9
ENDBRANCH   7   8
ENDBRANCH   1   7
TORSDOF 6
ENDMDL
MODEL 8
REMARK VINA RESULT:    -3.434     18.195     19.487
REMARK INTER + INTRA:          -5.318
REMARK INTER:                  -4.727
REMARK INTRA:                  -0.591
REMARK UNBOUND:                -0.680
REMARK SMILES CCCCCCCC(=O)[O-]
REMARK SMILES IDX 5 1 6 2 7 3 8 4 9 5 10 6 4 7 3 8 2 9 1 10
REMARK H PARENT
REMARK Flexibility Score: inf
ROOT
ATOM      1  C   UNL     1      38.142  21.265 -23.002  1.00  0.00     0.000 C 
ENDROOT
BRANCH   1   2
ATOM      2  C   UNL     1      38.067  21.823 -24.429  1.00  0.00     0.006 C 
BRANCH   2   3
ATOM      3  C   UNL     1      39.433  21.750 -25.120  1.00  0.00     0.053 C 
BRANCH   3   4
ATOM      4  C   UNL     1      40.338  22.824 -24.606  1.00  0.00     0.041 C 
ATOM      5  O   UNL     1      40.039  24.036 -24.765  1.00  0.00    -0.550 OA
ATOM      6  O   UNL     1      41.538  22.486 -23.993  1.00  0.00    -0.550 OA
ENDBRANCH   3   4
ENDBRANCH   2   3
ENDBRANCH   1   2
BRANCH   1   7
ATOM      7  C   UNL     1      37.898  19.752 -22.989  1.00  0.00     0.000 C 
BRANCH   7   8
ATOM      8  C   UNL     1      38.810  19.055 -21.972  1.00  0.00    -0.000 C 
BRANCH   8   9
ATOM      9  C   UNL     1      40.179  19.741 -21.901  1.00  0.00    -0.003 C 
ATOM     10  C   UNL     1      41.166  19.103 -22.874  1.00  0.00     0.004 C 
ENDBRANCH   8   9
ENDBRANCH   7   8
ENDBRANCH   1   7
TORSDOF 6
ENDMDL
MODEL 9
REMARK VINA RESULT:    -3.426     19.028     20.239
REMARK INTER + INTRA:          -5.308
REMARK INTER:                  -4.714
REMARK INTRA:                  -0.594
REMARK UNBOUND:                -0.680
REMARK SMILES CCCCCCCC(=O)[O-]
REMARK SMILES IDX 5 1 6 2 7 3 8 4 9 5 10 6 4 7 3 8 2 9 1 10
REMARK H PARENT
REMARK Flexibility Score: inf
ROOT
ATOM      1  C   UNL     1      37.179  20.422 -22.017  1.00  0.00     0.000 C 
ENDROOT
BRANCH   1   2
ATOM      2  C   UNL     1      37.786  21.323 -23.099  1.00  0.00     0.006 C 
BRANCH   2   3
ATOM      3  C   UNL     1      38.782  20.547 -23.966  1.00  0.00     0.053 C 
BRANCH   3   4
ATOM      4  C   UNL     1      40.181  20.771 -23.486  1.00  0.00     0.041 C 
ATOM      5  O   UNL     1      41.120  20.045 -23.907  1.00  0.00    -0.550 OA
ATOM      6  O   UNL     1      40.440  21.750 -22.535  1.00  0.00    -0.550 OA
ENDBRANCH   3   4
ENDBRANCH   2   3
ENDBRANCH   1   2
BRANCH   1   7
ATOM      7  C   UNL     1      37.267  18.945 -22.416  1.00  0.00     0.000 C 
BRANCH   7   8
ATOM      8  C   UNL     1      37.878  18.105 -21.289  1.00  0.00    -0.000 C 
BRANCH   8   9
ATOM      9  C   UNL     1      38.779  18.960 -20.391  1.00  0.00    -0.003 C 
ATOM     10  C   UNL     1      40.245  18.565 -20.545  1.00  0.00     0.004 C 
ENDBRANCH   8   9
ENDBRANCH   7   8
ENDBRANCH   1   7
TORSDOF 6
ENDMDL
