MODEL 1
REMARK VINA RESULT:    -5.119      0.000      0.000
REMARK INTER + INTRA:          -6.142
REMARK INTER:                  -6.016
REMARK INTRA:                  -0.125
REMARK UNBOUND:                -0.125
REMARK SMILES O=C([O-])C=Cc1ccc(O)c(O)c1
REMARK SMILES IDX 6 1 13 2 7 3 11 4 8 5 9 6 5 7 4 8 2 9 1 10 3 11 12 12 10 14
REMARK H PARENT 12 13 10 15
REMARK Flexibility Score: inf
ROOT
ATOM      1  C   UNL     1       6.890   5.989 -17.074  1.00  0.00    -0.022 A 
ATOM      2  C   UNL     1       6.007   6.364 -16.043  1.00  0.00     0.058 A 
ATOM      3  C   UNL     1       7.685   6.976 -17.677  1.00  0.00     0.012 A 
ATOM      4  C   UNL     1       5.940   7.694 -15.608  1.00  0.00     0.157 A 
ATOM      5  C   UNL     1       7.622   8.303 -17.245  1.00  0.00     0.051 A 
ATOM      6  C   UNL     1       6.754   8.668 -16.208  1.00  0.00     0.157 A 
ENDROOT
BRANCH   1   7
ATOM      7  C   UNL     1       6.987   4.596 -17.576  1.00  0.00     0.010 C 
ATOM      8  C   UNL     1       5.930   3.869 -17.964  1.00  0.00     0.025 C 
BRANCH   8   9
ATOM      9  C   UNL     1       6.063   2.484 -18.446  1.00  0.00     0.064 C 
ATOM     10  O   UNL     1       6.628   1.601 -17.746  1.00  0.00    -0.545 OA
ATOM     11  O   UNL     1       5.557   2.144 -19.695  1.00  0.00    -0.545 OA
ENDBRANCH   8   9
ENDBRANCH   1   7
BRANCH   4  12
ATOM     12  O   UNL     1       5.056   8.027 -14.583  1.00  0.00    -0.504 OA
ATOM     13  H   UNL     1       4.069   8.184 -14.751  1.00  0.00     0.293 HD
ENDBRANCH   4  12
BRANCH   6  14
ATOM     14  O   UNL     1       6.694   9.992 -15.777  1.00  0.00    -0.504 OA
ATOM     15  H   UNL     1       6.691  10.764 -16.433  1.00  0.00     0.293 HD
ENDBRANCH   6  14
TORSDOF 4
ENDMDL
MODEL 2
REMARK VINA RESULT:    -5.069      9.026     12.185
REMARK INTER + INTRA:          -6.083
REMARK INTER:                  -5.958
REMARK INTRA:                  -0.125
REMARK UNBOUND:                -0.125
REMARK SMILES O=C([O-])C=Cc1ccc(O)c(O)c1
REMARK SMILES IDX 6 1 13 2 7 3 11 4 8 5 9 6 5 7 4 8 2 9 1 10 3 11 12 12 10 14
REMARK H PARENT 12 13 10 15
REMARK Flexibility Score: inf
ROOT
ATOM      1  C   UNL     1       9.320  14.239 -22.689  1.00  0.00    -0.022 A 
ATOM      2  C   UNL     1       9.012  13.990 -24.041  1.00  0.00     0.058 A 
ATOM      3  C   UNL     1       9.472  13.149 -21.817  1.00  0.00     0.012 A 
ATOM      4  C   UNL     1       8.884  12.678 -24.514  1.00  0.00     0.157 A 
ATOM      5  C   UNL     1       9.348  11.840 -22.287  1.00  0.00     0.051 A 
ATOM      6  C   UNL     1       9.057  11.597 -23.635  1.00  0.00     0.157 A 
ENDROOT
BRANCH   1   7
ATOM      7  C   UNL     1       9.453  15.611 -22.140  1.00  0.00     0.010 C 
ATOM      8  C   UNL     1       8.515  16.560 -22.271  1.00  0.00     0.025 C 
BRANCH   8   9
ATOM      9  C   UNL     1       8.687  17.916 -21.721  1.00  0.00     0.064 C 
ATOM     10  O   UNL     1       9.720  18.594 -21.970  1.00  0.00    -0.545 OA
ATOM     11  O   UNL     1       7.694  18.456 -20.914  1.00  0.00    -0.545 OA
ENDBRANCH   8   9
ENDBRANCH   1   7
BRANCH   4  12
ATOM     12  O   UNL     1       8.582  12.470 -25.859  1.00  0.00    -0.504 OA
ATOM     13  H   UNL     1       8.449  11.543 -26.245  1.00  0.00     0.293 HD
ENDBRANCH   4  12
BRANCH   6  14
ATOM     14  O   UNL     1       8.935  10.289 -24.102  1.00  0.00    -0.504 OA
ATOM     15  H   UNL     1       8.030   9.875 -24.290  1.00  0.00     0.293 HD
ENDBRANCH   6  14
TORSDOF 4
ENDMDL
MODEL 3
REMARK VINA RESULT:    -5.026      1.264      2.119
REMARK INTER + INTRA:          -6.032
REMARK INTER:                  -5.908
REMARK INTRA:                  -0.124
REMARK UNBOUND:                -0.125
REMARK SMILES O=C([O-])C=Cc1ccc(O)c(O)c1
REMARK SMILES IDX 6 1 13 2 7 3 11 4 8 5 9 6 5 7 4 8 2 9 1 10 3 11 12 12 10 14
REMARK H PARENT 12 13 10 15
REMARK Flexibility Score: inf
ROOT
ATOM      1  C   UNL     1       6.188   6.684 -16.791  1.00  0.00    -0.022 A 
ATOM      2  C   UNL     1       7.100   7.400 -17.592  1.00  0.00     0.058 A 
ATOM      3  C   UNL     1       5.688   7.289 -15.627  1.00  0.00     0.012 A 
ATOM      4  C   UNL     1       7.484   8.702 -17.248  1.00  0.00     0.157 A 
ATOM      5  C   UNL     1       6.068   8.589 -15.282  1.00  0.00     0.051 A 
ATOM      6  C   UNL     1       6.962   9.302 -16.090  1.00  0.00     0.157 A 
ENDROOT
BRANCH   1   7
ATOM      7  C   UNL     1       5.762   5.299 -17.109  1.00  0.00     0.010 C 
ATOM      8  C   UNL     1       6.565   4.382 -17.668  1.00  0.00     0.025 C 
BRANCH   8   9
ATOM      9  C   UNL     1       6.103   3.019 -17.980  1.00  0.00     0.064 C 
ATOM     10  O   UNL     1       6.776   2.009 -17.641  1.00  0.00    -0.545 OA
ATOM     11  O   UNL     1       4.905   2.843 -18.661  1.00  0.00    -0.545 OA
ENDBRANCH   8   9
ENDBRANCH   1   7
BRANCH   4  12
ATOM     12  O   UNL     1       8.386   9.380 -18.066  1.00  0.00    -0.504 OA
ATOM     13  H   UNL     1       8.129  10.219 -18.573  1.00  0.00     0.293 HD
ENDBRANCH   4  12
BRANCH   6  14
ATOM     14  O   UNL     1       7.338  10.599 -15.745  1.00  0.00    -0.504 OA
ATOM     15  H   UNL     1       8.291  10.924 -15.858  1.00  0.00     0.293 HD
ENDBRANCH   6  14
TORSDOF 4
ENDMDL
MODEL 4
REMARK VINA RESULT:    -4.888      8.471     10.403
REMARK INTER + INTRA:          -5.870
REMARK INTER:                  -5.746
REMARK INTRA:                  -0.124
REMARK UNBOUND:                -0.125
REMARK SMILES O=C([O-])C=Cc1ccc(O)c(O)c1
REMARK SMILES IDX 6 1 13 2 7 3 11 4 8 5 9 6 5 7 4 8 2 9 1 10 3 11 12 12 10 14
REMARK H PARENT 12 13 10 15
REMARK Flexibility Score: inf
ROOT
ATOM      1  C   UNL     1       9.078  12.180 -23.402  1.00  0.00    -0.022 A 
ATOM      2  C   UNL     1       9.069  10.775 -23.498  1.00  0.00     0.058 A 
ATOM      3  C   UNL     1       9.118  12.772 -22.129  1.00  0.00     0.012 A 
ATOM      4  C   UNL     1       9.123   9.980 -22.346  1.00  0.00     0.157 A 
ATOM      5  C   UNL     1       9.174  11.982 -20.979  1.00  0.00     0.051 A 
ATOM      6  C   UNL     1       9.180  10.585 -21.080  1.00  0.00     0.157 A 
ENDROOT
BRANCH   1   7
ATOM      7  C   UNL     1       9.010  13.062 -24.593  1.00  0.00     0.010 C 
ATOM      8  C   UNL     1       9.379  12.682 -25.824  1.00  0.00     0.025 C 
BRANCH   8   9
ATOM      9  C   UNL     1       9.308  13.589 -26.981  1.00  0.00     0.064 C 
ATOM     10  O   UNL     1       8.592  14.626 -26.955  1.00  0.00    -0.545 OA
ATOM     11  O   UNL     1      10.043  13.297 -28.124  1.00  0.00    -0.545 OA
ENDBRANCH   8   9
ENDBRANCH   1   7
BRANCH   4  12
ATOM     12  O   UNL     1       9.114   8.592 -22.480  1.00  0.00    -0.504 OA
ATOM     13  H   UNL     1       9.158   7.973 -21.679  1.00  0.00     0.293 HD
ENDBRANCH   4  12
BRANCH   6  14
ATOM     14  O   UNL     1       9.238   9.799 -19.931  1.00  0.00    -0.504 OA
ATOM     15  H   UNL     1       9.637   8.868 -19.943  1.00  0.00     0.293 HD
ENDBRANCH   6  14
TORSDOF 4
ENDMDL
MODEL 5
REMARK VINA RESULT:    -4.880      8.597     11.721
REMARK INTER + INTRA:          -5.861
REMARK INTER:                  -5.726
REMARK INTRA:                  -0.135
REMARK UNBOUND:                -0.125
REMARK SMILES O=C([O-])C=Cc1ccc(O)c(O)c1
REMARK SMILES IDX 6 1 13 2 7 3 11 4 8 5 9 6 5 7 4 8 2 9 1 10 3 11 12 12 10 14
REMARK H PARENT 12 13 10 15
REMARK Flexibility Score: inf
ROOT
ATOM      1  C   UNL     1       9.277  14.032 -22.625  1.00  0.00    -0.022 A 
ATOM      2  C   UNL     1       9.414  12.943 -21.741  1.00  0.00     0.058 A 
ATOM      3  C   UNL     1       9.037  13.775 -23.984  1.00  0.00     0.012 A 
ATOM      4  C   UNL     1       9.287  11.627 -22.204  1.00  0.00     0.157 A 
ATOM      5  C   UNL     1       8.909  12.464 -24.449  1.00  0.00     0.051 A 
ATOM      6  C   UNL     1       9.030  11.385 -23.563  1.00  0.00     0.157 A 
ENDROOT
BRANCH   1   7
ATOM      7  C   UNL     1       9.414  15.441 -22.182  1.00  0.00     0.010 C 
ATOM      8  C   UNL     1       8.450  16.363 -22.320  1.00  0.00     0.025 C 
BRANCH   8   9
ATOM      9  C   UNL     1       8.627  17.756 -21.879  1.00  0.00     0.064 C 
ATOM     10  O   UNL     1       9.688  18.390 -22.125  1.00  0.00    -0.545 OA
ATOM     11  O   UNL     1       7.605  18.385 -21.177  1.00  0.00    -0.545 OA
ENDBRANCH   8   9
ENDBRANCH   1   7
BRANCH   4  12
ATOM     12  O   UNL     1       9.426  10.575 -21.301  1.00  0.00    -0.504 OA
ATOM     13  H   UNL     1       8.947   9.690 -21.425  1.00  0.00     0.293 HD
ENDBRANCH   4  12
BRANCH   6  14
ATOM     14  O   UNL     1       8.899  10.078 -24.029  1.00  0.00    -0.504 OA
ATOM     15  H   UNL     1       9.167   9.822 -24.972  1.00  0.00     0.293 HD
ENDBRANCH   6  14
TORSDOF 4
ENDMDL
MODEL 6
REMARK VINA RESULT:    -4.788      2.881      6.346
REMARK INTER + INTRA:          -5.753
REMARK INTER:                  -5.606
REMARK INTRA:                  -0.146
REMARK UNBOUND:                -0.125
REMARK SMILES O=C([O-])C=Cc1ccc(O)c(O)c1
REMARK SMILES IDX 6 1 13 2 7 3 11 4 8 5 9 6 5 7 4 8 2 9 1 10 3 11 12 12 10 14
REMARK H PARENT 12 13 10 15
REMARK Flexibility Score: inf
ROOT
ATOM      1  C   UNL     1       7.514   8.996 -17.240  1.00  0.00    -0.022 A 
ATOM      2  C   UNL     1       7.759   7.609 -17.257  1.00  0.00     0.058 A 
ATOM      3  C   UNL     1       6.441   9.485 -16.478  1.00  0.00     0.012 A 
ATOM      4  C   UNL     1       6.964   6.733 -16.507  1.00  0.00     0.157 A 
ATOM      5  C   UNL     1       5.647   8.614 -15.727  1.00  0.00     0.051 A 
ATOM      6  C   UNL     1       5.905   7.238 -15.735  1.00  0.00     0.157 A 
ENDROOT
BRANCH   1   7
ATOM      7  C   UNL     1       8.322   9.960 -18.027  1.00  0.00     0.010 C 
ATOM      8  C   UNL     1       8.525  11.234 -17.663  1.00  0.00     0.025 C 
BRANCH   8   9
ATOM      9  C   UNL     1       9.324  12.166 -18.476  1.00  0.00     0.064 C 
ATOM     10  O   UNL     1      10.541  11.943 -18.716  1.00  0.00    -0.545 OA
ATOM     11  O   UNL     1       8.726  13.311 -18.987  1.00  0.00    -0.545 OA
ENDBRANCH   8   9
ENDBRANCH   1   7
BRANCH   4  12
ATOM     12  O   UNL     1       7.239   5.367 -16.546  1.00  0.00    -0.504 OA
ATOM     13  H   UNL     1       6.958   4.739 -15.802  1.00  0.00     0.293 HD
ENDBRANCH   4  12
BRANCH   6  14
ATOM     14  O   UNL     1       5.112   6.372 -14.984  1.00  0.00    -0.504 OA
ATOM     15  H   UNL     1       4.411   5.783 -15.417  1.00  0.00     0.293 HD
ENDBRANCH   6  14
TORSDOF 4
ENDMDL
MODEL 7
REMARK VINA RESULT:    -4.786     10.502     11.565
REMARK INTER + INTRA:          -5.750
REMARK INTER:                  -5.628
REMARK INTRA:                  -0.123
REMARK UNBOUND:                -0.125
REMARK SMILES O=C([O-])C=Cc1ccc(O)c(O)c1
REMARK SMILES IDX 6 1 13 2 7 3 11 4 8 5 9 6 5 7 4 8 2 9 1 10 3 11 12 12 10 14
REMARK H PARENT 12 13 10 15
REMARK Flexibility Score: inf
ROOT
ATOM      1  C   UNL     1       8.206  15.316 -22.461  1.00  0.00    -0.022 A 
ATOM      2  C   UNL     1       8.954  16.499 -22.621  1.00  0.00     0.058 A 
ATOM      3  C   UNL     1       7.091  15.331 -21.608  1.00  0.00     0.012 A 
ATOM      4  C   UNL     1       8.579  17.677 -21.963  1.00  0.00     0.157 A 
ATOM      5  C   UNL     1       6.713  16.505 -20.951  1.00  0.00     0.051 A 
ATOM      6  C   UNL     1       7.451  17.682 -21.127  1.00  0.00     0.157 A 
ENDROOT
BRANCH   1   7
ATOM      7  C   UNL     1       8.572  14.043 -23.128  1.00  0.00     0.010 C 
ATOM      8  C   UNL     1       8.827  13.935 -24.440  1.00  0.00     0.025 C 
BRANCH   8   9
ATOM      9  C   UNL     1       9.176  12.651 -25.070  1.00  0.00     0.064 C 
ATOM     10  O   UNL     1       8.976  11.557 -24.477  1.00  0.00    -0.545 OA
ATOM     11  O   UNL     1       9.737  12.645 -26.341  1.00  0.00    -0.545 OA
ENDBRANCH   8   9
ENDBRANCH   1   7
BRANCH   4  12
ATOM     12  O   UNL     1       9.342  18.829 -22.148  1.00  0.00    -0.504 OA
ATOM     13  H   UNL     1       9.365  19.576 -21.465  1.00  0.00     0.293 HD
ENDBRANCH   4  12
BRANCH   6  14
ATOM     14  O   UNL     1       7.071  18.852 -20.472  1.00  0.00    -0.504 OA
ATOM     15  H   UNL     1       7.303  19.015 -19.499  1.00  0.00     0.293 HD
ENDBRANCH   6  14
TORSDOF 4
ENDMDL
MODEL 8
REMARK VINA RESULT:    -4.784      1.226      5.831
REMARK INTER + INTRA:          -5.748
REMARK INTER:                  -5.626
REMARK INTRA:                  -0.122
REMARK UNBOUND:                -0.125
REMARK SMILES O=C([O-])C=Cc1ccc(O)c(O)c1
REMARK SMILES IDX 6 1 13 2 7 3 11 4 8 5 9 6 5 7 4 8 2 9 1 10 3 11 12 12 10 14
REMARK H PARENT 12 13 10 15
REMARK Flexibility Score: inf
ROOT
ATOM      1  C   UNL     1       5.879   5.207 -17.828  1.00  0.00    -0.022 A 
ATOM      2  C   UNL     1       6.126   3.901 -17.362  1.00  0.00     0.058 A 
ATOM      3  C   UNL     1       5.455   5.385 -19.154  1.00  0.00     0.012 A 
ATOM      4  C   UNL     1       5.929   2.795 -18.199  1.00  0.00     0.157 A 
ATOM      5  C   UNL     1       5.256   4.284 -19.991  1.00  0.00     0.051 A 
ATOM      6  C   UNL     1       5.488   2.986 -19.518  1.00  0.00     0.157 A 
ENDROOT
BRANCH   1   7
ATOM      7  C   UNL     1       6.084   6.409 -16.982  1.00  0.00     0.010 C 
ATOM      8  C   UNL     1       5.624   6.525 -15.728  1.00  0.00     0.025 C 
BRANCH   8   9
ATOM      9  C   UNL     1       5.838   7.738 -14.922  1.00  0.00     0.064 C 
ATOM     10  O   UNL     1       5.590   7.753 -13.686  1.00  0.00    -0.545 OA
ATOM     11  O   UNL     1       6.321   8.888 -15.534  1.00  0.00    -0.545 OA
ENDBRANCH   8   9
ENDBRANCH   1   7
BRANCH   4  12
ATOM     12  O   UNL     1       6.182   1.517 -17.703  1.00  0.00    -0.504 OA
ATOM     13  H   UNL     1       6.121   1.300 -16.715  1.00  0.00     0.293 HD
ENDBRANCH   4  12
BRANCH   6  14
ATOM     14  O   UNL     1       5.287   1.889 -20.355  1.00  0.00    -0.504 OA
ATOM     15  H   UNL     1       5.492   0.945 -20.050  1.00  0.00     0.293 HD
ENDBRANCH   6  14
TORSDOF 4
ENDMDL
MODEL 9
REMARK VINA RESULT:    -4.711      9.090     10.807
REMARK INTER + INTRA:          -5.662
REMARK INTER:                  -5.540
REMARK INTRA:                  -0.122
REMARK UNBOUND:                -0.125
REMARK SMILES O=C([O-])C=Cc1ccc(O)c(O)c1
REMARK SMILES IDX 6 1 13 2 7 3 11 4 8 5 9 6 5 7 4 8 2 9 1 10 3 11 12 12 10 14
REMARK H PARENT 12 13 10 15
REMARK Flexibility Score: inf
ROOT
ATOM      1  C   UNL     1       8.764  13.668 -23.778  1.00  0.00    -0.022 A 
ATOM      2  C   UNL     1       8.233  12.558 -23.092  1.00  0.00     0.058 A 
ATOM      3  C   UNL     1       9.032  14.844 -23.059  1.00  0.00     0.012 A 
ATOM      4  C   UNL     1       7.999  12.616 -21.712  1.00  0.00     0.157 A 
ATOM      5  C   UNL     1       8.801  14.904 -21.682  1.00  0.00     0.051 A 
ATOM      6  C   UNL     1       8.288  13.793 -21.002  1.00  0.00     0.157 A 
ENDROOT
BRANCH   1   7
ATOM      7  C   UNL     1       9.018  13.657 -25.239  1.00  0.00     0.010 C 
ATOM      8  C   UNL     1       9.790  12.750 -25.855  1.00  0.00     0.025 C 
BRANCH   8   9
ATOM      9  C   UNL     1      10.027  12.778 -27.308  1.00  0.00     0.064 C 
ATOM     10  O   UNL     1       9.118  13.118 -28.112  1.00  0.00    -0.545 OA
ATOM     11  O   UNL     1      11.276  12.421 -27.802  1.00  0.00    -0.545 OA
ENDBRANCH   8   9
ENDBRANCH   1   7
BRANCH   4  12
ATOM     12  O   UNL     1       7.476  11.497 -21.066  1.00  0.00    -0.504 OA
ATOM     13  H   UNL     1       6.952  10.785 -21.561  1.00  0.00     0.293 HD
ENDBRANCH   4  12
BRANCH   6  14
ATOM     14  O   UNL     1       8.061  13.855 -19.629  1.00  0.00    -0.504 OA
ATOM     15  H   UNL     1       7.446  13.199 -19.162  1.00  0.00     0.293 HD
ENDBRANCH   6  14
TORSDOF 4
ENDMDL
