MODEL 1
REMARK VINA RESULT:    -3.948      0.000      0.000
REMARK INTER + INTRA:          -4.370
REMARK INTER:                  -4.871
REMARK INTRA:                   0.501
REMARK UNBOUND:                 0.501
REMARK SMILES C=C1[C@H]2CC[C@@H]3[C@@H]2C(C)(C)CCC[C@]13C
REMARK SMILES IDX 14 1 6 2 7 3 3 4 2 5 1 6 4 7 5 8 15 9 8 10 9 11 10 12 11 13
REMARK SMILES IDX 13 15 12 16
REMARK H PARENT
REMARK Flexibility Score: 80.00
ROOT
ATOM      1  C   UNL     1     142.760 141.398 134.402  1.00  0.00    -0.008 C 
ATOM      2  C   UNL     1     141.883 140.552 135.314  1.00  0.00     0.003 C 
ATOM      3  C   UNL     1     141.973 139.213 134.559  1.00  0.00     0.006 C 
ATOM      4  C   UNL     1     143.461 139.043 134.808  1.00  0.00     0.019 C 
ATOM      5  C   UNL     1     143.912 140.398 134.214  1.00  0.00    -0.068 C 
ATOM      6  C   UNL     1     145.069 140.624 133.584  1.00  0.00     0.009 C 
ATOM      7  C   UNL     1     143.579 139.147 136.323  1.00  0.00     0.008 C 
ATOM      8  C   UNL     1     142.520 140.192 136.678  1.00  0.00     0.005 C 
ATOM      9  C   UNL     1     143.260 142.696 135.072  1.00  0.00     0.016 C 
ENDROOT
BRANCH   3  10
ATOM     10  C   UNL     1     140.561 138.693 134.207  1.00  0.00    -0.032 C 
ATOM     11  C   UNL     1     139.737 138.414 135.484  1.00  0.00     0.011 C 
ATOM     12  C   UNL     1     140.622 137.367 133.398  1.00  0.00     0.011 C 
BRANCH  10  13
ATOM     13  C   UNL     1     139.882 139.847 133.335  1.00  0.00     0.007 CG0
ATOM     14  G   UNL     1     140.856 140.750 132.459  1.00  0.00     0.000 G0
ENDBRANCH  10  13
ENDBRANCH   3  10
BRANCH   1  15
ATOM     15  C   UNL     1     141.879 141.761 133.120  1.00  0.00     0.011 C 
BRANCH  15  16
ATOM     16  C   UNL     1     140.840 140.750 132.449  1.00  0.00     0.001 CG0
ATOM     17  G   UNL     1     139.881 139.846 133.340  1.00  0.00     0.000 G0
ENDBRANCH  15  16
ENDBRANCH   1  15
TORSDOF 0
ENDMDL
MODEL 2
REMARK VINA RESULT:    -3.935      1.801      3.405
REMARK INTER + INTRA:          -4.354
REMARK INTER:                  -4.860
REMARK INTRA:                   0.506
REMARK UNBOUND:                 0.501
REMARK SMILES C=C1[C@H]2CC[C@@H]3[C@@H]2C(C)(C)CCC[C@]13C
REMARK SMILES IDX 14 1 6 2 7 3 3 4 2 5 1 6 4 7 5 8 15 9 8 10 9 11 10 12 11 13
REMARK SMILES IDX 13 15 12 16
REMARK H PARENT
REMARK Flexibility Score: 80.00
ROOT
ATOM      1  C   UNL     1     141.403 139.468 134.640  1.00  0.00    -0.008 C 
ATOM      2  C   UNL     1     140.500 140.264 135.571  1.00  0.00     0.003 C 
ATOM      3  C   UNL     1     139.187 140.167 134.772  1.00  0.00     0.006 C 
ATOM      4  C   UNL     1     139.065 138.663 134.938  1.00  0.00     0.019 C 
ATOM      5  C   UNL     1     140.452 138.292 134.363  1.00  0.00    -0.068 C 
ATOM      6  C   UNL     1     140.738 137.180 133.680  1.00  0.00     0.009 C 
ATOM      7  C   UNL     1     139.131 138.468 136.447  1.00  0.00     0.008 C 
ATOM      8  C   UNL     1     140.125 139.543 136.888  1.00  0.00     0.005 C 
ATOM      9  C   UNL     1     142.699 138.979 135.321  1.00  0.00     0.016 C 
ENDROOT
BRANCH   3  10
ATOM     10  C   UNL     1     138.626 141.577 134.480  1.00  0.00    -0.032 C 
ATOM     11  C   UNL     1     138.271 142.316 135.789  1.00  0.00     0.011 C 
ATOM     12  C   UNL     1     137.331 141.513 133.620  1.00  0.00     0.011 C 
BRANCH  10  13
ATOM     13  C   UNL     1     139.782 142.346 133.690  1.00  0.00     0.007 CG0
ATOM     14  G   UNL     1     140.728 141.461 132.766  1.00  0.00     0.000 G0
ENDBRANCH  10  13
ENDBRANCH   3  10
BRANCH   1  15
ATOM     15  C   UNL     1     141.769 140.428 133.418  1.00  0.00     0.011 C 
BRANCH  15  16
ATOM     16  C   UNL     1     140.739 141.465 132.772  1.00  0.00     0.001 CG0
ATOM     17  G   UNL     1     139.780 142.346 133.684  1.00  0.00     0.000 G0
ENDBRANCH  15  16
ENDBRANCH   1  15
TORSDOF 0
ENDMDL
MODEL 3
REMARK VINA RESULT:    -3.918      1.906      2.904
REMARK INTER + INTRA:          -4.334
REMARK INTER:                  -4.835
REMARK INTRA:                   0.502
REMARK UNBOUND:                 0.501
REMARK SMILES C=C1[C@H]2CC[C@@H]3[C@@H]2C(C)(C)CCC[C@]13C
REMARK SMILES IDX 14 1 6 2 7 3 3 4 2 5 1 6 4 7 5 8 15 9 8 10 9 11 10 12 11 13
REMARK SMILES IDX 13 15 12 16
REMARK H PARENT
REMARK Flexibility Score: 80.00
ROOT
ATOM      1  C   UNL     1     142.187 139.463 132.650  1.00  0.00    -0.008 C 
ATOM      2  C   UNL     1     141.014 139.543 133.616  1.00  0.00     0.003 C 
ATOM      3  C   UNL     1     139.985 138.727 132.813  1.00  0.00     0.006 C 
ATOM      4  C   UNL     1     140.771 137.431 132.908  1.00  0.00     0.019 C 
ATOM      5  C   UNL     1     142.097 137.965 132.317  1.00  0.00    -0.068 C 
ATOM      6  C   UNL     1     142.961 137.258 131.583  1.00  0.00     0.009 C 
ATOM      7  C   UNL     1     140.979 137.253 134.406  1.00  0.00     0.008 C 
ATOM      8  C   UNL     1     141.168 138.689 134.898  1.00  0.00     0.005 C 
ATOM      9  C   UNL     1     143.542 139.800 133.308  1.00  0.00     0.016 C 
ENDROOT
BRANCH   3  10
ATOM     10  C   UNL     1     138.698 139.550 132.586  1.00  0.00    -0.032 C 
ATOM     11  C   UNL     1     138.029 139.916 133.929  1.00  0.00     0.011 C 
ATOM     12  C   UNL     1     137.652 138.762 131.748  1.00  0.00     0.011 C 
BRANCH  10  13
ATOM     13  C   UNL     1     139.160 140.866 131.806  1.00  0.00     0.007 CG0
ATOM     14  G   UNL     1     140.435 140.729 130.864  1.00  0.00     0.000 G0
ENDBRANCH  10  13
ENDBRANCH   3  10
BRANCH   1  15
ATOM     15  C   UNL     1     141.890 140.502 131.474  1.00  0.00     0.011 C 
BRANCH  15  16
ATOM     16  C   UNL     1     140.435 140.747 130.861  1.00  0.00     0.001 CG0
ATOM     17  G   UNL     1     139.158 140.874 131.801  1.00  0.00     0.000 G0
ENDBRANCH  15  16
ENDBRANCH   1  15
TORSDOF 0
ENDMDL
MODEL 4
REMARK VINA RESULT:    -3.917      2.365      4.825
REMARK INTER + INTRA:          -4.332
REMARK INTER:                  -4.842
REMARK INTRA:                   0.510
REMARK UNBOUND:                 0.501
REMARK SMILES C=C1[C@H]2CC[C@@H]3[C@@H]2C(C)(C)CCC[C@]13C
REMARK SMILES IDX 14 1 6 2 7 3 3 4 2 5 1 6 4 7 5 8 15 9 8 10 9 11 10 12 11 13
REMARK SMILES IDX 13 15 12 16
REMARK H PARENT
REMARK Flexibility Score: 80.00
ROOT
ATOM      1  C   UNL     1     139.461 140.845 134.301  1.00  0.00    -0.008 C 
ATOM      2  C   UNL     1     140.317 141.688 135.236  1.00  0.00     0.003 C 
ATOM      3  C   UNL     1     140.320 143.005 134.436  1.00  0.00     0.006 C 
ATOM      4  C   UNL     1     138.828 143.236 134.594  1.00  0.00     0.019 C 
ATOM      5  C   UNL     1     138.360 141.880 134.017  1.00  0.00    -0.068 C 
ATOM      6  C   UNL     1     137.233 141.675 133.328  1.00  0.00     0.009 C 
ATOM      7  C   UNL     1     138.621 143.186 136.102  1.00  0.00     0.008 C 
ATOM      8  C   UNL     1     139.618 142.116 136.549  1.00  0.00     0.005 C 
ATOM      9  C   UNL     1     138.875 139.589 134.980  1.00  0.00     0.016 C 
ENDROOT
BRANCH   3  10
ATOM     10  C   UNL     1     141.768 143.461 134.150  1.00  0.00    -0.032 C 
ATOM     11  C   UNL     1     142.522 143.772 135.463  1.00  0.00     0.011 C 
ATOM     12  C   UNL     1     141.804 144.750 133.281  1.00  0.00     0.011 C 
BRANCH  10  13
ATOM     13  C   UNL     1     142.458 142.246 133.375  1.00  0.00     0.007 CG0
ATOM     14  G   UNL     1     141.515 141.358 132.453  1.00  0.00     0.000 G0
ENDBRANCH  10  13
ENDBRANCH   3  10
BRANCH   1  15
ATOM     15  C   UNL     1     140.398 140.410 133.083  1.00  0.00     0.011 C 
BRANCH  15  16
ATOM     16  C   UNL     1     141.521 141.355 132.452  1.00  0.00     0.001 CG0
ATOM     17  G   UNL     1     142.454 142.253 133.377  1.00  0.00     0.000 G0
ENDBRANCH  15  16
ENDBRANCH   1  15
TORSDOF 0
ENDMDL
MODEL 5
REMARK VINA RESULT:    -3.902      2.589      4.672
REMARK INTER + INTRA:          -4.314
REMARK INTER:                  -4.838
REMARK INTRA:                   0.525
REMARK UNBOUND:                 0.501
REMARK SMILES C=C1[C@H]2CC[C@@H]3[C@@H]2C(C)(C)CCC[C@]13C
REMARK SMILES IDX 14 1 6 2 7 3 3 4 2 5 1 6 4 7 5 8 15 9 8 10 9 11 10 12 11 13
REMARK SMILES IDX 13 15 12 16
REMARK H PARENT
REMARK Flexibility Score: 80.00
ROOT
ATOM      1  C   UNL     1     139.818 142.745 133.193  1.00  0.00    -0.008 C 
ATOM      2  C   UNL     1     141.011 142.762 134.138  1.00  0.00     0.003 C 
ATOM      3  C   UNL     1     142.091 143.244 133.151  1.00  0.00     0.006 C 
ATOM      4  C   UNL     1     141.453 144.606 132.943  1.00  0.00     0.019 C 
ATOM      5  C   UNL     1     140.057 144.101 132.511  1.00  0.00    -0.068 C 
ATOM      6  C   UNL     1     139.246 144.709 131.639  1.00  0.00     0.009 C 
ATOM      7  C   UNL     1     141.323 145.155 134.357  1.00  0.00     0.008 C 
ATOM      8  C   UNL     1     140.999 143.906 135.180  1.00  0.00     0.005 C 
ATOM      9  C   UNL     1     138.460 142.729 133.928  1.00  0.00     0.016 C 
ENDROOT
BRANCH   3  10
ATOM     10  C   UNL     1     143.273 142.249 133.113  1.00  0.00    -0.032 C 
ATOM     11  C   UNL     1     144.002 142.200 134.475  1.00  0.00     0.011 C 
ATOM     12  C   UNL     1     144.325 142.648 132.040  1.00  0.00     0.011 C 
BRANCH  10  13
ATOM     13  C   UNL     1     142.630 140.829 132.763  1.00  0.00     0.007 CG0
ATOM     14  G   UNL     1     141.365 140.834 131.798  1.00  0.00     0.000 G0
ENDBRANCH  10  13
ENDBRANCH   3  10
BRANCH   1  15
ATOM     15  C   UNL     1     139.958 141.431 132.296  1.00  0.00     0.011 C 
BRANCH  15  16
ATOM     16  C   UNL     1     141.360 140.844 131.803  1.00  0.00     0.001 CG0
ATOM     17  G   UNL     1     142.628 140.833 132.763  1.00  0.00     0.000 G0
ENDBRANCH  15  16
ENDBRANCH   1  15
TORSDOF 0
ENDMDL
MODEL 6
REMARK VINA RESULT:    -3.890      1.752      2.334
REMARK INTER + INTRA:          -4.299
REMARK INTER:                  -4.821
REMARK INTRA:                   0.522
REMARK UNBOUND:                 0.501
REMARK SMILES C=C1[C@H]2CC[C@@H]3[C@@H]2C(C)(C)CCC[C@]13C
REMARK SMILES IDX 14 1 6 2 7 3 3 4 2 5 1 6 4 7 5 8 15 9 8 10 9 11 10 12 11 13
REMARK SMILES IDX 13 15 12 16
REMARK H PARENT
REMARK Flexibility Score: 80.00
ROOT
ATOM      1  C   UNL     1     142.727 142.292 132.964  1.00  0.00    -0.008 C 
ATOM      2  C   UNL     1     142.775 141.075 133.877  1.00  0.00     0.003 C 
ATOM      3  C   UNL     1     143.478 140.088 132.926  1.00  0.00     0.006 C 
ATOM      4  C   UNL     1     144.776 140.877 132.886  1.00  0.00     0.019 C 
ATOM      5  C   UNL     1     144.168 142.225 132.433  1.00  0.00    -0.068 C 
ATOM      6  C   UNL     1     144.772 143.127 131.653  1.00  0.00     0.009 C 
ATOM      7  C   UNL     1     145.149 141.016 134.356  1.00  0.00     0.008 C 
ATOM      8  C   UNL     1     143.790 141.174 135.040  1.00  0.00     0.005 C 
ATOM      9  C   UNL     1     142.480 143.613 133.723  1.00  0.00     0.016 C 
ENDROOT
BRANCH   3  10
ATOM     10  C   UNL     1     142.632 138.808 132.750  1.00  0.00    -0.032 C 
ATOM     11  C   UNL     1     142.509 138.035 134.082  1.00  0.00     0.011 C 
ATOM     12  C   UNL     1     143.264 137.840 131.711  1.00  0.00     0.011 C 
BRANCH  10  13
ATOM     13  C   UNL     1     141.198 139.305 132.249  1.00  0.00     0.007 CG0
ATOM     14  G   UNL     1     141.172 140.597 131.321  1.00  0.00     0.000 G0
ENDBRANCH  10  13
ENDBRANCH   3  10
BRANCH   1  15
ATOM     15  C   UNL     1     141.542 142.042 131.922  1.00  0.00     0.011 C 
BRANCH  15  16
ATOM     16  C   UNL     1     141.176 140.603 131.331  1.00  0.00     0.001 CG0
ATOM     17  G   UNL     1     141.188 139.309 132.255  1.00  0.00     0.000 G0
ENDBRANCH  15  16
ENDBRANCH   1  15
TORSDOF 0
ENDMDL
MODEL 7
REMARK VINA RESULT:    -3.887      1.785      3.513
REMARK INTER + INTRA:          -4.295
REMARK INTER:                  -4.813
REMARK INTRA:                   0.519
REMARK UNBOUND:                 0.501
REMARK SMILES C=C1[C@H]2CC[C@@H]3[C@@H]2C(C)(C)CCC[C@]13C
REMARK SMILES IDX 14 1 6 2 7 3 3 4 2 5 1 6 4 7 5 8 15 9 8 10 9 11 10 12 11 13
REMARK SMILES IDX 13 15 12 16
REMARK H PARENT
REMARK Flexibility Score: 80.00
ROOT
ATOM      1  C   UNL     1     140.754 142.743 134.387  1.00  0.00    -0.008 C 
ATOM      2  C   UNL     1     141.640 141.898 135.291  1.00  0.00     0.003 C 
ATOM      3  C   UNL     1     142.979 142.079 134.552  1.00  0.00     0.006 C 
ATOM      4  C   UNL     1     143.061 143.569 134.832  1.00  0.00     0.019 C 
ATOM      5  C   UNL     1     141.688 143.954 134.233  1.00  0.00    -0.068 C 
ATOM      6  C   UNL     1     141.402 145.109 133.623  1.00  0.00     0.009 C 
ATOM      7  C   UNL     1     142.936 143.650 136.348  1.00  0.00     0.008 C 
ATOM      8  C   UNL     1     141.950 142.526 136.671  1.00  0.00     0.005 C 
ATOM      9  C   UNL     1     139.423 143.155 135.053  1.00  0.00     0.016 C 
ENDROOT
BRANCH   3  10
ATOM     10  C   UNL     1     143.581 140.706 134.178  1.00  0.00    -0.032 C 
ATOM     11  C   UNL     1     143.935 139.892 135.443  1.00  0.00     0.011 C 
ATOM     12  C   UNL     1     144.886 140.859 133.347  1.00  0.00     0.011 C 
BRANCH  10  13
ATOM     13  C   UNL     1     142.457 139.962 133.321  1.00  0.00     0.007 CG0
ATOM     14  G   UNL     1     141.517 140.878 132.424  1.00  0.00     0.000 G0
ENDBRANCH  10  13
ENDBRANCH   3  10
BRANCH   1  15
ATOM     15  C   UNL     1     140.454 141.869 133.085  1.00  0.00     0.011 C 
BRANCH  15  16
ATOM     16  C   UNL     1     141.517 140.876 132.425  1.00  0.00     0.001 CG0
ATOM     17  G   UNL     1     142.456 139.961 133.327  1.00  0.00     0.000 G0
ENDBRANCH  15  16
ENDBRANCH   1  15
TORSDOF 0
ENDMDL
MODEL 8
REMARK VINA RESULT:    -3.817      2.017      3.934
REMARK INTER + INTRA:          -4.208
REMARK INTER:                  -4.729
REMARK INTRA:                   0.521
REMARK UNBOUND:                 0.501
REMARK SMILES C=C1[C@H]2CC[C@@H]3[C@@H]2C(C)(C)CCC[C@]13C
REMARK SMILES IDX 14 1 6 2 7 3 3 4 2 5 1 6 4 7 5 8 15 9 8 10 9 11 10 12 11 13
REMARK SMILES IDX 13 15 12 16
REMARK H PARENT
REMARK Flexibility Score: 80.00
ROOT
ATOM      1  C   UNL     1     142.700 142.394 133.990  1.00  0.00    -0.008 C 
ATOM      2  C   UNL     1     141.577 142.823 133.055  1.00  0.00     0.003 C 
ATOM      3  C   UNL     1     140.448 142.977 134.092  1.00  0.00     0.006 C 
ATOM      4  C   UNL     1     141.117 144.131 134.816  1.00  0.00     0.019 C 
ATOM      5  C   UNL     1     142.462 143.424 135.106  1.00  0.00    -0.068 C 
ATOM      6  C   UNL     1     143.230 143.625 136.181  1.00  0.00     0.009 C 
ATOM      7  C   UNL     1     141.366 145.146 133.708  1.00  0.00     0.008 C 
ATOM      8  C   UNL     1     141.703 144.264 132.505  1.00  0.00     0.005 C 
ATOM      9  C   UNL     1     144.104 142.567 133.372  1.00  0.00     0.016 C 
ENDROOT
BRANCH   3  10
ATOM     10  C   UNL     1     139.232 142.107 133.702  1.00  0.00    -0.032 C 
ATOM     11  C   UNL     1     138.610 142.587 132.371  1.00  0.00     0.011 C 
ATOM     12  C   UNL     1     138.115 142.164 134.781  1.00  0.00     0.011 C 
BRANCH  10  13
ATOM     13  C   UNL     1     139.795 140.618 133.560  1.00  0.00     0.007 CG0
ATOM     14  G   UNL     1     140.993 140.211 134.524  1.00  0.00     0.000 G0
ENDBRANCH  10  13
ENDBRANCH   3  10
BRANCH   1  15
ATOM     15  C   UNL     1     142.451 140.855 134.337  1.00  0.00     0.011 C 
BRANCH  15  16
ATOM     16  C   UNL     1     140.998 140.216 134.518  1.00  0.00     0.001 CG0
ATOM     17  G   UNL     1     139.796 140.621 133.558  1.00  0.00     0.000 G0
ENDBRANCH  15  16
ENDBRANCH   1  15
TORSDOF 0
ENDMDL
MODEL 9
REMARK VINA RESULT:    -3.813      1.393      3.729
REMARK INTER + INTRA:          -4.203
REMARK INTER:                  -4.715
REMARK INTRA:                   0.512
REMARK UNBOUND:                 0.501
REMARK SMILES C=C1[C@H]2CC[C@@H]3[C@@H]2C(C)(C)CCC[C@]13C
REMARK SMILES IDX 14 1 6 2 7 3 3 4 2 5 1 6 4 7 5 8 15 9 8 10 9 11 10 12 11 13
REMARK SMILES IDX 13 15 12 16
REMARK H PARENT
REMARK Flexibility Score: 80.00
ROOT
ATOM      1  C   UNL     1     142.362 139.457 134.094  1.00  0.00    -0.008 C 
ATOM      2  C   UNL     1     142.784 140.478 133.046  1.00  0.00     0.003 C 
ATOM      3  C   UNL     1     142.973 141.699 133.965  1.00  0.00     0.006 C 
ATOM      4  C   UNL     1     144.135 141.087 134.729  1.00  0.00     0.019 C 
ATOM      5  C   UNL     1     143.417 139.787 135.162  1.00  0.00    -0.068 C 
ATOM      6  C   UNL     1     143.631 139.124 136.302  1.00  0.00     0.009 C 
ATOM      7  C   UNL     1     145.123 140.718 133.631  1.00  0.00     0.008 C 
ATOM      8  C   UNL     1     144.212 140.279 132.483  1.00  0.00     0.005 C 
ATOM      9  C   UNL     1     142.504 137.997 133.612  1.00  0.00     0.016 C 
ENDROOT
BRANCH   3  10
ATOM     10  C   UNL     1     142.110 142.884 133.476  1.00  0.00    -0.032 C 
ATOM     11  C   UNL     1     142.556 143.353 132.072  1.00  0.00     0.011 C 
ATOM     12  C   UNL     1     142.221 144.108 134.428  1.00  0.00     0.011 C 
BRANCH  10  13
ATOM     13  C   UNL     1     140.609 142.338 133.441  1.00  0.00     0.007 CG0
ATOM     14  G   UNL     1     140.224 141.233 134.519  1.00  0.00     0.000 G0
ENDBRANCH  10  13
ENDBRANCH   3  10
BRANCH   1  15
ATOM     15  C   UNL     1     140.833 139.760 134.444  1.00  0.00     0.011 C 
BRANCH  15  16
ATOM     16  C   UNL     1     140.219 141.233 134.511  1.00  0.00     0.001 CG0
ATOM     17  G   UNL     1     140.613 142.337 133.435  1.00  0.00     0.000 G0
ENDBRANCH  15  16
ENDBRANCH   1  15
TORSDOF 0
ENDMDL
