MODEL 1
REMARK VINA RESULT:    -4.382      0.000      0.000
REMARK INTER + INTRA:          -6.351
REMARK INTER:                  -5.919
REMARK INTRA:                  -0.432
REMARK UNBOUND:                -0.432
REMARK SMILES CCCCCCC=CC(=O)[O-]
REMARK SMILES IDX 5 1 6 2 7 3 8 4 9 5 10 6 11 7 4 8 3 9 2 10 1 11
REMARK H PARENT
REMARK Flexibility Score: inf
ROOT
ATOM      1  C   UNL     1     131.230 132.061 126.480  1.00  0.00     0.004 C 
ENDROOT
BRANCH   1   2
ATOM      2  C   UNL     1     130.102 132.606 125.592  1.00  0.00     0.027 C 
BRANCH   2   3
ATOM      3  C   UNL     1     129.616 133.938 126.087  1.00  0.00    -0.025 C 
ATOM      4  C   UNL     1     130.410 135.015 126.090  1.00  0.00     0.020 C 
BRANCH   4   5
ATOM      5  C   UNL     1     129.950 136.333 126.556  1.00  0.00     0.064 C 
ATOM      6  O   UNL     1     129.163 137.031 125.862  1.00  0.00    -0.545 OA
ATOM      7  O   UNL     1     130.391 136.814 127.782  1.00  0.00    -0.545 OA
ENDBRANCH   4   5
ENDBRANCH   2   3
ENDBRANCH   1   2
BRANCH   1   8
ATOM      8  C   UNL     1     132.281 131.261 125.691  1.00  0.00     0.000 C 
BRANCH   8   9
ATOM      9  C   UNL     1     133.695 131.870 125.686  1.00  0.00    -0.000 C 
BRANCH   9  10
ATOM     10  C   UNL     1     133.784 133.171 124.876  1.00  0.00    -0.003 C 
ATOM     11  C   UNL     1     135.046 133.953 125.229  1.00  0.00     0.004 C 
ENDBRANCH   9  10
ENDBRANCH   8   9
ENDBRANCH   1   8
TORSDOF 6
ENDMDL
MODEL 2
REMARK VINA RESULT:    -4.237      3.083      5.076
REMARK INTER + INTRA:          -6.155
REMARK INTER:                  -5.773
REMARK INTRA:                  -0.382
REMARK UNBOUND:                -0.432
REMARK SMILES CCCCCCC=CC(=O)[O-]
REMARK SMILES IDX 5 1 6 2 7 3 8 4 9 5 10 6 11 7 4 8 3 9 2 10 1 11
REMARK H PARENT
REMARK Flexibility Score: inf
ROOT
ATOM      1  C   UNL     1     130.721 132.221 126.334  1.00  0.00     0.004 C 
ENDROOT
BRANCH   1   2
ATOM      2  C   UNL     1     131.843 131.640 125.461  1.00  0.00     0.027 C 
BRANCH   2   3
ATOM      3  C   UNL     1     133.077 132.495 125.522  1.00  0.00    -0.025 C 
ATOM      4  C   UNL     1     134.245 132.008 125.954  1.00  0.00     0.020 C 
BRANCH   4   5
ATOM      5  C   UNL     1     135.469 132.824 126.007  1.00  0.00     0.064 C 
ATOM      6  O   UNL     1     135.538 133.934 125.414  1.00  0.00    -0.545 OA
ATOM      7  O   UNL     1     136.566 132.362 126.723  1.00  0.00    -0.545 OA
ENDBRANCH   4   5
ENDBRANCH   2   3
ENDBRANCH   1   2
BRANCH   1   8
ATOM      8  C   UNL     1     129.499 132.674 125.516  1.00  0.00     0.000 C 
BRANCH   8   9
ATOM      9  C   UNL     1     129.123 134.158 125.673  1.00  0.00    -0.000 C 
BRANCH   9  10
ATOM     10  C   UNL     1     130.301 135.029 126.132  1.00  0.00    -0.003 C 
ATOM     11  C   UNL     1     129.828 136.157 127.045  1.00  0.00     0.004 C 
ENDBRANCH   9  10
ENDBRANCH   8   9
ENDBRANCH   1   8
TORSDOF 6
ENDMDL
MODEL 3
REMARK VINA RESULT:    -4.072     18.674     20.001
REMARK INTER + INTRA:          -5.933
REMARK INTER:                  -5.481
REMARK INTRA:                  -0.452
REMARK UNBOUND:                -0.432
REMARK SMILES CCCCCCC=CC(=O)[O-]
REMARK SMILES IDX 5 1 6 2 7 3 8 4 9 5 10 6 11 7 4 8 3 9 2 10 1 11
REMARK H PARENT
REMARK Flexibility Score: inf
ROOT
ATOM      1  C   UNL     1     129.168 122.110 139.448  1.00  0.00     0.004 C 
ENDROOT
BRANCH   1   2
ATOM      2  C   UNL     1     128.638 120.762 138.935  1.00  0.00     0.027 C 
BRANCH   2   3
ATOM      3  C   UNL     1     129.164 119.622 139.760  1.00  0.00    -0.025 C 
ATOM      4  C   UNL     1     130.115 118.804 139.295  1.00  0.00     0.020 C 
BRANCH   4   5
ATOM      5  C   UNL     1     130.655 117.691 140.092  1.00  0.00     0.064 C 
ATOM      6  O   UNL     1     131.747 117.141 139.785  1.00  0.00    -0.545 OA
ATOM      7  O   UNL     1     129.951 117.241 141.201  1.00  0.00    -0.545 OA
ENDBRANCH   4   5
ENDBRANCH   2   3
ENDBRANCH   1   2
BRANCH   1   8
ATOM      8  C   UNL     1     129.794 122.013 140.851  1.00  0.00     0.000 C 
BRANCH   8   9
ATOM      9  C   UNL     1     131.257 122.483 140.945  1.00  0.00    -0.000 C 
BRANCH   9  10
ATOM     10  C   UNL     1     131.870 122.812 139.577  1.00  0.00    -0.003 C 
ATOM     11  C   UNL     1     132.842 123.983 139.677  1.00  0.00     0.004 C 
ENDBRANCH   9  10
ENDBRANCH   8   9
ENDBRANCH   1   8
TORSDOF 6
ENDMDL
MODEL 4
REMARK VINA RESULT:    -3.918     16.338     17.330
REMARK INTER + INTRA:          -5.725
REMARK INTER:                  -5.350
REMARK INTRA:                  -0.375
REMARK UNBOUND:                -0.432
REMARK SMILES CCCCCCC=CC(=O)[O-]
REMARK SMILES IDX 5 1 6 2 7 3 8 4 9 5 10 6 11 7 4 8 3 9 2 10 1 11
REMARK H PARENT
REMARK Flexibility Score: inf
ROOT
ATOM      1  C   UNL     1     129.777 121.180 139.656  1.00  0.00     0.004 C 
ENDROOT
BRANCH   1   2
ATOM      2  C   UNL     1     128.407 121.821 139.387  1.00  0.00     0.027 C 
BRANCH   2   3
ATOM      3  C   UNL     1     128.028 121.704 137.938  1.00  0.00    -0.025 C 
ATOM      4  C   UNL     1     126.834 122.109 137.492  1.00  0.00     0.020 C 
BRANCH   4   5
ATOM      5  C   UNL     1     126.449 122.017 136.075  1.00  0.00     0.064 C 
ATOM      6  O   UNL     1     125.812 121.022 135.636  1.00  0.00    -0.545 OA
ATOM      7  O   UNL     1     126.791 123.047 135.207  1.00  0.00    -0.545 OA
ENDBRANCH   4   5
ENDBRANCH   2   3
ENDBRANCH   1   2
BRANCH   1   8
ATOM      8  C   UNL     1     130.686 121.164 138.414  1.00  0.00     0.000 C 
BRANCH   8   9
ATOM      9  C   UNL     1     131.910 122.094 138.491  1.00  0.00    -0.000 C 
BRANCH   9  10
ATOM     10  C   UNL     1     131.954 122.921 139.784  1.00  0.00    -0.003 C 
ATOM     11  C   UNL     1     132.921 124.094 139.653  1.00  0.00     0.004 C 
ENDBRANCH   9  10
ENDBRANCH   8   9
ENDBRANCH   1   8
TORSDOF 6
ENDMDL
MODEL 5
REMARK VINA RESULT:    -3.799     18.185     19.549
REMARK INTER + INTRA:          -5.563
REMARK INTER:                  -5.039
REMARK INTRA:                  -0.524
REMARK UNBOUND:                -0.432
REMARK SMILES CCCCCCC=CC(=O)[O-]
REMARK SMILES IDX 5 1 6 2 7 3 8 4 9 5 10 6 11 7 4 8 3 9 2 10 1 11
REMARK H PARENT
REMARK Flexibility Score: inf
ROOT
ATOM      1  C   UNL     1     127.778 120.916 140.873  1.00  0.00     0.004 C 
ENDROOT
BRANCH   1   2
ATOM      2  C   UNL     1     128.764 121.994 141.348  1.00  0.00     0.027 C 
BRANCH   2   3
ATOM      3  C   UNL     1     129.748 122.343 140.269  1.00  0.00    -0.025 C 
ATOM      4  C   UNL     1     131.058 122.448 140.523  1.00  0.00     0.020 C 
BRANCH   4   5
ATOM      5  C   UNL     1     132.041 122.773 139.478  1.00  0.00     0.064 C 
ATOM      6  O   UNL     1     132.790 123.781 139.579  1.00  0.00    -0.545 OA
ATOM      7  O   UNL     1     132.145 121.953 138.362  1.00  0.00    -0.545 OA
ENDBRANCH   4   5
ENDBRANCH   2   3
ENDBRANCH   1   2
BRANCH   1   8
ATOM      8  C   UNL     1     128.344 119.490 140.995  1.00  0.00     0.000 C 
BRANCH   8   9
ATOM      9  C   UNL     1     128.802 118.855 139.670  1.00  0.00    -0.000 C 
BRANCH   9  10
ATOM     10  C   UNL     1     130.329 118.745 139.554  1.00  0.00    -0.003 C 
ATOM     11  C   UNL     1     130.855 117.542 140.331  1.00  0.00     0.004 C 
ENDBRANCH   9  10
ENDBRANCH   8   9
ENDBRANCH   1   8
TORSDOF 6
ENDMDL
MODEL 6
REMARK VINA RESULT:    -3.786     18.361     19.643
REMARK INTER + INTRA:          -5.546
REMARK INTER:                  -5.198
REMARK INTRA:                  -0.348
REMARK UNBOUND:                -0.432
REMARK SMILES CCCCCCC=CC(=O)[O-]
REMARK SMILES IDX 5 1 6 2 7 3 8 4 9 5 10 6 11 7 4 8 3 9 2 10 1 11
REMARK H PARENT
REMARK Flexibility Score: inf
ROOT
ATOM      1  C   UNL     1     130.401 121.387 138.373  1.00  0.00     0.004 C 
ENDROOT
BRANCH   1   2
ATOM      2  C   UNL     1     130.775 119.900 138.467  1.00  0.00     0.027 C 
BRANCH   2   3
ATOM      3  C   UNL     1     129.800 119.148 139.327  1.00  0.00    -0.025 C 
ATOM      4  C   UNL     1     128.613 118.751 138.855  1.00  0.00     0.020 C 
BRANCH   4   5
ATOM      5  C   UNL     1     127.649 118.000 139.675  1.00  0.00     0.064 C 
ATOM      6  O   UNL     1     127.157 116.913 139.270  1.00  0.00    -0.545 OA
ATOM      7  O   UNL     1     127.278 118.498 140.917  1.00  0.00    -0.545 OA
ENDBRANCH   4   5
ENDBRANCH   2   3
ENDBRANCH   1   2
BRANCH   1   8
ATOM      8  C   UNL     1     130.136 122.027 139.747  1.00  0.00     0.000 C 
BRANCH   8   9
ATOM      9  C   UNL     1     131.362 122.679 140.410  1.00  0.00    -0.000 C 
BRANCH   9  10
ATOM     10  C   UNL     1     132.434 123.106 139.398  1.00  0.00    -0.003 C 
ATOM     11  C   UNL     1     133.102 124.411 139.822  1.00  0.00     0.004 C 
ENDBRANCH   9  10
ENDBRANCH   8   9
ENDBRANCH   1   8
TORSDOF 6
ENDMDL
MODEL 7
REMARK VINA RESULT:    -3.770     15.547     17.039
REMARK INTER + INTRA:          -5.525
REMARK INTER:                  -5.300
REMARK INTRA:                  -0.225
REMARK UNBOUND:                -0.432
REMARK SMILES CCCCCCC=CC(=O)[O-]
REMARK SMILES IDX 5 1 6 2 7 3 8 4 9 5 10 6 11 7 4 8 3 9 2 10 1 11
REMARK H PARENT
REMARK Flexibility Score: inf
ROOT
ATOM      1  C   UNL     1     126.377 121.579 136.701  1.00  0.00     0.004 C 
ENDROOT
BRANCH   1   2
ATOM      2  C   UNL     1     127.068 121.997 138.008  1.00  0.00     0.027 C 
BRANCH   2   3
ATOM      3  C   UNL     1     128.530 121.656 137.983  1.00  0.00    -0.025 C 
ATOM      4  C   UNL     1     129.315 121.860 139.047  1.00  0.00     0.020 C 
BRANCH   4   5
ATOM      5  C   UNL     1     130.746 121.519 139.049  1.00  0.00     0.064 C 
ATOM      6  O   UNL     1     131.162 120.450 138.528  1.00  0.00    -0.545 OA
ATOM      7  O   UNL     1     131.654 122.393 139.633  1.00  0.00    -0.545 OA
ENDBRANCH   4   5
ENDBRANCH   2   3
ENDBRANCH   1   2
BRANCH   1   8
ATOM      8  C   UNL     1     126.461 122.658 135.607  1.00  0.00     0.000 C 
BRANCH   8   9
ATOM      9  C   UNL     1     125.923 122.232 134.229  1.00  0.00    -0.000 C 
BRANCH   9  10
ATOM     10  C   UNL     1     126.245 123.245 133.121  1.00  0.00    -0.003 C 
ATOM     11  C   UNL     1     127.487 124.060 133.466  1.00  0.00     0.004 C 
ENDBRANCH   9  10
ENDBRANCH   8   9
ENDBRANCH   1   8
TORSDOF 6
ENDMDL
MODEL 8
REMARK VINA RESULT:    -3.680     18.247     19.547
REMARK INTER + INTRA:          -5.402
REMARK INTER:                  -4.778
REMARK INTRA:                  -0.625
REMARK UNBOUND:                -0.432
REMARK SMILES CCCCCCC=CC(=O)[O-]
REMARK SMILES IDX 5 1 6 2 7 3 8 4 9 5 10 6 11 7 4 8 3 9 2 10 1 11
REMARK H PARENT
REMARK Flexibility Score: inf
ROOT
ATOM      1  C   UNL     1     131.009 122.108 139.098  1.00  0.00     0.004 C 
ENDROOT
BRANCH   1   2
ATOM      2  C   UNL     1     131.188 122.336 140.606  1.00  0.00     0.027 C 
BRANCH   2   3
ATOM      3  C   UNL     1     129.884 122.188 141.337  1.00  0.00    -0.025 C 
ATOM      4  C   UNL     1     128.711 122.307 140.705  1.00  0.00     0.020 C 
BRANCH   4   5
ATOM      5  C   UNL     1     127.422 122.150 141.398  1.00  0.00     0.064 C 
ATOM      6  O   UNL     1     126.722 123.152 141.705  1.00  0.00    -0.545 OA
ATOM      7  O   UNL     1     126.970 120.876 141.717  1.00  0.00    -0.545 OA
ENDBRANCH   4   5
ENDBRANCH   2   3
ENDBRANCH   1   2
BRANCH   1   8
ATOM      8  C   UNL     1     131.324 120.664 138.668  1.00  0.00     0.000 C 
BRANCH   8   9
ATOM      9  C   UNL     1     130.094 119.795 138.349  1.00  0.00    -0.000 C 
BRANCH   9  10
ATOM     10  C   UNL     1     129.661 118.914 139.529  1.00  0.00    -0.003 C 
ATOM     11  C   UNL     1     130.759 117.924 139.907  1.00  0.00     0.004 C 
ENDBRANCH   9  10
ENDBRANCH   8   9
ENDBRANCH   1   8
TORSDOF 6
ENDMDL
MODEL 9
REMARK VINA RESULT:    -3.671     16.405     17.539
REMARK INTER + INTRA:          -5.391
REMARK INTER:                  -5.059
REMARK INTRA:                  -0.332
REMARK UNBOUND:                -0.432
REMARK SMILES CCCCCCC=CC(=O)[O-]
REMARK SMILES IDX 5 1 6 2 7 3 8 4 9 5 10 6 11 7 4 8 3 9 2 10 1 11
REMARK H PARENT
REMARK Flexibility Score: inf
ROOT
ATOM      1  C   UNL     1     129.484 119.926 138.355  1.00  0.00     0.004 C 
ENDROOT
BRANCH   1   2
ATOM      2  C   UNL     1     128.475 120.996 138.802  1.00  0.00     0.027 C 
BRANCH   2   3
ATOM      3  C   UNL     1     127.927 121.751 137.625  1.00  0.00    -0.025 C 
ATOM      4  C   UNL     1     126.696 121.519 137.156  1.00  0.00     0.020 C 
BRANCH   4   5
ATOM      5  C   UNL     1     126.135 122.258 136.014  1.00  0.00     0.064 C 
ATOM      6  O   UNL     1     125.756 123.454 136.135  1.00  0.00    -0.545 OA
ATOM      7  O   UNL     1     126.021 121.626 134.782  1.00  0.00    -0.545 OA
ENDBRANCH   4   5
ENDBRANCH   2   3
ENDBRANCH   1   2
BRANCH   1   8
ATOM      8  C   UNL     1     130.943 120.321 138.643  1.00  0.00     0.000 C 
BRANCH   8   9
ATOM      9  C   UNL     1     131.300 121.782 138.314  1.00  0.00    -0.000 C 
BRANCH   9  10
ATOM     10  C   UNL     1     132.043 122.489 139.456  1.00  0.00    -0.003 C 
ATOM     11  C   UNL     1     131.260 122.394 140.763  1.00  0.00     0.004 C 
ENDBRANCH   9  10
ENDBRANCH   8   9
ENDBRANCH   1   8
TORSDOF 6
ENDMDL
