MODEL 1
REMARK VINA RESULT:    -7.184      0.000      0.000
REMARK INTER + INTRA:         -10.143
REMARK INTER:                  -9.704
REMARK INTRA:                  -0.439
REMARK UNBOUND:                -0.439
REMARK SMILES O=c1c(-c2ccc(O)cc2)coc2c([C@@H]3O[C@@H](CO)[C@H](O)[C@H](O)[C@H]3O)c(O)ccc12
REMARK SMILES IDX 3 1 11 2 12 3 13 4 30 5 2 6 1 7 29 8 28 9 26 10 14 11 4 12
REMARK SMILES IDX 5 13 6 14 7 15 10 16 9 17 8 18 15 20 24 21 16 22 22 23 17 24
REMARK SMILES IDX 20 25 25 26 23 28 18 30 19 31 21 33 27 35
REMARK H PARENT 8 19 25 27 23 29 19 32 21 34 27 36
REMARK Flexibility Score: inf
ROOT
ATOM      1  C   UNL     1     130.738 -41.960  36.738  1.00  0.00     0.065 A 
ATOM      2  C   UNL     1     131.149 -41.423  35.509  1.00  0.00     0.208 A 
ATOM      3  O   UNL     1     130.345 -41.447  34.452  1.00  0.00    -0.463 OA
ATOM      4  C   UNL     1     129.121 -41.968  34.479  1.00  0.00     0.147 A 
ATOM      5  C   UNL     1     128.623 -42.523  35.681  1.00  0.00     0.066 A 
ATOM      6  C   UNL     1     129.447 -42.512  36.821  1.00  0.00     0.200 A 
ATOM      7  O   UNL     1     129.023 -42.973  37.918  1.00  0.00    -0.288 OA
ATOM      8  C   UNL     1     127.326 -43.059  35.711  1.00  0.00     0.020 A 
ATOM      9  C   UNL     1     126.531 -43.038  34.567  1.00  0.00     0.047 A 
ATOM     10  C   UNL     1     127.013 -42.489  33.373  1.00  0.00     0.125 A 
ATOM     11  C   UNL     1     128.322 -41.960  33.311  1.00  0.00     0.069 A 
ENDROOT
BRANCH   1  12
ATOM     12  C   UNL     1     131.658 -41.930  37.903  1.00  0.00    -0.011 A 
ATOM     13  C   UNL     1     132.770 -42.788  37.960  1.00  0.00     0.013 A 
ATOM     14  C   UNL     1     133.638 -42.748  39.056  1.00  0.00     0.047 A 
ATOM     15  C   UNL     1     133.406 -41.849  40.105  1.00  0.00     0.115 A 
ATOM     16  C   UNL     1     131.437 -41.025  38.956  1.00  0.00     0.013 A 
ATOM     17  C   UNL     1     132.306 -40.989  40.051  1.00  0.00     0.047 A 
BRANCH  15  18
ATOM     18  O   UNL     1     134.264 -41.800  41.202  1.00  0.00    -0.508 OA
ATOM     19  H   UNL     1     135.078 -41.197  41.212  1.00  0.00     0.293 HD
ENDBRANCH  15  18
ENDBRANCH   1  12
BRANCH  11  20
ATOM     20  C   UNL     1     128.843 -41.341  32.020  1.00  0.00     0.188 C 
ATOM     21  C   UNL     1     129.108 -39.831  32.229  1.00  0.00     0.179 C 
ATOM     22  O   UNL     1     130.021 -42.030  31.626  1.00  0.00    -0.362 OA
ATOM     23  C   UNL     1     129.663 -39.209  30.937  1.00  0.00     0.177 C 
ATOM     24  C   UNL     1     130.584 -41.540  30.416  1.00  0.00     0.176 C 
ATOM     25  C   UNL     1     130.876 -40.017  30.443  1.00  0.00     0.177 C 
BRANCH  21  26
ATOM     26  O   UNL     1     127.939 -39.165  32.639  1.00  0.00    -0.387 OA
ATOM     27  H   UNL     1     127.949 -38.259  32.231  1.00  0.00     0.211 HD
ENDBRANCH  21  26
BRANCH  23  28
ATOM     28  O   UNL     1     130.046 -37.877  31.166  1.00  0.00    -0.387 OA
ATOM     29  H   UNL     1     130.890 -37.903  31.691  1.00  0.00     0.211 HD
ENDBRANCH  23  28
BRANCH  24  30
ATOM     30  C   UNL     1     129.845 -42.047  29.156  1.00  0.00     0.191 C 
BRANCH  30  31
ATOM     31  O   UNL     1     130.099 -41.248  28.035  1.00  0.00    -0.394 OA
ATOM     32  H   UNL     1     131.063 -41.362  27.826  1.00  0.00     0.210 HD
ENDBRANCH  30  31
ENDBRANCH  24  30
BRANCH  25  33
ATOM     33  O   UNL     1     131.976 -39.789  31.290  1.00  0.00    -0.388 OA
ATOM     34  H   UNL     1     132.328 -38.886  31.078  1.00  0.00     0.211 HD
ENDBRANCH  25  33
ENDBRANCH  11  20
BRANCH  10  35
ATOM     35  O   UNL     1     126.187 -42.467  32.248  1.00  0.00    -0.507 OA
ATOM     36  H   UNL     1     126.546 -42.236  31.328  1.00  0.00     0.293 HD
ENDBRANCH  10  35
TORSDOF 9
ENDMDL
MODEL 2
REMARK VINA RESULT:    -6.894      1.026      2.511
REMARK INTER + INTRA:          -9.751
REMARK INTER:                  -9.211
REMARK INTRA:                  -0.540
REMARK UNBOUND:                -0.439
REMARK SMILES O=c1c(-c2ccc(O)cc2)coc2c([C@@H]3O[C@@H](CO)[C@H](O)[C@H](O)[C@H]3O)c(O)ccc12
REMARK SMILES IDX 3 1 11 2 12 3 13 4 30 5 2 6 1 7 29 8 28 9 26 10 14 11 4 12
REMARK SMILES IDX 5 13 6 14 7 15 10 16 9 17 8 18 15 20 24 21 16 22 22 23 17 24
REMARK SMILES IDX 20 25 25 26 23 28 18 30 19 31 21 33 27 35
REMARK H PARENT 8 19 25 27 23 29 19 32 21 34 27 36
REMARK Flexibility Score: inf
ROOT
ATOM      1  C   UNL     1     130.867 -41.941  36.293  1.00  0.00     0.065 A 
ATOM      2  C   UNL     1     131.361 -41.370  35.111  1.00  0.00     0.208 A 
ATOM      3  O   UNL     1     130.600 -41.281  34.027  1.00  0.00    -0.463 OA
ATOM      4  C   UNL     1     129.343 -41.716  33.982  1.00  0.00     0.147 A 
ATOM      5  C   UNL     1     128.761 -42.298  35.132  1.00  0.00     0.066 A 
ATOM      6  C   UNL     1     129.539 -42.405  36.300  1.00  0.00     0.200 A 
ATOM      7  O   UNL     1     129.042 -42.893  37.353  1.00  0.00    -0.288 OA
ATOM      8  C   UNL     1     127.431 -42.744  35.086  1.00  0.00     0.020 A 
ATOM      9  C   UNL     1     126.685 -42.607  33.918  1.00  0.00     0.047 A 
ATOM     10  C   UNL     1     127.250 -42.030  32.773  1.00  0.00     0.125 A 
ATOM     11  C   UNL     1     128.593 -41.591  32.787  1.00  0.00     0.069 A 
ENDROOT
BRANCH   1  12
ATOM     12  C   UNL     1     131.740 -42.037  37.490  1.00  0.00    -0.011 A 
ATOM     13  C   UNL     1     131.486 -41.250  38.627  1.00  0.00     0.013 A 
ATOM     14  C   UNL     1     132.306 -41.351  39.754  1.00  0.00     0.047 A 
ATOM     15  C   UNL     1     133.387 -42.242  39.760  1.00  0.00     0.115 A 
ATOM     16  C   UNL     1     132.823 -42.934  37.507  1.00  0.00     0.013 A 
ATOM     17  C   UNL     1     133.642 -43.032  38.636  1.00  0.00     0.047 A 
BRANCH  15  18
ATOM     18  O   UNL     1     134.213 -42.350  40.878  1.00  0.00    -0.508 OA
ATOM     19  H   UNL     1     135.124 -42.790  40.823  1.00  0.00     0.293 HD
ENDBRANCH  15  18
ENDBRANCH   1  12
BRANCH  11  20
ATOM     20  C   UNL     1     129.205 -40.943  31.553  1.00  0.00     0.188 C 
ATOM     21  C   UNL     1     129.046 -41.879  30.332  1.00  0.00     0.179 C 
ATOM     22  O   UNL     1     128.576 -39.689  31.336  1.00  0.00    -0.362 OA
ATOM     23  C   UNL     1     129.637 -41.215  29.077  1.00  0.00     0.177 C 
ATOM     24  C   UNL     1     129.086 -38.986  30.210  1.00  0.00     0.176 C 
ATOM     25  C   UNL     1     129.039 -39.808  28.896  1.00  0.00     0.177 C 
BRANCH  21  26
ATOM     26  O   UNL     1     129.656 -43.125  30.567  1.00  0.00    -0.387 OA
ATOM     27  H   UNL     1     129.533 -43.680  29.753  1.00  0.00     0.211 HD
ENDBRANCH  21  26
BRANCH  23  28
ATOM     28  O   UNL     1     129.360 -41.994  27.941  1.00  0.00    -0.387 OA
ATOM     29  H   UNL     1     129.977 -41.692  27.223  1.00  0.00     0.211 HD
ENDBRANCH  23  28
BRANCH  24  30
ATOM     30  C   UNL     1     130.432 -38.281  30.497  1.00  0.00     0.191 C 
BRANCH  30  31
ATOM     31  O   UNL     1     130.334 -37.357  31.544  1.00  0.00    -0.394 OA
ATOM     32  H   UNL     1     130.749 -37.789  32.335  1.00  0.00     0.210 HD
ENDBRANCH  30  31
ENDBRANCH  24  30
BRANCH  25  33
ATOM     33  O   UNL     1     127.697 -39.911  28.484  1.00  0.00    -0.388 OA
ATOM     34  H   UNL     1     127.200 -39.166  28.912  1.00  0.00     0.211 HD
ENDBRANCH  25  33
ENDBRANCH  11  20
BRANCH  10  35
ATOM     35  O   UNL     1     126.472 -41.891  31.623  1.00  0.00    -0.507 OA
ATOM     36  H   UNL     1     126.558 -42.530  30.841  1.00  0.00     0.293 HD
ENDBRANCH  10  35
TORSDOF 9
ENDMDL
MODEL 3
REMARK VINA RESULT:    -6.475      1.820      3.512
REMARK INTER + INTRA:          -9.185
REMARK INTER:                  -9.160
REMARK INTRA:                  -0.025
REMARK UNBOUND:                -0.439
REMARK SMILES O=c1c(-c2ccc(O)cc2)coc2c([C@@H]3O[C@@H](CO)[C@H](O)[C@H](O)[C@H]3O)c(O)ccc12
REMARK SMILES IDX 3 1 11 2 12 3 13 4 30 5 2 6 1 7 29 8 28 9 26 10 14 11 4 12
REMARK SMILES IDX 5 13 6 14 7 15 10 16 9 17 8 18 15 20 24 21 16 22 22 23 17 24
REMARK SMILES IDX 20 25 25 26 23 28 18 30 19 31 21 33 27 35
REMARK H PARENT 8 19 25 27 23 29 19 32 21 34 27 36
REMARK Flexibility Score: inf
ROOT
ATOM      1  C   UNL     1     131.660 -42.092  36.629  1.00  0.00     0.065 A 
ATOM      2  C   UNL     1     130.326 -41.695  36.456  1.00  0.00     0.208 A 
ATOM      3  O   UNL     1     129.748 -41.751  35.262  1.00  0.00    -0.463 OA
ATOM      4  C   UNL     1     130.374 -42.179  34.168  1.00  0.00     0.147 A 
ATOM      5  C   UNL     1     131.719 -42.607  34.255  1.00  0.00     0.066 A 
ATOM      6  C   UNL     1     132.362 -42.563  35.505  1.00  0.00     0.200 A 
ATOM      7  O   UNL     1     133.553 -42.965  35.622  1.00  0.00    -0.288 OA
ATOM      8  C   UNL     1     132.374 -43.070  33.102  1.00  0.00     0.020 A 
ATOM      9  C   UNL     1     131.701 -43.116  31.883  1.00  0.00     0.047 A 
ATOM     10  C   UNL     1     130.369 -42.696  31.787  1.00  0.00     0.125 A 
ATOM     11  C   UNL     1     129.693 -42.207  32.928  1.00  0.00     0.069 A 
ENDROOT
BRANCH   1  12
ATOM     12  C   UNL     1     132.287 -42.011  37.972  1.00  0.00    -0.011 A 
ATOM     13  C   UNL     1     133.340 -42.875  38.324  1.00  0.00     0.013 A 
ATOM     14  C   UNL     1     133.932 -42.788  39.587  1.00  0.00     0.047 A 
ATOM     15  C   UNL     1     133.484 -41.837  40.512  1.00  0.00     0.115 A 
ATOM     16  C   UNL     1     131.848 -41.054  38.903  1.00  0.00     0.013 A 
ATOM     17  C   UNL     1     132.442 -40.971  40.166  1.00  0.00     0.047 A 
BRANCH  15  18
ATOM     18  O   UNL     1     134.067 -41.741  41.774  1.00  0.00    -0.508 OA
ATOM     19  H   UNL     1     133.552 -41.379  42.569  1.00  0.00     0.293 HD
ENDBRANCH  15  18
ENDBRANCH   1  12
BRANCH  11  20
ATOM     20  C   UNL     1     128.237 -41.771  32.833  1.00  0.00     0.188 C 
ATOM     21  C   UNL     1     128.150 -40.352  32.223  1.00  0.00     0.179 C 
ATOM     22  O   UNL     1     127.525 -42.721  32.055  1.00  0.00    -0.362 OA
ATOM     23  C   UNL     1     126.679 -39.920  32.099  1.00  0.00     0.177 C 
ATOM     24  C   UNL     1     126.143 -42.417  31.916  1.00  0.00     0.176 C 
ATOM     25  C   UNL     1     125.877 -40.999  31.349  1.00  0.00     0.177 C 
BRANCH  21  26
ATOM     26  O   UNL     1     128.876 -39.425  32.993  1.00  0.00    -0.387 OA
ATOM     27  H   UNL     1     128.498 -39.434  33.911  1.00  0.00     0.211 HD
ENDBRANCH  21  26
BRANCH  23  28
ATOM     28  O   UNL     1     126.589 -38.701  31.408  1.00  0.00    -0.387 OA
ATOM     29  H   UNL     1     127.063 -38.020  31.955  1.00  0.00     0.211 HD
ENDBRANCH  23  28
BRANCH  24  30
ATOM     30  C   UNL     1     125.313 -42.794  33.164  1.00  0.00     0.191 C 
BRANCH  30  31
ATOM     31  O   UNL     1     125.136 -41.708  34.031  1.00  0.00    -0.394 OA
ATOM     32  H   UNL     1     125.519 -41.986  34.904  1.00  0.00     0.210 HD
ENDBRANCH  30  31
ENDBRANCH  24  30
BRANCH  25  33
ATOM     33  O   UNL     1     126.227 -40.991  29.986  1.00  0.00    -0.388 OA
ATOM     34  H   UNL     1     127.184 -41.250  29.927  1.00  0.00     0.211 HD
ENDBRANCH  25  33
ENDBRANCH  11  20
BRANCH  10  35
ATOM     35  O   UNL     1     129.716 -42.770  30.556  1.00  0.00    -0.507 OA
ATOM     36  H   UNL     1     130.051 -42.262  29.744  1.00  0.00     0.293 HD
ENDBRANCH  10  35
TORSDOF 9
ENDMDL
MODEL 4
REMARK VINA RESULT:    -6.127      1.235      1.750
REMARK INTER + INTRA:          -8.715
REMARK INTER:                  -8.475
REMARK INTRA:                  -0.240
REMARK UNBOUND:                -0.439
REMARK SMILES O=c1c(-c2ccc(O)cc2)coc2c([C@@H]3O[C@@H](CO)[C@H](O)[C@H](O)[C@H]3O)c(O)ccc12
REMARK SMILES IDX 3 1 11 2 12 3 13 4 30 5 2 6 1 7 29 8 28 9 26 10 14 11 4 12
REMARK SMILES IDX 5 13 6 14 7 15 10 16 9 17 8 18 15 20 24 21 16 22 22 23 17 24
REMARK SMILES IDX 20 25 25 26 23 28 18 30 19 31 21 33 27 35
REMARK H PARENT 8 19 25 27 23 29 19 32 21 34 27 36
REMARK Flexibility Score: inf
ROOT
ATOM      1  C   UNL     1     130.309 -42.173  35.300  1.00  0.00     0.065 A 
ATOM      2  C   UNL     1     130.754 -41.604  34.098  1.00  0.00     0.208 A 
ATOM      3  O   UNL     1     129.950 -41.519  33.045  1.00  0.00    -0.463 OA
ATOM      4  C   UNL     1     128.693 -41.955  33.052  1.00  0.00     0.147 A 
ATOM      5  C   UNL     1     128.159 -42.534  34.227  1.00  0.00     0.066 A 
ATOM      6  C   UNL     1     128.983 -42.637  35.362  1.00  0.00     0.200 A 
ATOM      7  O   UNL     1     128.529 -43.122  36.436  1.00  0.00    -0.288 OA
ATOM      8  C   UNL     1     126.828 -42.979  34.236  1.00  0.00     0.020 A 
ATOM      9  C   UNL     1     126.035 -42.846  33.099  1.00  0.00     0.047 A 
ATOM     10  C   UNL     1     126.552 -42.273  31.931  1.00  0.00     0.125 A 
ATOM     11  C   UNL     1     127.895 -41.834  31.889  1.00  0.00     0.069 A 
ENDROOT
BRANCH   1  12
ATOM     12  C   UNL     1     131.231 -42.265  36.460  1.00  0.00    -0.011 A 
ATOM     13  C   UNL     1     130.932 -41.607  37.666  1.00  0.00     0.013 A 
ATOM     14  C   UNL     1     131.799 -41.704  38.759  1.00  0.00     0.047 A 
ATOM     15  C   UNL     1     132.972 -42.463  38.661  1.00  0.00     0.115 A 
ATOM     16  C   UNL     1     132.407 -43.031  36.373  1.00  0.00     0.013 A 
ATOM     17  C   UNL     1     133.272 -43.125  37.467  1.00  0.00     0.047 A 
BRANCH  15  18
ATOM     18  O   UNL     1     133.844 -42.567  39.743  1.00  0.00    -0.508 OA
ATOM     19  H   UNL     1     133.951 -41.813  40.411  1.00  0.00     0.293 HD
ENDBRANCH  15  18
ENDBRANCH   1  12
BRANCH  11  20
ATOM     20  C   UNL     1     128.456 -41.188  30.629  1.00  0.00     0.188 C 
ATOM     21  C   UNL     1     128.945 -39.755  30.943  1.00  0.00     0.179 C 
ATOM     22  O   UNL     1     129.505 -42.002  30.127  1.00  0.00    -0.362 OA
ATOM     23  C   UNL     1     129.540 -39.111  29.680  1.00  0.00     0.177 C 
ATOM     24  C   UNL     1     130.093 -41.497  28.935  1.00  0.00     0.176 C 
ATOM     25  C   UNL     1     130.604 -40.039  29.068  1.00  0.00     0.177 C 
BRANCH  21  26
ATOM     26  O   UNL     1     127.901 -38.966  31.458  1.00  0.00    -0.387 OA
ATOM     27  H   UNL     1     127.173 -39.578  31.744  1.00  0.00     0.211 HD
ENDBRANCH  21  26
BRANCH  23  28
ATOM     28  O   UNL     1     130.121 -37.872  29.995  1.00  0.00    -0.387 OA
ATOM     29  H   UNL     1     130.330 -37.887  30.966  1.00  0.00     0.211 HD
ENDBRANCH  23  28
BRANCH  24  30
ATOM     30  C   UNL     1     129.244 -41.785  27.675  1.00  0.00     0.191 C 
BRANCH  30  31
ATOM     31  O   UNL     1     130.022 -42.244  26.605  1.00  0.00    -0.394 OA
ATOM     32  H   UNL     1     130.773 -41.601  26.513  1.00  0.00     0.210 HD
ENDBRANCH  30  31
ENDBRANCH  24  30
BRANCH  25  33
ATOM     33  O   UNL     1     131.754 -40.043  29.879  1.00  0.00    -0.388 OA
ATOM     34  H   UNL     1     132.509 -40.358  29.316  1.00  0.00     0.211 HD
ENDBRANCH  25  33
ENDBRANCH  11  20
BRANCH  10  35
ATOM     35  O   UNL     1     125.728 -42.137  30.813  1.00  0.00    -0.507 OA
ATOM     36  H   UNL     1     125.673 -42.856  30.101  1.00  0.00     0.293 HD
ENDBRANCH  10  35
TORSDOF 9
ENDMDL
MODEL 5
REMARK VINA RESULT:    -5.913      4.650      8.497
REMARK INTER + INTRA:          -8.426
REMARK INTER:                  -8.177
REMARK INTRA:                  -0.249
REMARK UNBOUND:                -0.439
REMARK SMILES O=c1c(-c2ccc(O)cc2)coc2c([C@@H]3O[C@@H](CO)[C@H](O)[C@H](O)[C@H]3O)c(O)ccc12
REMARK SMILES IDX 3 1 11 2 12 3 13 4 30 5 2 6 1 7 29 8 28 9 26 10 14 11 4 12
REMARK SMILES IDX 5 13 6 14 7 15 10 16 9 17 8 18 15 20 24 21 16 22 22 23 17 24
REMARK SMILES IDX 20 25 25 26 23 28 18 30 19 31 21 33 27 35
REMARK H PARENT 8 19 25 27 23 29 19 32 21 34 27 36
REMARK Flexibility Score: inf
ROOT
ATOM      1  C   UNL     1     133.721 -41.349  27.717  1.00  0.00     0.065 A 
ATOM      2  C   UNL     1     133.181 -40.513  28.705  1.00  0.00     0.208 A 
ATOM      3  O   UNL     1     131.886 -40.552  28.997  1.00  0.00    -0.463 OA
ATOM      4  C   UNL     1     131.027 -41.367  28.391  1.00  0.00     0.147 A 
ATOM      5  C   UNL     1     131.489 -42.251  27.388  1.00  0.00     0.066 A 
ATOM      6  C   UNL     1     132.855 -42.238  27.055  1.00  0.00     0.200 A 
ATOM      7  O   UNL     1     133.306 -43.035  26.186  1.00  0.00    -0.288 OA
ATOM      8  C   UNL     1     130.583 -43.120  26.760  1.00  0.00     0.020 A 
ATOM      9  C   UNL     1     129.239 -43.117  27.126  1.00  0.00     0.047 A 
ATOM     10  C   UNL     1     128.770 -42.248  28.119  1.00  0.00     0.125 A 
ATOM     11  C   UNL     1     129.658 -41.350  28.753  1.00  0.00     0.069 A 
ENDROOT
BRANCH   1  12
ATOM     12  C   UNL     1     135.170 -41.281  27.402  1.00  0.00    -0.011 A 
ATOM     13  C   UNL     1     135.652 -40.387  26.430  1.00  0.00     0.013 A 
ATOM     14  C   UNL     1     137.018 -40.322  26.144  1.00  0.00     0.047 A 
ATOM     15  C   UNL     1     137.921 -41.145  26.829  1.00  0.00     0.115 A 
ATOM     16  C   UNL     1     136.084 -42.100  28.091  1.00  0.00     0.013 A 
ATOM     17  C   UNL     1     137.450 -42.032  27.802  1.00  0.00     0.047 A 
BRANCH  15  18
ATOM     18  O   UNL     1     139.286 -41.089  26.552  1.00  0.00    -0.508 OA
ATOM     19  H   UNL     1     139.761 -41.847  26.076  1.00  0.00     0.293 HD
ENDBRANCH  15  18
ENDBRANCH   1  12
BRANCH  11  20
ATOM     20  C   UNL     1     129.159 -40.418  29.850  1.00  0.00     0.188 C 
ATOM     21  C   UNL     1     127.764 -39.863  29.476  1.00  0.00     0.179 C 
ATOM     22  O   UNL     1     129.128 -41.131  31.077  1.00  0.00    -0.362 OA
ATOM     23  C   UNL     1     127.244 -38.945  30.595  1.00  0.00     0.177 C 
ATOM     24  C   UNL     1     128.689 -40.345  32.178  1.00  0.00     0.176 C 
ATOM     25  C   UNL     1     127.309 -39.677  31.947  1.00  0.00     0.177 C 
BRANCH  21  26
ATOM     26  O   UNL     1     127.805 -39.177  28.249  1.00  0.00    -0.387 OA
ATOM     27  H   UNL     1     128.665 -38.682  28.209  1.00  0.00     0.211 HD
ENDBRANCH  21  26
BRANCH  23  28
ATOM     28  O   UNL     1     125.918 -38.562  30.330  1.00  0.00    -0.387 OA
ATOM     29  H   UNL     1     125.539 -38.219  31.182  1.00  0.00     0.211 HD
ENDBRANCH  23  28
BRANCH  24  30
ATOM     30  C   UNL     1     129.790 -39.411  32.730  1.00  0.00     0.191 C 
BRANCH  30  31
ATOM     31  O   UNL     1     129.302 -38.539  33.710  1.00  0.00    -0.394 OA
ATOM     32  H   UNL     1     129.249 -39.067  34.549  1.00  0.00     0.210 HD
ENDBRANCH  30  31
ENDBRANCH  24  30
BRANCH  25  33
ATOM     33  O   UNL     1     126.317 -40.673  31.997  1.00  0.00    -0.388 OA
ATOM     34  H   UNL     1     126.582 -41.384  31.356  1.00  0.00     0.211 HD
ENDBRANCH  25  33
ENDBRANCH  11  20
BRANCH  10  35
ATOM     35  O   UNL     1     127.422 -42.281  28.477  1.00  0.00    -0.507 OA
ATOM     36  H   UNL     1     126.786 -42.972  28.094  1.00  0.00     0.293 HD
ENDBRANCH  10  35
TORSDOF 9
ENDMDL
MODEL 6
REMARK VINA RESULT:    -4.986      1.862      3.689
REMARK INTER + INTRA:          -7.173
REMARK INTER:                  -7.946
REMARK INTRA:                   0.772
REMARK UNBOUND:                -0.439
REMARK SMILES O=c1c(-c2ccc(O)cc2)coc2c([C@@H]3O[C@@H](CO)[C@H](O)[C@H](O)[C@H]3O)c(O)ccc12
REMARK SMILES IDX 3 1 11 2 12 3 13 4 30 5 2 6 1 7 29 8 28 9 26 10 14 11 4 12
REMARK SMILES IDX 5 13 6 14 7 15 10 16 9 17 8 18 15 20 24 21 16 22 22 23 17 24
REMARK SMILES IDX 20 25 25 26 23 28 18 30 19 31 21 33 27 35
REMARK H PARENT 8 19 25 27 23 29 19 32 21 34 27 36
REMARK Flexibility Score: inf
ROOT
ATOM      1  C   UNL     1     131.509 -42.040  35.507  1.00  0.00     0.065 A 
ATOM      2  C   UNL     1     130.257 -41.482  35.215  1.00  0.00     0.208 A 
ATOM      3  O   UNL     1     129.798 -41.449  33.969  1.00  0.00    -0.463 OA
ATOM      4  C   UNL     1     130.476 -41.934  32.931  1.00  0.00     0.147 A 
ATOM      5  C   UNL     1     131.744 -42.524  33.137  1.00  0.00     0.066 A 
ATOM      6  C   UNL     1     132.259 -42.577  34.445  1.00  0.00     0.200 A 
ATOM      7  O   UNL     1     133.376 -43.124  34.667  1.00  0.00    -0.288 OA
ATOM      8  C   UNL     1     132.450 -43.047  32.042  1.00  0.00     0.020 A 
ATOM      9  C   UNL     1     131.903 -42.992  30.762  1.00  0.00     0.047 A 
ATOM     10  C   UNL     1     130.647 -42.411  30.547  1.00  0.00     0.125 A 
ATOM     11  C   UNL     1     129.924 -41.861  31.629  1.00  0.00     0.069 A 
ENDROOT
BRANCH   1  12
ATOM     12  C   UNL     1     132.004 -42.057  36.906  1.00  0.00    -0.011 A 
ATOM     13  C   UNL     1     131.401 -41.253  37.890  1.00  0.00     0.013 A 
ATOM     14  C   UNL     1     131.866 -41.280  39.208  1.00  0.00     0.047 A 
ATOM     15  C   UNL     1     132.935 -42.113  39.560  1.00  0.00     0.115 A 
ATOM     16  C   UNL     1     133.073 -42.896  37.270  1.00  0.00     0.013 A 
ATOM     17  C   UNL     1     133.536 -42.920  38.589  1.00  0.00     0.047 A 
BRANCH  15  18
ATOM     18  O   UNL     1     133.407 -42.148  40.871  1.00  0.00    -0.508 OA
ATOM     19  H   UNL     1     132.821 -42.461  41.637  1.00  0.00     0.293 HD
ENDBRANCH  15  18
ENDBRANCH   1  12
BRANCH  11  20
ATOM     20  C   UNL     1     128.547 -41.249  31.405  1.00  0.00     0.188 C 
ATOM     21  C   UNL     1     127.649 -41.504  32.639  1.00  0.00     0.179 C 
ATOM     22  O   UNL     1     128.700 -39.862  31.146  1.00  0.00    -0.362 OA
ATOM     23  C   UNL     1     126.268 -40.862  32.428  1.00  0.00     0.177 C 
ATOM     24  C   UNL     1     127.470 -39.192  30.904  1.00  0.00     0.176 C 
ATOM     25  C   UNL     1     126.431 -39.381  32.040  1.00  0.00     0.177 C 
BRANCH  21  26
ATOM     26  O   UNL     1     127.523 -42.881  32.897  1.00  0.00    -0.387 OA
ATOM     27  H   UNL     1     127.203 -43.315  32.063  1.00  0.00     0.211 HD
ENDBRANCH  21  26
BRANCH  23  28
ATOM     28  O   UNL     1     125.504 -40.959  33.604  1.00  0.00    -0.387 OA
ATOM     29  H   UNL     1     125.960 -41.615  34.194  1.00  0.00     0.211 HD
ENDBRANCH  23  28
BRANCH  24  30
ATOM     30  C   UNL     1     126.930 -39.417  29.473  1.00  0.00     0.191 C 
BRANCH  30  31
ATOM     31  O   UNL     1     127.450 -38.493  28.559  1.00  0.00    -0.394 OA
ATOM     32  H   UNL     1     128.437 -38.536  28.653  1.00  0.00     0.210 HD
ENDBRANCH  30  31
ENDBRANCH  24  30
BRANCH  25  33
ATOM     33  O   UNL     1     126.853 -38.639  33.159  1.00  0.00    -0.388 OA
ATOM     34  H   UNL     1     126.267 -37.840  33.219  1.00  0.00     0.211 HD
ENDBRANCH  25  33
ENDBRANCH  11  20
BRANCH  10  35
ATOM     35  O   UNL     1     130.117 -42.387  29.257  1.00  0.00    -0.507 OA
ATOM     36  H   UNL     1     130.247 -41.591  28.642  1.00  0.00     0.293 HD
ENDBRANCH  10  35
TORSDOF 9
ENDMDL
MODEL 7
REMARK VINA RESULT:    -4.711      4.634      8.412
REMARK INTER + INTRA:          -6.803
REMARK INTER:                  -6.820
REMARK INTRA:                   0.017
REMARK UNBOUND:                -0.439
REMARK SMILES O=c1c(-c2ccc(O)cc2)coc2c([C@@H]3O[C@@H](CO)[C@H](O)[C@H](O)[C@H]3O)c(O)ccc12
REMARK SMILES IDX 3 1 11 2 12 3 13 4 30 5 2 6 1 7 29 8 28 9 26 10 14 11 4 12
REMARK SMILES IDX 5 13 6 14 7 15 10 16 9 17 8 18 15 20 24 21 16 22 22 23 17 24
REMARK SMILES IDX 20 25 25 26 23 28 18 30 19 31 21 33 27 35
REMARK H PARENT 8 19 25 27 23 29 19 32 21 34 27 36
REMARK Flexibility Score: inf
ROOT
ATOM      1  C   UNL     1     133.820 -41.250  27.814  1.00  0.00     0.065 A 
ATOM      2  C   UNL     1     133.146 -40.736  28.931  1.00  0.00     0.208 A 
ATOM      3  O   UNL     1     131.845 -40.940  29.097  1.00  0.00    -0.463 OA
ATOM      4  C   UNL     1     131.101 -41.633  28.237  1.00  0.00     0.147 A 
ATOM      5  C   UNL     1     131.702 -42.196  27.087  1.00  0.00     0.066 A 
ATOM      6  C   UNL     1     133.080 -42.000  26.882  1.00  0.00     0.200 A 
ATOM      7  O   UNL     1     133.654 -42.513  25.881  1.00  0.00    -0.288 OA
ATOM      8  C   UNL     1     130.919 -42.937  26.189  1.00  0.00     0.020 A 
ATOM      9  C   UNL     1     129.560 -43.125  26.432  1.00  0.00     0.047 A 
ATOM     10  C   UNL     1     128.955 -42.574  27.568  1.00  0.00     0.125 A 
ATOM     11  C   UNL     1     129.717 -41.807  28.478  1.00  0.00     0.069 A 
ENDROOT
BRANCH   1  12
ATOM     12  C   UNL     1     135.273 -41.000  27.647  1.00  0.00    -0.011 A 
ATOM     13  C   UNL     1     135.783 -39.690  27.672  1.00  0.00     0.013 A 
ATOM     14  C   UNL     1     137.154 -39.462  27.523  1.00  0.00     0.047 A 
ATOM     15  C   UNL     1     138.033 -40.539  27.352  1.00  0.00     0.115 A 
ATOM     16  C   UNL     1     136.163 -42.077  27.482  1.00  0.00     0.013 A 
ATOM     17  C   UNL     1     137.534 -41.845  27.332  1.00  0.00     0.047 A 
BRANCH  15  18
ATOM     18  O   UNL     1     139.401 -40.324  27.202  1.00  0.00    -0.508 OA
ATOM     19  H   UNL     1     139.759 -39.574  26.621  1.00  0.00     0.293 HD
ENDBRANCH  15  18
ENDBRANCH   1  12
BRANCH  11  20
ATOM     20  C   UNL     1     129.069 -41.225  29.727  1.00  0.00     0.188 C 
ATOM     21  C   UNL     1     129.994 -41.440  30.949  1.00  0.00     0.179 C 
ATOM     22  O   UNL     1     128.805 -39.848  29.506  1.00  0.00    -0.362 OA
ATOM     23  C   UNL     1     129.356 -40.827  32.207  1.00  0.00     0.177 C 
ATOM     24  C   UNL     1     128.181 -39.206  30.611  1.00  0.00     0.176 C 
ATOM     25  C   UNL     1     128.967 -39.362  31.939  1.00  0.00     0.177 C 
BRANCH  21  26
ATOM     26  O   UNL     1     130.263 -42.806  31.145  1.00  0.00    -0.387 OA
ATOM     27  H   UNL     1     129.400 -43.261  31.333  1.00  0.00     0.211 HD
ENDBRANCH  21  26
BRANCH  23  28
ATOM     28  O   UNL     1     130.256 -40.885  33.284  1.00  0.00    -0.387 OA
ATOM     29  H   UNL     1     130.562 -41.828  33.357  1.00  0.00     0.211 HD
ENDBRANCH  23  28
BRANCH  24  30
ATOM     30  C   UNL     1     126.666 -39.500  30.703  1.00  0.00     0.191 C 
BRANCH  30  31
ATOM     31  O   UNL     1     125.901 -38.563  29.998  1.00  0.00    -0.394 OA
ATOM     32  H   UNL     1     125.021 -38.524  30.456  1.00  0.00     0.210 HD
ENDBRANCH  30  31
ENDBRANCH  24  30
BRANCH  25  33
ATOM     33  O   UNL     1     130.126 -38.568  31.867  1.00  0.00    -0.388 OA
ATOM     34  H   UNL     1     130.313 -38.408  30.905  1.00  0.00     0.211 HD
ENDBRANCH  25  33
ENDBRANCH  11  20
BRANCH  10  35
ATOM     35  O   UNL     1     127.596 -42.794  27.793  1.00  0.00    -0.507 OA
ATOM     36  H   UNL     1     127.256 -43.656  28.205  1.00  0.00     0.293 HD
ENDBRANCH  10  35
TORSDOF 9
ENDMDL
MODEL 8
REMARK VINA RESULT:    -4.460      4.026      7.840
REMARK INTER + INTRA:          -6.463
REMARK INTER:                  -5.570
REMARK INTRA:                  -0.893
REMARK UNBOUND:                -0.439
REMARK SMILES O=c1c(-c2ccc(O)cc2)coc2c([C@@H]3O[C@@H](CO)[C@H](O)[C@H](O)[C@H]3O)c(O)ccc12
REMARK SMILES IDX 3 1 11 2 12 3 13 4 30 5 2 6 1 7 29 8 28 9 26 10 14 11 4 12
REMARK SMILES IDX 5 13 6 14 7 15 10 16 9 17 8 18 15 20 24 21 16 22 22 23 17 24
REMARK SMILES IDX 20 25 25 26 23 28 18 30 19 31 21 33 27 35
REMARK H PARENT 8 19 25 27 23 29 19 32 21 34 27 36
REMARK Flexibility Score: inf
ROOT
ATOM      1  C   UNL     1     132.229 -41.476  29.215  1.00  0.00     0.065 A 
ATOM      2  C   UNL     1     131.244 -42.397  29.600  1.00  0.00     0.208 A 
ATOM      3  O   UNL     1     130.242 -42.033  30.392  1.00  0.00    -0.463 OA
ATOM      4  C   UNL     1     130.101 -40.798  30.866  1.00  0.00     0.147 A 
ATOM      5  C   UNL     1     131.045 -39.803  30.520  1.00  0.00     0.066 A 
ATOM      6  C   UNL     1     132.117 -40.154  29.681  1.00  0.00     0.200 A 
ATOM      7  O   UNL     1     132.961 -39.283  29.329  1.00  0.00    -0.288 OA
ATOM      8  C   UNL     1     130.886 -38.497  31.011  1.00  0.00     0.020 A 
ATOM      9  C   UNL     1     129.802 -38.181  31.827  1.00  0.00     0.047 A 
ATOM     10  C   UNL     1     128.860 -39.157  32.174  1.00  0.00     0.125 A 
ATOM     11  C   UNL     1     129.008 -40.484  31.709  1.00  0.00     0.069 A 
ENDROOT
BRANCH   1  12
ATOM     12  C   UNL     1     133.344 -41.910  28.336  1.00  0.00    -0.011 A 
ATOM     13  C   UNL     1     133.346 -41.586  26.968  1.00  0.00     0.013 A 
ATOM     14  C   UNL     1     134.403 -41.989  26.148  1.00  0.00     0.047 A 
ATOM     15  C   UNL     1     135.472 -42.717  26.684  1.00  0.00     0.115 A 
ATOM     16  C   UNL     1     134.425 -42.635  28.869  1.00  0.00     0.013 A 
ATOM     17  C   UNL     1     135.481 -43.038  28.045  1.00  0.00     0.047 A 
BRANCH  15  18
ATOM     18  O   UNL     1     136.532 -43.125  25.875  1.00  0.00    -0.508 OA
ATOM     19  H   UNL     1     136.746 -44.106  25.738  1.00  0.00     0.293 HD
ENDBRANCH  15  18
ENDBRANCH   1  12
BRANCH  11  20
ATOM     20  C   UNL     1     127.974 -41.545  32.065  1.00  0.00     0.188 C 
ATOM     21  C   UNL     1     128.059 -41.878  33.573  1.00  0.00     0.179 C 
ATOM     22  O   UNL     1     126.687 -41.067  31.705  1.00  0.00    -0.362 OA
ATOM     23  C   UNL     1     126.997 -42.927  33.942  1.00  0.00     0.177 C 
ATOM     24  C   UNL     1     125.642 -41.992  31.981  1.00  0.00     0.176 C 
ATOM     25  C   UNL     1     125.611 -42.465  33.457  1.00  0.00     0.177 C 
BRANCH  21  26
ATOM     26  O   UNL     1     129.345 -42.330  33.920  1.00  0.00    -0.387 OA
ATOM     27  H   UNL     1     129.992 -41.618  33.673  1.00  0.00     0.211 HD
ENDBRANCH  21  26
BRANCH  23  28
ATOM     28  O   UNL     1     126.969 -43.120  35.334  1.00  0.00    -0.387 OA
ATOM     29  H   UNL     1     127.155 -44.082  35.498  1.00  0.00     0.211 HD
ENDBRANCH  23  28
BRANCH  24  30
ATOM     30  C   UNL     1     125.538 -43.118  30.927  1.00  0.00     0.191 C 
BRANCH  30  31
ATOM     31  O   UNL     1     125.745 -42.646  29.625  1.00  0.00    -0.394 OA
ATOM     32  H   UNL     1     126.042 -43.428  29.091  1.00  0.00     0.210 HD
ENDBRANCH  30  31
ENDBRANCH  24  30
BRANCH  25  33
ATOM     33  O   UNL     1     125.159 -41.399  34.257  1.00  0.00    -0.388 OA
ATOM     34  H   UNL     1     125.878 -41.196  34.911  1.00  0.00     0.211 HD
ENDBRANCH  25  33
ENDBRANCH  11  20
BRANCH  10  35
ATOM     35  O   UNL     1     127.776 -38.806  32.978  1.00  0.00    -0.507 OA
ATOM     36  H   UNL     1     127.552 -39.318  33.825  1.00  0.00     0.293 HD
ENDBRANCH  10  35
TORSDOF 9
ENDMDL
