MODEL 1
REMARK VINA RESULT:    -4.294      0.000      0.000
REMARK INTER + INTRA:          -5.016
REMARK INTER:                  -4.922
REMARK INTRA:                  -0.094
REMARK UNBOUND:                -0.094
REMARK SMILES COc1cc(C(=O)[O-])ccc1O
REMARK SMILES IDX 5 1 9 2 4 3 10 4 3 5 11 6 6 7 7 8 8 9 2 10 1 11 12 12
REMARK H PARENT 12 13
REMARK Flexibility Score: inf
ROOT
ATOM      1  C   UNL     1      18.300  28.871  28.382  1.00  0.00     0.001 A 
ATOM      2  C   UNL     1      18.420  30.256  28.186  1.00  0.00     0.014 A 
ATOM      3  C   UNL     1      18.227  28.369  29.694  1.00  0.00     0.060 A 
ATOM      4  C   UNL     1      18.465  31.122  29.280  1.00  0.00     0.051 A 
ATOM      5  C   UNL     1      18.273  29.240  30.801  1.00  0.00     0.161 A 
ATOM      6  C   UNL     1      18.392  30.620  30.584  1.00  0.00     0.157 A 
ENDROOT
BRANCH   1   7
ATOM      7  C   UNL     1      18.253  27.957  27.219  1.00  0.00     0.072 C 
ATOM      8  O   UNL     1      17.223  27.269  26.985  1.00  0.00    -0.545 OA
ATOM      9  O   UNL     1      19.346  27.843  26.366  1.00  0.00    -0.545 OA
ENDBRANCH   1   7
BRANCH   5  10
ATOM     10  O   UNL     1      18.202  28.775  32.123  1.00  0.00    -0.493 OA
ATOM     11  C   UNL     1      19.186  27.954  32.744  1.00  0.00     0.278 C 
ENDBRANCH   5  10
BRANCH   6  12
ATOM     12  O   UNL     1      18.437  31.487  31.674  1.00  0.00    -0.504 OA
ATOM     13  H   UNL     1      18.648  32.472  31.561  1.00  0.00     0.293 HD
ENDBRANCH   6  12
TORSDOF 3
ENDMDL
MODEL 2
REMARK VINA RESULT:    -4.245      1.111      2.735
REMARK INTER + INTRA:          -4.959
REMARK INTER:                  -4.880
REMARK INTRA:                  -0.079
REMARK UNBOUND:                -0.094
REMARK SMILES COc1cc(C(=O)[O-])ccc1O
REMARK SMILES IDX 5 1 9 2 4 3 10 4 3 5 11 6 6 7 7 8 8 9 2 10 1 11 12 12
REMARK H PARENT 12 13
REMARK Flexibility Score: inf
ROOT
ATOM      1  C   UNL     1      18.411  28.436  28.094  1.00  0.00     0.001 A 
ATOM      2  C   UNL     1      18.215  27.745  29.301  1.00  0.00     0.014 A 
ATOM      3  C   UNL     1      18.480  29.841  28.113  1.00  0.00     0.060 A 
ATOM      4  C   UNL     1      18.092  28.445  30.503  1.00  0.00     0.051 A 
ATOM      5  C   UNL     1      18.356  30.550  29.324  1.00  0.00     0.161 A 
ATOM      6  C   UNL     1      18.162  29.842  30.518  1.00  0.00     0.157 A 
ENDROOT
BRANCH   1   7
ATOM      7  C   UNL     1      18.540  27.689  26.823  1.00  0.00     0.072 C 
ATOM      8  O   UNL     1      17.834  26.668  26.603  1.00  0.00    -0.545 OA
ATOM      9  O   UNL     1      19.444  28.103  25.851  1.00  0.00    -0.545 OA
ENDBRANCH   1   7
BRANCH   5  10
ATOM     10  O   UNL     1      18.421  31.951  29.380  1.00  0.00    -0.493 OA
ATOM     11  C   UNL     1      18.754  32.790  28.279  1.00  0.00     0.278 C 
ENDBRANCH   5  10
BRANCH   6  12
ATOM     12  O   UNL     1      18.038  30.539  31.719  1.00  0.00    -0.504 OA
ATOM     13  H   UNL     1      17.346  30.281  32.414  1.00  0.00     0.293 HD
ENDBRANCH   6  12
TORSDOF 3
ENDMDL
MODEL 3
REMARK VINA RESULT:    -4.159      1.324      4.277
REMARK INTER + INTRA:          -4.861
REMARK INTER:                  -4.769
REMARK INTRA:                  -0.091
REMARK UNBOUND:                -0.094
REMARK SMILES COc1cc(C(=O)[O-])ccc1O
REMARK SMILES IDX 5 1 9 2 4 3 10 4 3 5 11 6 6 7 7 8 8 9 2 10 1 11 12 12
REMARK H PARENT 12 13
REMARK Flexibility Score: inf
ROOT
ATOM      1  C   UNL     1      18.155  29.548  30.543  1.00  0.00     0.001 A 
ATOM      2  C   UNL     1      18.347  30.440  29.476  1.00  0.00     0.014 A 
ATOM      3  C   UNL     1      18.096  28.168  30.280  1.00  0.00     0.060 A 
ATOM      4  C   UNL     1      18.479  29.962  28.171  1.00  0.00     0.051 A 
ATOM      5  C   UNL     1      18.228  27.681  28.964  1.00  0.00     0.161 A 
ATOM      6  C   UNL     1      18.420  28.588  27.912  1.00  0.00     0.157 A 
ENDROOT
BRANCH   1   7
ATOM      7  C   UNL     1      18.017  30.061  31.925  1.00  0.00     0.072 C 
ATOM      8  O   UNL     1      18.011  29.269  32.905  1.00  0.00    -0.545 OA
ATOM      9  O   UNL     1      17.891  31.425  32.162  1.00  0.00    -0.545 OA
ENDBRANCH   1   7
BRANCH   5  10
ATOM     10  O   UNL     1      18.175  26.311  28.663  1.00  0.00    -0.493 OA
ATOM     11  C   UNL     1      19.292  25.429  28.711  1.00  0.00     0.278 C 
ENDBRANCH   5  10
BRANCH   6  12
ATOM     12  O   UNL     1      18.551  28.112  26.608  1.00  0.00    -0.504 OA
ATOM     13  H   UNL     1      18.854  27.164  26.417  1.00  0.00     0.293 HD
ENDBRANCH   6  12
TORSDOF 3
ENDMDL
MODEL 4
REMARK VINA RESULT:    -4.147      1.590      4.939
REMARK INTER + INTRA:          -4.847
REMARK INTER:                  -4.762
REMARK INTRA:                  -0.085
REMARK UNBOUND:                -0.094
REMARK SMILES COc1cc(C(=O)[O-])ccc1O
REMARK SMILES IDX 5 1 9 2 4 3 10 4 3 5 11 6 6 7 7 8 8 9 2 10 1 11 12 12
REMARK H PARENT 12 13
REMARK Flexibility Score: inf
ROOT
ATOM      1  C   UNL     1      18.462  29.425  28.990  1.00  0.00     0.001 A 
ATOM      2  C   UNL     1      18.163  28.277  29.741  1.00  0.00     0.014 A 
ATOM      3  C   UNL     1      18.849  29.282  27.645  1.00  0.00     0.060 A 
ATOM      4  C   UNL     1      18.248  27.011  29.159  1.00  0.00     0.051 A 
ATOM      5  C   UNL     1      18.936  28.005  27.054  1.00  0.00     0.161 A 
ATOM      6  C   UNL     1      18.633  26.871  27.821  1.00  0.00     0.157 A 
ENDROOT
BRANCH   1   7
ATOM      7  C   UNL     1      18.371  30.765  29.612  1.00  0.00     0.072 C 
ATOM      8  O   UNL     1      18.291  30.887  30.864  1.00  0.00    -0.545 OA
ATOM      9  O   UNL     1      18.371  31.910  28.823  1.00  0.00    -0.545 OA
ENDBRANCH   1   7
BRANCH   5  10
ATOM     10  O   UNL     1      19.319  27.824  25.716  1.00  0.00    -0.493 OA
ATOM     11  C   UNL     1      20.185  28.697  24.998  1.00  0.00     0.278 C 
ENDBRANCH   5  10
BRANCH   6  12
ATOM     12  O   UNL     1      18.718  25.606  27.242  1.00  0.00    -0.504 OA
ATOM     13  H   UNL     1      19.601  25.229  26.919  1.00  0.00     0.293 HD
ENDBRANCH   6  12
TORSDOF 3
ENDMDL
MODEL 5
REMARK VINA RESULT:    -4.105      2.646      5.881
REMARK INTER + INTRA:          -4.799
REMARK INTER:                  -4.716
REMARK INTRA:                  -0.083
REMARK UNBOUND:                -0.094
REMARK SMILES COc1cc(C(=O)[O-])ccc1O
REMARK SMILES IDX 5 1 9 2 4 3 10 4 3 5 11 6 6 7 7 8 8 9 2 10 1 11 12 12
REMARK H PARENT 12 13
REMARK Flexibility Score: inf
ROOT
ATOM      1  C   UNL     1      17.786  29.617  33.905  1.00  0.00     0.001 A 
ATOM      2  C   UNL     1      18.385  28.869  34.931  1.00  0.00     0.014 A 
ATOM      3  C   UNL     1      18.019  29.253  32.566  1.00  0.00     0.060 A 
ATOM      4  C   UNL     1      19.201  27.778  34.625  1.00  0.00     0.051 A 
ATOM      5  C   UNL     1      18.841  28.152  32.254  1.00  0.00     0.161 A 
ATOM      6  C   UNL     1      19.430  27.417  33.293  1.00  0.00     0.157 A 
ENDROOT
BRANCH   1   7
ATOM      7  C   UNL     1      16.922  30.773  34.235  1.00  0.00     0.072 C 
ATOM      8  O   UNL     1      16.530  31.559  33.331  1.00  0.00    -0.545 OA
ATOM      9  O   UNL     1      16.530  31.008  35.548  1.00  0.00    -0.545 OA
ENDBRANCH   1   7
BRANCH   5  10
ATOM     10  O   UNL     1      19.096  27.760  30.930  1.00  0.00    -0.493 OA
ATOM     11  C   UNL     1      18.309  28.145  29.808  1.00  0.00     0.278 C 
ENDBRANCH   5  10
BRANCH   6  12
ATOM     12  O   UNL     1      20.245  26.328  32.989  1.00  0.00    -0.504 OA
ATOM     13  H   UNL     1      21.256  26.392  33.036  1.00  0.00     0.293 HD
ENDBRANCH   6  12
TORSDOF 3
ENDMDL
MODEL 6
REMARK VINA RESULT:    -4.014      3.321      5.233
REMARK INTER + INTRA:          -4.695
REMARK INTER:                  -4.614
REMARK INTRA:                  -0.082
REMARK UNBOUND:                -0.094
REMARK SMILES COc1cc(C(=O)[O-])ccc1O
REMARK SMILES IDX 5 1 9 2 4 3 10 4 3 5 11 6 6 7 7 8 8 9 2 10 1 11 12 12
REMARK H PARENT 12 13
REMARK Flexibility Score: inf
ROOT
ATOM      1  C   UNL     1      18.666  28.558  33.734  1.00  0.00     0.001 A 
ATOM      2  C   UNL     1      17.774  28.872  34.772  1.00  0.00     0.014 A 
ATOM      3  C   UNL     1      18.762  29.423  32.629  1.00  0.00     0.060 A 
ATOM      4  C   UNL     1      16.994  30.028  34.707  1.00  0.00     0.051 A 
ATOM      5  C   UNL     1      17.977  30.591  32.560  1.00  0.00     0.161 A 
ATOM      6  C   UNL     1      17.092  30.887  33.607  1.00  0.00     0.157 A 
ENDROOT
BRANCH   1   7
ATOM      7  C   UNL     1      19.490  27.331  33.808  1.00  0.00     0.072 C 
ATOM      8  O   UNL     1      19.768  26.681  32.764  1.00  0.00    -0.545 OA
ATOM      9  O   UNL     1      19.971  26.876  35.031  1.00  0.00    -0.545 OA
ENDBRANCH   1   7
BRANCH   5  10
ATOM     10  O   UNL     1      18.047  31.477  31.473  1.00  0.00    -0.493 OA
ATOM     11  C   UNL     1      18.421  31.105  30.151  1.00  0.00     0.278 C 
ENDBRANCH   5  10
BRANCH   6  12
ATOM     12  O   UNL     1      16.313  32.040  33.543  1.00  0.00    -0.504 OA
ATOM     13  H   UNL     1      16.135  32.606  34.365  1.00  0.00     0.293 HD
ENDBRANCH   6  12
TORSDOF 3
ENDMDL
MODEL 7
REMARK VINA RESULT:    -4.014      2.302      3.766
REMARK INTER + INTRA:          -4.694
REMARK INTER:                  -4.608
REMARK INTRA:                  -0.087
REMARK UNBOUND:                -0.094
REMARK SMILES COc1cc(C(=O)[O-])ccc1O
REMARK SMILES IDX 5 1 9 2 4 3 10 4 3 5 11 6 6 7 7 8 8 9 2 10 1 11 12 12
REMARK H PARENT 12 13
REMARK Flexibility Score: inf
ROOT
ATOM      1  C   UNL     1      18.354  28.641  31.334  1.00  0.00     0.001 A 
ATOM      2  C   UNL     1      19.160  27.813  32.132  1.00  0.00     0.014 A 
ATOM      3  C   UNL     1      17.588  29.649  31.949  1.00  0.00     0.060 A 
ATOM      4  C   UNL     1      19.201  27.989  33.516  1.00  0.00     0.051 A 
ATOM      5  C   UNL     1      17.627  29.829  33.346  1.00  0.00     0.161 A 
ATOM      6  C   UNL     1      18.439  28.992  34.125  1.00  0.00     0.157 A 
ENDROOT
BRANCH   1   7
ATOM      7  C   UNL     1      18.314  28.451  29.867  1.00  0.00     0.072 C 
ATOM      8  O   UNL     1      18.248  29.443  29.092  1.00  0.00    -0.545 OA
ATOM      9  O   UNL     1      18.349  27.173  29.320  1.00  0.00    -0.545 OA
ENDBRANCH   1   7
BRANCH   5  10
ATOM     10  O   UNL     1      16.877  30.824  33.994  1.00  0.00    -0.493 OA
ATOM     11  C   UNL     1      16.770  32.172  33.549  1.00  0.00     0.278 C 
ENDBRANCH   5  10
BRANCH   6  12
ATOM     12  O   UNL     1      18.481  29.166  35.507  1.00  0.00    -0.504 OA
ATOM     13  H   UNL     1      18.049  28.501  36.139  1.00  0.00     0.293 HD
ENDBRANCH   6  12
TORSDOF 3
ENDMDL
MODEL 8
REMARK VINA RESULT:    -4.001      2.559      5.223
REMARK INTER + INTRA:          -4.680
REMARK INTER:                  -4.598
REMARK INTRA:                  -0.082
REMARK UNBOUND:                -0.094
REMARK SMILES COc1cc(C(=O)[O-])ccc1O
REMARK SMILES IDX 5 1 9 2 4 3 10 4 3 5 11 6 6 7 7 8 8 9 2 10 1 11 12 12
REMARK H PARENT 12 13
REMARK Flexibility Score: inf
ROOT
ATOM      1  C   UNL     1      19.402  27.565  33.639  1.00  0.00     0.001 A 
ATOM      2  C   UNL     1      18.856  28.154  34.791  1.00  0.00     0.014 A 
ATOM      3  C   UNL     1      19.078  28.099  32.378  1.00  0.00     0.060 A 
ATOM      4  C   UNL     1      18.005  29.256  34.684  1.00  0.00     0.051 A 
ATOM      5  C   UNL     1      18.219  29.210  32.267  1.00  0.00     0.161 A 
ATOM      6  C   UNL     1      17.685  29.785  33.429  1.00  0.00     0.157 A 
ENDROOT
BRANCH   1   7
ATOM      7  C   UNL     1      20.304  26.398  33.757  1.00  0.00     0.072 C 
ATOM      8  O   UNL     1      20.738  25.815  32.727  1.00  0.00    -0.545 OA
ATOM      9  O   UNL     1      20.687  25.926  35.007  1.00  0.00    -0.545 OA
ENDBRANCH   1   7
BRANCH   5  10
ATOM     10  O   UNL     1      17.874  29.769  31.026  1.00  0.00    -0.493 OA
ATOM     11  C   UNL     1      18.344  29.296  29.768  1.00  0.00     0.278 C 
ENDBRANCH   5  10
BRANCH   6  12
ATOM     12  O   UNL     1      16.834  30.884  33.326  1.00  0.00    -0.504 OA
ATOM     13  H   UNL     1      16.551  31.414  34.141  1.00  0.00     0.293 HD
ENDBRANCH   6  12
TORSDOF 3
ENDMDL
MODEL 9
REMARK VINA RESULT:    -3.997      2.095      5.249
REMARK INTER + INTRA:          -4.675
REMARK INTER:                  -4.586
REMARK INTRA:                  -0.089
REMARK UNBOUND:                -0.094
REMARK SMILES COc1cc(C(=O)[O-])ccc1O
REMARK SMILES IDX 5 1 9 2 4 3 10 4 3 5 11 6 6 7 7 8 8 9 2 10 1 11 12 12
REMARK H PARENT 12 13
REMARK Flexibility Score: inf
ROOT
ATOM      1  C   UNL     1      17.868  29.387  32.768  1.00  0.00     0.001 A 
ATOM      2  C   UNL     1      18.750  28.481  33.380  1.00  0.00     0.014 A 
ATOM      3  C   UNL     1      17.716  29.355  31.370  1.00  0.00     0.060 A 
ATOM      4  C   UNL     1      19.463  27.561  32.610  1.00  0.00     0.051 A 
ATOM      5  C   UNL     1      18.435  28.428  30.589  1.00  0.00     0.161 A 
ATOM      6  C   UNL     1      19.309  27.531  31.220  1.00  0.00     0.157 A 
ENDROOT
BRANCH   1   7
ATOM      7  C   UNL     1      17.114  30.361  33.589  1.00  0.00     0.072 C 
ATOM      8  O   UNL     1      16.570  30.004  34.669  1.00  0.00    -0.545 OA
ATOM      9  O   UNL     1      16.995  31.684  33.182  1.00  0.00    -0.545 OA
ENDBRANCH   1   7
BRANCH   5  10
ATOM     10  O   UNL     1      18.307  28.367  29.193  1.00  0.00    -0.493 OA
ATOM     11  C   UNL     1      18.406  29.490  28.323  1.00  0.00     0.278 C 
ENDBRANCH   5  10
BRANCH   6  12
ATOM     12  O   UNL     1      20.023  26.612  30.453  1.00  0.00    -0.504 OA
ATOM     13  H   UNL     1      20.876  26.872  29.971  1.00  0.00     0.293 HD
ENDBRANCH   6  12
TORSDOF 3
ENDMDL
