MODEL 1
REMARK VINA RESULT:    -3.492      0.000      0.000
REMARK INTER + INTRA:          -7.233
REMARK INTER:                  -6.351
REMARK INTRA:                  -0.882
REMARK UNBOUND:                -0.882
REMARK SMILES CCCCCCCCCCCCCC[C@H](C)C(=O)[O-]
REMARK SMILES IDX 9 1 10 2 11 3 12 4 13 5 14 6 15 7 16 8 17 9 18 10 19 11 8 12
REMARK SMILES IDX 7 13 6 14 5 15 4 16 3 17 2 18 1 19
REMARK H PARENT
REMARK Flexibility Score: inf
ROOT
ATOM      1  C   UNL     1       5.269 -36.722  20.183  1.00  0.00     0.000 C 
ENDROOT
BRANCH   1   2
ATOM      2  C   UNL     1       5.814 -35.368  20.668  1.00  0.00     0.000 C 
BRANCH   2   3
ATOM      3  C   UNL     1       4.700 -34.416  21.135  1.00  0.00     0.000 C 
BRANCH   3   4
ATOM      4  C   UNL     1       4.794 -34.087  22.635  1.00  0.00     0.000 C 
BRANCH   4   5
ATOM      5  C   UNL     1       6.054 -34.677  23.292  1.00  0.00     0.001 C 
BRANCH   5   6
ATOM      6  C   UNL     1       5.797 -35.166  24.732  1.00  0.00     0.009 C 
BRANCH   6   7
ATOM      7  C   UNL     1       5.926 -36.694  24.916  1.00  0.00     0.032 C 
ATOM      8  C   UNL     1       5.597 -37.480  23.638  1.00  0.00     0.014 C 
BRANCH   7   9
ATOM      9  C   UNL     1       5.130 -37.183  26.098  1.00  0.00     0.044 C 
ATOM     10  O   UNL     1       3.920 -36.861  26.240  1.00  0.00    -0.550 OA
ATOM     11  O   UNL     1       5.749 -37.955  27.072  1.00  0.00    -0.550 OA
ENDBRANCH   7   9
ENDBRANCH   6   7
ENDBRANCH   5   6
ENDBRANCH   4   5
ENDBRANCH   3   4
ENDBRANCH   2   3
ENDBRANCH   1   2
BRANCH   1  12
ATOM     12  C   UNL     1       4.335 -36.582  18.970  1.00  0.00     0.000 C 
BRANCH  12  13
ATOM     13  C   UNL     1       2.893 -37.014  19.278  1.00  0.00    -0.000 C 
BRANCH  13  14
ATOM     14  C   UNL     1       2.026 -36.974  18.013  1.00  0.00    -0.000 C 
BRANCH  14  15
ATOM     15  C   UNL     1       2.882 -36.706  16.767  1.00  0.00    -0.000 C 
BRANCH  15  16
ATOM     16  C   UNL     1       2.202 -35.753  15.766  1.00  0.00    -0.000 C 
BRANCH  16  17
ATOM     17  C   UNL     1       2.687 -35.884  14.308  1.00  0.00    -0.000 C 
BRANCH  17  18
ATOM     18  C   UNL     1       4.181 -36.214  14.147  1.00  0.00    -0.003 C 
ATOM     19  C   UNL     1       4.452 -37.715  14.050  1.00  0.00     0.004 C 
ENDBRANCH  17  18
ENDBRANCH  16  17
ENDBRANCH  15  16
ENDBRANCH  14  15
ENDBRANCH  13  14
ENDBRANCH  12  13
ENDBRANCH   1  12
TORSDOF 14
ENDMDL
MODEL 2
REMARK VINA RESULT:    -2.795      4.034      8.377
REMARK INTER + INTRA:          -5.964
REMARK INTER:                  -4.740
REMARK INTRA:                  -1.224
REMARK UNBOUND:                -0.882
REMARK SMILES CCCCCCCCCCCCCC[C@H](C)C(=O)[O-]
REMARK SMILES IDX 9 1 10 2 11 3 12 4 13 5 14 6 15 7 16 8 17 9 18 10 19 11 8 12
REMARK SMILES IDX 7 13 6 14 5 15 4 16 3 17 2 18 1 19
REMARK H PARENT
REMARK Flexibility Score: inf
ROOT
ATOM      1  C   UNL     1       6.114 -34.764  21.112  1.00  0.00     0.000 C 
ENDROOT
BRANCH   1   2
ATOM      2  C   UNL     1       5.470 -35.070  19.749  1.00  0.00     0.000 C 
BRANCH   2   3
ATOM      3  C   UNL     1       4.962 -36.518  19.647  1.00  0.00     0.000 C 
BRANCH   3   4
ATOM      4  C   UNL     1       3.440 -36.626  19.853  1.00  0.00     0.000 C 
BRANCH   4   5
ATOM      5  C   UNL     1       2.682 -36.878  18.538  1.00  0.00     0.001 C 
BRANCH   5   6
ATOM      6  C   UNL     1       3.610 -36.852  17.306  1.00  0.00     0.009 C 
BRANCH   6   7
ATOM      7  C   UNL     1       3.135 -35.916  16.173  1.00  0.00     0.032 C 
ATOM      8  C   UNL     1       1.607 -35.760  16.127  1.00  0.00     0.014 C 
BRANCH   7   9
ATOM      9  C   UNL     1       3.699 -36.325  14.837  1.00  0.00     0.044 C 
ATOM     10  O   UNL     1       3.737 -35.512  13.875  1.00  0.00    -0.550 OA
ATOM     11  O   UNL     1       4.133 -37.630  14.645  1.00  0.00    -0.550 OA
ENDBRANCH   7   9
ENDBRANCH   6   7
ENDBRANCH   5   6
ENDBRANCH   4   5
ENDBRANCH   3   4
ENDBRANCH   2   3
ENDBRANCH   1   2
BRANCH   1  12
ATOM     12  C   UNL     1       5.106 -34.833  22.270  1.00  0.00     0.000 C 
BRANCH  12  13
ATOM     13  C   UNL     1       5.668 -34.262  23.581  1.00  0.00    -0.000 C 
BRANCH  13  14
ATOM     14  C   UNL     1       6.125 -35.386  24.519  1.00  0.00    -0.000 C 
BRANCH  14  15
ATOM     15  C   UNL     1       5.007 -35.778  25.494  1.00  0.00    -0.000 C 
BRANCH  15  16
ATOM     16  C   UNL     1       5.029 -37.273  25.862  1.00  0.00    -0.000 C 
BRANCH  16  17
ATOM     17  C   UNL     1       5.748 -38.185  24.847  1.00  0.00    -0.000 C 
BRANCH  17  18
ATOM     18  C   UNL     1       4.853 -38.742  23.727  1.00  0.00    -0.003 C 
ATOM     19  C   UNL     1       5.606 -38.954  22.414  1.00  0.00     0.004 C 
ENDBRANCH  17  18
ENDBRANCH  16  17
ENDBRANCH  15  16
ENDBRANCH  14  15
ENDBRANCH  13  14
ENDBRANCH  12  13
ENDBRANCH   1  12
TORSDOF 14
ENDMDL
MODEL 3
REMARK VINA RESULT:    -2.593      3.527      7.741
REMARK INTER + INTRA:          -5.596
REMARK INTER:                  -4.424
REMARK INTRA:                  -1.172
REMARK UNBOUND:                -0.882
REMARK SMILES CCCCCCCCCCCCCC[C@H](C)C(=O)[O-]
REMARK SMILES IDX 9 1 10 2 11 3 12 4 13 5 14 6 15 7 16 8 17 9 18 10 19 11 8 12
REMARK SMILES IDX 7 13 6 14 5 15 4 16 3 17 2 18 1 19
REMARK H PARENT
REMARK Flexibility Score: inf
ROOT
ATOM      1  C   UNL     1       6.011 -34.630  23.008  1.00  0.00     0.000 C 
ENDROOT
BRANCH   1   2
ATOM      2  C   UNL     1       4.854 -34.770  22.005  1.00  0.00     0.000 C 
BRANCH   2   3
ATOM      3  C   UNL     1       5.344 -35.043  20.572  1.00  0.00     0.000 C 
BRANCH   3   4
ATOM      4  C   UNL     1       5.245 -36.530  20.188  1.00  0.00     0.000 C 
BRANCH   4   5
ATOM      5  C   UNL     1       4.023 -36.832  19.304  1.00  0.00     0.001 C 
BRANCH   5   6
ATOM      6  C   UNL     1       4.018 -36.008  18.000  1.00  0.00     0.009 C 
BRANCH   6   7
ATOM      7  C   UNL     1       3.260 -36.674  16.830  1.00  0.00     0.032 C 
ATOM      8  C   UNL     1       3.903 -36.392  15.464  1.00  0.00     0.014 C 
BRANCH   7   9
ATOM      9  C   UNL     1       1.794 -36.325  16.845  1.00  0.00     0.044 C 
ATOM     10  O   UNL     1       1.277 -35.667  15.902  1.00  0.00    -0.550 OA
ATOM     11  O   UNL     1       1.013 -36.685  17.935  1.00  0.00    -0.550 OA
ENDBRANCH   7   9
ENDBRANCH   6   7
ENDBRANCH   5   6
ENDBRANCH   4   5
ENDBRANCH   3   4
ENDBRANCH   2   3
ENDBRANCH   1   2
BRANCH   1  12
ATOM     12  C   UNL     1       5.541 -34.734  24.468  1.00  0.00     0.000 C 
BRANCH  12  13
ATOM     13  C   UNL     1       6.089 -35.980  25.181  1.00  0.00    -0.000 C 
BRANCH  13  14
ATOM     14  C   UNL     1       4.951 -36.930  25.577  1.00  0.00    -0.000 C 
BRANCH  14  15
ATOM     15  C   UNL     1       5.146 -38.315  24.945  1.00  0.00    -0.000 C 
BRANCH  15  16
ATOM     16  C   UNL     1       5.761 -38.250  23.534  1.00  0.00    -0.000 C 
BRANCH  16  17
ATOM     17  C   UNL     1       5.182 -39.258  22.522  1.00  0.00    -0.000 C 
BRANCH  17  18
ATOM     18  C   UNL     1       6.125 -40.415  22.146  1.00  0.00    -0.003 C 
ATOM     19  C   UNL     1       6.104 -41.555  23.164  1.00  0.00     0.004 C 
ENDBRANCH  17  18
ENDBRANCH  16  17
ENDBRANCH  15  16
ENDBRANCH  14  15
ENDBRANCH  13  14
ENDBRANCH  12  13
ENDBRANCH   1  12
TORSDOF 14
ENDMDL
MODEL 4
REMARK VINA RESULT:    -2.546      4.031      8.191
REMARK INTER + INTRA:          -5.512
REMARK INTER:                  -4.141
REMARK INTRA:                  -1.370
REMARK UNBOUND:                -0.882
REMARK SMILES CCCCCCCCCCCCCC[C@H](C)C(=O)[O-]
REMARK SMILES IDX 9 1 10 2 11 3 12 4 13 5 14 6 15 7 16 8 17 9 18 10 19 11 8 12
REMARK SMILES IDX 7 13 6 14 5 15 4 16 3 17 2 18 1 19
REMARK H PARENT
REMARK Flexibility Score: inf
ROOT
ATOM      1  C   UNL     1       5.166 -34.713  22.630  1.00  0.00     0.000 C 
ENDROOT
BRANCH   1   2
ATOM      2  C   UNL     1       5.968 -35.259  21.437  1.00  0.00     0.000 C 
BRANCH   2   3
ATOM      3  C   UNL     1       5.206 -35.139  20.106  1.00  0.00     0.000 C 
BRANCH   3   4
ATOM      4  C   UNL     1       3.972 -36.057  20.049  1.00  0.00     0.000 C 
BRANCH   4   5
ATOM      5  C   UNL     1       3.844 -36.792  18.703  1.00  0.00     0.001 C 
BRANCH   5   6
ATOM      6  C   UNL     1       4.160 -35.881  17.499  1.00  0.00     0.009 C 
BRANCH   6   7
ATOM      7  C   UNL     1       3.047 -35.836  16.428  1.00  0.00     0.032 C 
ATOM      8  C   UNL     1       1.762 -36.552  16.871  1.00  0.00     0.014 C 
BRANCH   7   9
ATOM      9  C   UNL     1       3.537 -36.333  15.093  1.00  0.00     0.044 C 
ATOM     10  O   UNL     1       3.875 -37.537  14.937  1.00  0.00    -0.550 OA
ATOM     11  O   UNL     1       3.669 -35.445  14.035  1.00  0.00    -0.550 OA
ENDBRANCH   7   9
ENDBRANCH   6   7
ENDBRANCH   5   6
ENDBRANCH   4   5
ENDBRANCH   3   4
ENDBRANCH   2   3
ENDBRANCH   1   2
BRANCH   1  12
ATOM     12  C   UNL     1       6.056 -34.378  23.837  1.00  0.00     0.000 C 
BRANCH  12  13
ATOM     13  C   UNL     1       6.125 -35.523  24.860  1.00  0.00    -0.000 C 
BRANCH  13  14
ATOM     14  C   UNL     1       4.761 -35.749  25.523  1.00  0.00    -0.000 C 
BRANCH  14  15
ATOM     15  C   UNL     1       4.526 -37.240  25.803  1.00  0.00    -0.000 C 
BRANCH  15  16
ATOM     16  C   UNL     1       5.618 -38.143  25.202  1.00  0.00    -0.000 C 
BRANCH  16  17
ATOM     17  C   UNL     1       5.162 -39.018  24.017  1.00  0.00    -0.000 C 
BRANCH  17  18
ATOM     18  C   UNL     1       5.756 -38.625  22.653  1.00  0.00    -0.003 C 
ATOM     19  C   UNL     1       6.071 -39.832  21.770  1.00  0.00     0.004 C 
ENDBRANCH  17  18
ENDBRANCH  16  17
ENDBRANCH  15  16
ENDBRANCH  14  15
ENDBRANCH  13  14
ENDBRANCH  12  13
ENDBRANCH   1  12
TORSDOF 14
ENDMDL
MODEL 5
REMARK VINA RESULT:    -2.433      2.183      2.991
REMARK INTER + INTRA:          -5.306
REMARK INTER:                  -3.942
REMARK INTRA:                  -1.364
REMARK UNBOUND:                -0.882
REMARK SMILES CCCCCCCCCCCCCC[C@H](C)C(=O)[O-]
REMARK SMILES IDX 9 1 10 2 11 3 12 4 13 5 14 6 15 7 16 8 17 9 18 10 19 11 8 12
REMARK SMILES IDX 7 13 6 14 5 15 4 16 3 17 2 18 1 19
REMARK H PARENT
REMARK Flexibility Score: inf
ROOT
ATOM      1  C   UNL     1       4.070 -34.512  21.663  1.00  0.00     0.000 C 
ENDROOT
BRANCH   1   2
ATOM      2  C   UNL     1       5.033 -33.880  22.682  1.00  0.00     0.000 C 
BRANCH   2   3
ATOM      3  C   UNL     1       6.086 -34.875  23.196  1.00  0.00     0.000 C 
BRANCH   3   4
ATOM      4  C   UNL     1       5.816 -35.326  24.643  1.00  0.00     0.000 C 
BRANCH   4   5
ATOM      5  C   UNL     1       5.483 -36.824  24.743  1.00  0.00     0.001 C 
BRANCH   5   6
ATOM      6  C   UNL     1       5.850 -37.599  23.460  1.00  0.00     0.009 C 
BRANCH   6   7
ATOM      7  C   UNL     1       5.177 -38.985  23.341  1.00  0.00     0.032 C 
ATOM      8  C   UNL     1       5.058 -39.710  24.690  1.00  0.00     0.014 C 
BRANCH   7   9
ATOM      9  C   UNL     1       5.847 -39.843  22.298  1.00  0.00     0.044 C 
ATOM     10  O   UNL     1       6.115 -39.381  21.157  1.00  0.00    -0.550 OA
ATOM     11  O   UNL     1       6.125 -41.174  22.579  1.00  0.00    -0.550 OA
ENDBRANCH   7   9
ENDBRANCH   6   7
ENDBRANCH   5   6
ENDBRANCH   4   5
ENDBRANCH   3   4
ENDBRANCH   2   3
ENDBRANCH   1   2
BRANCH   1  12
ATOM     12  C   UNL     1       4.792 -35.020  20.405  1.00  0.00     0.000 C 
BRANCH  12  13
ATOM     13  C   UNL     1       4.461 -36.484  20.080  1.00  0.00    -0.000 C 
BRANCH  13  14
ATOM     14  C   UNL     1       4.200 -36.668  18.580  1.00  0.00    -0.000 C 
BRANCH  14  15
ATOM     15  C   UNL     1       2.698 -36.819  18.297  1.00  0.00    -0.000 C 
BRANCH  15  16
ATOM     16  C   UNL     1       2.334 -36.538  16.828  1.00  0.00    -0.000 C 
BRANCH  16  17
ATOM     17  C   UNL     1       3.185 -35.452  16.140  1.00  0.00    -0.000 C 
BRANCH  17  18
ATOM     18  C   UNL     1       3.679 -35.812  14.728  1.00  0.00    -0.003 C 
ATOM     19  C   UNL     1       4.045 -37.288  14.583  1.00  0.00     0.004 C 
ENDBRANCH  17  18
ENDBRANCH  16  17
ENDBRANCH  15  16
ENDBRANCH  14  15
ENDBRANCH  13  14
ENDBRANCH  12  13
ENDBRANCH   1  12
TORSDOF 14
ENDMDL
MODEL 6
REMARK VINA RESULT:    -1.853      1.382      2.251
REMARK INTER + INTRA:          -4.252
REMARK INTER:                  -3.892
REMARK INTRA:                  -0.360
REMARK UNBOUND:                -0.882
REMARK SMILES CCCCCCCCCCCCCC[C@H](C)C(=O)[O-]
REMARK SMILES IDX 9 1 10 2 11 3 12 4 13 5 14 6 15 7 16 8 17 9 18 10 19 11 8 12
REMARK SMILES IDX 7 13 6 14 5 15 4 16 3 17 2 18 1 19
REMARK H PARENT
REMARK Flexibility Score: inf
ROOT
ATOM      1  C   UNL     1       5.924 -35.145  20.967  1.00  0.00     0.000 C 
ENDROOT
BRANCH   1   2
ATOM      2  C   UNL     1       4.652 -34.650  21.677  1.00  0.00     0.000 C 
BRANCH   2   3
ATOM      3  C   UNL     1       4.925 -34.174  23.115  1.00  0.00     0.000 C 
BRANCH   3   4
ATOM      4  C   UNL     1       6.125 -34.893  23.756  1.00  0.00     0.000 C 
BRANCH   4   5
ATOM      5  C   UNL     1       5.900 -35.204  25.246  1.00  0.00     0.001 C 
BRANCH   5   6
ATOM      6  C   UNL     1       4.659 -36.089  25.485  1.00  0.00     0.009 C 
BRANCH   6   7
ATOM      7  C   UNL     1       4.984 -37.553  25.857  1.00  0.00     0.032 C 
ATOM      8  C   UNL     1       6.125 -37.670  26.880  1.00  0.00     0.014 C 
BRANCH   7   9
ATOM      9  C   UNL     1       5.236 -38.397  24.635  1.00  0.00     0.044 C 
ATOM     10  O   UNL     1       5.362 -39.648  24.728  1.00  0.00    -0.550 OA
ATOM     11  O   UNL     1       5.385 -37.786  23.397  1.00  0.00    -0.550 OA
ENDBRANCH   7   9
ENDBRANCH   6   7
ENDBRANCH   5   6
ENDBRANCH   4   5
ENDBRANCH   3   4
ENDBRANCH   2   3
ENDBRANCH   1   2
BRANCH   1  12
ATOM     12  C   UNL     1       6.043 -34.612  19.530  1.00  0.00     0.000 C 
BRANCH  12  13
ATOM     13  C   UNL     1       4.755 -34.809  18.715  1.00  0.00    -0.000 C 
BRANCH  13  14
ATOM     14  C   UNL     1       4.101 -36.158  19.038  1.00  0.00    -0.000 C 
BRANCH  14  15
ATOM     15  C   UNL     1       3.641 -36.867  17.757  1.00  0.00    -0.000 C 
BRANCH  15  16
ATOM     16  C   UNL     1       2.247 -36.410  17.287  1.00  0.00    -0.000 C 
BRANCH  16  17
ATOM     17  C   UNL     1       2.162 -35.992  15.805  1.00  0.00    -0.000 C 
BRANCH  17  18
ATOM     18  C   UNL     1       3.490 -35.524  15.185  1.00  0.00    -0.003 C 
ATOM     19  C   UNL     1       3.975 -36.435  14.057  1.00  0.00     0.004 C 
ENDBRANCH  17  18
ENDBRANCH  16  17
ENDBRANCH  15  16
ENDBRANCH  14  15
ENDBRANCH  13  14
ENDBRANCH  12  13
ENDBRANCH   1  12
TORSDOF 14
ENDMDL
MODEL 7
REMARK VINA RESULT:    -1.760      3.964      8.334
REMARK INTER + INTRA:          -4.082
REMARK INTER:                  -3.121
REMARK INTRA:                  -0.962
REMARK UNBOUND:                -0.882
REMARK SMILES CCCCCCCCCCCCCC[C@H](C)C(=O)[O-]
REMARK SMILES IDX 9 1 10 2 11 3 12 4 13 5 14 6 15 7 16 8 17 9 18 10 19 11 8 12
REMARK SMILES IDX 7 13 6 14 5 15 4 16 3 17 2 18 1 19
REMARK H PARENT
REMARK Flexibility Score: inf
ROOT
ATOM      1  C   UNL     1       6.125 -38.728  21.596  1.00  0.00     0.000 C 
ENDROOT
BRANCH   1   2
ATOM      2  C   UNL     1       5.533 -37.351  21.251  1.00  0.00     0.000 C 
BRANCH   2   3
ATOM      3  C   UNL     1       4.967 -37.292  19.822  1.00  0.00     0.000 C 
BRANCH   3   4
ATOM      4  C   UNL     1       3.589 -36.611  19.760  1.00  0.00     0.000 C 
BRANCH   4   5
ATOM      5  C   UNL     1       2.867 -36.857  18.425  1.00  0.00     0.001 C 
BRANCH   5   6
ATOM      6  C   UNL     1       3.712 -36.426  17.208  1.00  0.00     0.009 C 
BRANCH   6   7
ATOM      7  C   UNL     1       3.111 -36.830  15.843  1.00  0.00     0.032 C 
ATOM      8  C   UNL     1       4.123 -37.538  14.930  1.00  0.00     0.014 C 
BRANCH   7   9
ATOM      9  C   UNL     1       2.454 -35.661  15.154  1.00  0.00     0.044 C 
ATOM     10  O   UNL     1       2.832 -35.289  14.011  1.00  0.00    -0.550 OA
ATOM     11  O   UNL     1       1.457 -34.950  15.808  1.00  0.00    -0.550 OA
ENDBRANCH   7   9
ENDBRANCH   6   7
ENDBRANCH   5   6
ENDBRANCH   4   5
ENDBRANCH   3   4
ENDBRANCH   2   3
ENDBRANCH   1   2
BRANCH   1  12
ATOM     12  C   UNL     1       5.192 -39.565  22.486  1.00  0.00     0.000 C 
BRANCH  12  13
ATOM     13  C   UNL     1       5.400 -39.296  23.984  1.00  0.00    -0.000 C 
BRANCH  13  14
ATOM     14  C   UNL     1       4.715 -37.991  24.409  1.00  0.00    -0.000 C 
BRANCH  14  15
ATOM     15  C   UNL     1       5.456 -37.337  25.583  1.00  0.00    -0.000 C 
BRANCH  15  16
ATOM     16  C   UNL     1       5.778 -35.852  25.335  1.00  0.00    -0.000 C 
BRANCH  16  17
ATOM     17  C   UNL     1       6.118 -35.491  23.875  1.00  0.00    -0.000 C 
BRANCH  17  18
ATOM     18  C   UNL     1       5.701 -34.075  23.441  1.00  0.00    -0.003 C 
ATOM     19  C   UNL     1       4.463 -34.067  22.546  1.00  0.00     0.004 C 
ENDBRANCH  17  18
ENDBRANCH  16  17
ENDBRANCH  15  16
ENDBRANCH  14  15
ENDBRANCH  13  14
ENDBRANCH  12  13
ENDBRANCH   1  12
TORSDOF 14
ENDMDL
MODEL 8
REMARK VINA RESULT:    -1.397      4.048      8.180
REMARK INTER + INTRA:          -3.422
REMARK INTER:                  -2.041
REMARK INTRA:                  -1.381
REMARK UNBOUND:                -0.882
REMARK SMILES CCCCCCCCCCCCCC[C@H](C)C(=O)[O-]
REMARK SMILES IDX 9 1 10 2 11 3 12 4 13 5 14 6 15 7 16 8 17 9 18 10 19 11 8 12
REMARK SMILES IDX 7 13 6 14 5 15 4 16 3 17 2 18 1 19
REMARK H PARENT
REMARK Flexibility Score: inf
ROOT
ATOM      1  C   UNL     1       4.406 -36.888  20.691  1.00  0.00     0.000 C 
ENDROOT
BRANCH   1   2
ATOM      2  C   UNL     1       4.560 -35.378  20.441  1.00  0.00     0.000 C 
BRANCH   2   3
ATOM      3  C   UNL     1       5.912 -35.020  19.798  1.00  0.00     0.000 C 
BRANCH   3   4
ATOM      4  C   UNL     1       5.814 -33.808  18.855  1.00  0.00     0.000 C 
BRANCH   4   5
ATOM      5  C   UNL     1       4.666 -33.939  17.841  1.00  0.00     0.001 C 
BRANCH   5   6
ATOM      6  C   UNL     1       4.581 -35.349  17.221  1.00  0.00     0.009 C 
BRANCH   6   7
ATOM      7  C   UNL     1       3.180 -35.726  16.690  1.00  0.00     0.032 C 
ATOM      8  C   UNL     1       2.464 -36.760  17.572  1.00  0.00     0.014 C 
BRANCH   7   9
ATOM      9  C   UNL     1       3.228 -36.155  15.246  1.00  0.00     0.044 C 
ATOM     10  O   UNL     1       4.091 -36.981  14.845  1.00  0.00    -0.550 OA
ATOM     11  O   UNL     1       2.345 -35.594  14.333  1.00  0.00    -0.550 OA
ENDBRANCH   7   9
ENDBRANCH   6   7
ENDBRANCH   5   6
ENDBRANCH   4   5
ENDBRANCH   3   4
ENDBRANCH   2   3
ENDBRANCH   1   2
BRANCH   1  12
ATOM     12  C   UNL     1       5.757 -37.598  20.866  1.00  0.00     0.000 C 
BRANCH  12  13
ATOM     13  C   UNL     1       5.768 -38.571  22.056  1.00  0.00    -0.000 C 
BRANCH  13  14
ATOM     14  C   UNL     1       4.932 -38.023  23.219  1.00  0.00    -0.000 C 
BRANCH  14  15
ATOM     15  C   UNL     1       5.321 -38.698  24.542  1.00  0.00    -0.000 C 
BRANCH  15  16
ATOM     16  C   UNL     1       5.648 -37.688  25.657  1.00  0.00    -0.000 C 
BRANCH  16  17
ATOM     17  C   UNL     1       5.075 -36.272  25.444  1.00  0.00    -0.000 C 
BRANCH  17  18
ATOM     18  C   UNL     1       6.118 -35.194  25.100  1.00  0.00    -0.003 C 
ATOM     19  C   UNL     1       5.976 -34.664  23.674  1.00  0.00     0.004 C 
ENDBRANCH  17  18
ENDBRANCH  16  17
ENDBRANCH  15  16
ENDBRANCH  14  15
ENDBRANCH  13  14
ENDBRANCH  12  13
ENDBRANCH   1  12
TORSDOF 14
ENDMDL
