MODEL 1
REMARK VINA RESULT:    -4.985      0.000      0.000
REMARK INTER + INTRA:          -7.960
REMARK INTER:                  -6.880
REMARK INTRA:                  -1.081
REMARK UNBOUND:                -1.081
REMARK SMILES CCCCc1cccc(O)c1CCCC
REMARK SMILES IDX 5 1 11 2 9 3 8 4 7 5 6 6 4 7 3 8 2 9 1 10 12 11 13 12 14 13
REMARK SMILES IDX 15 14 10 15
REMARK H PARENT 10 16
REMARK Flexibility Score: inf
ROOT
ATOM      1  C   UNL     1     -12.888   0.970  30.038  1.00  0.00    -0.041 A 
ATOM      2  C   UNL     1     -12.431   2.294  30.307  1.00  0.00    -0.003 A 
ATOM      3  C   UNL     1     -11.857   2.575  31.569  1.00  0.00     0.119 A 
ATOM      4  C   UNL     1     -11.728   1.566  32.531  1.00  0.00     0.046 A 
ATOM      5  C   UNL     1     -12.177   0.278  32.261  1.00  0.00     0.004 A 
ATOM      6  C   UNL     1     -12.760  -0.017  31.031  1.00  0.00     0.004 A 
ENDROOT
BRANCH   1   7
ATOM      7  C   UNL     1     -13.584   0.584  28.751  1.00  0.00     0.036 C 
BRANCH   7   8
ATOM      8  C   UNL     1     -12.582   0.001  27.745  1.00  0.00     0.004 C 
BRANCH   8   9
ATOM      9  C   UNL     1     -11.994   1.068  26.810  1.00  0.00    -0.003 C 
ATOM     10  C   UNL     1     -10.492   1.268  27.011  1.00  0.00     0.004 C 
ENDBRANCH   8   9
ENDBRANCH   7   8
ENDBRANCH   1   7
BRANCH   2  11
ATOM     11  C   UNL     1     -12.534   3.421  29.290  1.00  0.00     0.040 C 
BRANCH  11  12
ATOM     12  C   UNL     1     -13.956   4.009  29.205  1.00  0.00     0.005 C 
BRANCH  12  13
ATOM     13  C   UNL     1     -14.547   4.002  27.785  1.00  0.00    -0.003 C 
ATOM     14  C   UNL     1     -15.873   3.243  27.710  1.00  0.00     0.004 C 
ENDBRANCH  12  13
ENDBRANCH  11  12
ENDBRANCH   2  11
BRANCH   3  15
ATOM     15  O   UNL     1     -11.419   3.866  31.870  1.00  0.00    -0.508 OA
ATOM     16  H   UNL     1     -11.782   4.679  31.385  1.00  0.00     0.293 HD
ENDBRANCH   3  15
TORSDOF 7
ENDMDL
MODEL 2
REMARK VINA RESULT:    -4.883      1.365      3.728
REMARK INTER + INTRA:          -7.819
REMARK INTER:                  -6.849
REMARK INTRA:                  -0.970
REMARK UNBOUND:                -1.081
REMARK SMILES CCCCc1cccc(O)c1CCCC
REMARK SMILES IDX 5 1 11 2 9 3 8 4 7 5 6 6 4 7 3 8 2 9 1 10 12 11 13 12 14 13
REMARK SMILES IDX 15 14 10 15
REMARK H PARENT 10 16
REMARK Flexibility Score: inf
ROOT
ATOM      1  C   UNL     1     -12.565   2.763  30.103  1.00  0.00    -0.041 A 
ATOM      2  C   UNL     1     -12.985   1.402  30.188  1.00  0.00    -0.003 A 
ATOM      3  C   UNL     1     -12.651   0.656  31.343  1.00  0.00     0.119 A 
ATOM      4  C   UNL     1     -11.933   1.248  32.388  1.00  0.00     0.046 A 
ATOM      5  C   UNL     1     -11.527   2.576  32.296  1.00  0.00     0.004 A 
ATOM      6  C   UNL     1     -11.831   3.324  31.162  1.00  0.00     0.004 A 
ENDROOT
BRANCH   1   7
ATOM      7  C   UNL     1     -12.805   3.624  28.882  1.00  0.00     0.036 C 
BRANCH   7   8
ATOM      8  C   UNL     1     -14.241   4.166  28.873  1.00  0.00     0.004 C 
BRANCH   8   9
ATOM      9  C   UNL     1     -14.965   3.899  27.545  1.00  0.00    -0.003 C 
ATOM     10  C   UNL     1     -16.218   3.041  27.717  1.00  0.00     0.004 C 
ENDBRANCH   8   9
ENDBRANCH   7   8
ENDBRANCH   1   7
BRANCH   2  11
ATOM     11  C   UNL     1     -13.781   0.717  29.087  1.00  0.00     0.040 C 
BRANCH  11  12
ATOM     12  C   UNL     1     -12.876   0.007  28.062  1.00  0.00     0.005 C 
BRANCH  12  13
ATOM     13  C   UNL     1     -12.357   0.930  26.947  1.00  0.00    -0.003 C 
ATOM     14  C   UNL     1     -10.830   1.031  26.939  1.00  0.00     0.004 C 
ENDBRANCH  12  13
ENDBRANCH  11  12
ENDBRANCH   2  11
BRANCH   3  15
ATOM     15  O   UNL     1     -13.030  -0.683  31.447  1.00  0.00    -0.508 OA
ATOM     16  H   UNL     1     -12.351  -1.419  31.611  1.00  0.00     0.293 HD
ENDBRANCH   3  15
TORSDOF 7
ENDMDL
MODEL 3
REMARK VINA RESULT:    -4.786      8.799     10.917
REMARK INTER + INTRA:          -7.685
REMARK INTER:                  -6.571
REMARK INTRA:                  -1.114
REMARK UNBOUND:                -1.081
REMARK SMILES CCCCc1cccc(O)c1CCCC
REMARK SMILES IDX 5 1 11 2 9 3 8 4 7 5 6 6 4 7 3 8 2 9 1 10 12 11 13 12 14 13
REMARK SMILES IDX 15 14 10 15
REMARK H PARENT 10 16
REMARK Flexibility Score: inf
ROOT
ATOM      1  C   UNL     1      -1.081   1.232  28.773  1.00  0.00    -0.041 A 
ATOM      2  C   UNL     1      -1.941   1.039  29.895  1.00  0.00    -0.003 A 
ATOM      3  C   UNL     1      -2.240   2.145  30.725  1.00  0.00     0.119 A 
ATOM      4  C   UNL     1      -1.710   3.409  30.441  1.00  0.00     0.046 A 
ATOM      5  C   UNL     1      -0.871   3.589  29.346  1.00  0.00     0.004 A 
ATOM      6  C   UNL     1      -0.551   2.511  28.525  1.00  0.00     0.004 A 
ENDROOT
BRANCH   1   7
ATOM      7  C   UNL     1      -0.639   0.103  27.869  1.00  0.00     0.036 C 
BRANCH   7   8
ATOM      8  C   UNL     1      -1.041   0.383  26.414  1.00  0.00     0.004 C 
BRANCH   8   9
ATOM      9  C   UNL     1      -2.310  -0.374  25.995  1.00  0.00    -0.003 C 
ATOM     10  C   UNL     1      -3.532   0.537  25.886  1.00  0.00     0.004 C 
ENDBRANCH   8   9
ENDBRANCH   7   8
ENDBRANCH   1   7
BRANCH   2  11
ATOM     11  C   UNL     1      -2.554  -0.310  30.236  1.00  0.00     0.040 C 
BRANCH  11  12
ATOM     12  C   UNL     1      -3.794  -0.628  29.378  1.00  0.00     0.005 C 
BRANCH  12  13
ATOM     13  C   UNL     1      -5.129  -0.389  30.103  1.00  0.00    -0.003 C 
ATOM     14  C   UNL     1      -5.087  -0.838  31.565  1.00  0.00     0.004 C 
ENDBRANCH  12  13
ENDBRANCH  11  12
ENDBRANCH   2  11
BRANCH   3  15
ATOM     15  O   UNL     1      -3.062   1.984  31.841  1.00  0.00    -0.508 OA
ATOM     16  H   UNL     1      -4.049   2.214  31.815  1.00  0.00     0.293 HD
ENDBRANCH   3  15
TORSDOF 7
ENDMDL
MODEL 4
REMARK VINA RESULT:    -4.766      2.188      4.110
REMARK INTER + INTRA:          -7.658
REMARK INTER:                  -7.006
REMARK INTRA:                  -0.651
REMARK UNBOUND:                -1.081
REMARK SMILES CCCCc1cccc(O)c1CCCC
REMARK SMILES IDX 5 1 11 2 9 3 8 4 7 5 6 6 4 7 3 8 2 9 1 10 12 11 13 12 14 13
REMARK SMILES IDX 15 14 10 15
REMARK H PARENT 10 16
REMARK Flexibility Score: inf
ROOT
ATOM      1  C   UNL     1     -11.960   2.495  31.063  1.00  0.00    -0.041 A 
ATOM      2  C   UNL     1     -12.754   2.059  29.961  1.00  0.00    -0.003 A 
ATOM      3  C   UNL     1     -13.327   0.766  30.001  1.00  0.00     0.119 A 
ATOM      4  C   UNL     1     -13.127  -0.064  31.110  1.00  0.00     0.046 A 
ATOM      5  C   UNL     1     -12.350   0.367  32.180  1.00  0.00     0.004 A 
ATOM      6  C   UNL     1     -11.764   1.630  32.155  1.00  0.00     0.004 A 
ENDROOT
BRANCH   1   7
ATOM      7  C   UNL     1     -11.242   3.827  31.086  1.00  0.00     0.036 C 
BRANCH   7   8
ATOM      8  C   UNL     1     -11.160   4.374  32.518  1.00  0.00     0.004 C 
BRANCH   8   9
ATOM      9  C   UNL     1     -11.434   5.884  32.591  1.00  0.00    -0.003 C 
ATOM     10  C   UNL     1     -11.316   6.439  34.010  1.00  0.00     0.004 C 
ENDBRANCH   8   9
ENDBRANCH   7   8
ENDBRANCH   1   7
BRANCH   2  11
ATOM     11  C   UNL     1     -13.015   2.930  28.741  1.00  0.00     0.040 C 
BRANCH  11  12
ATOM     12  C   UNL     1     -14.316   3.746  28.867  1.00  0.00     0.005 C 
BRANCH  12  13
ATOM     13  C   UNL     1     -15.189   3.722  27.602  1.00  0.00    -0.003 C 
ATOM     14  C   UNL     1     -16.423   2.833  27.764  1.00  0.00     0.004 C 
ENDBRANCH  12  13
ENDBRANCH  11  12
ENDBRANCH   2  11
BRANCH   3  15
ATOM     15  O   UNL     1     -14.093   0.304  28.930  1.00  0.00    -0.508 OA
ATOM     16  H   UNL     1     -13.664  -0.086  28.098  1.00  0.00     0.293 HD
ENDBRANCH   3  15
TORSDOF 7
ENDMDL
MODEL 5
REMARK VINA RESULT:    -4.690      1.058      2.867
REMARK INTER + INTRA:          -7.553
REMARK INTER:                  -6.536
REMARK INTRA:                  -1.017
REMARK UNBOUND:                -1.081
REMARK SMILES CCCCc1cccc(O)c1CCCC
REMARK SMILES IDX 5 1 11 2 9 3 8 4 7 5 6 6 4 7 3 8 2 9 1 10 12 11 13 12 14 13
REMARK SMILES IDX 15 14 10 15
REMARK H PARENT 10 16
REMARK Flexibility Score: inf
ROOT
ATOM      1  C   UNL     1     -12.576   1.190  29.995  1.00  0.00    -0.041 A 
ATOM      2  C   UNL     1     -12.112   2.418  30.554  1.00  0.00    -0.003 A 
ATOM      3  C   UNL     1     -11.717   2.444  31.912  1.00  0.00     0.119 A 
ATOM      4  C   UNL     1     -11.769   1.281  32.689  1.00  0.00     0.046 A 
ATOM      5  C   UNL     1     -12.223   0.088  32.137  1.00  0.00     0.004 A 
ATOM      6  C   UNL     1     -12.632   0.043  30.806  1.00  0.00     0.004 A 
ENDROOT
BRANCH   1   7
ATOM      7  C   UNL     1     -13.092   1.072  28.578  1.00  0.00     0.036 C 
BRANCH   7   8
ATOM      8  C   UNL     1     -14.598   1.364  28.522  1.00  0.00     0.004 C 
BRANCH   8   9
ATOM      9  C   UNL     1     -14.926   2.629  27.714  1.00  0.00    -0.003 C 
ATOM     10  C   UNL     1     -16.425   2.922  27.656  1.00  0.00     0.004 C 
ENDBRANCH   8   9
ENDBRANCH   7   8
ENDBRANCH   1   7
BRANCH   2  11
ATOM     11  C   UNL     1     -12.022   3.705  29.748  1.00  0.00     0.040 C 
BRANCH  11  12
ATOM     12  C   UNL     1     -10.638   3.898  29.098  1.00  0.00     0.005 C 
BRANCH  12  13
ATOM     13  C   UNL     1     -10.607   3.576  27.595  1.00  0.00    -0.003 C 
ATOM     14  C   UNL     1      -9.832   2.293  27.291  1.00  0.00     0.004 C 
ENDBRANCH  12  13
ENDBRANCH  11  12
ENDBRANCH   2  11
BRANCH   3  15
ATOM     15  O   UNL     1     -11.278   3.635  32.493  1.00  0.00    -0.508 OA
ATOM     16  H   UNL     1     -10.293   3.866  32.556  1.00  0.00     0.293 HD
ENDBRANCH   3  15
TORSDOF 7
ENDMDL
MODEL 6
REMARK VINA RESULT:    -4.645      7.364      9.685
REMARK INTER + INTRA:          -7.490
REMARK INTER:                  -6.247
REMARK INTRA:                  -1.243
REMARK UNBOUND:                -1.081
REMARK SMILES CCCCc1cccc(O)c1CCCC
REMARK SMILES IDX 5 1 11 2 9 3 8 4 7 5 6 6 4 7 3 8 2 9 1 10 12 11 13 12 14 13
REMARK SMILES IDX 15 14 10 15
REMARK H PARENT 10 16
REMARK Flexibility Score: inf
ROOT
ATOM      1  C   UNL     1     -12.422  11.341  30.575  1.00  0.00    -0.041 A 
ATOM      2  C   UNL     1     -12.878  10.002  30.395  1.00  0.00    -0.003 A 
ATOM      3  C   UNL     1     -14.188   9.786  29.906  1.00  0.00     0.119 A 
ATOM      4  C   UNL     1     -15.016  10.870  29.592  1.00  0.00     0.046 A 
ATOM      5  C   UNL     1     -14.564  12.173  29.771  1.00  0.00     0.004 A 
ATOM      6  C   UNL     1     -13.284  12.408  30.266  1.00  0.00     0.004 A 
ENDROOT
BRANCH   1   7
ATOM      7  C   UNL     1     -11.069  11.679  31.162  1.00  0.00     0.036 C 
BRANCH   7   8
ATOM      8  C   UNL     1     -10.120  12.198  30.073  1.00  0.00     0.004 C 
BRANCH   8   9
ATOM      9  C   UNL     1      -9.398  11.064  29.329  1.00  0.00    -0.003 C 
ATOM     10  C   UNL     1      -8.652  10.120  30.271  1.00  0.00     0.004 C 
ENDBRANCH   8   9
ENDBRANCH   7   8
ENDBRANCH   1   7
BRANCH   2  11
ATOM     11  C   UNL     1     -12.012   8.790  30.705  1.00  0.00     0.040 C 
BRANCH  11  12
ATOM     12  C   UNL     1     -12.029   8.422  32.202  1.00  0.00     0.005 C 
BRANCH  12  13
ATOM     13  C   UNL     1     -10.631   8.222  32.809  1.00  0.00    -0.003 C 
ATOM     14  C   UNL     1     -10.270   9.317  33.813  1.00  0.00     0.004 C 
ENDBRANCH  12  13
ENDBRANCH  11  12
ENDBRANCH   2  11
BRANCH   3  15
ATOM     15  O   UNL     1     -14.670   8.487  29.738  1.00  0.00    -0.508 OA
ATOM     16  H   UNL     1     -14.123   7.676  30.006  1.00  0.00     0.293 HD
ENDBRANCH   3  15
TORSDOF 7
ENDMDL
MODEL 7
REMARK VINA RESULT:    -4.557      6.885      9.270
REMARK INTER + INTRA:          -7.369
REMARK INTER:                  -6.234
REMARK INTRA:                  -1.135
REMARK UNBOUND:                -1.081
REMARK SMILES CCCCc1cccc(O)c1CCCC
REMARK SMILES IDX 5 1 11 2 9 3 8 4 7 5 6 6 4 7 3 8 2 9 1 10 12 11 13 12 14 13
REMARK SMILES IDX 15 14 10 15
REMARK H PARENT 10 16
REMARK Flexibility Score: inf
ROOT
ATOM      1  C   UNL     1     -12.541   9.328  31.131  1.00  0.00    -0.041 A 
ATOM      2  C   UNL     1     -11.407  10.176  31.302  1.00  0.00    -0.003 A 
ATOM      3  C   UNL     1     -11.506  11.534  30.920  1.00  0.00     0.119 A 
ATOM      4  C   UNL     1     -12.702  12.038  30.394  1.00  0.00     0.046 A 
ATOM      5  C   UNL     1     -13.803  11.204  30.229  1.00  0.00     0.004 A 
ATOM      6  C   UNL     1     -13.722   9.860  30.585  1.00  0.00     0.004 A 
ENDROOT
BRANCH   1   7
ATOM      7  C   UNL     1     -12.516   7.846  31.437  1.00  0.00     0.036 C 
BRANCH   7   8
ATOM      8  C   UNL     1     -13.270   7.548  32.741  1.00  0.00     0.004 C 
BRANCH   8   9
ATOM      9  C   UNL     1     -12.359   6.965  33.831  1.00  0.00    -0.003 C 
ATOM     10  C   UNL     1     -12.579   7.617  35.196  1.00  0.00     0.004 C 
ENDBRANCH   8   9
ENDBRANCH   7   8
ENDBRANCH   1   7
BRANCH   2  11
ATOM     11  C   UNL     1     -10.091   9.681  31.884  1.00  0.00     0.040 C 
BRANCH  11  12
ATOM     12  C   UNL     1     -10.083   9.700  33.424  1.00  0.00     0.005 C 
BRANCH  12  13
ATOM     13  C   UNL     1      -8.850   9.028  34.048  1.00  0.00    -0.003 C 
ATOM     14  C   UNL     1      -8.856   7.510  33.860  1.00  0.00     0.004 C 
ENDBRANCH  12  13
ENDBRANCH  11  12
ENDBRANCH   2  11
BRANCH   3  15
ATOM     15  O   UNL     1     -10.408  12.384  31.056  1.00  0.00    -0.508 OA
ATOM     16  H   UNL     1     -10.502  13.322  31.432  1.00  0.00     0.293 HD
ENDBRANCH   3  15
TORSDOF 7
ENDMDL
MODEL 8
REMARK VINA RESULT:    -4.535      9.432     11.505
REMARK INTER + INTRA:          -7.338
REMARK INTER:                  -6.181
REMARK INTRA:                  -1.157
REMARK UNBOUND:                -1.081
REMARK SMILES CCCCc1cccc(O)c1CCCC
REMARK SMILES IDX 5 1 11 2 9 3 8 4 7 5 6 6 4 7 3 8 2 9 1 10 12 11 13 12 14 13
REMARK SMILES IDX 15 14 10 15
REMARK H PARENT 10 16
REMARK Flexibility Score: inf
ROOT
ATOM      1  C   UNL     1      -1.659   1.802  30.723  1.00  0.00    -0.041 A 
ATOM      2  C   UNL     1      -1.849   0.585  30.003  1.00  0.00    -0.003 A 
ATOM      3  C   UNL     1      -3.088  -0.088  30.114  1.00  0.00     0.119 A 
ATOM      4  C   UNL     1      -4.114   0.440  30.907  1.00  0.00     0.046 A 
ATOM      5  C   UNL     1      -3.921   1.627  31.607  1.00  0.00     0.004 A 
ATOM      6  C   UNL     1      -2.703   2.298  31.524  1.00  0.00     0.004 A 
ENDROOT
BRANCH   1   7
ATOM      7  C   UNL     1      -0.349   2.559  30.732  1.00  0.00     0.036 C 
BRANCH   7   8
ATOM      8  C   UNL     1      -0.524   3.956  30.119  1.00  0.00     0.004 C 
BRANCH   8   9
ATOM      9  C   UNL     1      -0.115   4.007  28.639  1.00  0.00    -0.003 C 
ATOM     10  C   UNL     1      -1.313   4.136  27.699  1.00  0.00     0.004 C 
ENDBRANCH   8   9
ENDBRANCH   7   8
ENDBRANCH   1   7
BRANCH   2  11
ATOM     11  C   UNL     1      -0.772  -0.020  29.116  1.00  0.00     0.040 C 
BRANCH  11  12
ATOM     12  C   UNL     1      -0.816   0.529  27.677  1.00  0.00     0.005 C 
BRANCH  12  13
ATOM     13  C   UNL     1      -1.303  -0.493  26.636  1.00  0.00    -0.003 C 
ATOM     14  C   UNL     1      -2.627  -0.080  25.990  1.00  0.00     0.004 C 
ENDBRANCH  12  13
ENDBRANCH  11  12
ENDBRANCH   2  11
BRANCH   3  15
ATOM     15  O   UNL     1      -3.297  -1.291  29.439  1.00  0.00    -0.508 OA
ATOM     16  H   UNL     1      -2.637  -1.638  28.751  1.00  0.00     0.293 HD
ENDBRANCH   3  15
TORSDOF 7
ENDMDL
MODEL 9
REMARK VINA RESULT:    -4.529      6.403      8.248
REMARK INTER + INTRA:          -7.330
REMARK INTER:                  -6.479
REMARK INTRA:                  -0.851
REMARK UNBOUND:                -1.081
REMARK SMILES CCCCc1cccc(O)c1CCCC
REMARK SMILES IDX 5 1 11 2 9 3 8 4 7 5 6 6 4 7 3 8 2 9 1 10 12 11 13 12 14 13
REMARK SMILES IDX 15 14 10 15
REMARK H PARENT 10 16
REMARK Flexibility Score: inf
ROOT
ATOM      1  C   UNL     1     -10.861   9.024  32.457  1.00  0.00    -0.041 A 
ATOM      2  C   UNL     1     -11.463   7.811  32.907  1.00  0.00    -0.003 A 
ATOM      3  C   UNL     1     -10.949   7.182  34.065  1.00  0.00     0.119 A 
ATOM      4  C   UNL     1      -9.877   7.749  34.764  1.00  0.00     0.046 A 
ATOM      5  C   UNL     1      -9.296   8.932  34.319  1.00  0.00     0.004 A 
ATOM      6  C   UNL     1      -9.775   9.559  33.172  1.00  0.00     0.004 A 
ENDROOT
BRANCH   1   7
ATOM      7  C   UNL     1     -11.285   9.734  31.190  1.00  0.00     0.036 C 
BRANCH   7   8
ATOM      8  C   UNL     1     -11.187  11.256  31.362  1.00  0.00     0.004 C 
BRANCH   8   9
ATOM      9  C   UNL     1     -12.031  12.022  30.333  1.00  0.00    -0.003 C 
ATOM     10  C   UNL     1     -13.534  11.866  30.566  1.00  0.00     0.004 C 
ENDBRANCH   8   9
ENDBRANCH   7   8
ENDBRANCH   1   7
BRANCH   2  11
ATOM     11  C   UNL     1     -12.639   7.163  32.191  1.00  0.00     0.040 C 
BRANCH  11  12
ATOM     12  C   UNL     1     -13.989   7.784  32.597  1.00  0.00     0.005 C 
BRANCH  12  13
ATOM     13  C   UNL     1     -14.738   8.457  31.435  1.00  0.00    -0.003 C 
ATOM     14  C   UNL     1     -16.246   8.533  31.680  1.00  0.00     0.004 C 
ENDBRANCH  12  13
ENDBRANCH  11  12
ENDBRANCH   2  11
BRANCH   3  15
ATOM     15  O   UNL     1     -11.503   5.984  34.518  1.00  0.00    -0.508 OA
ATOM     16  H   UNL     1     -10.951   5.296  35.018  1.00  0.00     0.293 HD
ENDBRANCH   3  15
TORSDOF 7
ENDMDL
