MODEL 1
REMARK VINA RESULT:    -6.843      0.000      0.000
REMARK INTER + INTRA:          -8.286
REMARK INTER:                  -8.443
REMARK INTRA:                   0.157
REMARK UNBOUND:                 0.157
REMARK SMILES O=C1c2c(O)cc(O)cc2O[C@@H](c2cc(O)c(O)c(O)c2)[C@@H]1O
REMARK SMILES IDX 12 1 22 2 2 3 1 4 3 5 4 6 6 7 7 8 9 9 10 10 11 11 13 12
REMARK SMILES IDX 14 13 15 14 21 15 17 16 19 17 16 18 18 20 20 22 23 24 5 26
REMARK SMILES IDX 8 28
REMARK H PARENT 16 19 18 21 20 23 23 25 5 27 8 29
REMARK Flexibility Score: inf
ROOT
ATOM      1  C   UNL     1      44.555  42.389   7.835  1.00  0.00     0.240 C 
ATOM      2  C   UNL     1      44.402  40.999   8.483  1.00  0.00     0.231 C 
ATOM      3  C   UNL     1      43.769  40.027   7.517  1.00  0.00     0.202 C 
ATOM      4  O   UNL     1      43.905  38.796   7.740  1.00  0.00    -0.291 OA
ATOM      5  C   UNL     1      42.870  40.519   6.432  1.00  0.00     0.105 A 
ATOM      6  C   UNL     1      42.194  39.674   5.509  1.00  0.00     0.133 A 
ATOM      7  C   UNL     1      41.219  40.215   4.663  1.00  0.00     0.093 A 
ATOM      8  C   UNL     1      40.938  41.586   4.676  1.00  0.00     0.123 A 
ATOM      9  C   UNL     1      41.645  42.428   5.532  1.00  0.00     0.093 A 
ATOM     10  C   UNL     1      42.616  41.907   6.389  1.00  0.00     0.138 A 
ATOM     11  O   UNL     1      43.332  42.781   7.212  1.00  0.00    -0.481 OA
ENDROOT
BRANCH   1  12
ATOM     12  C   UNL     1      44.961  43.427   8.854  1.00  0.00     0.003 A 
ATOM     13  C   UNL     1      45.439  43.035  10.111  1.00  0.00     0.058 A 
ATOM     14  C   UNL     1      45.790  43.994  11.070  1.00  0.00     0.161 A 
ATOM     15  C   UNL     1      44.819  44.795   8.573  1.00  0.00     0.058 A 
ATOM     16  C   UNL     1      45.660  45.361  10.784  1.00  0.00     0.200 A 
ATOM     17  C   UNL     1      45.166  45.765   9.522  1.00  0.00     0.161 A 
BRANCH  14  18
ATOM     18  O   UNL     1      46.271  43.595  12.316  1.00  0.00    -0.504 OA
ATOM     19  H   UNL     1      46.709  44.251  12.952  1.00  0.00     0.293 HD
ENDBRANCH  14  18
BRANCH  16  20
ATOM     20  O   UNL     1      46.029  46.275  11.774  1.00  0.00    -0.502 OA
ATOM     21  H   UNL     1      46.760  46.112  12.452  1.00  0.00     0.293 HD
ENDBRANCH  16  20
BRANCH  17  22
ATOM     22  O   UNL     1      45.002  47.106   9.169  1.00  0.00    -0.504 OA
ATOM     23  H   UNL     1      44.224  47.457   8.628  1.00  0.00     0.293 HD
ENDBRANCH  17  22
ENDBRANCH   1  12
BRANCH   2  24
ATOM     24  O   UNL     1      45.661  40.511   8.873  1.00  0.00    -0.381 OA
ATOM     25  H   UNL     1      46.083  40.119   8.063  1.00  0.00     0.211 HD
ENDBRANCH   2  24
BRANCH   6  26
ATOM     26  O   UNL     1      42.467  38.310   5.375  1.00  0.00    -0.507 OA
ATOM     27  H   UNL     1      42.934  37.903   4.580  1.00  0.00     0.293 HD
ENDBRANCH   6  26
BRANCH   8  28
ATOM     28  O   UNL     1      39.968  42.121   3.832  1.00  0.00    -0.508 OA
ATOM     29  H   UNL     1      39.111  41.620   3.625  1.00  0.00     0.293 HD
ENDBRANCH   8  28
TORSDOF 7
ENDMDL
MODEL 2
REMARK VINA RESULT:    -6.734      7.590     10.685
REMARK INTER + INTRA:          -8.151
REMARK INTER:                  -7.770
REMARK INTRA:                  -0.381
REMARK UNBOUND:                 0.157
REMARK SMILES O=C1c2c(O)cc(O)cc2O[C@@H](c2cc(O)c(O)c(O)c2)[C@@H]1O
REMARK SMILES IDX 12 1 22 2 2 3 1 4 3 5 4 6 6 7 7 8 9 9 10 10 11 11 13 12
REMARK SMILES IDX 14 13 15 14 21 15 17 16 19 17 16 18 18 20 20 22 23 24 5 26
REMARK SMILES IDX 8 28
REMARK H PARENT 16 19 18 21 20 23 23 25 5 27 8 29
REMARK Flexibility Score: inf
ROOT
ATOM      1  C   UNL     1      51.001  47.371  12.477  1.00  0.00     0.240 C 
ATOM      2  C   UNL     1      51.281  48.778  11.913  1.00  0.00     0.231 C 
ATOM      3  C   UNL     1      50.055  49.651  12.026  1.00  0.00     0.202 C 
ATOM      4  O   UNL     1      50.207  50.899  11.961  1.00  0.00    -0.291 OA
ATOM      5  C   UNL     1      48.693  49.041  12.045  1.00  0.00     0.105 A 
ATOM      6  C   UNL     1      47.484  49.787  12.101  1.00  0.00     0.133 A 
ATOM      7  C   UNL     1      46.259  49.135  11.908  1.00  0.00     0.093 A 
ATOM      8  C   UNL     1      46.207  47.751  11.715  1.00  0.00     0.123 A 
ATOM      9  C   UNL     1      47.385  47.006  11.726  1.00  0.00     0.093 A 
ATOM     10  C   UNL     1      48.617  47.638  11.908  1.00  0.00     0.138 A 
ATOM     11  O   UNL     1      49.778  46.861  11.948  1.00  0.00    -0.481 OA
ENDROOT
BRANCH   1  12
ATOM     12  C   UNL     1      52.129  46.418  12.156  1.00  0.00     0.003 A 
ATOM     13  C   UNL     1      52.420  46.090  10.826  1.00  0.00     0.058 A 
ATOM     14  C   UNL     1      53.446  45.185  10.525  1.00  0.00     0.161 A 
ATOM     15  C   UNL     1      52.864  45.811  13.187  1.00  0.00     0.058 A 
ATOM     16  C   UNL     1      54.189  44.589  11.554  1.00  0.00     0.200 A 
ATOM     17  C   UNL     1      53.892  44.905  12.900  1.00  0.00     0.161 A 
BRANCH  14  18
ATOM     18  O   UNL     1      53.734  44.869   9.197  1.00  0.00    -0.504 OA
ATOM     19  H   UNL     1      53.823  45.587   8.488  1.00  0.00     0.293 HD
ENDBRANCH  14  18
BRANCH  16  20
ATOM     20  O   UNL     1      55.204  43.697  11.198  1.00  0.00    -0.502 OA
ATOM     21  H   UNL     1      56.185  43.857  11.374  1.00  0.00     0.293 HD
ENDBRANCH  16  20
BRANCH  17  22
ATOM     22  O   UNL     1      54.583  44.346  13.978  1.00  0.00    -0.504 OA
ATOM     23  H   UNL     1      54.250  44.359  14.931  1.00  0.00     0.293 HD
ENDBRANCH  17  22
ENDBRANCH   1  12
BRANCH   2  24
ATOM     24  O   UNL     1      52.341  49.374  12.617  1.00  0.00    -0.381 OA
ATOM     25  H   UNL     1      52.558  48.773  13.377  1.00  0.00     0.211 HD
ENDBRANCH   2  24
BRANCH   6  26
ATOM     26  O   UNL     1      47.439  51.158  12.366  1.00  0.00    -0.507 OA
ATOM     27  H   UNL     1      48.255  51.742  12.465  1.00  0.00     0.293 HD
ENDBRANCH   6  26
BRANCH   8  28
ATOM     28  O   UNL     1      44.988  47.105  11.524  1.00  0.00    -0.508 OA
ATOM     29  H   UNL     1      44.330  47.413  10.818  1.00  0.00     0.293 HD
ENDBRANCH   8  28
TORSDOF 7
ENDMDL
MODEL 3
REMARK VINA RESULT:    -6.714      1.355      7.511
REMARK INTER + INTRA:          -8.127
REMARK INTER:                  -8.332
REMARK INTRA:                   0.205
REMARK UNBOUND:                 0.157
REMARK SMILES O=C1c2c(O)cc(O)cc2O[C@@H](c2cc(O)c(O)c(O)c2)[C@@H]1O
REMARK SMILES IDX 12 1 22 2 2 3 1 4 3 5 4 6 6 7 7 8 9 9 10 10 11 11 13 12
REMARK SMILES IDX 14 13 15 14 21 15 17 16 19 17 16 18 18 20 20 22 23 24 5 26
REMARK SMILES IDX 8 28
REMARK H PARENT 16 19 18 21 20 23 23 25 5 27 8 29
REMARK Flexibility Score: inf
ROOT
ATOM      1  C   UNL     1      43.552  42.228   6.582  1.00  0.00     0.240 C 
ATOM      2  C   UNL     1      42.750  43.541   6.493  1.00  0.00     0.231 C 
ATOM      3  C   UNL     1      43.429  44.635   7.280  1.00  0.00     0.202 C 
ATOM      4  O   UNL     1      43.124  45.829   7.021  1.00  0.00    -0.291 OA
ATOM      5  C   UNL     1      44.306  44.298   8.439  1.00  0.00     0.105 A 
ATOM      6  C   UNL     1      44.946  45.263   9.265  1.00  0.00     0.133 A 
ATOM      7  C   UNL     1      45.579  44.853  10.445  1.00  0.00     0.093 A 
ATOM      8  C   UNL     1      45.635  43.500  10.796  1.00  0.00     0.123 A 
ATOM      9  C   UNL     1      45.067  42.544   9.955  1.00  0.00     0.093 A 
ATOM     10  C   UNL     1      44.425  42.933   8.778  1.00  0.00     0.138 A 
ATOM     11  O   UNL     1      43.894  41.949   7.940  1.00  0.00    -0.481 OA
ENDROOT
BRANCH   1  12
ATOM     12  C   UNL     1      42.773  41.069   6.007  1.00  0.00     0.003 A 
ATOM     13  C   UNL     1      41.777  41.294   5.047  1.00  0.00     0.058 A 
ATOM     14  C   UNL     1      41.032  40.225   4.531  1.00  0.00     0.161 A 
ATOM     15  C   UNL     1      43.002  39.760   6.460  1.00  0.00     0.058 A 
ATOM     16  C   UNL     1      41.271  38.916   4.975  1.00  0.00     0.200 A 
ATOM     17  C   UNL     1      42.266  38.683   5.953  1.00  0.00     0.161 A 
BRANCH  14  18
ATOM     18  O   UNL     1      40.047  40.457   3.572  1.00  0.00    -0.504 OA
ATOM     19  H   UNL     1      39.494  41.306   3.573  1.00  0.00     0.293 HD
ENDBRANCH  14  18
BRANCH  16  20
ATOM     20  O   UNL     1      40.503  37.888   4.424  1.00  0.00    -0.502 OA
ATOM     21  H   UNL     1      40.867  37.180   3.803  1.00  0.00     0.293 HD
ENDBRANCH  16  20
BRANCH  17  22
ATOM     22  O   UNL     1      42.554  37.410   6.448  1.00  0.00    -0.504 OA
ATOM     23  H   UNL     1      42.965  36.669   5.899  1.00  0.00     0.293 HD
ENDBRANCH  17  22
ENDBRANCH   1  12
BRANCH   2  24
ATOM     24  O   UNL     1      42.633  43.940   5.150  1.00  0.00    -0.381 OA
ATOM     25  H   UNL     1      42.037  44.734   5.136  1.00  0.00     0.211 HD
ENDBRANCH   2  24
BRANCH   6  26
ATOM     26  O   UNL     1      45.005  46.623   8.952  1.00  0.00    -0.507 OA
ATOM     27  H   UNL     1      44.309  47.110   8.409  1.00  0.00     0.293 HD
ENDBRANCH   6  26
BRANCH   8  28
ATOM     28  O   UNL     1      46.265  43.095  11.969  1.00  0.00    -0.508 OA
ATOM     29  H   UNL     1      47.118  43.538  12.293  1.00  0.00     0.293 HD
ENDBRANCH   8  28
TORSDOF 7
ENDMDL
MODEL 4
REMARK VINA RESULT:    -6.662      3.942      7.364
REMARK INTER + INTRA:          -8.063
REMARK INTER:                  -7.839
REMARK INTRA:                  -0.224
REMARK UNBOUND:                 0.157
REMARK SMILES O=C1c2c(O)cc(O)cc2O[C@@H](c2cc(O)c(O)c(O)c2)[C@@H]1O
REMARK SMILES IDX 12 1 22 2 2 3 1 4 3 5 4 6 6 7 7 8 9 9 10 10 11 11 13 12
REMARK SMILES IDX 14 13 15 14 21 15 17 16 19 17 16 18 18 20 20 22 23 24 5 26
REMARK SMILES IDX 8 28
REMARK H PARENT 16 19 18 21 20 23 23 25 5 27 8 29
REMARK Flexibility Score: inf
ROOT
ATOM      1  C   UNL     1      44.958  38.729  10.401  1.00  0.00     0.240 C 
ATOM      2  C   UNL     1      45.946  39.519  11.280  1.00  0.00     0.231 C 
ATOM      3  C   UNL     1      45.755  41.005  11.094  1.00  0.00     0.202 C 
ATOM      4  O   UNL     1      46.205  41.777  11.981  1.00  0.00    -0.291 OA
ATOM      5  C   UNL     1      45.200  41.540   9.817  1.00  0.00     0.105 A 
ATOM      6  C   UNL     1      45.030  42.924   9.536  1.00  0.00     0.133 A 
ATOM      7  C   UNL     1      44.695  43.331   8.239  1.00  0.00     0.093 A 
ATOM      8  C   UNL     1      44.472  42.390   7.227  1.00  0.00     0.123 A 
ATOM      9  C   UNL     1      44.572  41.030   7.515  1.00  0.00     0.093 A 
ATOM     10  C   UNL     1      44.913  40.604   8.800  1.00  0.00     0.138 A 
ATOM     11  O   UNL     1      44.972  39.234   9.066  1.00  0.00    -0.481 OA
ENDROOT
BRANCH   1  12
ATOM     12  C   UNL     1      45.290  37.255  10.390  1.00  0.00     0.003 A 
ATOM     13  C   UNL     1      44.282  36.305  10.183  1.00  0.00     0.058 A 
ATOM     14  C   UNL     1      44.580  34.936  10.200  1.00  0.00     0.161 A 
ATOM     15  C   UNL     1      46.601  36.818  10.636  1.00  0.00     0.058 A 
ATOM     16  C   UNL     1      45.892  34.500  10.432  1.00  0.00     0.200 A 
ATOM     17  C   UNL     1      46.913  35.454  10.655  1.00  0.00     0.161 A 
BRANCH  14  18
ATOM     18  O   UNL     1      43.571  33.997   9.986  1.00  0.00    -0.504 OA
ATOM     19  H   UNL     1      43.217  33.418  10.738  1.00  0.00     0.293 HD
ENDBRANCH  14  18
BRANCH  16  20
ATOM     20  O   UNL     1      46.135  33.125  10.434  1.00  0.00    -0.502 OA
ATOM     21  H   UNL     1      46.874  32.682  10.962  1.00  0.00     0.293 HD
ENDBRANCH  16  20
BRANCH  17  22
ATOM     22  O   UNL     1      48.241  35.095  10.901  1.00  0.00    -0.504 OA
ATOM     23  H   UNL     1      48.686  34.276  10.514  1.00  0.00     0.293 HD
ENDBRANCH  17  22
ENDBRANCH   1  12
BRANCH   2  24
ATOM     24  O   UNL     1      45.750  39.193  12.633  1.00  0.00    -0.381 OA
ATOM     25  H   UNL     1      46.615  39.347  13.096  1.00  0.00     0.211 HD
ENDBRANCH   2  24
BRANCH   6  26
ATOM     26  O   UNL     1      45.157  43.925  10.503  1.00  0.00    -0.507 OA
ATOM     27  H   UNL     1      45.964  44.522  10.597  1.00  0.00     0.293 HD
ENDBRANCH   6  26
BRANCH   8  28
ATOM     28  O   UNL     1      44.138  42.798   5.939  1.00  0.00    -0.508 OA
ATOM     29  H   UNL     1      44.317  42.208   5.133  1.00  0.00     0.293 HD
ENDBRANCH   8  28
TORSDOF 7
ENDMDL
MODEL 5
REMARK VINA RESULT:    -6.659      1.347      7.312
REMARK INTER + INTRA:          -8.059
REMARK INTER:                  -8.259
REMARK INTRA:                   0.201
REMARK UNBOUND:                 0.157
REMARK SMILES O=C1c2c(O)cc(O)cc2O[C@@H](c2cc(O)c(O)c(O)c2)[C@@H]1O
REMARK SMILES IDX 12 1 22 2 2 3 1 4 3 5 4 6 6 7 7 8 9 9 10 10 11 11 13 12
REMARK SMILES IDX 14 13 15 14 21 15 17 16 19 17 16 18 18 20 20 22 23 24 5 26
REMARK SMILES IDX 8 28
REMARK H PARENT 16 19 18 21 20 23 23 25 5 27 8 29
REMARK Flexibility Score: inf
ROOT
ATOM      1  C   UNL     1      43.520  42.238   6.651  1.00  0.00     0.240 C 
ATOM      2  C   UNL     1      42.712  43.548   6.565  1.00  0.00     0.231 C 
ATOM      3  C   UNL     1      43.399  44.650   7.335  1.00  0.00     0.202 C 
ATOM      4  O   UNL     1      43.086  45.840   7.073  1.00  0.00    -0.291 OA
ATOM      5  C   UNL     1      44.295  44.323   8.483  1.00  0.00     0.105 A 
ATOM      6  C   UNL     1      44.944  45.296   9.293  1.00  0.00     0.133 A 
ATOM      7  C   UNL     1      45.595  44.896  10.466  1.00  0.00     0.093 A 
ATOM      8  C   UNL     1      45.662  43.545  10.824  1.00  0.00     0.123 A 
ATOM      9  C   UNL     1      45.084  42.582   9.999  1.00  0.00     0.093 A 
ATOM     10  C   UNL     1      44.423  42.961   8.830  1.00  0.00     0.138 A 
ATOM     11  O   UNL     1      43.883  41.970   8.006  1.00  0.00    -0.481 OA
ENDROOT
BRANCH   1  12
ATOM     12  C   UNL     1      42.736  41.073   6.096  1.00  0.00     0.003 A 
ATOM     13  C   UNL     1      43.005  39.768   6.532  1.00  0.00     0.058 A 
ATOM     14  C   UNL     1      42.301  38.681   5.999  1.00  0.00     0.161 A 
ATOM     15  C   UNL     1      41.766  41.274   5.102  1.00  0.00     0.058 A 
ATOM     16  C   UNL     1      41.322  38.885   5.016  1.00  0.00     0.200 A 
ATOM     17  C   UNL     1      41.055  40.197   4.561  1.00  0.00     0.161 A 
BRANCH  14  18
ATOM     18  O   UNL     1      42.570  37.387   6.443  1.00  0.00    -0.504 OA
ATOM     19  H   UNL     1      42.785  36.637   5.797  1.00  0.00     0.293 HD
ENDBRANCH  14  18
BRANCH  16  20
ATOM     20  O   UNL     1      40.647  37.766   4.521  1.00  0.00    -0.502 OA
ATOM     21  H   UNL     1      40.804  37.369   3.606  1.00  0.00     0.293 HD
ENDBRANCH  16  20
BRANCH  17  22
ATOM     22  O   UNL     1      40.101  40.477   3.579  1.00  0.00    -0.504 OA
ATOM     23  H   UNL     1      39.174  40.825   3.775  1.00  0.00     0.293 HD
ENDBRANCH  17  22
ENDBRANCH   1  12
BRANCH   2  24
ATOM     24  O   UNL     1      42.573  43.937   5.222  1.00  0.00    -0.381 OA
ATOM     25  H   UNL     1      41.679  44.361   5.135  1.00  0.00     0.211 HD
ENDBRANCH   2  24
BRANCH   6  26
ATOM     26  O   UNL     1      44.994  46.654   8.970  1.00  0.00    -0.507 OA
ATOM     27  H   UNL     1      45.392  47.019   8.118  1.00  0.00     0.293 HD
ENDBRANCH   6  26
BRANCH   8  28
ATOM     28  O   UNL     1      46.311  43.151  11.991  1.00  0.00    -0.508 OA
ATOM     29  H   UNL     1      46.949  43.770  12.478  1.00  0.00     0.293 HD
ENDBRANCH   8  28
TORSDOF 7
ENDMDL
MODEL 6
REMARK VINA RESULT:    -6.592      2.265      4.341
REMARK INTER + INTRA:          -7.977
REMARK INTER:                  -7.796
REMARK INTRA:                  -0.181
REMARK UNBOUND:                 0.157
REMARK SMILES O=C1c2c(O)cc(O)cc2O[C@@H](c2cc(O)c(O)c(O)c2)[C@@H]1O
REMARK SMILES IDX 12 1 22 2 2 3 1 4 3 5 4 6 6 7 7 8 9 9 10 10 11 11 13 12
REMARK SMILES IDX 14 13 15 14 21 15 17 16 19 17 16 18 18 20 20 22 23 24 5 26
REMARK SMILES IDX 8 28
REMARK H PARENT 16 19 18 21 20 23 23 25 5 27 8 29
REMARK Flexibility Score: inf
ROOT
ATOM      1  C   UNL     1      45.264  45.424   9.303  1.00  0.00     0.240 C 
ATOM      2  C   UNL     1      45.330  44.561  10.577  1.00  0.00     0.231 C 
ATOM      3  C   UNL     1      45.462  43.099  10.225  1.00  0.00     0.202 C 
ATOM      4  O   UNL     1      45.890  42.312  11.108  1.00  0.00    -0.291 OA
ATOM      5  C   UNL     1      44.940  42.586   8.924  1.00  0.00     0.105 A 
ATOM      6  C   UNL     1      44.978  41.220   8.530  1.00  0.00     0.133 A 
ATOM      7  C   UNL     1      44.282  40.811   7.385  1.00  0.00     0.093 A 
ATOM      8  C   UNL     1      43.594  41.738   6.595  1.00  0.00     0.123 A 
ATOM      9  C   UNL     1      43.609  43.088   6.941  1.00  0.00     0.093 A 
ATOM     10  C   UNL     1      44.290  43.515   8.082  1.00  0.00     0.138 A 
ATOM     11  O   UNL     1      44.316  44.879   8.385  1.00  0.00    -0.481 OA
ENDROOT
BRANCH   1  12
ATOM     12  C   UNL     1      44.893  46.852   9.626  1.00  0.00     0.003 A 
ATOM     13  C   UNL     1      43.580  47.303   9.433  1.00  0.00     0.058 A 
ATOM     14  C   UNL     1      43.237  48.634   9.704  1.00  0.00     0.161 A 
ATOM     15  C   UNL     1      45.867  47.758  10.077  1.00  0.00     0.058 A 
ATOM     16  C   UNL     1      44.208  49.534  10.167  1.00  0.00     0.200 A 
ATOM     17  C   UNL     1      45.538  49.090  10.352  1.00  0.00     0.161 A 
BRANCH  14  18
ATOM     18  O   UNL     1      41.927  49.072   9.515  1.00  0.00    -0.504 OA
ATOM     19  H   UNL     1      41.165  48.733  10.091  1.00  0.00     0.293 HD
ENDBRANCH  14  18
BRANCH  16  20
ATOM     20  O   UNL     1      43.811  50.849  10.427  1.00  0.00    -0.502 OA
ATOM     21  H   UNL     1      44.055  51.358  11.263  1.00  0.00     0.293 HD
ENDBRANCH  16  20
BRANCH  17  22
ATOM     22  O   UNL     1      46.559  49.931  10.802  1.00  0.00    -0.504 OA
ATOM     23  H   UNL     1      46.859  49.991  11.764  1.00  0.00     0.293 HD
ENDBRANCH  17  22
ENDBRANCH   1  12
BRANCH   2  24
ATOM     24  O   UNL     1      46.429  44.949  11.363  1.00  0.00    -0.381 OA
ATOM     25  H   UNL     1      46.267  44.599  12.278  1.00  0.00     0.211 HD
ENDBRANCH   2  24
BRANCH   6  26
ATOM     26  O   UNL     1      45.704  40.243   9.216  1.00  0.00    -0.507 OA
ATOM     27  H   UNL     1      45.301  39.606   9.886  1.00  0.00     0.293 HD
ENDBRANCH   6  26
BRANCH   8  28
ATOM     28  O   UNL     1      42.904  41.328   5.457  1.00  0.00    -0.508 OA
ATOM     29  H   UNL     1      43.031  40.402   5.065  1.00  0.00     0.293 HD
ENDBRANCH   8  28
TORSDOF 7
ENDMDL
MODEL 7
REMARK VINA RESULT:    -6.580      2.514      5.078
REMARK INTER + INTRA:          -7.962
REMARK INTER:                  -8.153
REMARK INTRA:                   0.192
REMARK UNBOUND:                 0.157
REMARK SMILES O=C1c2c(O)cc(O)cc2O[C@@H](c2cc(O)c(O)c(O)c2)[C@@H]1O
REMARK SMILES IDX 12 1 22 2 2 3 1 4 3 5 4 6 6 7 7 8 9 9 10 10 11 11 13 12
REMARK SMILES IDX 14 13 15 14 21 15 17 16 19 17 16 18 18 20 20 22 23 24 5 26
REMARK SMILES IDX 8 28
REMARK H PARENT 16 19 18 21 20 23 23 25 5 27 8 29
REMARK Flexibility Score: inf
ROOT
ATOM      1  C   UNL     1      43.858  41.392   6.991  1.00  0.00     0.240 C 
ATOM      2  C   UNL     1      42.646  40.800   6.246  1.00  0.00     0.231 C 
ATOM      3  C   UNL     1      42.007  41.838   5.355  1.00  0.00     0.202 C 
ATOM      4  O   UNL     1      41.260  41.441   4.423  1.00  0.00    -0.291 OA
ATOM      5  C   UNL     1      42.128  43.289   5.681  1.00  0.00     0.105 A 
ATOM      6  C   UNL     1      41.521  44.331   4.928  1.00  0.00     0.133 A 
ATOM      7  C   UNL     1      41.523  45.638   5.428  1.00  0.00     0.093 A 
ATOM      8  C   UNL     1      42.161  45.943   6.636  1.00  0.00     0.123 A 
ATOM      9  C   UNL     1      42.815  44.937   7.345  1.00  0.00     0.093 A 
ATOM     10  C   UNL     1      42.818  43.625   6.866  1.00  0.00     0.138 A 
ATOM     11  O   UNL     1      43.510  42.645   7.582  1.00  0.00    -0.481 OA
ENDROOT
BRANCH   1  12
ATOM     12  C   UNL     1      44.360  40.450   8.059  1.00  0.00     0.003 A 
ATOM     13  C   UNL     1      44.045  39.086   8.003  1.00  0.00     0.058 A 
ATOM     14  C   UNL     1      44.485  38.212   9.006  1.00  0.00     0.161 A 
ATOM     15  C   UNL     1      45.105  40.935   9.145  1.00  0.00     0.058 A 
ATOM     16  C   UNL     1      45.241  38.695  10.084  1.00  0.00     0.200 A 
ATOM     17  C   UNL     1      45.552  40.073  10.154  1.00  0.00     0.161 A 
BRANCH  14  18
ATOM     18  O   UNL     1      44.172  36.855   8.938  1.00  0.00    -0.504 OA
ATOM     19  H   UNL     1      44.543  36.260   8.207  1.00  0.00     0.293 HD
ENDBRANCH  14  18
BRANCH  16  20
ATOM     20  O   UNL     1      45.657  37.780  11.054  1.00  0.00    -0.502 OA
ATOM     21  H   UNL     1      45.053  37.398  11.767  1.00  0.00     0.293 HD
ENDBRANCH  16  20
BRANCH  17  22
ATOM     22  O   UNL     1      46.292  40.628  11.200  1.00  0.00    -0.504 OA
ATOM     23  H   UNL     1      47.144  40.226  11.564  1.00  0.00     0.293 HD
ENDBRANCH  17  22
ENDBRANCH   1  12
BRANCH   2  24
ATOM     24  O   UNL     1      43.053  39.705   5.464  1.00  0.00    -0.381 OA
ATOM     25  H   UNL     1      42.595  38.903   5.830  1.00  0.00     0.211 HD
ENDBRANCH   2  24
BRANCH   6  26
ATOM     26  O   UNL     1      40.929  44.130   3.678  1.00  0.00    -0.507 OA
ATOM     27  H   UNL     1      40.002  43.758   3.544  1.00  0.00     0.293 HD
ENDBRANCH   6  26
BRANCH   8  28
ATOM     28  O   UNL     1      42.163  47.244   7.131  1.00  0.00    -0.508 OA
ATOM     29  H   UNL     1      42.109  47.433   8.125  1.00  0.00     0.293 HD
ENDBRANCH   8  28
TORSDOF 7
ENDMDL
MODEL 8
REMARK VINA RESULT:    -6.557      2.455      6.311
REMARK INTER + INTRA:          -7.933
REMARK INTER:                  -8.144
REMARK INTRA:                   0.212
REMARK UNBOUND:                 0.157
REMARK SMILES O=C1c2c(O)cc(O)cc2O[C@@H](c2cc(O)c(O)c(O)c2)[C@@H]1O
REMARK SMILES IDX 12 1 22 2 2 3 1 4 3 5 4 6 6 7 7 8 9 9 10 10 11 11 13 12
REMARK SMILES IDX 14 13 15 14 21 15 17 16 19 17 16 18 18 20 20 22 23 24 5 26
REMARK SMILES IDX 8 28
REMARK H PARENT 16 19 18 21 20 23 23 25 5 27 8 29
REMARK Flexibility Score: inf
ROOT
ATOM      1  C   UNL     1      44.196  41.012   7.309  1.00  0.00     0.240 C 
ATOM      2  C   UNL     1      44.456  41.867   8.564  1.00  0.00     0.231 C 
ATOM      3  C   UNL     1      45.239  41.085   9.590  1.00  0.00     0.202 C 
ATOM      4  O   UNL     1      45.842  41.724  10.490  1.00  0.00    -0.291 OA
ATOM      5  C   UNL     1      45.156  39.595   9.627  1.00  0.00     0.105 A 
ATOM      6  C   UNL     1      45.820  38.781  10.586  1.00  0.00     0.133 A 
ATOM      7  C   UNL     1      45.517  37.416  10.662  1.00  0.00     0.093 A 
ATOM      8  C   UNL     1      44.610  36.832   9.771  1.00  0.00     0.123 A 
ATOM      9  C   UNL     1      44.007  37.613   8.787  1.00  0.00     0.093 A 
ATOM     10  C   UNL     1      44.289  38.977   8.699  1.00  0.00     0.138 A 
ATOM     11  O   UNL     1      43.696  39.728   7.681  1.00  0.00    -0.481 OA
ENDROOT
BRANCH   1  12
ATOM     12  C   UNL     1      43.217  41.688   6.378  1.00  0.00     0.003 A 
ATOM     13  C   UNL     1      43.124  43.085   6.344  1.00  0.00     0.058 A 
ATOM     14  C   UNL     1      42.198  43.716   5.502  1.00  0.00     0.161 A 
ATOM     15  C   UNL     1      42.356  40.925   5.573  1.00  0.00     0.058 A 
ATOM     16  C   UNL     1      41.347  42.954   4.689  1.00  0.00     0.200 A 
ATOM     17  C   UNL     1      41.426  41.542   4.728  1.00  0.00     0.161 A 
BRANCH  14  18
ATOM     18  O   UNL     1      42.116  45.108   5.470  1.00  0.00    -0.504 OA
ATOM     19  H   UNL     1      42.531  45.681   6.194  1.00  0.00     0.293 HD
ENDBRANCH  14  18
BRANCH  16  20
ATOM     20  O   UNL     1      40.445  43.634   3.866  1.00  0.00    -0.502 OA
ATOM     21  H   UNL     1      40.011  44.513   4.108  1.00  0.00     0.293 HD
ENDBRANCH  16  20
BRANCH  17  22
ATOM     22  O   UNL     1      40.606  40.718   3.953  1.00  0.00    -0.504 OA
ATOM     23  H   UNL     1      39.600  40.794   3.919  1.00  0.00     0.293 HD
ENDBRANCH  17  22
ENDBRANCH   1  12
BRANCH   2  24
ATOM     24  O   UNL     1      45.176  43.023   8.215  1.00  0.00    -0.381 OA
ATOM     25  H   UNL     1      45.730  43.267   9.002  1.00  0.00     0.211 HD
ENDBRANCH   2  24
BRANCH   6  26
ATOM     26  O   UNL     1      46.796  39.265  11.461  1.00  0.00    -0.507 OA
ATOM     27  H   UNL     1      46.866  39.001  12.431  1.00  0.00     0.293 HD
ENDBRANCH   6  26
BRANCH   8  28
ATOM     28  O   UNL     1      44.311  35.474   9.849  1.00  0.00    -0.508 OA
ATOM     29  H   UNL     1      43.683  35.030   9.188  1.00  0.00     0.293 HD
ENDBRANCH   8  28
TORSDOF 7
ENDMDL
MODEL 9
REMARK VINA RESULT:    -6.479      3.171      8.586
REMARK INTER + INTRA:          -7.837
REMARK INTER:                  -7.492
REMARK INTRA:                  -0.344
REMARK UNBOUND:                 0.157
REMARK SMILES O=C1c2c(O)cc(O)cc2O[C@@H](c2cc(O)c(O)c(O)c2)[C@@H]1O
REMARK SMILES IDX 12 1 22 2 2 3 1 4 3 5 4 6 6 7 7 8 9 9 10 10 11 11 13 12
REMARK SMILES IDX 14 13 15 14 21 15 17 16 19 17 16 18 18 20 20 22 23 24 5 26
REMARK SMILES IDX 8 28
REMARK H PARENT 16 19 18 21 20 23 23 25 5 27 8 29
REMARK Flexibility Score: inf
ROOT
ATOM      1  C   UNL     1      41.780  38.379   5.221  1.00  0.00     0.240 C 
ATOM      2  C   UNL     1      40.857  39.573   4.911  1.00  0.00     0.231 C 
ATOM      3  C   UNL     1      41.599  40.878   5.077  1.00  0.00     0.202 C 
ATOM      4  O   UNL     1      41.125  41.904   4.523  1.00  0.00    -0.291 OA
ATOM      5  C   UNL     1      42.762  40.971   6.007  1.00  0.00     0.105 A 
ATOM      6  C   UNL     1      43.488  42.167   6.261  1.00  0.00     0.133 A 
ATOM      7  C   UNL     1      44.428  42.199   7.298  1.00  0.00     0.093 A 
ATOM      8  C   UNL     1      44.700  41.054   8.054  1.00  0.00     0.123 A 
ATOM      9  C   UNL     1      44.039  39.861   7.765  1.00  0.00     0.093 A 
ATOM     10  C   UNL     1      43.093  39.811   6.740  1.00  0.00     0.138 A 
ATOM     11  O   UNL     1      42.470  38.594   6.452  1.00  0.00    -0.481 OA
ENDROOT
BRANCH   1  12
ATOM     12  C   UNL     1      41.000  37.087   5.295  1.00  0.00     0.003 A 
ATOM     13  C   UNL     1      40.294  36.754   6.459  1.00  0.00     0.058 A 
ATOM     14  C   UNL     1      39.592  35.545   6.543  1.00  0.00     0.161 A 
ATOM     15  C   UNL     1      41.013  36.184   4.221  1.00  0.00     0.058 A 
ATOM     16  C   UNL     1      39.594  34.648   5.465  1.00  0.00     0.200 A 
ATOM     17  C   UNL     1      40.316  34.972   4.292  1.00  0.00     0.161 A 
BRANCH  14  18
ATOM     18  O   UNL     1      38.887  35.224   7.703  1.00  0.00    -0.504 OA
ATOM     19  H   UNL     1      37.890  35.048   7.686  1.00  0.00     0.293 HD
ENDBRANCH  14  18
BRANCH  16  20
ATOM     20  O   UNL     1      38.875  33.459   5.600  1.00  0.00    -0.502 OA
ATOM     21  H   UNL     1      37.871  33.413   5.702  1.00  0.00     0.293 HD
ENDBRANCH  16  20
BRANCH  17  22
ATOM     22  O   UNL     1      40.371  34.126   3.182  1.00  0.00    -0.504 OA
ATOM     23  H   UNL     1      41.086  33.428   3.038  1.00  0.00     0.293 HD
ENDBRANCH  17  22
ENDBRANCH   1  12
BRANCH   2  24
ATOM     24  O   UNL     1      40.375  39.478   3.595  1.00  0.00    -0.381 OA
ATOM     25  H   UNL     1      40.687  38.607   3.235  1.00  0.00     0.211 HD
ENDBRANCH   2  24
BRANCH   6  26
ATOM     26  O   UNL     1      43.336  43.333   5.505  1.00  0.00    -0.507 OA
ATOM     27  H   UNL     1      43.796  43.500   4.624  1.00  0.00     0.293 HD
ENDBRANCH   6  26
BRANCH   8  28
ATOM     28  O   UNL     1      45.636  41.088   9.085  1.00  0.00    -0.508 OA
ATOM     29  H   UNL     1      45.815  40.276   9.666  1.00  0.00     0.293 HD
ENDBRANCH   8  28
TORSDOF 7
ENDMDL
