MODEL 1
REMARK VINA RESULT:    -4.895      0.000      0.000
REMARK INTER + INTRA:          -5.370
REMARK INTER:                  -5.181
REMARK INTRA:                  -0.189
REMARK UNBOUND:                -0.189
REMARK SMILES CC1=CC[C@@H](C(C)C)C=C1
REMARK SMILES IDX 1 1 2 2 3 3 4 4 5 5 9 6 10 7 6 8 7 9 8 10
REMARK H PARENT
REMARK Flexibility Score: inf
ROOT
ATOM      1  C   UNL     1     140.190 145.879 165.048  1.00  0.00     0.044 C 
ATOM      2  C   UNL     1     140.636 146.382 163.708  1.00  0.00    -0.055 C 
ATOM      3  C   UNL     1     141.504 147.403 163.623  1.00  0.00    -0.023 C 
ATOM      4  C   UNL     1     142.075 147.818 162.292  1.00  0.00     0.035 C 
ATOM      5  C   UNL     1     141.037 147.622 161.160  1.00  0.00     0.018 C 
ATOM      6  C   UNL     1     140.392 146.254 161.273  1.00  0.00    -0.023 C 
ATOM      7  C   UNL     1     140.168 145.710 162.474  1.00  0.00    -0.001 C 
ENDROOT
BRANCH   5   8
ATOM      8  C   UNL     1     141.637 147.915 159.754  1.00  0.00    -0.010 C 
ATOM      9  C   UNL     1     142.914 148.775 159.794  1.00  0.00     0.008 C 
ATOM     10  C   UNL     1     141.901 146.616 158.977  1.00  0.00     0.008 C 
ENDBRANCH   5   8
TORSDOF 1
ENDMDL
MODEL 2
REMARK VINA RESULT:    -4.860      6.049      6.619
REMARK INTER + INTRA:          -5.333
REMARK INTER:                  -5.143
REMARK INTRA:                  -0.190
REMARK UNBOUND:                -0.189
REMARK SMILES CC1=CC[C@@H](C(C)C)C=C1
REMARK SMILES IDX 1 1 2 2 3 3 4 4 5 5 9 6 10 7 6 8 7 9 8 10
REMARK H PARENT
REMARK Flexibility Score: inf
ROOT
ATOM      1  C   UNL     1     145.849 150.651 164.944  1.00  0.00     0.044 C 
ATOM      2  C   UNL     1     146.397 150.138 163.646  1.00  0.00    -0.055 C 
ATOM      3  C   UNL     1     147.377 149.220 163.641  1.00  0.00    -0.023 C 
ATOM      4  C   UNL     1     147.830 148.588 162.350  1.00  0.00     0.035 C 
ATOM      5  C   UNL     1     147.744 149.597 161.180  1.00  0.00     0.018 C 
ATOM      6  C   UNL     1     146.405 150.311 161.202  1.00  0.00    -0.023 C 
ATOM      7  C   UNL     1     145.812 150.599 162.365  1.00  0.00    -0.001 C 
ENDROOT
BRANCH   5   8
ATOM      8  C   UNL     1     148.078 148.940 159.809  1.00  0.00    -0.010 C 
ATOM      9  C   UNL     1     148.719 147.545 159.933  1.00  0.00     0.008 C 
ATOM     10  C   UNL     1     146.838 148.871 158.905  1.00  0.00     0.008 C 
ENDBRANCH   5   8
TORSDOF 1
ENDMDL
MODEL 3
REMARK VINA RESULT:    -4.856      8.502      9.279
REMARK INTER + INTRA:          -5.328
REMARK INTER:                  -5.139
REMARK INTRA:                  -0.190
REMARK UNBOUND:                -0.189
REMARK SMILES CC1=CC[C@@H](C(C)C)C=C1
REMARK SMILES IDX 1 1 2 2 3 3 4 4 5 5 9 6 10 7 6 8 7 9 8 10
REMARK H PARENT
REMARK Flexibility Score: inf
ROOT
ATOM      1  C   UNL     1     150.634 144.871 165.074  1.00  0.00     0.044 C 
ATOM      2  C   UNL     1     150.148 144.346 163.756  1.00  0.00    -0.055 C 
ATOM      3  C   UNL     1     149.284 143.318 163.714  1.00  0.00    -0.023 C 
ATOM      4  C   UNL     1     148.674 142.881 162.407  1.00  0.00     0.035 C 
ATOM      5  C   UNL     1     149.674 143.068 161.241  1.00  0.00     0.018 C 
ATOM      6  C   UNL     1     150.313 144.442 161.313  1.00  0.00    -0.023 C 
ATOM      7  C   UNL     1     150.572 145.004 162.499  1.00  0.00    -0.001 C 
ENDROOT
BRANCH   5   8
ATOM      8  C   UNL     1     149.031 142.752 159.858  1.00  0.00    -0.010 C 
ATOM      9  C   UNL     1     147.699 141.984 159.958  1.00  0.00     0.008 C 
ATOM     10  C   UNL     1     148.843 144.028 159.024  1.00  0.00     0.008 C 
ENDBRANCH   5   8
TORSDOF 1
ENDMDL
MODEL 4
REMARK VINA RESULT:    -4.855      5.846      6.449
REMARK INTER + INTRA:          -5.328
REMARK INTER:                  -5.138
REMARK INTRA:                  -0.190
REMARK UNBOUND:                -0.189
REMARK SMILES CC1=CC[C@@H](C(C)C)C=C1
REMARK SMILES IDX 1 1 2 2 3 3 4 4 5 5 9 6 10 7 6 8 7 9 8 10
REMARK H PARENT
REMARK Flexibility Score: inf
ROOT
ATOM      1  C   UNL     1     144.907 140.116 164.922  1.00  0.00     0.044 C 
ATOM      2  C   UNL     1     144.357 140.633 163.627  1.00  0.00    -0.055 C 
ATOM      3  C   UNL     1     143.379 141.553 163.626  1.00  0.00    -0.023 C 
ATOM      4  C   UNL     1     142.923 142.188 162.338  1.00  0.00     0.035 C 
ATOM      5  C   UNL     1     143.006 141.182 161.165  1.00  0.00     0.018 C 
ATOM      6  C   UNL     1     144.344 140.467 161.182  1.00  0.00    -0.023 C 
ATOM      7  C   UNL     1     144.938 140.175 162.344  1.00  0.00    -0.001 C 
ENDROOT
BRANCH   5   8
ATOM      8  C   UNL     1     142.670 141.844 159.797  1.00  0.00    -0.010 C 
ATOM      9  C   UNL     1     142.022 143.236 159.926  1.00  0.00     0.008 C 
ATOM     10  C   UNL     1     143.911 141.922 158.894  1.00  0.00     0.008 C 
ENDBRANCH   5   8
TORSDOF 1
ENDMDL
MODEL 5
REMARK VINA RESULT:    -4.823      5.058      6.389
REMARK INTER + INTRA:          -5.294
REMARK INTER:                  -5.105
REMARK INTRA:                  -0.189
REMARK UNBOUND:                -0.189
REMARK SMILES CC1=CC[C@@H](C(C)C)C=C1
REMARK SMILES IDX 1 1 2 2 3 3 4 4 5 5 9 6 10 7 6 8 7 9 8 10
REMARK H PARENT
REMARK Flexibility Score: inf
ROOT
ATOM      1  C   UNL     1     141.742 145.709 163.836  1.00  0.00     0.044 C 
ATOM      2  C   UNL     1     142.428 144.378 163.747  1.00  0.00    -0.055 C 
ATOM      3  C   UNL     1     142.496 143.729 162.573  1.00  0.00    -0.023 C 
ATOM      4  C   UNL     1     143.309 142.468 162.439  1.00  0.00     0.035 C 
ATOM      5  C   UNL     1     143.272 141.644 163.749  1.00  0.00     0.018 C 
ATOM      6  C   UNL     1     143.532 142.545 164.941  1.00  0.00    -0.023 C 
ATOM      7  C   UNL     1     143.087 143.807 164.944  1.00  0.00    -0.001 C 
ENDROOT
BRANCH   5   8
ATOM      8  C   UNL     1     144.210 140.402 163.690  1.00  0.00    -0.010 C 
ATOM      9  C   UNL     1     145.318 140.515 162.626  1.00  0.00     0.008 C 
ATOM     10  C   UNL     1     144.826 140.102 165.064  1.00  0.00     0.008 C 
ENDBRANCH   5   8
TORSDOF 1
ENDMDL
MODEL 6
REMARK VINA RESULT:    -4.821      5.934      7.266
REMARK INTER + INTRA:          -5.292
REMARK INTER:                  -5.103
REMARK INTRA:                  -0.189
REMARK UNBOUND:                -0.189
REMARK SMILES CC1=CC[C@@H](C(C)C)C=C1
REMARK SMILES IDX 1 1 2 2 3 3 4 4 5 5 9 6 10 7 6 8 7 9 8 10
REMARK H PARENT
REMARK Flexibility Score: inf
ROOT
ATOM      1  C   UNL     1     148.944 145.008 163.828  1.00  0.00     0.044 C 
ATOM      2  C   UNL     1     148.289 146.356 163.767  1.00  0.00    -0.055 C 
ATOM      3  C   UNL     1     148.237 147.031 162.607  1.00  0.00    -0.023 C 
ATOM      4  C   UNL     1     147.453 148.313 162.499  1.00  0.00     0.035 C 
ATOM      5  C   UNL     1     147.508 149.108 163.825  1.00  0.00     0.018 C 
ATOM      6  C   UNL     1     147.227 148.188 164.999  1.00  0.00    -0.023 C 
ATOM      7  C   UNL     1     147.642 146.917 164.975  1.00  0.00    -0.001 C 
ENDROOT
BRANCH   5   8
ATOM      8  C   UNL     1     146.599 150.372 163.792  1.00  0.00    -0.010 C 
ATOM      9  C   UNL     1     145.502 150.316 162.713  1.00  0.00     0.008 C 
ATOM     10  C   UNL     1     145.972 150.645 165.168  1.00  0.00     0.008 C 
ENDBRANCH   5   8
TORSDOF 1
ENDMDL
MODEL 7
REMARK VINA RESULT:    -4.763      1.945      4.469
REMARK INTER + INTRA:          -5.230
REMARK INTER:                  -5.042
REMARK INTRA:                  -0.188
REMARK UNBOUND:                -0.189
REMARK SMILES CC1=CC[C@@H](C(C)C)C=C1
REMARK SMILES IDX 1 1 2 2 3 3 4 4 5 5 9 6 10 7 6 8 7 9 8 10
REMARK H PARENT
REMARK Flexibility Score: inf
ROOT
ATOM      1  C   UNL     1     145.697 149.041 163.770  1.00  0.00     0.044 C 
ATOM      2  C   UNL     1     144.376 148.337 163.688  1.00  0.00    -0.055 C 
ATOM      3  C   UNL     1     143.701 148.297 162.528  1.00  0.00    -0.023 C 
ATOM      4  C   UNL     1     142.451 147.467 162.395  1.00  0.00     0.035 C 
ATOM      5  C   UNL     1     141.658 147.446 163.723  1.00  0.00     0.018 C 
ATOM      6  C   UNL     1     142.590 147.162 164.886  1.00  0.00    -0.023 C 
ATOM      7  C   UNL     1     143.844 147.627 164.874  1.00  0.00    -0.001 C 
ENDROOT
BRANCH   5   8
ATOM      8  C   UNL     1     140.430 146.490 163.661  1.00  0.00    -0.010 C 
ATOM      9  C   UNL     1     140.568 145.375 162.608  1.00  0.00     0.008 C 
ATOM     10  C   UNL     1     140.126 145.880 165.038  1.00  0.00     0.008 C 
ENDBRANCH   5   8
TORSDOF 1
ENDMDL
MODEL 8
REMARK VINA RESULT:    -4.674      7.931      8.499
REMARK INTER + INTRA:          -5.136
REMARK INTER:                  -4.951
REMARK INTRA:                  -0.185
REMARK UNBOUND:                -0.189
REMARK SMILES CC1=CC[C@@H](C(C)C)C=C1
REMARK SMILES IDX 1 1 2 2 3 3 4 4 5 5 9 6 10 7 6 8 7 9 8 10
REMARK H PARENT
REMARK Flexibility Score: inf
ROOT
ATOM      1  C   UNL     1     145.108 141.829 164.679  1.00  0.00     0.044 C 
ATOM      2  C   UNL     1     146.395 142.472 164.257  1.00  0.00    -0.055 C 
ATOM      3  C   UNL     1     146.814 142.376 162.985  1.00  0.00    -0.023 C 
ATOM      4  C   UNL     1     148.024 143.141 162.515  1.00  0.00     0.035 C 
ATOM      5  C   UNL     1     149.077 143.259 163.643  1.00  0.00     0.018 C 
ATOM      6  C   UNL     1     148.412 143.687 164.937  1.00  0.00    -0.023 C 
ATOM      7  C   UNL     1     147.175 143.270 165.231  1.00  0.00    -0.001 C 
ENDROOT
BRANCH   5   8
ATOM      8  C   UNL     1     150.281 144.157 163.233  1.00  0.00    -0.010 C 
ATOM      9  C   UNL     1     149.896 145.316 162.295  1.00  0.00     0.008 C 
ATOM     10  C   UNL     1     151.018 144.700 164.467  1.00  0.00     0.008 C 
ENDBRANCH   5   8
TORSDOF 1
ENDMDL
MODEL 9
REMARK VINA RESULT:    -4.672      8.322      8.954
REMARK INTER + INTRA:          -5.134
REMARK INTER:                  -4.944
REMARK INTRA:                  -0.190
REMARK UNBOUND:                -0.189
REMARK SMILES CC1=CC[C@@H](C(C)C)C=C1
REMARK SMILES IDX 1 1 2 2 3 3 4 4 5 5 9 6 10 7 6 8 7 9 8 10
REMARK H PARENT
REMARK Flexibility Score: inf
ROOT
ATOM      1  C   UNL     1     150.704 144.809 165.155  1.00  0.00     0.044 C 
ATOM      2  C   UNL     1     150.158 144.434 163.810  1.00  0.00    -0.055 C 
ATOM      3  C   UNL     1     150.637 145.016 162.698  1.00  0.00    -0.023 C 
ATOM      4  C   UNL     1     150.204 144.542 161.335  1.00  0.00     0.035 C 
ATOM      5  C   UNL     1     148.732 144.067 161.357  1.00  0.00     0.018 C 
ATOM      6  C   UNL     1     148.492 143.157 162.546  1.00  0.00    -0.023 C 
ATOM      7  C   UNL     1     149.131 143.372 163.701  1.00  0.00    -0.001 C 
ENDROOT
BRANCH   5   8
ATOM      8  C   UNL     1     148.293 143.446 159.998  1.00  0.00    -0.010 C 
ATOM      9  C   UNL     1     149.455 143.248 159.006  1.00  0.00     0.008 C 
ATOM     10  C   UNL     1     147.544 142.121 160.205  1.00  0.00     0.008 C 
ENDBRANCH   5   8
TORSDOF 1
ENDMDL
