MODEL 1
REMARK VINA RESULT:    -4.354      0.000      0.000
REMARK INTER + INTRA:          -9.380
REMARK INTER:                  -8.172
REMARK INTRA:                  -1.209
REMARK UNBOUND:                -1.209
REMARK SMILES O=C([O-])CCCCCCCCCCCCCCC(=O)[O-]
REMARK SMILES IDX 10 1 9 2 8 3 7 4 6 5 5 6 4 7 2 8 1 9 3 10 11 11 12 12 13 13
REMARK SMILES IDX 14 14 15 15 16 16 17 17 18 18 19 19 20 20
REMARK H PARENT
REMARK Flexibility Score: inf
ROOT
ATOM      1  C   UNL     1      44.165  66.648  49.277  1.00  0.00     0.000 C 
ENDROOT
BRANCH   1   2
ATOM      2  C   UNL     1      43.318  67.907  49.015  1.00  0.00     0.000 C 
BRANCH   2   3
ATOM      3  C   UNL     1      41.805  67.730  49.237  1.00  0.00     0.000 C 
BRANCH   3   4
ATOM      4  C   UNL     1      40.997  67.767  47.931  1.00  0.00     0.000 C 
BRANCH   4   5
ATOM      5  C   UNL     1      40.175  66.482  47.759  1.00  0.00     0.000 C 
BRANCH   5   6
ATOM      6  C   UNL     1      40.968  65.359  47.070  1.00  0.00     0.006 C 
BRANCH   6   7
ATOM      7  C   UNL     1      41.547  65.790  45.716  1.00  0.00     0.053 C 
BRANCH   7   8
ATOM      8  C   UNL     1      42.998  65.438  45.634  1.00  0.00     0.041 C 
ATOM      9  O   UNL     1      43.877  66.299  45.904  1.00  0.00    -0.550 OA
ATOM     10  O   UNL     1      43.383  64.144  45.305  1.00  0.00    -0.550 OA
ENDBRANCH   7   8
ENDBRANCH   6   7
ENDBRANCH   5   6
ENDBRANCH   4   5
ENDBRANCH   3   4
ENDBRANCH   2   3
ENDBRANCH   1   2
BRANCH   1  11
ATOM     11  C   UNL     1      45.068  66.779  50.512  1.00  0.00     0.000 C 
BRANCH  11  12
ATOM     12  C   UNL     1      45.373  65.404  51.119  1.00  0.00     0.000 C 
BRANCH  12  13
ATOM     13  C   UNL     1      44.585  65.194  52.421  1.00  0.00     0.000 C 
BRANCH  13  14
ATOM     14  C   UNL     1      43.701  66.399  52.781  1.00  0.00     0.000 C 
BRANCH  14  15
ATOM     15  C   UNL     1      42.647  66.062  53.845  1.00  0.00     0.000 C 
BRANCH  15  16
ATOM     16  C   UNL     1      42.936  64.699  54.494  1.00  0.00     0.006 C 
BRANCH  16  17
ATOM     17  C   UNL     1      42.775  64.736  56.019  1.00  0.00     0.053 C 
BRANCH  17  18
ATOM     18  C   UNL     1      43.883  64.003  56.712  1.00  0.00     0.041 C 
ATOM     19  O   UNL     1      44.360  64.446  57.789  1.00  0.00    -0.550 OA
ATOM     20  O   UNL     1      44.409  62.848  56.149  1.00  0.00    -0.550 OA
ENDBRANCH  17  18
ENDBRANCH  16  17
ENDBRANCH  15  16
ENDBRANCH  14  15
ENDBRANCH  13  14
ENDBRANCH  12  13
ENDBRANCH  11  12
ENDBRANCH   1  11
TORSDOF 15
ENDMDL
MODEL 2
REMARK VINA RESULT:    -4.297      2.254      8.496
REMARK INTER + INTRA:          -9.274
REMARK INTER:                  -8.097
REMARK INTRA:                  -1.177
REMARK UNBOUND:                -1.209
REMARK SMILES O=C([O-])CCCCCCCCCCCCCCC(=O)[O-]
REMARK SMILES IDX 10 1 9 2 8 3 7 4 6 5 5 6 4 7 2 8 1 9 3 10 11 11 12 12 13 13
REMARK SMILES IDX 14 14 15 15 16 16 17 17 18 18 19 19 20 20
REMARK H PARENT
REMARK Flexibility Score: inf
ROOT
ATOM      1  C   UNL     1      43.709  66.095  52.900  1.00  0.00     0.000 C 
ENDROOT
BRANCH   1   2
ATOM      2  C   UNL     1      42.887  65.260  53.899  1.00  0.00     0.000 C 
BRANCH   2   3
ATOM      3  C   UNL     1      43.664  64.127  54.593  1.00  0.00     0.000 C 
BRANCH   3   4
ATOM      4  C   UNL     1      43.569  64.184  56.125  1.00  0.00     0.000 C 
BRANCH   4   5
ATOM      5  C   UNL     1      42.861  65.469  56.583  1.00  0.00     0.000 C 
BRANCH   5   6
ATOM      6  C   UNL     1      41.685  65.191  57.533  1.00  0.00     0.006 C 
BRANCH   6   7
ATOM      7  C   UNL     1      40.724  64.128  56.987  1.00  0.00     0.053 C 
BRANCH   7   8
ATOM      8  C   UNL     1      39.663  64.766  56.146  1.00  0.00     0.041 C 
ATOM      9  O   UNL     1      39.652  64.593  54.899  1.00  0.00    -0.550 OA
ATOM     10  O   UNL     1      38.657  65.514  56.746  1.00  0.00    -0.550 OA
ENDBRANCH   7   8
ENDBRANCH   6   7
ENDBRANCH   5   6
ENDBRANCH   4   5
ENDBRANCH   3   4
ENDBRANCH   2   3
ENDBRANCH   1   2
BRANCH   1  11
ATOM     11  C   UNL     1      44.777  65.271  52.166  1.00  0.00     0.000 C 
BRANCH  11  12
ATOM     12  C   UNL     1      45.251  65.990  50.897  1.00  0.00     0.000 C 
BRANCH  12  13
ATOM     13  C   UNL     1      44.596  67.374  50.775  1.00  0.00     0.000 C 
BRANCH  13  14
ATOM     14  C   UNL     1      43.968  67.614  49.392  1.00  0.00     0.000 C 
BRANCH  14  15
ATOM     15  C   UNL     1      44.185  66.435  48.432  1.00  0.00     0.000 C 
BRANCH  15  16
ATOM     16  C   UNL     1      43.381  66.625  47.136  1.00  0.00     0.006 C 
BRANCH  16  17
ATOM     17  C   UNL     1      41.977  66.014  47.228  1.00  0.00     0.053 C 
BRANCH  17  18
ATOM     18  C   UNL     1      41.866  64.757  46.420  1.00  0.00     0.041 C 
ATOM     19  O   UNL     1      40.847  64.025  46.522  1.00  0.00    -0.550 OA
ATOM     20  O   UNL     1      42.904  64.380  45.577  1.00  0.00    -0.550 OA
ENDBRANCH  17  18
ENDBRANCH  16  17
ENDBRANCH  15  16
ENDBRANCH  14  15
ENDBRANCH  13  14
ENDBRANCH  12  13
ENDBRANCH  11  12
ENDBRANCH   1  11
TORSDOF 15
ENDMDL
MODEL 3
REMARK VINA RESULT:    -4.275      3.620      4.686
REMARK INTER + INTRA:          -9.233
REMARK INTER:                  -8.603
REMARK INTRA:                  -0.630
REMARK UNBOUND:                -1.209
REMARK SMILES O=C([O-])CCCCCCCCCCCCCCC(=O)[O-]
REMARK SMILES IDX 10 1 9 2 8 3 7 4 6 5 5 6 4 7 2 8 1 9 3 10 11 11 12 12 13 13
REMARK SMILES IDX 14 14 15 15 16 16 17 17 18 18 19 19 20 20
REMARK H PARENT
REMARK Flexibility Score: inf
ROOT
ATOM      1  C   UNL     1      44.106  66.031  52.557  1.00  0.00     0.000 C 
ENDROOT
BRANCH   1   2
ATOM      2  C   UNL     1      45.141  65.189  51.788  1.00  0.00     0.000 C 
BRANCH   2   3
ATOM      3  C   UNL     1      45.437  65.672  50.357  1.00  0.00     0.000 C 
BRANCH   3   4
ATOM      4  C   UNL     1      44.424  66.711  49.851  1.00  0.00     0.000 C 
BRANCH   4   5
ATOM      5  C   UNL     1      44.174  66.543  48.345  1.00  0.00     0.000 C 
BRANCH   5   6
ATOM      6  C   UNL     1      42.695  66.723  47.967  1.00  0.00     0.006 C 
BRANCH   6   7
ATOM      7  C   UNL     1      42.423  66.418  46.488  1.00  0.00     0.053 C 
BRANCH   7   8
ATOM      8  C   UNL     1      42.237  64.947  46.285  1.00  0.00     0.041 C 
ATOM      9  O   UNL     1      41.247  64.357  46.794  1.00  0.00    -0.550 OA
ATOM     10  O   UNL     1      43.130  64.235  45.494  1.00  0.00    -0.550 OA
ENDBRANCH   7   8
ENDBRANCH   6   7
ENDBRANCH   5   6
ENDBRANCH   4   5
ENDBRANCH   3   4
ENDBRANCH   2   3
ENDBRANCH   1   2
BRANCH   1  11
ATOM     11  C   UNL     1      43.337  65.221  53.611  1.00  0.00     0.000 C 
BRANCH  11  12
ATOM     12  C   UNL     1      41.979  65.866  53.917  1.00  0.00     0.000 C 
BRANCH  12  13
ATOM     13  C   UNL     1      40.894  64.795  54.104  1.00  0.00     0.000 C 
BRANCH  13  14
ATOM     14  C   UNL     1      40.204  64.883  55.475  1.00  0.00     0.000 C 
BRANCH  14  15
ATOM     15  C   UNL     1      38.677  64.755  55.376  1.00  0.00     0.000 C 
BRANCH  15  16
ATOM     16  C   UNL     1      38.139  63.765  56.421  1.00  0.00     0.006 C 
BRANCH  16  17
ATOM     17  C   UNL     1      38.478  62.310  56.071  1.00  0.00     0.053 C 
BRANCH  17  18
ATOM     18  C   UNL     1      37.246  61.505  55.794  1.00  0.00     0.041 C 
ATOM     19  O   UNL     1      37.272  60.250  55.893  1.00  0.00    -0.550 OA
ATOM     20  O   UNL     1      36.076  62.140  55.396  1.00  0.00    -0.550 OA
ENDBRANCH  17  18
ENDBRANCH  16  17
ENDBRANCH  15  16
ENDBRANCH  14  15
ENDBRANCH  13  14
ENDBRANCH  12  13
ENDBRANCH  11  12
ENDBRANCH   1  11
TORSDOF 15
ENDMDL
MODEL 4
REMARK VINA RESULT:    -4.268      2.450      3.818
REMARK INTER + INTRA:          -9.220
REMARK INTER:                  -8.116
REMARK INTRA:                  -1.104
REMARK UNBOUND:                -1.209
REMARK SMILES O=C([O-])CCCCCCCCCCCCCCC(=O)[O-]
REMARK SMILES IDX 10 1 9 2 8 3 7 4 6 5 5 6 4 7 2 8 1 9 3 10 11 11 12 12 13 13
REMARK SMILES IDX 14 14 15 15 16 16 17 17 18 18 19 19 20 20
REMARK H PARENT
REMARK Flexibility Score: inf
ROOT
ATOM      1  C   UNL     1      43.910  66.408  52.492  1.00  0.00     0.000 C 
ENDROOT
BRANCH   1   2
ATOM      2  C   UNL     1      44.922  65.413  51.897  1.00  0.00     0.000 C 
BRANCH   2   3
ATOM      3  C   UNL     1      45.405  65.751  50.475  1.00  0.00     0.000 C 
BRANCH   3   4
ATOM      4  C   UNL     1      44.585  66.867  49.811  1.00  0.00     0.000 C 
BRANCH   4   5
ATOM      5  C   UNL     1      44.278  66.524  48.345  1.00  0.00     0.000 C 
BRANCH   5   6
ATOM      6  C   UNL     1      42.770  66.449  48.058  1.00  0.00     0.006 C 
BRANCH   6   7
ATOM      7  C   UNL     1      42.460  66.307  46.563  1.00  0.00     0.053 C 
BRANCH   7   8
ATOM      8  C   UNL     1      42.367  64.862  46.184  1.00  0.00     0.041 C 
ATOM      9  O   UNL     1      43.367  64.267  45.701  1.00  0.00    -0.550 OA
ATOM     10  O   UNL     1      41.190  64.159  46.409  1.00  0.00    -0.550 OA
ENDBRANCH   7   8
ENDBRANCH   6   7
ENDBRANCH   5   6
ENDBRANCH   4   5
ENDBRANCH   3   4
ENDBRANCH   2   3
ENDBRANCH   1   2
BRANCH   1  11
ATOM     11  C   UNL     1      43.082  65.809  53.638  1.00  0.00     0.000 C 
BRANCH  11  12
ATOM     12  C   UNL     1      43.579  64.404  54.000  1.00  0.00     0.000 C 
BRANCH  12  13
ATOM     13  C   UNL     1      43.624  64.213  55.523  1.00  0.00     0.000 C 
BRANCH  13  14
ATOM     14  C   UNL     1      42.789  65.261  56.277  1.00  0.00     0.000 C 
BRANCH  14  15
ATOM     15  C   UNL     1      42.193  64.713  57.581  1.00  0.00     0.000 C 
BRANCH  15  16
ATOM     16  C   UNL     1      40.723  64.310  57.388  1.00  0.00     0.006 C 
BRANCH  16  17
ATOM     17  C   UNL     1      39.921  65.379  56.635  1.00  0.00     0.053 C 
BRANCH  17  18
ATOM     18  C   UNL     1      39.274  64.823  55.404  1.00  0.00     0.041 C 
ATOM     19  O   UNL     1      39.981  64.383  54.459  1.00  0.00    -0.550 OA
ATOM     20  O   UNL     1      37.890  64.820  55.287  1.00  0.00    -0.550 OA
ENDBRANCH  17  18
ENDBRANCH  16  17
ENDBRANCH  15  16
ENDBRANCH  14  15
ENDBRANCH  13  14
ENDBRANCH  12  13
ENDBRANCH  11  12
ENDBRANCH   1  11
TORSDOF 15
ENDMDL
MODEL 5
REMARK VINA RESULT:    -4.222      1.133      8.158
REMARK INTER + INTRA:          -9.132
REMARK INTER:                  -7.698
REMARK INTRA:                  -1.434
REMARK UNBOUND:                -1.209
REMARK SMILES O=C([O-])CCCCCCCCCCCCCCC(=O)[O-]
REMARK SMILES IDX 10 1 9 2 8 3 7 4 6 5 5 6 4 7 2 8 1 9 3 10 11 11 12 12 13 13
REMARK SMILES IDX 14 14 15 15 16 16 17 17 18 18 19 19 20 20
REMARK H PARENT
REMARK Flexibility Score: inf
ROOT
ATOM      1  C   UNL     1      44.344  66.571  49.458  1.00  0.00     0.000 C 
ENDROOT
BRANCH   1   2
ATOM      2  C   UNL     1      44.754  66.721  50.934  1.00  0.00     0.000 C 
BRANCH   2   3
ATOM      3  C   UNL     1      45.151  65.409  51.634  1.00  0.00     0.000 C 
BRANCH   3   4
ATOM      4  C   UNL     1      44.224  65.048  52.806  1.00  0.00     0.000 C 
BRANCH   4   5
ATOM      5  C   UNL     1      43.287  66.217  53.142  1.00  0.00     0.000 C 
BRANCH   5   6
ATOM      6  C   UNL     1      42.348  65.904  54.318  1.00  0.00     0.006 C 
BRANCH   6   7
ATOM      7  C   UNL     1      42.993  64.979  55.358  1.00  0.00     0.053 C 
BRANCH   7   8
ATOM      8  C   UNL     1      42.018  64.659  56.447  1.00  0.00     0.041 C 
ATOM      9  O   UNL     1      42.319  63.828  57.344  1.00  0.00    -0.550 OA
ATOM     10  O   UNL     1      40.794  65.314  56.500  1.00  0.00    -0.550 OA
ENDBRANCH   7   8
ENDBRANCH   6   7
ENDBRANCH   5   6
ENDBRANCH   4   5
ENDBRANCH   3   4
ENDBRANCH   2   3
ENDBRANCH   1   2
BRANCH   1  11
ATOM     11  C   UNL     1      43.325  67.629  49.008  1.00  0.00     0.000 C 
BRANCH  11  12
ATOM     12  C   UNL     1      42.283  67.889  50.103  1.00  0.00     0.000 C 
BRANCH  12  13
ATOM     13  C   UNL     1      40.859  67.807  49.535  1.00  0.00     0.000 C 
BRANCH  13  14
ATOM     14  C   UNL     1      40.838  67.540  48.021  1.00  0.00     0.000 C 
BRANCH  14  15
ATOM     15  C   UNL     1      40.010  66.300  47.652  1.00  0.00     0.000 C 
BRANCH  15  16
ATOM     16  C   UNL     1      40.913  65.170  47.133  1.00  0.00     0.006 C 
BRANCH  16  17
ATOM     17  C   UNL     1      41.490  65.479  45.746  1.00  0.00     0.053 C 
BRANCH  17  18
ATOM     18  C   UNL     1      42.988  65.470  45.754  1.00  0.00     0.041 C 
ATOM     19  O   UNL     1      43.629  66.553  45.721  1.00  0.00    -0.550 OA
ATOM     20  O   UNL     1      43.676  64.264  45.767  1.00  0.00    -0.550 OA
ENDBRANCH  17  18
ENDBRANCH  16  17
ENDBRANCH  15  16
ENDBRANCH  14  15
ENDBRANCH  13  14
ENDBRANCH  12  13
ENDBRANCH  11  12
ENDBRANCH   1  11
TORSDOF 15
ENDMDL
MODEL 6
REMARK VINA RESULT:    -4.143     10.222     13.212
REMARK INTER + INTRA:          -8.984
REMARK INTER:                  -8.272
REMARK INTRA:                  -0.712
REMARK UNBOUND:                -1.209
REMARK SMILES O=C([O-])CCCCCCCCCCCCCCC(=O)[O-]
REMARK SMILES IDX 10 1 9 2 8 3 7 4 6 5 5 6 4 7 2 8 1 9 3 10 11 11 12 12 13 13
REMARK SMILES IDX 14 14 15 15 16 16 17 17 18 18 19 19 20 20
REMARK H PARENT
REMARK Flexibility Score: inf
ROOT
ATOM      1  C   UNL     1      36.172  60.416  56.008  1.00  0.00     0.000 C 
ENDROOT
BRANCH   1   2
ATOM      2  C   UNL     1      37.311  59.599  55.370  1.00  0.00     0.000 C 
BRANCH   2   3
ATOM      3  C   UNL     1      37.254  58.085  55.640  1.00  0.00     0.000 C 
BRANCH   3   4
ATOM      4  C   UNL     1      37.759  57.704  57.040  1.00  0.00     0.000 C 
BRANCH   4   5
ATOM      5  C   UNL     1      37.122  56.390  57.514  1.00  0.00     0.000 C 
BRANCH   5   6
ATOM      6  C   UNL     1      36.686  55.489  56.348  1.00  0.00     0.006 C 
BRANCH   6   7
ATOM      7  C   UNL     1      36.255  54.091  56.812  1.00  0.00     0.053 C 
BRANCH   7   8
ATOM      8  C   UNL     1      34.820  53.846  56.465  1.00  0.00     0.041 C 
ATOM      9  O   UNL     1      33.903  54.358  57.159  1.00  0.00    -0.550 OA
ATOM     10  O   UNL     1      34.495  53.089  55.345  1.00  0.00    -0.550 OA
ENDBRANCH   7   8
ENDBRANCH   6   7
ENDBRANCH   5   6
ENDBRANCH   4   5
ENDBRANCH   3   4
ENDBRANCH   2   3
ENDBRANCH   1   2
BRANCH   1  11
ATOM     11  C   UNL     1      36.651  61.315  57.158  1.00  0.00     0.000 C 
BRANCH  11  12
ATOM     12  C   UNL     1      36.526  62.798  56.785  1.00  0.00     0.000 C 
BRANCH  12  13
ATOM     13  C   UNL     1      36.152  62.961  55.305  1.00  0.00     0.000 C 
BRANCH  13  14
ATOM     14  C   UNL     1      36.053  64.434  54.877  1.00  0.00     0.000 C 
BRANCH  14  15
ATOM     15  C   UNL     1      35.193  65.272  55.834  1.00  0.00     0.000 C 
BRANCH  15  16
ATOM     16  C   UNL     1      34.447  66.380  55.076  1.00  0.00     0.006 C 
BRANCH  16  17
ATOM     17  C   UNL     1      32.925  66.185  55.111  1.00  0.00     0.053 C 
BRANCH  17  18
ATOM     18  C   UNL     1      32.225  67.121  54.174  1.00  0.00     0.041 C 
ATOM     19  O   UNL     1      31.304  67.869  54.595  1.00  0.00    -0.550 OA
ATOM     20  O   UNL     1      32.568  67.143  52.828  1.00  0.00    -0.550 OA
ENDBRANCH  17  18
ENDBRANCH  16  17
ENDBRANCH  15  16
ENDBRANCH  14  15
ENDBRANCH  13  14
ENDBRANCH  12  13
ENDBRANCH  11  12
ENDBRANCH   1  11
TORSDOF 15
ENDMDL
MODEL 7
REMARK VINA RESULT:    -4.111     10.357     12.540
REMARK INTER + INTRA:          -8.924
REMARK INTER:                  -8.153
REMARK INTRA:                  -0.771
REMARK UNBOUND:                -1.209
REMARK SMILES O=C([O-])CCCCCCCCCCCCCCC(=O)[O-]
REMARK SMILES IDX 10 1 9 2 8 3 7 4 6 5 5 6 4 7 2 8 1 9 3 10 11 11 12 12 13 13
REMARK SMILES IDX 14 14 15 15 16 16 17 17 18 18 19 19 20 20
REMARK H PARENT
REMARK Flexibility Score: inf
ROOT
ATOM      1  C   UNL     1      36.174  60.192  56.048  1.00  0.00     0.000 C 
ENDROOT
BRANCH   1   2
ATOM      2  C   UNL     1      36.745  61.327  56.918  1.00  0.00     0.000 C 
BRANCH   2   3
ATOM      3  C   UNL     1      37.910  62.108  56.283  1.00  0.00     0.000 C 
BRANCH   3   4
ATOM      4  C   UNL     1      37.539  63.555  55.924  1.00  0.00     0.000 C 
BRANCH   4   5
ATOM      5  C   UNL     1      36.121  63.627  55.338  1.00  0.00     0.000 C 
BRANCH   5   6
ATOM      6  C   UNL     1      35.727  65.052  54.915  1.00  0.00     0.006 C 
BRANCH   6   7
ATOM      7  C   UNL     1      34.588  65.626  55.767  1.00  0.00     0.053 C 
BRANCH   7   8
ATOM      8  C   UNL     1      33.542  66.241  54.892  1.00  0.00     0.041 C 
ATOM      9  O   UNL     1      32.322  66.015  55.107  1.00  0.00    -0.550 OA
ATOM     10  O   UNL     1      33.911  67.103  53.867  1.00  0.00    -0.550 OA
ENDBRANCH   7   8
ENDBRANCH   6   7
ENDBRANCH   5   6
ENDBRANCH   4   5
ENDBRANCH   3   4
ENDBRANCH   2   3
ENDBRANCH   1   2
BRANCH   1  11
ATOM     11  C   UNL     1      37.250  59.467  55.226  1.00  0.00     0.000 C 
BRANCH  11  12
ATOM     12  C   UNL     1      37.240  57.960  55.514  1.00  0.00     0.000 C 
BRANCH  12  13
ATOM     13  C   UNL     1      37.724  57.672  56.942  1.00  0.00     0.000 C 
BRANCH  13  14
ATOM     14  C   UNL     1      37.268  56.298  57.458  1.00  0.00     0.000 C 
BRANCH  14  15
ATOM     15  C   UNL     1      36.637  55.433  56.357  1.00  0.00     0.000 C 
BRANCH  15  16
ATOM     16  C   UNL     1      35.825  54.278  56.962  1.00  0.00     0.006 C 
BRANCH  16  17
ATOM     17  C   UNL     1      34.801  53.707  55.973  1.00  0.00     0.053 C 
BRANCH  17  18
ATOM     18  C   UNL     1      34.914  52.218  55.855  1.00  0.00     0.041 C 
ATOM     19  O   UNL     1      35.422  51.544  56.790  1.00  0.00    -0.550 OA
ATOM     20  O   UNL     1      34.487  51.578  54.699  1.00  0.00    -0.550 OA
ENDBRANCH  17  18
ENDBRANCH  16  17
ENDBRANCH  15  16
ENDBRANCH  14  15
ENDBRANCH  13  14
ENDBRANCH  12  13
ENDBRANCH  11  12
ENDBRANCH   1  11
TORSDOF 15
ENDMDL
MODEL 8
REMARK VINA RESULT:    -4.087      1.924      9.099
REMARK INTER + INTRA:          -8.880
REMARK INTER:                  -7.699
REMARK INTRA:                  -1.180
REMARK UNBOUND:                -1.209
REMARK SMILES O=C([O-])CCCCCCCCCCCCCCC(=O)[O-]
REMARK SMILES IDX 10 1 9 2 8 3 7 4 6 5 5 6 4 7 2 8 1 9 3 10 11 11 12 12 13 13
REMARK SMILES IDX 14 14 15 15 16 16 17 17 18 18 19 19 20 20
REMARK H PARENT
REMARK Flexibility Score: inf
ROOT
ATOM      1  C   UNL     1      44.379  66.340  48.479  1.00  0.00     0.000 C 
ENDROOT
BRANCH   1   2
ATOM      2  C   UNL     1      44.803  66.619  49.932  1.00  0.00     0.000 C 
BRANCH   2   3
ATOM      3  C   UNL     1      45.399  65.411  50.678  1.00  0.00     0.000 C 
BRANCH   3   4
ATOM      4  C   UNL     1      44.883  65.280  52.119  1.00  0.00     0.000 C 
BRANCH   4   5
ATOM      5  C   UNL     1      43.870  66.388  52.441  1.00  0.00     0.000 C 
BRANCH   5   6
ATOM      6  C   UNL     1      42.961  66.033  53.629  1.00  0.00     0.006 C 
BRANCH   6   7
ATOM      7  C   UNL     1      43.328  64.689  54.271  1.00  0.00     0.053 C 
BRANCH   7   8
ATOM      8  C   UNL     1      42.883  64.654  55.699  1.00  0.00     0.041 C 
ATOM      9  O   UNL     1      43.732  64.597  56.627  1.00  0.00    -0.550 OA
ATOM     10  O   UNL     1      41.531  64.732  56.008  1.00  0.00    -0.550 OA
ENDBRANCH   7   8
ENDBRANCH   6   7
ENDBRANCH   5   6
ENDBRANCH   4   5
ENDBRANCH   3   4
ENDBRANCH   2   3
ENDBRANCH   1   2
BRANCH   1  11
ATOM     11  C   UNL     1      43.396  67.385  47.930  1.00  0.00     0.000 C 
BRANCH  11  12
ATOM     12  C   UNL     1      41.996  66.784  47.754  1.00  0.00     0.000 C 
BRANCH  12  13
ATOM     13  C   UNL     1      42.058  65.477  46.950  1.00  0.00     0.000 C 
BRANCH  13  14
ATOM     14  C   UNL     1      41.315  65.570  45.607  1.00  0.00     0.000 C 
BRANCH  14  15
ATOM     15  C   UNL     1      42.261  65.825  44.425  1.00  0.00     0.000 C 
BRANCH  15  16
ATOM     16  C   UNL     1      43.665  65.270  44.713  1.00  0.00     0.006 C 
BRANCH  16  17
ATOM     17  C   UNL     1      44.773  66.223  44.248  1.00  0.00     0.053 C 
BRANCH  17  18
ATOM     18  C   UNL     1      45.405  65.757  42.972  1.00  0.00     0.041 C 
ATOM     19  O   UNL     1      46.657  65.759  42.846  1.00  0.00    -0.550 OA
ATOM     20  O   UNL     1      44.607  65.351  41.910  1.00  0.00    -0.550 OA
ENDBRANCH  17  18
ENDBRANCH  16  17
ENDBRANCH  15  16
ENDBRANCH  14  15
ENDBRANCH  13  14
ENDBRANCH  12  13
ENDBRANCH  11  12
ENDBRANCH   1  11
TORSDOF 15
ENDMDL
MODEL 9
REMARK VINA RESULT:    -4.051      3.313      8.238
REMARK INTER + INTRA:          -8.812
REMARK INTER:                  -7.885
REMARK INTRA:                  -0.926
REMARK UNBOUND:                -1.209
REMARK SMILES O=C([O-])CCCCCCCCCCCCCCC(=O)[O-]
REMARK SMILES IDX 10 1 9 2 8 3 7 4 6 5 5 6 4 7 2 8 1 9 3 10 11 11 12 12 13 13
REMARK SMILES IDX 14 14 15 15 16 16 17 17 18 18 19 19 20 20
REMARK H PARENT
REMARK Flexibility Score: inf
ROOT
ATOM      1  C   UNL     1      44.011  65.588  52.830  1.00  0.00     0.000 C 
ENDROOT
BRANCH   1   2
ATOM      2  C   UNL     1      43.623  64.534  53.883  1.00  0.00     0.000 C 
BRANCH   2   3
ATOM      3  C   UNL     1      42.867  65.085  55.106  1.00  0.00     0.000 C 
BRANCH   3   4
ATOM      4  C   UNL     1      41.547  65.778  54.735  1.00  0.00     0.000 C 
BRANCH   4   5
ATOM      5  C   UNL     1      40.402  64.759  54.634  1.00  0.00     0.000 C 
BRANCH   5   6
ATOM      6  C   UNL     1      39.772  64.440  56.000  1.00  0.00     0.006 C 
BRANCH   6   7
ATOM      7  C   UNL     1      38.243  64.566  55.987  1.00  0.00     0.053 C 
BRANCH   7   8
ATOM      8  C   UNL     1      37.610  63.217  55.857  1.00  0.00     0.041 C 
ATOM      9  O   UNL     1      36.382  63.115  55.598  1.00  0.00    -0.550 OA
ATOM     10  O   UNL     1      38.386  62.070  55.975  1.00  0.00    -0.550 OA
ENDBRANCH   7   8
ENDBRANCH   6   7
ENDBRANCH   5   6
ENDBRANCH   4   5
ENDBRANCH   3   4
ENDBRANCH   2   3
ENDBRANCH   1   2
BRANCH   1  11
ATOM     11  C   UNL     1      45.135  65.117  51.896  1.00  0.00     0.000 C 
BRANCH  11  12
ATOM     12  C   UNL     1      45.350  66.113  50.749  1.00  0.00     0.000 C 
BRANCH  12  13
ATOM     13  C   UNL     1      44.351  67.275  50.838  1.00  0.00     0.000 C 
BRANCH  13  14
ATOM     14  C   UNL     1      43.704  67.607  49.483  1.00  0.00     0.000 C 
BRANCH  14  15
ATOM     15  C   UNL     1      44.077  66.598  48.387  1.00  0.00     0.000 C 
BRANCH  15  16
ATOM     16  C   UNL     1      42.859  66.257  47.516  1.00  0.00     0.006 C 
BRANCH  16  17
ATOM     17  C   UNL     1      41.622  67.080  47.898  1.00  0.00     0.053 C 
BRANCH  17  18
ATOM     18  C   UNL     1      40.353  66.331  47.629  1.00  0.00     0.041 C 
ATOM     19  O   UNL     1      40.387  65.104  47.350  1.00  0.00    -0.550 OA
ATOM     20  O   UNL     1      39.135  66.997  47.657  1.00  0.00    -0.550 OA
ENDBRANCH  17  18
ENDBRANCH  16  17
ENDBRANCH  15  16
ENDBRANCH  14  15
ENDBRANCH  13  14
ENDBRANCH  12  13
ENDBRANCH  11  12
ENDBRANCH   1  11
TORSDOF 15
ENDMDL
