MODEL 1
REMARK VINA RESULT:    -4.125      0.000      0.000
REMARK INTER + INTRA:          -7.001
REMARK INTER:                  -6.295
REMARK INTRA:                  -0.706
REMARK UNBOUND:                -0.706
REMARK SMILES C=CCCCCCCCCCC
REMARK SMILES IDX 7 1 8 2 9 3 10 4 11 5 12 6 6 7 5 8 4 9 3 10 2 11 1 12
REMARK H PARENT
REMARK Flexibility Score: inf
ROOT
ATOM      1  C   UNL     1      56.084  43.239  42.260  1.00  0.00     0.000 C 
ENDROOT
BRANCH   1   2
ATOM      2  C   UNL     1      54.604  43.555  42.541  1.00  0.00    -0.000 C 
BRANCH   2   3
ATOM      3  C   UNL     1      54.315  45.066  42.562  1.00  0.00    -0.000 C 
BRANCH   3   4
ATOM      4  C   UNL     1      52.969  45.419  41.908  1.00  0.00    -0.000 C 
BRANCH   4   5
ATOM      5  C   UNL     1      52.154  46.419  42.743  1.00  0.00    -0.003 C 
ATOM      6  C   UNL     1      52.967  47.052  43.872  1.00  0.00     0.004 C 
ENDBRANCH   4   5
ENDBRANCH   3   4
ENDBRANCH   2   3
ENDBRANCH   1   2
BRANCH   1   7
ATOM      7  C   UNL     1      57.013  43.706  43.393  1.00  0.00     0.000 C 
BRANCH   7   8
ATOM      8  C   UNL     1      58.023  44.770  42.929  1.00  0.00     0.000 C 
BRANCH   8   9
ATOM      9  C   UNL     1      57.856  45.136  41.445  1.00  0.00     0.004 C 
BRANCH   9  10
ATOM     10  C   UNL     1      59.033  44.658  40.581  1.00  0.00     0.027 C 
BRANCH  10  11
ATOM     11  C   UNL     1      59.737  43.492  41.220  1.00  0.00    -0.035 C 
ATOM     12  C   UNL     1      59.528  42.236  40.816  1.00  0.00     0.004 C 
ENDBRANCH  10  11
ENDBRANCH   9  10
ENDBRANCH   8   9
ENDBRANCH   7   8
ENDBRANCH   1   7
TORSDOF 9
ENDMDL
MODEL 2
REMARK VINA RESULT:    -4.081      1.063      2.088
REMARK INTER + INTRA:          -6.934
REMARK INTER:                  -5.801
REMARK INTRA:                  -1.133
REMARK UNBOUND:                -0.706
REMARK SMILES C=CCCCCCCCCCC
REMARK SMILES IDX 7 1 8 2 9 3 10 4 11 5 12 6 6 7 5 8 4 9 3 10 2 11 1 12
REMARK H PARENT
REMARK Flexibility Score: inf
ROOT
ATOM      1  C   UNL     1      56.076  43.359  43.688  1.00  0.00     0.000 C 
ENDROOT
BRANCH   1   2
ATOM      2  C   UNL     1      55.321  43.512  42.355  1.00  0.00    -0.000 C 
BRANCH   2   3
ATOM      3  C   UNL     1      54.245  44.611  42.408  1.00  0.00    -0.000 C 
BRANCH   3   4
ATOM      4  C   UNL     1      54.786  45.942  42.958  1.00  0.00    -0.000 C 
BRANCH   4   5
ATOM      5  C   UNL     1      53.837  46.584  43.983  1.00  0.00    -0.003 C 
ATOM      6  C   UNL     1      52.463  46.908  43.397  1.00  0.00     0.004 C 
ENDBRANCH   4   5
ENDBRANCH   3   4
ENDBRANCH   2   3
ENDBRANCH   1   2
BRANCH   1   7
ATOM      7  C   UNL     1      57.565  43.031  43.488  1.00  0.00     0.000 C 
BRANCH   7   8
ATOM      8  C   UNL     1      57.957  42.939  42.003  1.00  0.00     0.000 C 
BRANCH   8   9
ATOM      9  C   UNL     1      59.270  43.676  41.691  1.00  0.00     0.004 C 
BRANCH   9  10
ATOM     10  C   UNL     1      59.075  44.845  40.714  1.00  0.00     0.027 C 
BRANCH  10  11
ATOM     11  C   UNL     1      58.067  45.831  41.241  1.00  0.00    -0.035 C 
ATOM     12  C   UNL     1      58.290  46.539  42.351  1.00  0.00     0.004 C 
ENDBRANCH  10  11
ENDBRANCH   9  10
ENDBRANCH   8   9
ENDBRANCH   7   8
ENDBRANCH   1   7
TORSDOF 9
ENDMDL
MODEL 3
REMARK VINA RESULT:    -4.038      1.220      5.666
REMARK INTER + INTRA:          -6.869
REMARK INTER:                  -5.923
REMARK INTRA:                  -0.945
REMARK UNBOUND:                -0.706
REMARK SMILES C=CCCCCCCCCCC
REMARK SMILES IDX 7 1 8 2 9 3 10 4 11 5 12 6 6 7 5 8 4 9 3 10 2 11 1 12
REMARK H PARENT
REMARK Flexibility Score: inf
ROOT
ATOM      1  C   UNL     1      56.181  43.713  43.911  1.00  0.00     0.000 C 
ENDROOT
BRANCH   1   2
ATOM      2  C   UNL     1      57.502  43.180  43.329  1.00  0.00    -0.000 C 
BRANCH   2   3
ATOM      3  C   UNL     1      57.572  43.315  41.798  1.00  0.00    -0.000 C 
BRANCH   3   4
ATOM      4  C   UNL     1      58.555  44.408  41.346  1.00  0.00    -0.000 C 
BRANCH   4   5
ATOM      5  C   UNL     1      58.463  45.676  42.210  1.00  0.00    -0.003 C 
ATOM      6  C   UNL     1      57.839  46.857  41.466  1.00  0.00     0.004 C 
ENDBRANCH   4   5
ENDBRANCH   3   4
ENDBRANCH   2   3
ENDBRANCH   1   2
BRANCH   1   7
ATOM      7  C   UNL     1      55.079  43.845  42.847  1.00  0.00     0.000 C 
BRANCH   7   8
ATOM      8  C   UNL     1      54.621  45.301  42.646  1.00  0.00     0.000 C 
BRANCH   8   9
ATOM      9  C   UNL     1      54.493  46.068  43.972  1.00  0.00     0.004 C 
BRANCH   9  10
ATOM     10  C   UNL     1      53.277  47.006  43.999  1.00  0.00     0.027 C 
BRANCH  10  11
ATOM     11  C   UNL     1      52.192  46.515  43.079  1.00  0.00    -0.035 C 
ATOM     12  C   UNL     1      50.943  46.982  43.150  1.00  0.00     0.004 C 
ENDBRANCH  10  11
ENDBRANCH   9  10
ENDBRANCH   8   9
ENDBRANCH   7   8
ENDBRANCH   1   7
TORSDOF 9
ENDMDL
MODEL 4
REMARK VINA RESULT:    -4.032      1.287      2.148
REMARK INTER + INTRA:          -6.859
REMARK INTER:                  -5.687
REMARK INTRA:                  -1.173
REMARK UNBOUND:                -0.706
REMARK SMILES C=CCCCCCCCCCC
REMARK SMILES IDX 7 1 8 2 9 3 10 4 11 5 12 6 6 7 5 8 4 9 3 10 2 11 1 12
REMARK H PARENT
REMARK Flexibility Score: inf
ROOT
ATOM      1  C   UNL     1      55.386  43.148  42.389  1.00  0.00     0.000 C 
ENDROOT
BRANCH   1   2
ATOM      2  C   UNL     1      54.778  44.559  42.300  1.00  0.00    -0.000 C 
BRANCH   2   3
ATOM      3  C   UNL     1      54.996  45.379  43.584  1.00  0.00    -0.000 C 
BRANCH   3   4
ATOM      4  C   UNL     1      54.503  46.830  43.448  1.00  0.00    -0.000 C 
BRANCH   4   5
ATOM      5  C   UNL     1      53.142  47.054  44.125  1.00  0.00    -0.003 C 
ATOM      6  C   UNL     1      51.962  46.793  43.188  1.00  0.00     0.004 C 
ENDBRANCH   4   5
ENDBRANCH   3   4
ENDBRANCH   2   3
ENDBRANCH   1   2
BRANCH   1   7
ATOM      7  C   UNL     1      56.500  43.051  43.444  1.00  0.00     0.000 C 
BRANCH   7   8
ATOM      8  C   UNL     1      57.902  42.952  42.817  1.00  0.00     0.000 C 
BRANCH   8   9
ATOM      9  C   UNL     1      58.789  44.161  43.159  1.00  0.00     0.004 C 
BRANCH   9  10
ATOM     10  C   UNL     1      59.354  44.853  41.909  1.00  0.00     0.027 C 
BRANCH  10  11
ATOM     11  C   UNL     1      58.262  45.522  41.119  1.00  0.00    -0.035 C 
ATOM     12  C   UNL     1      57.790  46.728  41.451  1.00  0.00     0.004 C 
ENDBRANCH  10  11
ENDBRANCH   9  10
ENDBRANCH   8   9
ENDBRANCH   7   8
ENDBRANCH   1   7
TORSDOF 9
ENDMDL
MODEL 5
REMARK VINA RESULT:    -3.970      1.479      3.264
REMARK INTER + INTRA:          -6.765
REMARK INTER:                  -5.245
REMARK INTRA:                  -1.520
REMARK UNBOUND:                -0.706
REMARK SMILES C=CCCCCCCCCCC
REMARK SMILES IDX 7 1 8 2 9 3 10 4 11 5 12 6 6 7 5 8 4 9 3 10 2 11 1 12
REMARK H PARENT
REMARK Flexibility Score: inf
ROOT
ATOM      1  C   UNL     1      54.369  44.793  42.340  1.00  0.00     0.000 C 
ENDROOT
BRANCH   1   2
ATOM      2  C   UNL     1      54.596  45.736  43.534  1.00  0.00    -0.000 C 
BRANCH   2   3
ATOM      3  C   UNL     1      55.454  46.960  43.167  1.00  0.00    -0.000 C 
BRANCH   3   4
ATOM      4  C   UNL     1      56.828  46.945  43.858  1.00  0.00    -0.000 C 
BRANCH   4   5
ATOM      5  C   UNL     1      57.984  46.753  42.862  1.00  0.00    -0.003 C 
ATOM      6  C   UNL     1      57.517  46.730  41.407  1.00  0.00     0.004 C 
ENDBRANCH   4   5
ENDBRANCH   3   4
ENDBRANCH   2   3
ENDBRANCH   1   2
BRANCH   1   7
ATOM      7  C   UNL     1      55.026  43.417  42.541  1.00  0.00     0.000 C 
BRANCH   7   8
ATOM      8  C   UNL     1      55.987  43.390  43.742  1.00  0.00     0.000 C 
BRANCH   8   9
ATOM      9  C   UNL     1      57.432  43.057  43.335  1.00  0.00     0.004 C 
BRANCH   9  10
ATOM     10  C   UNL     1      57.627  43.034  41.811  1.00  0.00     0.027 C 
BRANCH  10  11
ATOM     11  C   UNL     1      59.081  42.885  41.453  1.00  0.00    -0.035 C 
ATOM     12  C   UNL     1      59.798  43.908  40.977  1.00  0.00     0.004 C 
ENDBRANCH  10  11
ENDBRANCH   9  10
ENDBRANCH   8   9
ENDBRANCH   7   8
ENDBRANCH   1   7
TORSDOF 9
ENDMDL
MODEL 6
REMARK VINA RESULT:    -3.904      1.343      4.555
REMARK INTER + INTRA:          -6.664
REMARK INTER:                  -5.112
REMARK INTRA:                  -1.552
REMARK UNBOUND:                -0.706
REMARK SMILES C=CCCCCCCCCCC
REMARK SMILES IDX 7 1 8 2 9 3 10 4 11 5 12 6 6 7 5 8 4 9 3 10 2 11 1 12
REMARK H PARENT
REMARK Flexibility Score: inf
ROOT
ATOM      1  C   UNL     1      59.145  42.854  41.266  1.00  0.00     0.000 C 
ENDROOT
BRANCH   1   2
ATOM      2  C   UNL     1      59.213  44.167  40.467  1.00  0.00    -0.000 C 
BRANCH   2   3
ATOM      3  C   UNL     1      59.105  45.413  41.364  1.00  0.00    -0.000 C 
BRANCH   3   4
ATOM      4  C   UNL     1      57.765  46.149  41.193  1.00  0.00    -0.000 C 
BRANCH   4   5
ATOM      5  C   UNL     1      57.364  46.938  42.449  1.00  0.00    -0.003 C 
ATOM      6  C   UNL     1      58.149  46.518  43.691  1.00  0.00     0.004 C 
ENDBRANCH   4   5
ENDBRANCH   3   4
ENDBRANCH   2   3
ENDBRANCH   1   2
BRANCH   1   7
ATOM      7  C   UNL     1      59.329  43.073  42.777  1.00  0.00     0.000 C 
BRANCH   7   8
ATOM      8  C   UNL     1      58.050  42.775  43.578  1.00  0.00     0.000 C 
BRANCH   8   9
ATOM      9  C   UNL     1      56.779  42.868  42.718  1.00  0.00     0.004 C 
BRANCH   9  10
ATOM     10  C   UNL     1      55.656  43.661  43.404  1.00  0.00     0.027 C 
BRANCH  10  11
ATOM     11  C   UNL     1      54.587  44.051  42.419  1.00  0.00    -0.035 C 
ATOM     12  C   UNL     1      54.013  45.258  42.444  1.00  0.00     0.004 C 
ENDBRANCH  10  11
ENDBRANCH   9  10
ENDBRANCH   8   9
ENDBRANCH   7   8
ENDBRANCH   1   7
TORSDOF 9
ENDMDL
MODEL 7
REMARK VINA RESULT:    -3.817      1.271      2.616
REMARK INTER + INTRA:          -6.531
REMARK INTER:                  -5.222
REMARK INTRA:                  -1.309
REMARK UNBOUND:                -0.706
REMARK SMILES C=CCCCCCCCCCC
REMARK SMILES IDX 7 1 8 2 9 3 10 4 11 5 12 6 6 7 5 8 4 9 3 10 2 11 1 12
REMARK H PARENT
REMARK Flexibility Score: inf
ROOT
ATOM      1  C   UNL     1      56.107  46.981  43.155  1.00  0.00     0.000 C 
ENDROOT
BRANCH   1   2
ATOM      2  C   UNL     1      54.781  46.766  43.906  1.00  0.00    -0.000 C 
BRANCH   2   3
ATOM      3  C   UNL     1      53.784  45.905  43.112  1.00  0.00    -0.000 C 
BRANCH   3   4
ATOM      4  C   UNL     1      54.477  44.997  42.082  1.00  0.00    -0.000 C 
BRANCH   4   5
ATOM      5  C   UNL     1      54.560  43.535  42.548  1.00  0.00    -0.003 C 
ATOM      6  C   UNL     1      55.999  43.033  42.675  1.00  0.00     0.004 C 
ENDBRANCH   4   5
ENDBRANCH   3   4
ENDBRANCH   2   3
ENDBRANCH   1   2
BRANCH   1   7
ATOM      7  C   UNL     1      57.305  46.345  43.878  1.00  0.00     0.000 C 
BRANCH   7   8
ATOM      8  C   UNL     1      58.475  46.037  42.927  1.00  0.00     0.000 C 
BRANCH   8   9
ATOM      9  C   UNL     1      58.033  45.941  41.458  1.00  0.00     0.004 C 
BRANCH   9  10
ATOM     10  C   UNL     1      58.900  44.970  40.641  1.00  0.00     0.027 C 
BRANCH  10  11
ATOM     11  C   UNL     1      59.430  43.858  41.505  1.00  0.00    -0.035 C 
ATOM     12  C   UNL     1      59.509  42.599  41.064  1.00  0.00     0.004 C 
ENDBRANCH  10  11
ENDBRANCH   9  10
ENDBRANCH   8   9
ENDBRANCH   7   8
ENDBRANCH   1   7
TORSDOF 9
ENDMDL
MODEL 8
REMARK VINA RESULT:    -3.705      1.668      3.576
REMARK INTER + INTRA:          -6.360
REMARK INTER:                  -4.884
REMARK INTRA:                  -1.476
REMARK UNBOUND:                -0.706
REMARK SMILES C=CCCCCCCCCCC
REMARK SMILES IDX 7 1 8 2 9 3 10 4 11 5 12 6 6 7 5 8 4 9 3 10 2 11 1 12
REMARK H PARENT
REMARK Flexibility Score: inf
ROOT
ATOM      1  C   UNL     1      58.432  45.003  41.020  1.00  0.00     0.000 C 
ENDROOT
BRANCH   1   2
ATOM      2  C   UNL     1      58.171  46.514  41.147  1.00  0.00    -0.000 C 
BRANCH   2   3
ATOM      3  C   UNL     1      57.605  46.903  42.525  1.00  0.00    -0.000 C 
BRANCH   3   4
ATOM      4  C   UNL     1      56.075  46.771  42.593  1.00  0.00    -0.000 C 
BRANCH   4   5
ATOM      5  C   UNL     1      55.534  46.931  44.023  1.00  0.00    -0.003 C 
ATOM      6  C   UNL     1      54.034  46.655  44.124  1.00  0.00     0.004 C 
ENDBRANCH   4   5
ENDBRANCH   3   4
ENDBRANCH   2   3
ENDBRANCH   1   2
BRANCH   1   7
ATOM      7  C   UNL     1      59.719  44.563  41.737  1.00  0.00     0.000 C 
BRANCH   7   8
ATOM      8  C   UNL     1      59.438  43.753  43.014  1.00  0.00     0.000 C 
BRANCH   8   9
ATOM      9  C   UNL     1      58.123  42.960  42.934  1.00  0.00     0.004 C 
BRANCH   9  10
ATOM     10  C   UNL     1      57.119  43.366  44.024  1.00  0.00     0.027 C 
BRANCH  10  11
ATOM     11  C   UNL     1      55.706  43.304  43.510  1.00  0.00    -0.035 C 
ATOM     12  C   UNL     1      55.435  43.102  42.217  1.00  0.00     0.004 C 
ENDBRANCH  10  11
ENDBRANCH   9  10
ENDBRANCH   8   9
ENDBRANCH   7   8
ENDBRANCH   1   7
TORSDOF 9
ENDMDL
MODEL 9
REMARK VINA RESULT:    -3.531      1.685      3.249
REMARK INTER + INTRA:          -6.094
REMARK INTER:                  -5.039
REMARK INTRA:                  -1.055
REMARK UNBOUND:                -0.706
REMARK SMILES C=CCCCCCCCCCC
REMARK SMILES IDX 7 1 8 2 9 3 10 4 11 5 12 6 6 7 5 8 4 9 3 10 2 11 1 12
REMARK H PARENT
REMARK Flexibility Score: inf
ROOT
ATOM      1  C   UNL     1      57.216  46.415  41.510  1.00  0.00     0.000 C 
ENDROOT
BRANCH   1   2
ATOM      2  C   UNL     1      56.498  46.816  42.811  1.00  0.00    -0.000 C 
BRANCH   2   3
ATOM      3  C   UNL     1      55.687  45.659  43.420  1.00  0.00    -0.000 C 
BRANCH   3   4
ATOM      4  C   UNL     1      54.861  44.899  42.368  1.00  0.00    -0.000 C 
BRANCH   4   5
ATOM      5  C   UNL     1      55.119  43.384  42.400  1.00  0.00    -0.003 C 
ATOM      6  C   UNL     1      56.378  43.012  43.183  1.00  0.00     0.004 C 
ENDBRANCH   4   5
ENDBRANCH   3   4
ENDBRANCH   2   3
ENDBRANCH   1   2
BRANCH   1   7
ATOM      7  C   UNL     1      58.503  45.614  41.769  1.00  0.00     0.000 C 
BRANCH   7   8
ATOM      8  C   UNL     1      58.855  44.668  40.609  1.00  0.00     0.000 C 
BRANCH   8   9
ATOM      9  C   UNL     1      59.509  43.362  41.089  1.00  0.00     0.004 C 
BRANCH   9  10
ATOM     10  C   UNL     1      60.084  43.474  42.509  1.00  0.00     0.027 C 
BRANCH  10  11
ATOM     11  C   UNL     1      60.974  42.304  42.829  1.00  0.00    -0.035 C 
ATOM     12  C   UNL     1      61.770  42.297  43.902  1.00  0.00     0.004 C 
ENDBRANCH  10  11
ENDBRANCH   9  10
ENDBRANCH   8   9
ENDBRANCH   7   8
ENDBRANCH   1   7
TORSDOF 9
ENDMDL
