MODEL 1
REMARK VINA RESULT:    -3.784      0.000      0.000
REMARK INTER + INTRA:          -5.687
REMARK INTER:                  -5.333
REMARK INTRA:                  -0.354
REMARK UNBOUND:                -0.354
REMARK SMILES CCCCCCCCC(=O)[O-]
REMARK SMILES IDX 6 1 7 2 8 3 9 4 10 5 11 6 5 7 4 8 3 9 2 10 1 11
REMARK H PARENT
REMARK Flexibility Score: inf
ROOT
ATOM      1  C   UNL     1      -0.479  17.808  28.737  1.00  0.00     0.000 C 
ENDROOT
BRANCH   1   2
ATOM      2  C   UNL     1       0.366  17.301  27.550  1.00  0.00     0.006 C 
BRANCH   2   3
ATOM      3  C   UNL     1       1.880  17.505  27.709  1.00  0.00     0.053 C 
BRANCH   3   4
ATOM      4  C   UNL     1       2.647  16.247  27.437  1.00  0.00     0.041 C 
ATOM      5  O   UNL     1       2.283  15.159  27.955  1.00  0.00    -0.550 OA
ATOM      6  O   UNL     1       3.743  16.271  26.582  1.00  0.00    -0.550 OA
ENDBRANCH   3   4
ENDBRANCH   2   3
ENDBRANCH   1   2
BRANCH   1   7
ATOM      7  C   UNL     1       0.250  18.779  29.686  1.00  0.00     0.000 C 
BRANCH   7   8
ATOM      8  C   UNL     1      -0.592  20.012  30.043  1.00  0.00    -0.000 C 
BRANCH   8   9
ATOM      9  C   UNL     1      -2.065  19.799  29.664  1.00  0.00    -0.000 C 
BRANCH   9  10
ATOM     10  C   UNL     1      -2.942  21.016  29.997  1.00  0.00    -0.003 C 
ATOM     11  C   UNL     1      -2.133  22.205  30.511  1.00  0.00     0.004 C 
ENDBRANCH   9  10
ENDBRANCH   8   9
ENDBRANCH   7   8
ENDBRANCH   1   7
TORSDOF 7
ENDMDL
MODEL 2
REMARK VINA RESULT:    -3.732      3.452      4.372
REMARK INTER + INTRA:          -5.614
REMARK INTER:                  -5.231
REMARK INTRA:                  -0.382
REMARK UNBOUND:                -0.354
REMARK SMILES CCCCCCCCC(=O)[O-]
REMARK SMILES IDX 6 1 7 2 8 3 9 4 10 5 11 6 5 7 4 8 3 9 2 10 1 11
REMARK H PARENT
REMARK Flexibility Score: inf
ROOT
ATOM      1  C   UNL     1       0.840  16.026  30.091  1.00  0.00     0.000 C 
ENDROOT
BRANCH   1   2
ATOM      2  C   UNL     1       0.434  14.582  30.449  1.00  0.00     0.006 C 
BRANCH   2   3
ATOM      3  C   UNL     1      -0.860  14.096  29.777  1.00  0.00     0.053 C 
BRANCH   3   4
ATOM      4  C   UNL     1      -1.272  12.743  30.268  1.00  0.00     0.041 C 
ATOM      5  O   UNL     1      -1.955  12.632  31.320  1.00  0.00    -0.550 OA
ATOM      6  O   UNL     1      -0.931  11.605  29.546  1.00  0.00    -0.550 OA
ENDBRANCH   3   4
ENDBRANCH   2   3
ENDBRANCH   1   2
BRANCH   1   7
ATOM      7  C   UNL     1       0.981  16.308  28.583  1.00  0.00     0.000 C 
BRANCH   7   8
ATOM      8  C   UNL     1       0.177  17.532  28.124  1.00  0.00    -0.000 C 
BRANCH   8   9
ATOM      9  C   UNL     1      -1.144  17.644  28.900  1.00  0.00    -0.000 C 
BRANCH   9  10
ATOM     10  C   UNL     1      -1.436  19.078  29.367  1.00  0.00    -0.003 C 
ATOM     11  C   UNL     1      -2.929  19.405  29.371  1.00  0.00     0.004 C 
ENDBRANCH   9  10
ENDBRANCH   8   9
ENDBRANCH   7   8
ENDBRANCH   1   7
TORSDOF 7
ENDMDL
MODEL 3
REMARK VINA RESULT:    -3.670      3.073      3.712
REMARK INTER + INTRA:          -5.525
REMARK INTER:                  -5.235
REMARK INTRA:                  -0.290
REMARK UNBOUND:                -0.354
REMARK SMILES CCCCCCCCC(=O)[O-]
REMARK SMILES IDX 6 1 7 2 8 3 9 4 10 5 11 6 5 7 4 8 3 9 2 10 1 11
REMARK H PARENT
REMARK Flexibility Score: inf
ROOT
ATOM      1  C   UNL     1       0.746  16.200  29.873  1.00  0.00     0.000 C 
ENDROOT
BRANCH   1   2
ATOM      2  C   UNL     1       0.530  14.973  30.783  1.00  0.00     0.006 C 
BRANCH   2   3
ATOM      3  C   UNL     1       0.974  13.636  30.170  1.00  0.00     0.053 C 
BRANCH   3   4
ATOM      4  C   UNL     1      -0.189  12.842  29.658  1.00  0.00     0.041 C 
ATOM      5  O   UNL     1      -1.366  13.179  29.953  1.00  0.00    -0.550 OA
ATOM      6  O   UNL     1       0.026  11.749  28.827  1.00  0.00    -0.550 OA
ENDBRANCH   3   4
ENDBRANCH   2   3
ENDBRANCH   1   2
BRANCH   1   7
ATOM      7  C   UNL     1      -0.432  16.530  28.937  1.00  0.00     0.000 C 
BRANCH   7   8
ATOM      8  C   UNL     1      -0.431  17.992  28.466  1.00  0.00    -0.000 C 
BRANCH   8   9
ATOM      9  C   UNL     1      -1.089  18.905  29.511  1.00  0.00    -0.000 C 
BRANCH   9  10
ATOM     10  C   UNL     1      -2.591  19.107  29.257  1.00  0.00    -0.003 C 
ATOM     11  C   UNL     1      -3.122  20.406  29.862  1.00  0.00     0.004 C 
ENDBRANCH   9  10
ENDBRANCH   8   9
ENDBRANCH   7   8
ENDBRANCH   1   7
TORSDOF 7
ENDMDL
MODEL 4
REMARK VINA RESULT:    -3.628      1.857      3.226
REMARK INTER + INTRA:          -5.466
REMARK INTER:                  -5.064
REMARK INTRA:                  -0.402
REMARK UNBOUND:                -0.354
REMARK SMILES CCCCCCCCC(=O)[O-]
REMARK SMILES IDX 6 1 7 2 8 3 9 4 10 5 11 6 5 7 4 8 3 9 2 10 1 11
REMARK H PARENT
REMARK Flexibility Score: inf
ROOT
ATOM      1  C   UNL     1      -2.801  19.555  29.476  1.00  0.00     0.000 C 
ENDROOT
BRANCH   1   2
ATOM      2  C   UNL     1      -1.315  19.144  29.425  1.00  0.00     0.006 C 
BRANCH   2   3
ATOM      3  C   UNL     1      -1.067  17.698  28.970  1.00  0.00     0.053 C 
BRANCH   3   4
ATOM      4  C   UNL     1       0.263  17.543  28.297  1.00  0.00     0.041 C 
ATOM      5  O   UNL     1       0.334  17.476  27.041  1.00  0.00    -0.550 OA
ATOM      6  O   UNL     1       1.427  17.507  29.054  1.00  0.00    -0.550 OA
ENDBRANCH   3   4
ENDBRANCH   2   3
ENDBRANCH   1   2
BRANCH   1   7
ATOM      7  C   UNL     1      -3.059  21.011  29.908  1.00  0.00     0.000 C 
BRANCH   7   8
ATOM      8  C   UNL     1      -1.863  21.641  30.636  1.00  0.00    -0.000 C 
BRANCH   8   9
ATOM      9  C   UNL     1      -1.735  23.132  30.291  1.00  0.00    -0.000 C 
BRANCH   9  10
ATOM     10  C   UNL     1      -0.272  23.591  30.190  1.00  0.00    -0.003 C 
ATOM     11  C   UNL     1       0.701  22.427  30.004  1.00  0.00     0.004 C 
ENDBRANCH   9  10
ENDBRANCH   8   9
ENDBRANCH   7   8
ENDBRANCH   1   7
TORSDOF 7
ENDMDL
MODEL 5
REMARK VINA RESULT:    -3.612      3.183      4.540
REMARK INTER + INTRA:          -5.444
REMARK INTER:                  -4.664
REMARK INTRA:                  -0.780
REMARK UNBOUND:                -0.354
REMARK SMILES CCCCCCCCC(=O)[O-]
REMARK SMILES IDX 6 1 7 2 8 3 9 4 10 5 11 6 5 7 4 8 3 9 2 10 1 11
REMARK H PARENT
REMARK Flexibility Score: inf
ROOT
ATOM      1  C   UNL     1       1.840  15.288  30.159  1.00  0.00     0.000 C 
ENDROOT
BRANCH   1   2
ATOM      2  C   UNL     1       0.608  14.614  30.798  1.00  0.00     0.006 C 
BRANCH   2   3
ATOM      3  C   UNL     1      -0.504  14.242  29.806  1.00  0.00     0.053 C 
BRANCH   3   4
ATOM      4  C   UNL     1      -0.633  12.759  29.640  1.00  0.00     0.041 C 
ATOM      5  O   UNL     1      -1.600  12.144  30.164  1.00  0.00    -0.550 OA
ATOM      6  O   UNL     1       0.294  12.059  28.878  1.00  0.00    -0.550 OA
ENDBRANCH   3   4
ENDBRANCH   2   3
ENDBRANCH   1   2
BRANCH   1   7
ATOM      7  C   UNL     1       1.764  15.467  28.631  1.00  0.00     0.000 C 
BRANCH   7   8
ATOM      8  C   UNL     1       1.698  16.940  28.203  1.00  0.00    -0.000 C 
BRANCH   8   9
ATOM      9  C   UNL     1       0.292  17.305  27.704  1.00  0.00    -0.000 C 
BRANCH   9  10
ATOM     10  C   UNL     1      -0.558  17.990  28.784  1.00  0.00    -0.003 C 
ATOM     11  C   UNL     1       0.286  18.743  29.812  1.00  0.00     0.004 C 
ENDBRANCH   9  10
ENDBRANCH   8   9
ENDBRANCH   7   8
ENDBRANCH   1   7
TORSDOF 7
ENDMDL
MODEL 6
REMARK VINA RESULT:    -3.563      3.570      4.526
REMARK INTER + INTRA:          -5.375
REMARK INTER:                  -5.012
REMARK INTRA:                  -0.363
REMARK UNBOUND:                -0.354
REMARK SMILES CCCCCCCCC(=O)[O-]
REMARK SMILES IDX 6 1 7 2 8 3 9 4 10 5 11 6 5 7 4 8 3 9 2 10 1 11
REMARK H PARENT
REMARK Flexibility Score: inf
ROOT
ATOM      1  C   UNL     1       0.164  14.403  30.540  1.00  0.00     0.000 C 
ENDROOT
BRANCH   1   2
ATOM      2  C   UNL     1      -0.962  13.649  29.804  1.00  0.00     0.006 C 
BRANCH   2   3
ATOM      3  C   UNL     1      -0.812  12.119  29.803  1.00  0.00     0.053 C 
BRANCH   3   4
ATOM      4  C   UNL     1       0.495  11.685  29.215  1.00  0.00     0.041 C 
ATOM      5  O   UNL     1       0.680  11.741  27.970  1.00  0.00    -0.550 OA
ATOM      6  O   UNL     1       1.523  11.252  30.044  1.00  0.00    -0.550 OA
ENDBRANCH   3   4
ENDBRANCH   2   3
ENDBRANCH   1   2
BRANCH   1   7
ATOM      7  C   UNL     1       0.534  15.771  29.936  1.00  0.00     0.000 C 
BRANCH   7   8
ATOM      8  C   UNL     1      -0.568  16.345  29.034  1.00  0.00    -0.000 C 
BRANCH   8   9
ATOM      9  C   UNL     1      -0.166  17.723  28.488  1.00  0.00    -0.000 C 
BRANCH   9  10
ATOM     10  C   UNL     1       0.735  18.504  29.457  1.00  0.00    -0.003 C 
ATOM     11  C   UNL     1       0.000  19.645  30.158  1.00  0.00     0.004 C 
ENDBRANCH   9  10
ENDBRANCH   8   9
ENDBRANCH   7   8
ENDBRANCH   1   7
TORSDOF 7
ENDMDL
MODEL 7
REMARK VINA RESULT:    -3.522      4.874      5.899
REMARK INTER + INTRA:          -5.317
REMARK INTER:                  -5.056
REMARK INTRA:                  -0.261
REMARK UNBOUND:                -0.354
REMARK SMILES CCCCCCCCC(=O)[O-]
REMARK SMILES IDX 6 1 7 2 8 3 9 4 10 5 11 6 5 7 4 8 3 9 2 10 1 11
REMARK H PARENT
REMARK Flexibility Score: inf
ROOT
ATOM      1  C   UNL     1       0.634  14.453  31.271  1.00  0.00     0.000 C 
ENDROOT
BRANCH   1   2
ATOM      2  C   UNL     1       0.040  13.148  31.838  1.00  0.00     0.006 C 
BRANCH   2   3
ATOM      3  C   UNL     1      -1.240  12.670  31.134  1.00  0.00     0.053 C 
BRANCH   3   4
ATOM      4  C   UNL     1      -1.786  11.420  31.754  1.00  0.00     0.041 C 
ATOM      5  O   UNL     1      -1.029  10.438  31.974  1.00  0.00    -0.550 OA
ATOM      6  O   UNL     1      -3.125  11.352  32.120  1.00  0.00    -0.550 OA
ENDBRANCH   3   4
ENDBRANCH   2   3
ENDBRANCH   1   2
BRANCH   1   7
ATOM      7  C   UNL     1       0.158  14.824  29.854  1.00  0.00     0.000 C 
BRANCH   7   8
ATOM      8  C   UNL     1       0.469  16.280  29.479  1.00  0.00    -0.000 C 
BRANCH   8   9
ATOM      9  C   UNL     1      -0.715  16.920  28.740  1.00  0.00    -0.000 C 
BRANCH   9  10
ATOM     10  C   UNL     1      -0.913  18.398  29.108  1.00  0.00    -0.003 C 
ATOM     11  C   UNL     1       0.247  18.963  29.926  1.00  0.00     0.004 C 
ENDBRANCH   9  10
ENDBRANCH   8   9
ENDBRANCH   7   8
ENDBRANCH   1   7
TORSDOF 7
ENDMDL
MODEL 8
REMARK VINA RESULT:    -3.486      3.882      5.683
REMARK INTER + INTRA:          -5.266
REMARK INTER:                  -4.732
REMARK INTRA:                  -0.534
REMARK UNBOUND:                -0.354
REMARK SMILES CCCCCCCCC(=O)[O-]
REMARK SMILES IDX 6 1 7 2 8 3 9 4 10 5 11 6 5 7 4 8 3 9 2 10 1 11
REMARK H PARENT
REMARK Flexibility Score: inf
ROOT
ATOM      1  C   UNL     1       0.578  15.133  30.688  1.00  0.00     0.000 C 
ENDROOT
BRANCH   1   2
ATOM      2  C   UNL     1       0.159  14.062  29.660  1.00  0.00     0.006 C 
BRANCH   2   3
ATOM      3  C   UNL     1      -1.242  13.473  29.886  1.00  0.00     0.053 C 
BRANCH   3   4
ATOM      4  C   UNL     1      -1.183  12.101  30.484  1.00  0.00     0.041 C 
ATOM      5  O   UNL     1      -0.096  11.464  30.503  1.00  0.00    -0.550 OA
ATOM      6  O   UNL     1      -2.319  11.539  31.053  1.00  0.00    -0.550 OA
ENDBRANCH   3   4
ENDBRANCH   2   3
ENDBRANCH   1   2
BRANCH   1   7
ATOM      7  C   UNL     1       0.828  16.535  30.103  1.00  0.00     0.000 C 
BRANCH   7   8
ATOM      8  C   UNL     1      -0.209  16.937  29.044  1.00  0.00    -0.000 C 
BRANCH   8   9
ATOM      9  C   UNL     1       0.471  17.261  27.706  1.00  0.00    -0.000 C 
BRANCH   9  10
ATOM     10  C   UNL     1       1.997  17.098  27.763  1.00  0.00    -0.003 C 
ATOM     11  C   UNL     1       2.484  15.838  27.050  1.00  0.00     0.004 C 
ENDBRANCH   9  10
ENDBRANCH   8   9
ENDBRANCH   7   8
ENDBRANCH   1   7
TORSDOF 7
ENDMDL
MODEL 9
REMARK VINA RESULT:    -3.450     14.454     15.940
REMARK INTER + INTRA:          -5.215
REMARK INTER:                  -4.504
REMARK INTRA:                  -0.711
REMARK UNBOUND:                -0.354
REMARK SMILES CCCCCCCCC(=O)[O-]
REMARK SMILES IDX 6 1 7 2 8 3 9 4 10 5 11 6 5 7 4 8 3 9 2 10 1 11
REMARK H PARENT
REMARK Flexibility Score: inf
ROOT
ATOM      1  C   UNL     1       9.303  15.402  17.925  1.00  0.00     0.000 C 
ENDROOT
BRANCH   1   2
ATOM      2  C   UNL     1       8.476  14.228  18.490  1.00  0.00     0.006 C 
BRANCH   2   3
ATOM      3  C   UNL     1       8.147  13.128  17.469  1.00  0.00     0.053 C 
BRANCH   3   4
ATOM      4  C   UNL     1       9.380  12.590  16.809  1.00  0.00     0.041 C 
ATOM      5  O   UNL     1      10.276  12.034  17.497  1.00  0.00    -0.550 OA
ATOM      6  O   UNL     1       9.524  12.672  15.429  1.00  0.00    -0.550 OA
ENDBRANCH   3   4
ENDBRANCH   2   3
ENDBRANCH   1   2
BRANCH   1   7
ATOM      7  C   UNL     1       8.484  16.485  17.198  1.00  0.00     0.000 C 
BRANCH   7   8
ATOM      8  C   UNL     1       9.225  17.092  15.999  1.00  0.00    -0.000 C 
BRANCH   8   9
ATOM      9  C   UNL     1       9.206  16.133  14.799  1.00  0.00    -0.000 C 
BRANCH   9  10
ATOM     10  C   UNL     1       7.795  15.621  14.474  1.00  0.00    -0.003 C 
ATOM     11  C   UNL     1       7.752  14.776  13.202  1.00  0.00     0.004 C 
ENDBRANCH   9  10
ENDBRANCH   8   9
ENDBRANCH   7   8
ENDBRANCH   1   7
TORSDOF 7
ENDMDL
