MODEL 1
REMARK VINA RESULT:    -5.690      0.000      0.000
REMARK INTER + INTRA:          -5.690
REMARK INTER:                  -5.690
REMARK INTRA:                   0.000
REMARK UNBOUND:                 0.000
REMARK SMILES CC1(C)[C@@H]2CC[C@@]1(C)C(=O)C2
REMARK SMILES IDX 1 1 2 2 4 3 5 4 6 5 7 6 9 7 10 8 11 9 8 10 3 11
REMARK H PARENT
REMARK Flexibility Score: inf
ROOT
ATOM      1  C   UNL     1      21.839  12.110   1.766  1.00  0.00     0.012 C 
ATOM      2  C   UNL     1      21.797  12.120   0.209  1.00  0.00    -0.020 C 
ATOM      3  C   UNL     1      22.909  12.977  -0.442  1.00  0.00     0.003 C 
ATOM      4  C   UNL     1      22.558  14.413   0.037  1.00  0.00     0.005 C 
ATOM      5  C   UNL     1      21.010  14.408   0.044  1.00  0.00     0.015 C 
ATOM      6  C   UNL     1      20.673  12.970  -0.420  1.00  0.00     0.032 C 
ATOM      7  C   UNL     1      21.074  12.931  -1.874  1.00  0.00     0.139 C 
ATOM      8  O   UNL     1      20.314  12.983  -2.830  1.00  0.00    -0.299 OA
ATOM      9  C   UNL     1      22.568  12.925  -1.958  1.00  0.00     0.080 C 
ATOM     10  C   UNL     1      19.235  12.523  -0.133  1.00  0.00     0.020 C 
ATOM     11  C   UNL     1      21.815  10.626  -0.242  1.00  0.00     0.012 C 
ENDROOT
TORSDOF 0
ENDMDL
MODEL 2
REMARK VINA RESULT:    -5.659      2.402      3.795
REMARK INTER + INTRA:          -5.659
REMARK INTER:                  -5.659
REMARK INTRA:                   0.000
REMARK UNBOUND:                 0.000
REMARK SMILES CC1(C)[C@@H]2CC[C@@]1(C)C(=O)C2
REMARK SMILES IDX 1 1 2 2 4 3 5 4 6 5 7 6 9 7 10 8 11 9 8 10 3 11
REMARK H PARENT
REMARK Flexibility Score: inf
ROOT
ATOM      1  C   UNL     1      22.875  13.264  -1.116  1.00  0.00     0.012 C 
ATOM      2  C   UNL     1      22.870  13.342   0.440  1.00  0.00    -0.020 C 
ATOM      3  C   UNL     1      22.010  12.249   1.120  1.00  0.00     0.003 C 
ATOM      4  C   UNL     1      20.574  12.595   0.638  1.00  0.00     0.005 C 
ATOM      5  C   UNL     1      20.586  14.143   0.594  1.00  0.00     0.015 C 
ATOM      6  C   UNL     1      22.027  14.485   1.046  1.00  0.00     0.032 C 
ATOM      7  C   UNL     1      22.069  14.118   2.509  1.00  0.00     0.139 C 
ATOM      8  O   UNL     1      22.023  14.899   3.447  1.00  0.00    -0.299 OA
ATOM      9  C   UNL     1      22.069  12.626   2.627  1.00  0.00     0.080 C 
ATOM     10  C   UNL     1      22.480  15.913   0.723  1.00  0.00     0.020 C 
ATOM     11  C   UNL     1      24.366  13.329   0.887  1.00  0.00     0.012 C 
ENDROOT
TORSDOF 0
ENDMDL
MODEL 3
REMARK VINA RESULT:    -5.637      0.893      2.859
REMARK INTER + INTRA:          -5.637
REMARK INTER:                  -5.637
REMARK INTRA:                   0.000
REMARK UNBOUND:                 0.000
REMARK SMILES CC1(C)[C@@H]2CC[C@@]1(C)C(=O)C2
REMARK SMILES IDX 1 1 2 2 4 3 5 4 6 5 7 6 9 7 10 8 11 9 8 10 3 11
REMARK H PARENT
REMARK Flexibility Score: inf
ROOT
ATOM      1  C   UNL     1      23.867  12.591   0.154  1.00  0.00     0.012 C 
ATOM      2  C   UNL     1      22.435  13.117  -0.165  1.00  0.00    -0.020 C 
ATOM      3  C   UNL     1      21.308  12.354   0.572  1.00  0.00     0.003 C 
ATOM      4  C   UNL     1      21.416  10.924  -0.027  1.00  0.00     0.005 C 
ATOM      5  C   UNL     1      21.806  11.194  -1.501  1.00  0.00     0.015 C 
ATOM      6  C   UNL     1      21.882  12.739  -1.555  1.00  0.00     0.032 C 
ATOM      7  C   UNL     1      20.451  13.200  -1.421  1.00  0.00     0.139 C 
ATOM      8  O   UNL     1      19.739  13.607  -2.327  1.00  0.00    -0.299 OA
ATOM      9  C   UNL     1      20.008  12.976  -0.009  1.00  0.00     0.080 C 
ATOM     10  C   UNL     1      22.632  13.304  -2.767  1.00  0.00     0.020 C 
ATOM     11  C   UNL     1      22.452  14.649   0.135  1.00  0.00     0.012 C 
ENDROOT
TORSDOF 0
ENDMDL
MODEL 4
REMARK VINA RESULT:    -5.626      2.050      3.422
REMARK INTER + INTRA:          -5.626
REMARK INTER:                  -5.626
REMARK INTRA:                   0.000
REMARK UNBOUND:                 0.000
REMARK SMILES CC1(C)[C@@H]2CC[C@@]1(C)C(=O)C2
REMARK SMILES IDX 1 1 2 2 4 3 5 4 6 5 7 6 9 7 10 8 11 9 8 10 3 11
REMARK H PARENT
REMARK Flexibility Score: inf
ROOT
ATOM      1  C   UNL     1      22.295  11.007   0.625  1.00  0.00     0.012 C 
ATOM      2  C   UNL     1      22.143  12.485   1.094  1.00  0.00    -0.020 C 
ATOM      3  C   UNL     1      20.953  13.230   0.442  1.00  0.00     0.003 C 
ATOM      4  C   UNL     1      21.353  13.263  -1.059  1.00  0.00     0.005 C 
ATOM      5  C   UNL     1      22.891  13.442  -1.006  1.00  0.00     0.015 C 
ATOM      6  C   UNL     1      23.175  13.476   0.516  1.00  0.00     0.032 C 
ATOM      7  C   UNL     1      22.596  14.788   0.986  1.00  0.00     0.139 C 
ATOM      8  O   UNL     1      23.229  15.798   1.254  1.00  0.00    -0.299 OA
ATOM      9  C   UNL     1      21.103  14.685   0.968  1.00  0.00     0.080 C 
ATOM     10  C   UNL     1      24.640  13.240   0.901  1.00  0.00     0.020 C 
ATOM     11  C   UNL     1      22.077  12.448   2.653  1.00  0.00     0.012 C 
ENDROOT
TORSDOF 0
ENDMDL
MODEL 5
REMARK VINA RESULT:    -5.618      1.277      2.523
REMARK INTER + INTRA:          -5.618
REMARK INTER:                  -5.618
REMARK INTRA:                   0.000
REMARK UNBOUND:                 0.000
REMARK SMILES CC1(C)[C@@H]2CC[C@@]1(C)C(=O)C2
REMARK SMILES IDX 1 1 2 2 4 3 5 4 6 5 7 6 9 7 10 8 11 9 8 10 3 11
REMARK H PARENT
REMARK Flexibility Score: inf
ROOT
ATOM      1  C   UNL     1      20.188  14.858  -0.077  1.00  0.00     0.012 C 
ATOM      2  C   UNL     1      20.539  13.340  -0.082  1.00  0.00    -0.020 C 
ATOM      3  C   UNL     1      21.643  12.949   0.931  1.00  0.00     0.003 C 
ATOM      4  C   UNL     1      22.885  13.711   0.393  1.00  0.00     0.005 C 
ATOM      5  C   UNL     1      22.701  13.637  -1.143  1.00  0.00     0.015 C 
ATOM      6  C   UNL     1      21.372  12.854  -1.287  1.00  0.00     0.032 C 
ATOM      7  C   UNL     1      21.705  11.449  -0.849  1.00  0.00     0.139 C 
ATOM      8  O   UNL     1      21.880  10.490  -1.585  1.00  0.00    -0.299 OA
ATOM      9  C   UNL     1      21.890  11.443   0.637  1.00  0.00     0.080 C 
ATOM     10  C   UNL     1      20.709  12.963  -2.665  1.00  0.00     0.020 C 
ATOM     11  C   UNL     1      19.195  12.576   0.132  1.00  0.00     0.012 C 
ENDROOT
TORSDOF 0
ENDMDL
MODEL 6
REMARK VINA RESULT:    -5.602      1.222      2.630
REMARK INTER + INTRA:          -5.602
REMARK INTER:                  -5.602
REMARK INTRA:                   0.000
REMARK UNBOUND:                 0.000
REMARK SMILES CC1(C)[C@@H]2CC[C@@]1(C)C(=O)C2
REMARK SMILES IDX 1 1 2 2 4 3 5 4 6 5 7 6 9 7 10 8 11 9 8 10 3 11
REMARK H PARENT
REMARK Flexibility Score: inf
ROOT
ATOM      1  C   UNL     1      24.336  12.869   0.384  1.00  0.00     0.012 C 
ATOM      2  C   UNL     1      22.850  13.060  -0.041  1.00  0.00    -0.020 C 
ATOM      3  C   UNL     1      22.137  14.229   0.682  1.00  0.00     0.003 C 
ATOM      4  C   UNL     1      22.135  13.762   2.164  1.00  0.00     0.005 C 
ATOM      5  C   UNL     1      21.935  12.231   2.047  1.00  0.00     0.015 C 
ATOM      6  C   UNL     1      21.859  12.015   0.515  1.00  0.00     0.032 C 
ATOM      7  C   UNL     1      20.544  12.631   0.105  1.00  0.00     0.139 C 
ATOM      8  O   UNL     1      19.520  12.022  -0.166  1.00  0.00    -0.299 OA
ATOM      9  C   UNL     1      20.668  14.120   0.187  1.00  0.00     0.080 C 
ATOM     10  C   UNL     1      22.067  10.566   0.059  1.00  0.00     0.020 C 
ATOM     11  C   UNL     1      22.849  13.195  -1.597  1.00  0.00     0.012 C 
ENDROOT
TORSDOF 0
ENDMDL
MODEL 7
REMARK VINA RESULT:    -5.567      1.394      2.748
REMARK INTER + INTRA:          -5.567
REMARK INTER:                  -5.567
REMARK INTRA:                   0.000
REMARK UNBOUND:                 0.000
REMARK SMILES CC1(C)[C@@H]2CC[C@@]1(C)C(=O)C2
REMARK SMILES IDX 1 1 2 2 4 3 5 4 6 5 7 6 9 7 10 8 11 9 8 10 3 11
REMARK H PARENT
REMARK Flexibility Score: inf
ROOT
ATOM      1  C   UNL     1      20.853  14.778   0.448  1.00  0.00     0.012 C 
ATOM      2  C   UNL     1      21.319  13.678  -0.551  1.00  0.00    -0.020 C 
ATOM      3  C   UNL     1      20.427  13.557  -1.811  1.00  0.00     0.003 C 
ATOM      4  C   UNL     1      19.065  13.096  -1.220  1.00  0.00     0.005 C 
ATOM      5  C   UNL     1      19.487  12.167  -0.055  1.00  0.00     0.015 C 
ATOM      6  C   UNL     1      21.034  12.224  -0.120  1.00  0.00     0.032 C 
ATOM      7  C   UNL     1      21.393  11.482  -1.384  1.00  0.00     0.139 C 
ATOM      8  O   UNL     1      21.836  10.345  -1.448  1.00  0.00    -0.299 OA
ATOM      9  C   UNL     1      21.018  12.330  -2.559  1.00  0.00     0.080 C 
ATOM     10  C   UNL     1      21.748  11.733   1.145  1.00  0.00     0.020 C 
ATOM     11  C   UNL     1      22.816  13.980  -0.874  1.00  0.00     0.012 C 
ENDROOT
TORSDOF 0
ENDMDL
MODEL 8
REMARK VINA RESULT:    -5.519      1.887      3.245
REMARK INTER + INTRA:          -5.519
REMARK INTER:                  -5.519
REMARK INTRA:                   0.000
REMARK UNBOUND:                 0.000
REMARK SMILES CC1(C)[C@@H]2CC[C@@]1(C)C(=O)C2
REMARK SMILES IDX 1 1 2 2 4 3 5 4 6 5 7 6 9 7 10 8 11 9 8 10 3 11
REMARK H PARENT
REMARK Flexibility Score: inf
ROOT
ATOM      1  C   UNL     1      21.083  12.412  -2.176  1.00  0.00     0.012 C 
ATOM      2  C   UNL     1      20.957  12.543  -0.629  1.00  0.00    -0.020 C 
ATOM      3  C   UNL     1      21.368  13.932  -0.083  1.00  0.00     0.003 C 
ATOM      4  C   UNL     1      22.881  14.000  -0.428  1.00  0.00     0.005 C 
ATOM      5  C   UNL     1      23.349  12.537  -0.231  1.00  0.00     0.015 C 
ATOM      6  C   UNL     1      22.044  11.818   0.191  1.00  0.00     0.032 C 
ATOM      7  C   UNL     1      21.747  12.341   1.575  1.00  0.00     0.139 C 
ATOM      8  O   UNL     1      21.936  11.744   2.624  1.00  0.00    -0.299 OA
ATOM      9  C   UNL     1      21.278  13.757   1.459  1.00  0.00     0.080 C 
ATOM     10  C   UNL     1      22.086  10.290   0.071  1.00  0.00     0.020 C 
ATOM     11  C   UNL     1      19.492  12.140  -0.270  1.00  0.00     0.012 C 
ENDROOT
TORSDOF 0
ENDMDL
MODEL 9
REMARK VINA RESULT:    -5.500      2.509      3.894
REMARK INTER + INTRA:          -5.500
REMARK INTER:                  -5.500
REMARK INTRA:                   0.000
REMARK UNBOUND:                 0.000
REMARK SMILES CC1(C)[C@@H]2CC[C@@]1(C)C(=O)C2
REMARK SMILES IDX 1 1 2 2 4 3 5 4 6 5 7 6 9 7 10 8 11 9 8 10 3 11
REMARK H PARENT
REMARK Flexibility Score: inf
ROOT
ATOM      1  C   UNL     1      20.353  14.709   0.779  1.00  0.00     0.012 C 
ATOM      2  C   UNL     1      21.891  14.463   0.824  1.00  0.00    -0.020 C 
ATOM      3  C   UNL     1      22.389  13.418  -0.203  1.00  0.00     0.003 C 
ATOM      4  C   UNL     1      21.700  12.111   0.278  1.00  0.00     0.005 C 
ATOM      5  C   UNL     1      21.713  12.258   1.819  1.00  0.00     0.015 C 
ATOM      6  C   UNL     1      22.397  13.633   2.023  1.00  0.00     0.032 C 
ATOM      7  C   UNL     1      23.835  13.411   1.623  1.00  0.00     0.139 C 
ATOM      8  O   UNL     1      24.781  13.281   2.385  1.00  0.00    -0.299 OA
ATOM      9  C   UNL     1      23.899  13.268   0.134  1.00  0.00     0.080 C 
ATOM     10  C   UNL     1      22.200  14.248   3.413  1.00  0.00     0.020 C 
ATOM     11  C   UNL     1      22.566  15.862   0.670  1.00  0.00     0.012 C 
ENDROOT
TORSDOF 0
ENDMDL
