MODEL 1
REMARK VINA RESULT:    -3.958      0.000      0.000
REMARK INTER + INTRA:         -10.161
REMARK INTER:                  -7.661
REMARK INTRA:                  -2.500
REMARK UNBOUND:                -2.500
REMARK SMILES CCCCCCCCCCCCCCCCCC(=O)[O-]
REMARK SMILES IDX 10 1 11 2 12 3 13 4 14 5 15 6 16 7 17 8 18 9 19 10 20 11
REMARK SMILES IDX 9 12 8 13 7 14 6 15 5 16 4 17 3 18 2 19 1 20
REMARK H PARENT
REMARK Flexibility Score: inf
ROOT
ATOM      1  C   UNL     1      10.282 -17.248  31.664  1.00  0.00     0.000 C 
ENDROOT
BRANCH   1   2
ATOM      2  C   UNL     1       9.618 -17.822  32.928  1.00  0.00     0.000 C 
BRANCH   2   3
ATOM      3  C   UNL     1       8.116 -17.506  33.002  1.00  0.00     0.000 C 
BRANCH   3   4
ATOM      4  C   UNL     1       7.661 -17.118  34.417  1.00  0.00     0.000 C 
BRANCH   4   5
ATOM      5  C   UNL     1       8.861 -16.982  35.362  1.00  0.00     0.000 C 
BRANCH   5   6
ATOM      6  C   UNL     1       8.953 -15.562  35.938  1.00  0.00     0.000 C 
BRANCH   6   7
ATOM      7  C   UNL     1      10.385 -14.999  35.933  1.00  0.00     0.006 C 
BRANCH   7   8
ATOM      8  C   UNL     1      10.937 -14.708  34.527  1.00  0.00     0.053 C 
BRANCH   8   9
ATOM      9  C   UNL     1      12.093 -13.756  34.548  1.00  0.00     0.041 C 
ATOM     10  O   UNL     1      12.603 -13.354  33.469  1.00  0.00    -0.550 OA
ATOM     11  O   UNL     1      12.633 -13.339  35.759  1.00  0.00    -0.550 OA
ENDBRANCH   8   9
ENDBRANCH   7   8
ENDBRANCH   6   7
ENDBRANCH   5   6
ENDBRANCH   4   5
ENDBRANCH   3   4
ENDBRANCH   2   3
ENDBRANCH   1   2
BRANCH   1  12
ATOM     12  C   UNL     1      10.930 -18.334  30.790  1.00  0.00     0.000 C 
BRANCH  12  13
ATOM     13  C   UNL     1      10.625 -19.756  31.293  1.00  0.00    -0.000 C 
BRANCH  13  14
ATOM     14  C   UNL     1      10.379 -20.754  30.147  1.00  0.00    -0.000 C 
BRANCH  14  15
ATOM     15  C   UNL     1       8.943 -20.766  29.586  1.00  0.00    -0.000 C 
BRANCH  15  16
ATOM     16  C   UNL     1       7.866 -20.202  30.534  1.00  0.00    -0.000 C 
BRANCH  16  17
ATOM     17  C   UNL     1       6.990 -19.084  29.933  1.00  0.00    -0.000 C 
BRANCH  17  18
ATOM     18  C   UNL     1       7.577 -18.400  28.685  1.00  0.00    -0.000 C 
BRANCH  18  19
ATOM     19  C   UNL     1       7.850 -16.903  28.898  1.00  0.00    -0.003 C 
ATOM     20  C   UNL     1       9.123 -16.470  28.177  1.00  0.00     0.004 C 
ENDBRANCH  18  19
ENDBRANCH  17  18
ENDBRANCH  16  17
ENDBRANCH  15  16
ENDBRANCH  14  15
ENDBRANCH  13  14
ENDBRANCH  12  13
ENDBRANCH   1  12
TORSDOF 16
ENDMDL
MODEL 2
REMARK VINA RESULT:    -3.935      1.344      2.418
REMARK INTER + INTRA:         -10.116
REMARK INTER:                  -7.999
REMARK INTRA:                  -2.117
REMARK UNBOUND:                -2.500
REMARK SMILES CCCCCCCCCCCCCCCCCC(=O)[O-]
REMARK SMILES IDX 10 1 11 2 12 3 13 4 14 5 15 6 16 7 17 8 18 9 19 10 20 11
REMARK SMILES IDX 9 12 8 13 7 14 6 15 5 16 4 17 3 18 2 19 1 20
REMARK H PARENT
REMARK Flexibility Score: inf
ROOT
ATOM      1  C   UNL     1       8.429 -15.600  32.015  1.00  0.00     0.000 C 
ENDROOT
BRANCH   1   2
ATOM      2  C   UNL     1       7.296 -16.476  32.576  1.00  0.00     0.000 C 
BRANCH   2   3
ATOM      3  C   UNL     1       7.776 -17.426  33.684  1.00  0.00     0.000 C 
BRANCH   3   4
ATOM      4  C   UNL     1       8.131 -16.687  34.983  1.00  0.00     0.000 C 
BRANCH   4   5
ATOM      5  C   UNL     1       9.616 -16.859  35.325  1.00  0.00     0.000 C 
BRANCH   5   6
ATOM      6  C   UNL     1      10.159 -15.625  36.061  1.00  0.00     0.000 C 
BRANCH   6   7
ATOM      7  C   UNL     1      10.262 -14.382  35.161  1.00  0.00     0.006 C 
BRANCH   7   8
ATOM      8  C   UNL     1      11.501 -14.371  34.248  1.00  0.00     0.053 C 
BRANCH   8   9
ATOM      9  C   UNL     1      12.603 -13.511  34.786  1.00  0.00     0.041 C 
ATOM     10  O   UNL     1      13.657 -13.341  34.117  1.00  0.00    -0.550 OA
ATOM     11  O   UNL     1      12.485 -12.925  36.041  1.00  0.00    -0.550 OA
ENDBRANCH   8   9
ENDBRANCH   7   8
ENDBRANCH   6   7
ENDBRANCH   5   6
ENDBRANCH   4   5
ENDBRANCH   3   4
ENDBRANCH   2   3
ENDBRANCH   1   2
BRANCH   1  12
ATOM     12  C   UNL     1       9.289 -16.336  30.975  1.00  0.00     0.000 C 
BRANCH  12  13
ATOM     13  C   UNL     1      10.656 -16.764  31.536  1.00  0.00    -0.000 C 
BRANCH  13  14
ATOM     14  C   UNL     1      11.168 -18.079  30.920  1.00  0.00    -0.000 C 
BRANCH  14  15
ATOM     15  C   UNL     1      10.568 -19.363  31.527  1.00  0.00    -0.000 C 
BRANCH  15  16
ATOM     16  C   UNL     1      10.377 -20.527  30.533  1.00  0.00    -0.000 C 
BRANCH  16  17
ATOM     17  C   UNL     1       9.275 -20.310  29.478  1.00  0.00    -0.000 C 
BRANCH  17  18
ATOM     18  C   UNL     1       8.180 -21.392  29.451  1.00  0.00    -0.000 C 
BRANCH  18  19
ATOM     19  C   UNL     1       6.788 -20.842  29.797  1.00  0.00    -0.003 C 
ATOM     20  C   UNL     1       6.878 -19.756  30.866  1.00  0.00     0.004 C 
ENDBRANCH  18  19
ENDBRANCH  17  18
ENDBRANCH  16  17
ENDBRANCH  15  16
ENDBRANCH  14  15
ENDBRANCH  13  14
ENDBRANCH  12  13
ENDBRANCH   1  12
TORSDOF 16
ENDMDL
MODEL 3
REMARK VINA RESULT:    -3.912      3.464      7.241
REMARK INTER + INTRA:         -10.072
REMARK INTER:                  -8.062
REMARK INTRA:                  -2.010
REMARK UNBOUND:                -2.500
REMARK SMILES CCCCCCCCCCCCCCCCCC(=O)[O-]
REMARK SMILES IDX 10 1 11 2 12 3 13 4 14 5 15 6 16 7 17 8 18 9 19 10 20 11
REMARK SMILES IDX 9 12 8 13 7 14 6 15 5 16 4 17 3 18 2 19 1 20
REMARK H PARENT
REMARK Flexibility Score: inf
ROOT
ATOM      1  C   UNL     1       9.884 -15.661  31.418  1.00  0.00     0.000 C 
ENDROOT
BRANCH   1   2
ATOM      2  C   UNL     1      10.835 -16.835  31.710  1.00  0.00     0.000 C 
BRANCH   2   3
ATOM      3  C   UNL     1      10.671 -17.991  30.710  1.00  0.00     0.000 C 
BRANCH   3   4
ATOM      4  C   UNL     1      10.194 -19.288  31.379  1.00  0.00     0.000 C 
BRANCH   4   5
ATOM      5  C   UNL     1       8.670 -19.292  31.544  1.00  0.00     0.000 C 
BRANCH   5   6
ATOM      6  C   UNL     1       7.991 -20.048  30.393  1.00  0.00     0.000 C 
BRANCH   6   7
ATOM      7  C   UNL     1       8.894 -21.122  29.761  1.00  0.00     0.006 C 
BRANCH   7   8
ATOM      8  C   UNL     1       8.636 -21.353  28.262  1.00  0.00     0.053 C 
BRANCH   8   9
ATOM      9  C   UNL     1       9.620 -20.633  27.392  1.00  0.00     0.041 C 
ATOM     10  O   UNL     1      10.408 -21.284  26.655  1.00  0.00    -0.550 OA
ATOM     11  O   UNL     1       9.696 -19.246  27.419  1.00  0.00    -0.550 OA
ENDBRANCH   8   9
ENDBRANCH   7   8
ENDBRANCH   6   7
ENDBRANCH   5   6
ENDBRANCH   4   5
ENDBRANCH   3   4
ENDBRANCH   2   3
ENDBRANCH   1   2
BRANCH   1  12
ATOM     12  C   UNL     1       9.837 -14.637  32.563  1.00  0.00     0.000 C 
BRANCH  12  13
ATOM     13  C   UNL     1      11.159 -14.567  33.346  1.00  0.00    -0.000 C 
BRANCH  13  14
ATOM     14  C   UNL     1      10.958 -14.184  34.824  1.00  0.00    -0.000 C 
BRANCH  14  15
ATOM     15  C   UNL     1       9.824 -14.937  35.548  1.00  0.00    -0.000 C 
BRANCH  15  16
ATOM     16  C   UNL     1      10.083 -16.438  35.784  1.00  0.00    -0.000 C 
BRANCH  16  17
ATOM     17  C   UNL     1       9.187 -17.392  34.968  1.00  0.00    -0.000 C 
BRANCH  17  18
ATOM     18  C   UNL     1       7.712 -16.963  34.862  1.00  0.00    -0.000 C 
BRANCH  18  19
ATOM     19  C   UNL     1       6.844 -17.530  35.995  1.00  0.00    -0.003 C 
ATOM     20  C   UNL     1       6.180 -16.410  36.791  1.00  0.00     0.004 C 
ENDBRANCH  18  19
ENDBRANCH  17  18
ENDBRANCH  16  17
ENDBRANCH  15  16
ENDBRANCH  14  15
ENDBRANCH  13  14
ENDBRANCH  12  13
ENDBRANCH   1  12
TORSDOF 16
ENDMDL
MODEL 4
REMARK VINA RESULT:    -3.908      4.209      7.528
REMARK INTER + INTRA:         -10.064
REMARK INTER:                  -7.907
REMARK INTRA:                  -2.157
REMARK UNBOUND:                -2.500
REMARK SMILES CCCCCCCCCCCCCCCCCC(=O)[O-]
REMARK SMILES IDX 10 1 11 2 12 3 13 4 14 5 15 6 16 7 17 8 18 9 19 10 20 11
REMARK SMILES IDX 9 12 8 13 7 14 6 15 5 16 4 17 3 18 2 19 1 20
REMARK H PARENT
REMARK Flexibility Score: inf
ROOT
ATOM      1  C   UNL     1      10.098 -15.771  31.431  1.00  0.00     0.000 C 
ENDROOT
BRANCH   1   2
ATOM      2  C   UNL     1      10.498 -17.168  31.936  1.00  0.00     0.000 C 
BRANCH   2   3
ATOM      3  C   UNL     1      10.763 -18.158  30.789  1.00  0.00     0.000 C 
BRANCH   3   4
ATOM      4  C   UNL     1      10.863 -19.611  31.274  1.00  0.00     0.000 C 
BRANCH   4   5
ATOM      5  C   UNL     1      10.075 -20.553  30.355  1.00  0.00     0.000 C 
BRANCH   5   6
ATOM      6  C   UNL     1       8.563 -20.331  30.502  1.00  0.00     0.000 C 
BRANCH   6   7
ATOM      7  C   UNL     1       7.774 -20.693  29.233  1.00  0.00     0.006 C 
BRANCH   7   8
ATOM      8  C   UNL     1       7.947 -22.154  28.784  1.00  0.00     0.053 C 
BRANCH   8   9
ATOM      9  C   UNL     1       6.738 -22.991  29.069  1.00  0.00     0.041 C 
ATOM     10  O   UNL     1       6.021 -22.746  30.075  1.00  0.00    -0.550 OA
ATOM     11  O   UNL     1       6.421 -24.066  28.247  1.00  0.00    -0.550 OA
ENDBRANCH   8   9
ENDBRANCH   7   8
ENDBRANCH   6   7
ENDBRANCH   5   6
ENDBRANCH   4   5
ENDBRANCH   3   4
ENDBRANCH   2   3
ENDBRANCH   1   2
BRANCH   1  12
ATOM     12  C   UNL     1      10.517 -14.649  32.394  1.00  0.00     0.000 C 
BRANCH  12  13
ATOM     13  C   UNL     1      11.185 -15.188  33.671  1.00  0.00    -0.000 C 
BRANCH  13  14
ATOM     14  C   UNL     1      10.687 -14.485  34.947  1.00  0.00    -0.000 C 
BRANCH  14  15
ATOM     15  C   UNL     1       9.998 -15.405  35.976  1.00  0.00    -0.000 C 
BRANCH  15  16
ATOM     16  C   UNL     1       9.664 -16.822  35.465  1.00  0.00    -0.000 C 
BRANCH  16  17
ATOM     17  C   UNL     1       8.159 -17.133  35.343  1.00  0.00    -0.000 C 
BRANCH  17  18
ATOM     18  C   UNL     1       7.499 -16.642  34.042  1.00  0.00    -0.000 C 
BRANCH  18  19
ATOM     19  C   UNL     1       7.024 -17.794  33.143  1.00  0.00    -0.003 C 
ATOM     20  C   UNL     1       6.764 -17.308  31.721  1.00  0.00     0.004 C 
ENDBRANCH  18  19
ENDBRANCH  17  18
ENDBRANCH  16  17
ENDBRANCH  15  16
ENDBRANCH  14  15
ENDBRANCH  13  14
ENDBRANCH  12  13
ENDBRANCH   1  12
TORSDOF 16
ENDMDL
MODEL 5
REMARK VINA RESULT:    -3.903      2.739      3.984
REMARK INTER + INTRA:         -10.054
REMARK INTER:                  -7.819
REMARK INTRA:                  -2.235
REMARK UNBOUND:                -2.500
REMARK SMILES CCCCCCCCCCCCCCCCCC(=O)[O-]
REMARK SMILES IDX 10 1 11 2 12 3 13 4 14 5 15 6 16 7 17 8 18 9 19 10 20 11
REMARK SMILES IDX 9 12 8 13 7 14 6 15 5 16 4 17 3 18 2 19 1 20
REMARK H PARENT
REMARK Flexibility Score: inf
ROOT
ATOM      1  C   UNL     1       7.482 -17.484  32.167  1.00  0.00     0.000 C 
ENDROOT
BRANCH   1   2
ATOM      2  C   UNL     1       7.689 -17.478  33.692  1.00  0.00     0.000 C 
BRANCH   2   3
ATOM      3  C   UNL     1       9.174 -17.508  34.086  1.00  0.00     0.000 C 
BRANCH   3   4
ATOM      4  C   UNL     1       9.433 -16.883  35.465  1.00  0.00     0.000 C 
BRANCH   4   5
ATOM      5  C   UNL     1      10.142 -15.530  35.332  1.00  0.00     0.000 C 
BRANCH   5   6
ATOM      6  C   UNL     1       9.223 -14.380  35.769  1.00  0.00     0.000 C 
BRANCH   6   7
ATOM      7  C   UNL     1       7.931 -14.864  36.449  1.00  0.00     0.006 C 
BRANCH   7   8
ATOM      8  C   UNL     1       7.097 -13.736  37.081  1.00  0.00     0.053 C 
BRANCH   8   9
ATOM      9  C   UNL     1       6.531 -14.117  38.414  1.00  0.00     0.041 C 
ATOM     10  O   UNL     1       5.342 -14.523  38.505  1.00  0.00    -0.550 OA
ATOM     11  O   UNL     1       7.301 -13.989  39.564  1.00  0.00    -0.550 OA
ENDBRANCH   8   9
ENDBRANCH   7   8
ENDBRANCH   6   7
ENDBRANCH   5   6
ENDBRANCH   4   5
ENDBRANCH   3   4
ENDBRANCH   2   3
ENDBRANCH   1   2
BRANCH   1  12
ATOM     12  C   UNL     1       6.826 -18.779  31.662  1.00  0.00     0.000 C 
BRANCH  12  13
ATOM     13  C   UNL     1       7.421 -19.259  30.327  1.00  0.00    -0.000 C 
BRANCH  13  14
ATOM     14  C   UNL     1       8.397 -20.438  30.498  1.00  0.00    -0.000 C 
BRANCH  14  15
ATOM     15  C   UNL     1       9.865 -20.131  30.139  1.00  0.00    -0.000 C 
BRANCH  15  16
ATOM     16  C   UNL     1      10.699 -19.505  31.275  1.00  0.00    -0.000 C 
BRANCH  16  17
ATOM     17  C   UNL     1      11.096 -18.032  31.057  1.00  0.00    -0.000 C 
BRANCH  17  18
ATOM     18  C   UNL     1      10.431 -17.353  29.845  1.00  0.00    -0.000 C 
BRANCH  18  19
ATOM     19  C   UNL     1      10.180 -15.854  30.065  1.00  0.00    -0.003 C 
ATOM     20  C   UNL     1      10.523 -15.444  31.494  1.00  0.00     0.004 C 
ENDBRANCH  18  19
ENDBRANCH  17  18
ENDBRANCH  16  17
ENDBRANCH  15  16
ENDBRANCH  14  15
ENDBRANCH  13  14
ENDBRANCH  12  13
ENDBRANCH   1  12
TORSDOF 16
ENDMDL
MODEL 6
REMARK VINA RESULT:    -3.883      2.642      3.907
REMARK INTER + INTRA:         -10.015
REMARK INTER:                  -7.647
REMARK INTRA:                  -2.368
REMARK UNBOUND:                -2.500
REMARK SMILES CCCCCCCCCCCCCCCCCC(=O)[O-]
REMARK SMILES IDX 10 1 11 2 12 3 13 4 14 5 15 6 16 7 17 8 18 9 19 10 20 11
REMARK SMILES IDX 9 12 8 13 7 14 6 15 5 16 4 17 3 18 2 19 1 20
REMARK H PARENT
REMARK Flexibility Score: inf
ROOT
ATOM      1  C   UNL     1      10.003 -16.493  30.744  1.00  0.00     0.000 C 
ENDROOT
BRANCH   1   2
ATOM      2  C   UNL     1      10.680 -15.455  31.657  1.00  0.00     0.000 C 
BRANCH   2   3
ATOM      3  C   UNL     1       9.677 -14.465  32.271  1.00  0.00     0.000 C 
BRANCH   3   4
ATOM      4  C   UNL     1      10.027 -14.090  33.718  1.00  0.00     0.000 C 
BRANCH   4   5
ATOM      5  C   UNL     1      10.725 -15.252  34.434  1.00  0.00     0.000 C 
BRANCH   5   6
ATOM      6  C   UNL     1       9.884 -15.759  35.615  1.00  0.00     0.000 C 
BRANCH   6   7
ATOM      7  C   UNL     1       9.233 -17.127  35.349  1.00  0.00     0.006 C 
BRANCH   7   8
ATOM      8  C   UNL     1       7.739 -17.048  34.987  1.00  0.00     0.053 C 
BRANCH   8   9
ATOM      9  C   UNL     1       6.853 -17.061  36.194  1.00  0.00     0.041 C 
ATOM     10  O   UNL     1       6.440 -15.978  36.687  1.00  0.00    -0.550 OA
ATOM     11  O   UNL     1       6.510 -18.264  36.798  1.00  0.00    -0.550 OA
ENDBRANCH   8   9
ENDBRANCH   7   8
ENDBRANCH   6   7
ENDBRANCH   5   6
ENDBRANCH   4   5
ENDBRANCH   3   4
ENDBRANCH   2   3
ENDBRANCH   1   2
BRANCH   1  12
ATOM     12  C   UNL     1       9.012 -17.392  31.500  1.00  0.00     0.000 C 
BRANCH  12  13
ATOM     13  C   UNL     1       9.693 -18.620  32.129  1.00  0.00    -0.000 C 
BRANCH  13  14
ATOM     14  C   UNL     1      10.768 -19.239  31.217  1.00  0.00    -0.000 C 
BRANCH  14  15
ATOM     15  C   UNL     1      10.373 -20.570  30.547  1.00  0.00    -0.000 C 
BRANCH  15  16
ATOM     16  C   UNL     1       9.489 -20.433  29.291  1.00  0.00    -0.000 C 
BRANCH  16  17
ATOM     17  C   UNL     1       8.520 -21.607  29.044  1.00  0.00    -0.000 C 
BRANCH  17  18
ATOM     18  C   UNL     1       7.117 -21.428  29.652  1.00  0.00    -0.000 C 
BRANCH  18  19
ATOM     19  C   UNL     1       6.734 -19.953  29.845  1.00  0.00    -0.003 C 
ATOM     20  C   UNL     1       6.201 -19.704  31.252  1.00  0.00     0.004 C 
ENDBRANCH  18  19
ENDBRANCH  17  18
ENDBRANCH  16  17
ENDBRANCH  15  16
ENDBRANCH  14  15
ENDBRANCH  13  14
ENDBRANCH  12  13
ENDBRANCH   1  12
TORSDOF 16
ENDMDL
MODEL 7
REMARK VINA RESULT:    -3.879      2.745      3.961
REMARK INTER + INTRA:         -10.008
REMARK INTER:                  -7.621
REMARK INTRA:                  -2.387
REMARK UNBOUND:                -2.500
REMARK SMILES CCCCCCCCCCCCCCCCCC(=O)[O-]
REMARK SMILES IDX 10 1 11 2 12 3 13 4 14 5 15 6 16 7 17 8 18 9 19 10 20 11
REMARK SMILES IDX 9 12 8 13 7 14 6 15 5 16 4 17 3 18 2 19 1 20
REMARK H PARENT
REMARK Flexibility Score: inf
ROOT
ATOM      1  C   UNL     1       9.416 -14.911  32.316  1.00  0.00     0.000 C 
ENDROOT
BRANCH   1   2
ATOM      2  C   UNL     1      10.867 -14.520  32.649  1.00  0.00     0.000 C 
BRANCH   2   3
ATOM      3  C   UNL     1      11.215 -14.749  34.129  1.00  0.00     0.000 C 
BRANCH   3   4
ATOM      4  C   UNL     1       9.977 -14.736  35.037  1.00  0.00     0.000 C 
BRANCH   4   5
ATOM      5  C   UNL     1       9.958 -15.962  35.958  1.00  0.00     0.000 C 
BRANCH   5   6
ATOM      6  C   UNL     1       9.361 -17.182  35.242  1.00  0.00     0.000 C 
BRANCH   6   7
ATOM      7  C   UNL     1       7.859 -17.033  34.946  1.00  0.00     0.006 C 
BRANCH   7   8
ATOM      8  C   UNL     1       6.948 -17.433  36.119  1.00  0.00     0.053 C 
BRANCH   8   9
ATOM      9  C   UNL     1       6.103 -16.295  36.605  1.00  0.00     0.041 C 
ATOM     10  O   UNL     1       6.633 -15.189  36.889  1.00  0.00    -0.550 OA
ATOM     11  O   UNL     1       4.734 -16.466  36.780  1.00  0.00    -0.550 OA
ENDBRANCH   8   9
ENDBRANCH   7   8
ENDBRANCH   6   7
ENDBRANCH   5   6
ENDBRANCH   4   5
ENDBRANCH   3   4
ENDBRANCH   2   3
ENDBRANCH   1   2
BRANCH   1  12
ATOM     12  C   UNL     1       9.330 -16.099  31.344  1.00  0.00     0.000 C 
BRANCH  12  13
ATOM     13  C   UNL     1      10.468 -17.113  31.551  1.00  0.00    -0.000 C 
BRANCH  13  14
ATOM     14  C   UNL     1       9.956 -18.550  31.762  1.00  0.00    -0.000 C 
BRANCH  14  15
ATOM     15  C   UNL     1      10.885 -19.661  31.233  1.00  0.00    -0.000 C 
BRANCH  15  16
ATOM     16  C   UNL     1      10.196 -20.729  30.360  1.00  0.00    -0.000 C 
BRANCH  16  17
ATOM     17  C   UNL     1       8.992 -20.223  29.539  1.00  0.00    -0.000 C 
BRANCH  17  18
ATOM     18  C   UNL     1       9.356 -19.537  28.210  1.00  0.00    -0.000 C 
BRANCH  18  19
ATOM     19  C   UNL     1       8.959 -18.054  28.177  1.00  0.00    -0.003 C 
ATOM     20  C   UNL     1      10.157 -17.172  27.835  1.00  0.00     0.004 C 
ENDBRANCH  18  19
ENDBRANCH  17  18
ENDBRANCH  16  17
ENDBRANCH  15  16
ENDBRANCH  14  15
ENDBRANCH  13  14
ENDBRANCH  12  13
ENDBRANCH   1  12
TORSDOF 16
ENDMDL
MODEL 8
REMARK VINA RESULT:    -3.868      2.895      4.219
REMARK INTER + INTRA:          -9.985
REMARK INTER:                  -8.109
REMARK INTRA:                  -1.876
REMARK UNBOUND:                -2.500
REMARK SMILES CCCCCCCCCCCCCCCCCC(=O)[O-]
REMARK SMILES IDX 10 1 11 2 12 3 13 4 14 5 15 6 16 7 17 8 18 9 19 10 20 11
REMARK SMILES IDX 9 12 8 13 7 14 6 15 5 16 4 17 3 18 2 19 1 20
REMARK H PARENT
REMARK Flexibility Score: inf
ROOT
ATOM      1  C   UNL     1       8.312 -16.824  33.300  1.00  0.00     0.000 C 
ENDROOT
BRANCH   1   2
ATOM      2  C   UNL     1       8.275 -17.101  34.813  1.00  0.00     0.000 C 
BRANCH   2   3
ATOM      3  C   UNL     1       9.599 -16.749  35.510  1.00  0.00     0.000 C 
BRANCH   3   4
ATOM      4  C   UNL     1      10.116 -15.355  35.128  1.00  0.00     0.000 C 
BRANCH   4   5
ATOM      5  C   UNL     1       9.665 -14.302  36.147  1.00  0.00     0.000 C 
BRANCH   5   6
ATOM      6  C   UNL     1       8.509 -13.457  35.593  1.00  0.00     0.000 C 
BRANCH   6   7
ATOM      7  C   UNL     1       7.217 -13.586  36.419  1.00  0.00     0.006 C 
BRANCH   7   8
ATOM      8  C   UNL     1       7.445 -14.063  37.865  1.00  0.00     0.053 C 
BRANCH   8   9
ATOM      9  C   UNL     1       6.331 -14.928  38.368  1.00  0.00     0.041 C 
ATOM     10  O   UNL     1       5.849 -14.737  39.516  1.00  0.00    -0.550 OA
ATOM     11  O   UNL     1       5.846 -15.969  37.585  1.00  0.00    -0.550 OA
ENDBRANCH   8   9
ENDBRANCH   7   8
ENDBRANCH   6   7
ENDBRANCH   5   6
ENDBRANCH   4   5
ENDBRANCH   3   4
ENDBRANCH   2   3
ENDBRANCH   1   2
BRANCH   1  12
ATOM     12  C   UNL     1       9.080 -17.902  32.518  1.00  0.00     0.000 C 
BRANCH  12  13
ATOM     13  C   UNL     1      10.095 -17.302  31.530  1.00  0.00    -0.000 C 
BRANCH  13  14
ATOM     14  C   UNL     1      11.104 -18.341  31.007  1.00  0.00    -0.000 C 
BRANCH  14  15
ATOM     15  C   UNL     1      10.760 -19.809  31.331  1.00  0.00    -0.000 C 
BRANCH  15  16
ATOM     16  C   UNL     1      10.272 -20.646  30.131  1.00  0.00    -0.000 C 
BRANCH  16  17
ATOM     17  C   UNL     1       9.601 -19.839  29.002  1.00  0.00    -0.000 C 
BRANCH  17  18
ATOM     18  C   UNL     1       8.070 -19.981  28.925  1.00  0.00    -0.000 C 
BRANCH  18  19
ATOM     19  C   UNL     1       7.474 -20.685  30.153  1.00  0.00    -0.003 C 
ATOM     20  C   UNL     1       6.443 -19.799  30.847  1.00  0.00     0.004 C 
ENDBRANCH  18  19
ENDBRANCH  17  18
ENDBRANCH  16  17
ENDBRANCH  15  16
ENDBRANCH  14  15
ENDBRANCH  13  14
ENDBRANCH  12  13
ENDBRANCH   1  12
TORSDOF 16
ENDMDL
MODEL 9
REMARK VINA RESULT:    -3.839      2.544      3.248
REMARK INTER + INTRA:          -9.930
REMARK INTER:                  -7.789
REMARK INTRA:                  -2.141
REMARK UNBOUND:                -2.500
REMARK SMILES CCCCCCCCCCCCCCCCCC(=O)[O-]
REMARK SMILES IDX 10 1 11 2 12 3 13 4 14 5 15 6 16 7 17 8 18 9 19 10 20 11
REMARK SMILES IDX 9 12 8 13 7 14 6 15 5 16 4 17 3 18 2 19 1 20
REMARK H PARENT
REMARK Flexibility Score: inf
ROOT
ATOM      1  C   UNL     1      10.637 -18.322  30.685  1.00  0.00     0.000 C 
ENDROOT
BRANCH   1   2
ATOM      2  C   UNL     1      10.224 -17.252  31.711  1.00  0.00     0.000 C 
BRANCH   2   3
ATOM      3  C   UNL     1       9.633 -17.859  32.993  1.00  0.00     0.000 C 
BRANCH   3   4
ATOM      4  C   UNL     1       8.469 -17.032  33.557  1.00  0.00     0.000 C 
BRANCH   4   5
ATOM      5  C   UNL     1       8.447 -17.085  35.089  1.00  0.00     0.000 C 
BRANCH   5   6
ATOM      6  C   UNL     1       9.656 -16.350  35.685  1.00  0.00     0.000 C 
BRANCH   6   7
ATOM      7  C   UNL     1       9.314 -14.939  36.193  1.00  0.00     0.006 C 
BRANCH   7   8
ATOM      8  C   UNL     1       7.825 -14.573  36.066  1.00  0.00     0.053 C 
BRANCH   8   9
ATOM      9  C   UNL     1       7.124 -14.544  37.390  1.00  0.00     0.041 C 
ATOM     10  O   UNL     1       7.354 -13.614  38.208  1.00  0.00    -0.550 OA
ATOM     11  O   UNL     1       6.244 -15.562  37.738  1.00  0.00    -0.550 OA
ENDBRANCH   8   9
ENDBRANCH   7   8
ENDBRANCH   6   7
ENDBRANCH   5   6
ENDBRANCH   4   5
ENDBRANCH   3   4
ENDBRANCH   2   3
ENDBRANCH   1   2
BRANCH   1  12
ATOM     12  C   UNL     1      10.593 -19.745  31.263  1.00  0.00     0.000 C 
BRANCH  12  13
ATOM     13  C   UNL     1      10.348 -20.813  30.182  1.00  0.00    -0.000 C 
BRANCH  13  14
ATOM     14  C   UNL     1       9.909 -20.209  28.835  1.00  0.00    -0.000 C 
BRANCH  14  15
ATOM     15  C   UNL     1       9.196 -21.186  27.879  1.00  0.00    -0.000 C 
BRANCH  15  16
ATOM     16  C   UNL     1       7.782 -21.615  28.318  1.00  0.00    -0.000 C 
BRANCH  16  17
ATOM     17  C   UNL     1       6.937 -20.503  28.972  1.00  0.00    -0.000 C 
BRANCH  17  18
ATOM     18  C   UNL     1       6.666 -20.694  30.476  1.00  0.00    -0.000 C 
BRANCH  18  19
ATOM     19  C   UNL     1       6.682 -19.372  31.257  1.00  0.00    -0.003 C 
ATOM     20  C   UNL     1       6.888 -18.184  30.322  1.00  0.00     0.004 C 
ENDBRANCH  18  19
ENDBRANCH  17  18
ENDBRANCH  16  17
ENDBRANCH  15  16
ENDBRANCH  14  15
ENDBRANCH  13  14
ENDBRANCH  12  13
ENDBRANCH   1  12
TORSDOF 16
ENDMDL
