MODEL 1
REMARK VINA RESULT:    -4.429      0.000      0.000
REMARK INTER + INTRA:          -5.944
REMARK INTER:                  -5.465
REMARK INTRA:                  -0.479
REMARK UNBOUND:                -0.479
REMARK SMILES C=CC[C@@H](C)C(=O)CC
REMARK SMILES IDX 4 1 5 2 6 3 7 4 8 5 9 6 3 7 2 8 1 9
REMARK H PARENT
REMARK Flexibility Score: inf
ROOT
ATOM      1  C   UNL     1      -2.888 -12.624  31.175  1.00  0.00     0.057 C 
ATOM      2  C   UNL     1      -1.630 -13.387  31.614  1.00  0.00     0.016 C 
ENDROOT
BRANCH   1   3
ATOM      3  C   UNL     1      -3.219 -12.961  29.736  1.00  0.00     0.135 C 
ATOM      4  O   UNL     1      -2.469 -13.685  29.095  1.00  0.00    -0.299 OA
BRANCH   3   5
ATOM      5  C   UNL     1      -4.456 -12.416  29.072  1.00  0.00     0.072 C 
ATOM      6  C   UNL     1      -5.272 -13.542  28.445  1.00  0.00     0.012 C 
ENDBRANCH   3   5
ENDBRANCH   1   3
BRANCH   1   7
ATOM      7  C   UNL     1      -4.096 -12.945  32.080  1.00  0.00     0.038 C 
BRANCH   7   8
ATOM      8  C   UNL     1      -4.280 -14.425  32.288  1.00  0.00    -0.034 C 
ATOM      9  C   UNL     1      -5.462 -15.020  32.102  1.00  0.00     0.004 C 
ENDBRANCH   7   8
ENDBRANCH   1   7
TORSDOF 4
ENDMDL
MODEL 2
REMARK VINA RESULT:    -4.229      0.942      2.837
REMARK INTER + INTRA:          -5.697
REMARK INTER:                  -5.418
REMARK INTRA:                  -0.279
REMARK UNBOUND:                -0.479
REMARK SMILES C=CC[C@@H](C)C(=O)CC
REMARK SMILES IDX 4 1 5 2 6 3 7 4 8 5 9 6 3 7 2 8 1 9
REMARK H PARENT
REMARK Flexibility Score: inf
ROOT
ATOM      1  C   UNL     1      -3.559 -13.500  30.367  1.00  0.00     0.057 C 
ATOM      2  C   UNL     1      -4.380 -12.734  29.320  1.00  0.00     0.016 C 
ENDROOT
BRANCH   1   3
ATOM      3  C   UNL     1      -2.088 -13.184  30.199  1.00  0.00     0.135 C 
ATOM      4  O   UNL     1      -1.682 -12.725  29.139  1.00  0.00    -0.299 OA
BRANCH   3   5
ATOM      5  C   UNL     1      -1.105 -13.428  31.315  1.00  0.00     0.072 C 
ATOM      6  C   UNL     1      -0.278 -12.177  31.588  1.00  0.00     0.012 C 
ENDBRANCH   3   5
ENDBRANCH   1   3
BRANCH   1   7
ATOM      7  C   UNL     1      -4.008 -13.163  31.804  1.00  0.00     0.038 C 
BRANCH   7   8
ATOM      8  C   UNL     1      -4.430 -14.385  32.574  1.00  0.00    -0.034 C 
ATOM      9  C   UNL     1      -5.525 -15.080  32.248  1.00  0.00     0.004 C 
ENDBRANCH   7   8
ENDBRANCH   1   7
TORSDOF 4
ENDMDL
MODEL 3
REMARK VINA RESULT:    -4.156      1.634      4.250
REMARK INTER + INTRA:          -5.607
REMARK INTER:                  -5.386
REMARK INTRA:                  -0.221
REMARK UNBOUND:                -0.479
REMARK SMILES C=CC[C@@H](C)C(=O)CC
REMARK SMILES IDX 4 1 5 2 6 3 7 4 8 5 9 6 3 7 2 8 1 9
REMARK H PARENT
REMARK Flexibility Score: inf
ROOT
ATOM      1  C   UNL     1      -4.419 -12.317  29.192  1.00  0.00     0.057 C 
ATOM      2  C   UNL     1      -5.147 -13.396  28.377  1.00  0.00     0.016 C 
ENDROOT
BRANCH   1   3
ATOM      3  C   UNL     1      -3.621 -12.963  30.305  1.00  0.00     0.135 C 
ATOM      4  O   UNL     1      -2.530 -13.460  30.059  1.00  0.00    -0.299 OA
BRANCH   3   5
ATOM      5  C   UNL     1      -4.146 -13.012  31.715  1.00  0.00     0.072 C 
ATOM      6  C   UNL     1      -4.770 -14.371  32.013  1.00  0.00     0.012 C 
ENDBRANCH   3   5
ENDBRANCH   1   3
BRANCH   1   7
ATOM      7  C   UNL     1      -3.489 -11.463  28.306  1.00  0.00     0.038 C 
BRANCH   7   8
ATOM      8  C   UNL     1      -3.308 -12.049  26.932  1.00  0.00    -0.034 C 
ATOM      9  C   UNL     1      -3.032 -11.284  25.870  1.00  0.00     0.004 C 
ENDBRANCH   7   8
ENDBRANCH   1   7
TORSDOF 4
ENDMDL
MODEL 4
REMARK VINA RESULT:    -4.154      1.643      2.292
REMARK INTER + INTRA:          -5.604
REMARK INTER:                  -5.402
REMARK INTRA:                  -0.203
REMARK UNBOUND:                -0.479
REMARK SMILES C=CC[C@@H](C)C(=O)CC
REMARK SMILES IDX 4 1 5 2 6 3 7 4 8 5 9 6 3 7 2 8 1 9
REMARK H PARENT
REMARK Flexibility Score: inf
ROOT
ATOM      1  C   UNL     1      -2.815 -12.965  30.661  1.00  0.00     0.057 C 
ATOM      2  C   UNL     1      -1.885 -13.504  31.758  1.00  0.00     0.016 C 
ENDROOT
BRANCH   1   3
ATOM      3  C   UNL     1      -2.185 -13.177  29.301  1.00  0.00     0.135 C 
ATOM      4  O   UNL     1      -2.884 -13.517  28.355  1.00  0.00    -0.299 OA
BRANCH   3   5
ATOM      5  C   UNL     1      -0.707 -12.983  29.086  1.00  0.00     0.072 C 
ATOM      6  C   UNL     1      -0.059 -14.271  28.590  1.00  0.00     0.012 C 
ENDBRANCH   3   5
ENDBRANCH   1   3
BRANCH   1   7
ATOM      7  C   UNL     1      -4.203 -13.638  30.708  1.00  0.00     0.038 C 
BRANCH   7   8
ATOM      8  C   UNL     1      -4.566 -14.107  32.092  1.00  0.00    -0.034 C 
ATOM      9  C   UNL     1      -5.469 -15.072  32.294  1.00  0.00     0.004 C 
ENDBRANCH   7   8
ENDBRANCH   1   7
TORSDOF 4
ENDMDL
MODEL 5
REMARK VINA RESULT:    -4.083      1.601      2.988
REMARK INTER + INTRA:          -5.516
REMARK INTER:                  -5.209
REMARK INTRA:                  -0.308
REMARK UNBOUND:                -0.479
REMARK SMILES C=CC[C@@H](C)C(=O)CC
REMARK SMILES IDX 4 1 5 2 6 3 7 4 8 5 9 6 3 7 2 8 1 9
REMARK H PARENT
REMARK Flexibility Score: inf
ROOT
ATOM      1  C   UNL     1      -3.662 -13.613  31.026  1.00  0.00     0.057 C 
ATOM      2  C   UNL     1      -4.826 -14.277  31.774  1.00  0.00     0.016 C 
ENDROOT
BRANCH   1   3
ATOM      3  C   UNL     1      -4.046 -12.206  30.619  1.00  0.00     0.135 C 
ATOM      4  O   UNL     1      -4.141 -11.332  31.470  1.00  0.00    -0.299 OA
BRANCH   3   5
ATOM      5  C   UNL     1      -4.321 -11.858  29.179  1.00  0.00     0.072 C 
ATOM      6  C   UNL     1      -4.644 -13.112  28.373  1.00  0.00     0.012 C 
ENDBRANCH   3   5
ENDBRANCH   1   3
BRANCH   1   7
ATOM      7  C   UNL     1      -2.378 -13.579  31.883  1.00  0.00     0.038 C 
BRANCH   7   8
ATOM      8  C   UNL     1      -1.160 -13.220  31.075  1.00  0.00    -0.034 C 
ATOM      9  C   UNL     1      -0.168 -12.483  31.586  1.00  0.00     0.004 C 
ENDBRANCH   7   8
ENDBRANCH   1   7
TORSDOF 4
ENDMDL
MODEL 6
REMARK VINA RESULT:    -4.048      1.827      3.472
REMARK INTER + INTRA:          -5.474
REMARK INTER:                  -5.117
REMARK INTRA:                  -0.357
REMARK UNBOUND:                -0.479
REMARK SMILES C=CC[C@@H](C)C(=O)CC
REMARK SMILES IDX 4 1 5 2 6 3 7 4 8 5 9 6 3 7 2 8 1 9
REMARK H PARENT
REMARK Flexibility Score: inf
ROOT
ATOM      1  C   UNL     1      -3.158 -12.918  30.628  1.00  0.00     0.057 C 
ATOM      2  C   UNL     1      -3.751 -13.741  31.781  1.00  0.00     0.016 C 
ENDROOT
BRANCH   1   3
ATOM      3  C   UNL     1      -1.669 -13.173  30.525  1.00  0.00     0.135 C 
ATOM      4  O   UNL     1      -1.059 -13.601  31.496  1.00  0.00    -0.299 OA
BRANCH   3   5
ATOM      5  C   UNL     1      -0.918 -12.904  29.248  1.00  0.00     0.072 C 
ATOM      6  C   UNL     1      -0.189 -14.158  28.776  1.00  0.00     0.012 C 
ENDBRANCH   3   5
ENDBRANCH   1   3
BRANCH   1   7
ATOM      7  C   UNL     1      -3.841 -13.246  29.283  1.00  0.00     0.038 C 
BRANCH   7   8
ATOM      8  C   UNL     1      -4.504 -12.043  28.669  1.00  0.00    -0.034 C 
ATOM      9  C   UNL     1      -4.458 -10.839  29.250  1.00  0.00     0.004 C 
ENDBRANCH   7   8
ENDBRANCH   1   7
TORSDOF 4
ENDMDL
MODEL 7
REMARK VINA RESULT:    -4.015      1.410      3.236
REMARK INTER + INTRA:          -5.433
REMARK INTER:                  -4.976
REMARK INTRA:                  -0.457
REMARK UNBOUND:                -0.479
REMARK SMILES C=CC[C@@H](C)C(=O)CC
REMARK SMILES IDX 4 1 5 2 6 3 7 4 8 5 9 6 3 7 2 8 1 9
REMARK H PARENT
REMARK Flexibility Score: inf
ROOT
ATOM      1  C   UNL     1      -2.386 -13.370  29.471  1.00  0.00     0.057 C 
ATOM      2  C   UNL     1      -1.051 -13.674  28.777  1.00  0.00     0.016 C 
ENDROOT
BRANCH   1   3
ATOM      3  C   UNL     1      -2.197 -13.366  30.973  1.00  0.00     0.135 C 
ATOM      4  O   UNL     1      -1.096 -13.616  31.447  1.00  0.00    -0.299 OA
BRANCH   3   5
ATOM      5  C   UNL     1      -3.342 -13.062  31.903  1.00  0.00     0.072 C 
ATOM      6  C   UNL     1      -4.243 -14.282  32.067  1.00  0.00     0.012 C 
ENDBRANCH   3   5
ENDBRANCH   1   3
BRANCH   1   7
ATOM      7  C   UNL     1      -2.974 -12.019  29.012  1.00  0.00     0.038 C 
BRANCH   7   8
ATOM      8  C   UNL     1      -4.377 -12.153  28.485  1.00  0.00    -0.034 C 
ATOM      9  C   UNL     1      -5.008 -13.332  28.454  1.00  0.00     0.004 C 
ENDBRANCH   7   8
ENDBRANCH   1   7
TORSDOF 4
ENDMDL
MODEL 8
REMARK VINA RESULT:    -4.012      1.301      3.681
REMARK INTER + INTRA:          -5.430
REMARK INTER:                  -5.135
REMARK INTRA:                  -0.295
REMARK UNBOUND:                -0.479
REMARK SMILES C=CC[C@@H](C)C(=O)CC
REMARK SMILES IDX 4 1 5 2 6 3 7 4 8 5 9 6 3 7 2 8 1 9
REMARK H PARENT
REMARK Flexibility Score: inf
ROOT
ATOM      1  C   UNL     1      -3.761 -12.338  30.507  1.00  0.00     0.057 C 
ATOM      2  C   UNL     1      -4.292 -13.658  31.082  1.00  0.00     0.016 C 
ENDROOT
BRANCH   1   3
ATOM      3  C   UNL     1      -2.253 -12.397  30.388  1.00  0.00     0.135 C 
ATOM      4  O   UNL     1      -1.691 -11.787  29.488  1.00  0.00    -0.299 OA
BRANCH   3   5
ATOM      5  C   UNL     1      -1.424 -13.200  31.357  1.00  0.00     0.072 C 
ATOM      6  C   UNL     1      -0.151 -12.448  31.731  1.00  0.00     0.012 C 
ENDBRANCH   3   5
ENDBRANCH   1   3
BRANCH   1   7
ATOM      7  C   UNL     1      -4.384 -12.022  29.131  1.00  0.00     0.038 C 
BRANCH   7   8
ATOM      8  C   UNL     1      -4.734 -13.266  28.361  1.00  0.00    -0.034 C 
ATOM      9  C   UNL     1      -4.063 -13.626  27.261  1.00  0.00     0.004 C 
ENDBRANCH   7   8
ENDBRANCH   1   7
TORSDOF 4
ENDMDL
MODEL 9
REMARK VINA RESULT:    -3.945      1.951      3.241
REMARK INTER + INTRA:          -5.346
REMARK INTER:                  -5.030
REMARK INTRA:                  -0.316
REMARK UNBOUND:                -0.479
REMARK SMILES C=CC[C@@H](C)C(=O)CC
REMARK SMILES IDX 4 1 5 2 6 3 7 4 8 5 9 6 3 7 2 8 1 9
REMARK H PARENT
REMARK Flexibility Score: inf
ROOT
ATOM      1  C   UNL     1      -2.535 -13.293  29.471  1.00  0.00     0.057 C 
ATOM      2  C   UNL     1      -3.428 -13.274  30.720  1.00  0.00     0.016 C 
ENDROOT
BRANCH   1   3
ATOM      3  C   UNL     1      -2.720 -12.012  28.686  1.00  0.00     0.135 C 
ATOM      4  O   UNL     1      -2.596 -10.932  29.249  1.00  0.00    -0.299 OA
BRANCH   3   5
ATOM      5  C   UNL     1      -3.059 -12.038  27.219  1.00  0.00     0.072 C 
ATOM      6  C   UNL     1      -3.743 -13.348  26.845  1.00  0.00     0.012 C 
ENDBRANCH   3   5
ENDBRANCH   1   3
BRANCH   1   7
ATOM      7  C   UNL     1      -1.047 -13.476  29.836  1.00  0.00     0.038 C 
BRANCH   7   8
ATOM      8  C   UNL     1      -0.790 -13.289  31.307  1.00  0.00    -0.034 C 
ATOM      9  C   UNL     1       0.058 -12.361  31.762  1.00  0.00     0.004 C 
ENDBRANCH   7   8
ENDBRANCH   1   7
TORSDOF 4
ENDMDL
