MODEL 1
REMARK VINA RESULT:    -2.733      0.000      0.000
REMARK INTER + INTRA:          -2.973
REMARK INTER:                  -2.973
REMARK INTRA:                   0.000
REMARK UNBOUND:                 0.000
REMARK SMILES [NH3+]CC(=O)[O-]
REMARK SMILES IDX 2 1 1 2 3 6 4 7 5 8
REMARK H PARENT 1 3 1 4 1 5
REMARK Flexibility Score: inf
ROOT
ATOM      1  C   UNL     1      61.574   9.424  -3.088  1.00  0.00     0.312 C 
ENDROOT
BRANCH   1   2
ATOM      2  N   UNL     1      62.852   8.898  -3.561  1.00  0.00    -0.353 N 
ATOM      3  H   UNL     1      63.533   9.686  -3.652  1.00  0.00     0.344 HD
ATOM      4  H   UNL     1      62.730   8.445  -4.497  1.00  0.00     0.344 HD
ATOM      5  H   UNL     1      63.228   8.201  -2.877  1.00  0.00     0.344 HD
ENDBRANCH   1   2
BRANCH   1   6
ATOM      6  C   UNL     1      61.278   8.932  -1.705  1.00  0.00     0.096 C 
ATOM      7  O   UNL     1      60.802   7.779  -1.531  1.00  0.00    -0.544 OA
ATOM      8  O   UNL     1      61.576   9.727  -0.606  1.00  0.00    -0.544 OA
ENDBRANCH   1   6
TORSDOF 2
ENDMDL
MODEL 2
REMARK VINA RESULT:    -2.617     13.059     13.439
REMARK INTER + INTRA:          -2.847
REMARK INTER:                  -2.847
REMARK INTRA:                   0.000
REMARK UNBOUND:                 0.000
REMARK SMILES [NH3+]CC(=O)[O-]
REMARK SMILES IDX 2 1 1 2 3 6 4 7 5 8
REMARK H PARENT 1 3 1 4 1 5
REMARK Flexibility Score: inf
ROOT
ATOM      1  C   UNL     1      65.312  -2.890   4.375  1.00  0.00     0.312 C 
ENDROOT
BRANCH   1   2
ATOM      2  N   UNL     1      64.619  -4.176   4.361  1.00  0.00    -0.353 N 
ATOM      3  H   UNL     1      64.136  -4.294   3.440  1.00  0.00     0.344 HD
ATOM      4  H   UNL     1      63.903  -4.207   5.124  1.00  0.00     0.344 HD
ATOM      5  H   UNL     1      65.305  -4.955   4.486  1.00  0.00     0.344 HD
ENDBRANCH   1   2
BRANCH   1   6
ATOM      6  C   UNL     1      64.329  -1.761   4.424  1.00  0.00     0.096 C 
ATOM      7  O   UNL     1      64.344  -0.949   5.387  1.00  0.00    -0.544 OA
ATOM      8  O   UNL     1      63.432  -1.575   3.381  1.00  0.00    -0.544 OA
ENDBRANCH   1   6
TORSDOF 2
ENDMDL
MODEL 3
REMARK VINA RESULT:    -2.614     12.766     13.202
REMARK INTER + INTRA:          -2.843
REMARK INTER:                  -2.843
REMARK INTRA:                   0.000
REMARK UNBOUND:                 0.000
REMARK SMILES [NH3+]CC(=O)[O-]
REMARK SMILES IDX 2 1 1 2 3 6 4 7 5 8
REMARK H PARENT 1 3 1 4 1 5
REMARK Flexibility Score: inf
ROOT
ATOM      1  C   UNL     1      65.273  -1.975   4.865  1.00  0.00     0.312 C 
ENDROOT
BRANCH   1   2
ATOM      2  N   UNL     1      66.630  -1.584   4.491  1.00  0.00    -0.353 N 
ATOM      3  H   UNL     1      66.596  -1.041   3.598  1.00  0.00     0.344 HD
ATOM      4  H   UNL     1      67.223  -2.435   4.347  1.00  0.00     0.344 HD
ATOM      5  H   UNL     1      67.049  -0.983   5.238  1.00  0.00     0.344 HD
ENDBRANCH   1   2
BRANCH   1   6
ATOM      6  C   UNL     1      64.485  -2.370   3.654  1.00  0.00     0.096 C 
ATOM      7  O   UNL     1      64.811  -3.390   2.991  1.00  0.00    -0.544 OA
ATOM      8  O   UNL     1      63.360  -1.641   3.289  1.00  0.00    -0.544 OA
ENDBRANCH   1   6
TORSDOF 2
ENDMDL
MODEL 4
REMARK VINA RESULT:    -2.607     12.654     12.978
REMARK INTER + INTRA:          -2.836
REMARK INTER:                  -2.836
REMARK INTRA:                   0.000
REMARK UNBOUND:                 0.000
REMARK SMILES [NH3+]CC(=O)[O-]
REMARK SMILES IDX 2 1 1 2 3 6 4 7 5 8
REMARK H PARENT 1 3 1 4 1 5
REMARK Flexibility Score: inf
ROOT
ATOM      1  C   UNL     1      65.663  -2.431   4.274  1.00  0.00     0.312 C 
ENDROOT
BRANCH   1   2
ATOM      2  N   UNL     1      66.831  -1.556   4.214  1.00  0.00    -0.353 N 
ATOM      3  H   UNL     1      67.505  -1.933   3.509  1.00  0.00     0.344 HD
ATOM      4  H   UNL     1      67.303  -1.522   5.149  1.00  0.00     0.344 HD
ATOM      5  H   UNL     1      66.544  -0.593   3.928  1.00  0.00     0.344 HD
ENDBRANCH   1   2
BRANCH   1   6
ATOM      6  C   UNL     1      64.411  -1.630   4.457  1.00  0.00     0.096 C 
ATOM      7  O   UNL     1      64.249  -0.937   5.496  1.00  0.00    -0.544 OA
ATOM      8  O   UNL     1      63.447  -1.609   3.457  1.00  0.00    -0.544 OA
ENDBRANCH   1   6
TORSDOF 2
ENDMDL
MODEL 5
REMARK VINA RESULT:    -2.483     13.061     13.282
REMARK INTER + INTRA:          -2.701
REMARK INTER:                  -2.701
REMARK INTRA:                   0.000
REMARK UNBOUND:                 0.000
REMARK SMILES [NH3+]CC(=O)[O-]
REMARK SMILES IDX 2 1 1 2 3 6 4 7 5 8
REMARK H PARENT 1 3 1 4 1 5
REMARK Flexibility Score: inf
ROOT
ATOM      1  C   UNL     1      64.774  -2.443   4.129  1.00  0.00     0.312 C 
ENDROOT
BRANCH   1   2
ATOM      2  N   UNL     1      63.466  -1.951   3.705  1.00  0.00    -0.353 N 
ATOM      3  H   UNL     1      62.735  -2.319   4.357  1.00  0.00     0.344 HD
ATOM      4  H   UNL     1      63.253  -2.285   2.736  1.00  0.00     0.344 HD
ATOM      5  H   UNL     1      63.449  -0.906   3.731  1.00  0.00     0.344 HD
ENDBRANCH   1   2
BRANCH   1   6
ATOM      6  C   UNL     1      65.319  -1.603   5.244  1.00  0.00     0.096 C 
ATOM      7  O   UNL     1      66.548  -1.631   5.515  1.00  0.00    -0.544 OA
ATOM      8  O   UNL     1      64.477  -0.751   5.947  1.00  0.00    -0.544 OA
ENDBRANCH   1   6
TORSDOF 2
ENDMDL
MODEL 6
REMARK VINA RESULT:    -2.473     13.262     13.734
REMARK INTER + INTRA:          -2.690
REMARK INTER:                  -2.690
REMARK INTRA:                   0.000
REMARK UNBOUND:                 0.000
REMARK SMILES [NH3+]CC(=O)[O-]
REMARK SMILES IDX 2 1 1 2 3 6 4 7 5 8
REMARK H PARENT 1 3 1 4 1 5
REMARK Flexibility Score: inf
ROOT
ATOM      1  C   UNL     1      64.881  -2.373   3.879  1.00  0.00     0.312 C 
ENDROOT
BRANCH   1   2
ATOM      2  N   UNL     1      63.501  -1.899   3.955  1.00  0.00    -0.353 N 
ATOM      3  H   UNL     1      63.009  -2.404   4.728  1.00  0.00     0.344 HD
ATOM      4  H   UNL     1      63.005  -2.093   3.054  1.00  0.00     0.344 HD
ATOM      5  H   UNL     1      63.485  -0.873   4.156  1.00  0.00     0.344 HD
ENDBRANCH   1   2
BRANCH   1   6
ATOM      6  C   UNL     1      65.003  -3.488   2.886  1.00  0.00     0.096 C 
ATOM      7  O   UNL     1      65.533  -4.580   3.221  1.00  0.00    -0.544 OA
ATOM      8  O   UNL     1      64.484  -3.339   1.607  1.00  0.00    -0.544 OA
ENDBRANCH   1   6
TORSDOF 2
ENDMDL
MODEL 7
REMARK VINA RESULT:    -2.376     17.592     17.855
REMARK INTER + INTRA:          -2.584
REMARK INTER:                  -2.584
REMARK INTRA:                   0.000
REMARK UNBOUND:                 0.000
REMARK SMILES [NH3+]CC(=O)[O-]
REMARK SMILES IDX 2 1 1 2 3 6 4 7 5 8
REMARK H PARENT 1 3 1 4 1 5
REMARK Flexibility Score: inf
ROOT
ATOM      1  C   UNL     1      52.239  -1.571   9.342  1.00  0.00     0.312 C 
ENDROOT
BRANCH   1   2
ATOM      2  N   UNL     1      52.694  -0.198   9.137  1.00  0.00    -0.353 N 
ATOM      3  H   UNL     1      51.864   0.415   8.964  1.00  0.00     0.344 HD
ATOM      4  H   UNL     1      53.329  -0.150   8.306  1.00  0.00     0.344 HD
ATOM      5  H   UNL     1      53.197   0.144   9.987  1.00  0.00     0.344 HD
ENDBRANCH   1   2
BRANCH   1   6
ATOM      6  C   UNL     1      52.055  -2.268   8.029  1.00  0.00     0.096 C 
ATOM      7  O   UNL     1      51.443  -1.696   7.088  1.00  0.00    -0.544 OA
ATOM      8  O   UNL     1      52.603  -3.528   7.828  1.00  0.00    -0.544 OA
ENDBRANCH   1   6
TORSDOF 2
ENDMDL
MODEL 8
REMARK VINA RESULT:    -2.360     13.323     13.716
REMARK INTER + INTRA:          -2.566
REMARK INTER:                  -2.566
REMARK INTRA:                   0.000
REMARK UNBOUND:                 0.000
REMARK SMILES [NH3+]CC(=O)[O-]
REMARK SMILES IDX 2 1 1 2 3 6 4 7 5 8
REMARK H PARENT 1 3 1 4 1 5
REMARK Flexibility Score: inf
ROOT
ATOM      1  C   UNL     1      65.885  -3.426   2.462  1.00  0.00     0.312 C 
ENDROOT
BRANCH   1   2
ATOM      2  N   UNL     1      65.312  -3.955   1.227  1.00  0.00    -0.353 N 
ATOM      3  H   UNL     1      66.058  -4.452   0.690  1.00  0.00     0.344 HD
ATOM      4  H   UNL     1      64.937  -3.172   0.641  1.00  0.00     0.344 HD
ATOM      5  H   UNL     1      64.545  -4.631   1.447  1.00  0.00     0.344 HD
ENDBRANCH   1   2
BRANCH   1   6
ATOM      6  C   UNL     1      64.809  -3.145   3.466  1.00  0.00     0.096 C 
ATOM      7  O   UNL     1      64.725  -3.836   4.515  1.00  0.00    -0.544 OA
ATOM      8  O   UNL     1      63.932  -2.086   3.266  1.00  0.00    -0.544 OA
ENDBRANCH   1   6
TORSDOF 2
ENDMDL
MODEL 9
REMARK VINA RESULT:    -2.295      8.801      9.072
REMARK INTER + INTRA:          -2.497
REMARK INTER:                  -2.497
REMARK INTRA:                   0.000
REMARK UNBOUND:                 0.000
REMARK SMILES [NH3+]CC(=O)[O-]
REMARK SMILES IDX 2 1 1 2 3 6 4 7 5 8
REMARK H PARENT 1 3 1 4 1 5
REMARK Flexibility Score: inf
ROOT
ATOM      1  C   UNL     1      57.525   1.808  -6.834  1.00  0.00     0.312 C 
ENDROOT
BRANCH   1   2
ATOM      2  N   UNL     1      58.890   2.143  -6.437  1.00  0.00    -0.353 N 
ATOM      3  H   UNL     1      59.142   3.077  -6.835  1.00  0.00     0.344 HD
ATOM      4  H   UNL     1      59.558   1.427  -6.807  1.00  0.00     0.344 HD
ATOM      5  H   UNL     1      58.960   2.188  -5.395  1.00  0.00     0.344 HD
ENDBRANCH   1   2
BRANCH   1   6
ATOM      6  C   UNL     1      56.532   2.553  -5.995  1.00  0.00     0.096 C 
ATOM      7  O   UNL     1      56.259   3.754  -6.253  1.00  0.00    -0.544 OA
ATOM      8  O   UNL     1      55.871   1.903  -4.960  1.00  0.00    -0.544 OA
ENDBRANCH   1   6
TORSDOF 2
ENDMDL
