MODEL 1
REMARK VINA RESULT:    -6.493      0.000      0.000
REMARK INTER + INTRA:          -8.144
REMARK INTER:                  -7.822
REMARK INTRA:                  -0.322
REMARK UNBOUND:                -0.322
REMARK SMILES O=c1c(O)c(-c2ccc(O)c(O)c2)oc2cc(O)cc(O)c12
REMARK SMILES IDX 5 1 3 2 2 3 1 4 22 5 20 6 19 7 17 8 16 9 15 10 14 11 6 12
REMARK SMILES IDX 7 13 8 14 9 15 13 16 11 17 10 18 12 20 4 22 21 24 18 26
REMARK H PARENT 10 19 12 21 4 23 21 25 18 27
REMARK Flexibility Score: inf
ROOT
ATOM      1  C   UNL     1     106.276  43.442 136.188  1.00  0.00     0.180 A 
ATOM      2  C   UNL     1     107.165  42.962 135.210  1.00  0.00     0.208 A 
ATOM      3  C   UNL     1     108.237  42.146 135.605  1.00  0.00     0.238 A 
ATOM      4  O   UNL     1     109.060  41.764 134.732  1.00  0.00    -0.285 OA
ATOM      5  C   UNL     1     108.397  41.805 136.969  1.00  0.00     0.111 A 
ATOM      6  C   UNL     1     109.424  40.952 137.475  1.00  0.00     0.134 A 
ATOM      7  C   UNL     1     109.565  40.788 138.860  1.00  0.00     0.093 A 
ATOM      8  C   UNL     1     108.678  41.396 139.751  1.00  0.00     0.123 A 
ATOM      9  C   UNL     1     107.637  42.182 139.263  1.00  0.00     0.094 A 
ATOM     10  C   UNL     1     107.492  42.393 137.890  1.00  0.00     0.146 A 
ATOM     11  O   UNL     1     106.492  43.158 137.468  1.00  0.00    -0.452 OA
ENDROOT
BRANCH   1  12
ATOM     12  C   UNL     1     105.110  44.286 135.847  1.00  0.00     0.025 A 
ATOM     13  C   UNL     1     103.901  43.677 135.471  1.00  0.00     0.016 A 
ATOM     14  C   UNL     1     102.794  44.455 135.125  1.00  0.00     0.051 A 
ATOM     15  C   UNL     1     102.881  45.851 135.132  1.00  0.00     0.157 A 
ATOM     16  C   UNL     1     105.200  45.690 135.834  1.00  0.00     0.062 A 
ATOM     17  C   UNL     1     104.089  46.472 135.484  1.00  0.00     0.158 A 
BRANCH  15  18
ATOM     18  O   UNL     1     101.757  46.601 134.784  1.00  0.00    -0.504 OA
ATOM     19  H   UNL     1     100.858  46.462 135.231  1.00  0.00     0.293 HD
ENDBRANCH  15  18
BRANCH  17  20
ATOM     20  O   UNL     1     104.187  47.863 135.480  1.00  0.00    -0.504 OA
ATOM     21  H   UNL     1     103.562  48.442 136.030  1.00  0.00     0.293 HD
ENDBRANCH  17  20
ENDBRANCH   1  12
BRANCH   2  22
ATOM     22  O   UNL     1     107.001  43.329 133.872  1.00  0.00    -0.502 OA
ATOM     23  H   UNL     1     107.094  42.667 133.110  1.00  0.00     0.293 HD
ENDBRANCH   2  22
BRANCH   6  24
ATOM     24  O   UNL     1     110.304  40.226 136.669  1.00  0.00    -0.507 OA
ATOM     25  H   UNL     1     110.625  39.290 136.866  1.00  0.00     0.293 HD
ENDBRANCH   6  24
BRANCH   8  26
ATOM     26  O   UNL     1     108.816  41.216 141.125  1.00  0.00    -0.508 OA
ATOM     27  H   UNL     1     109.631  41.553 141.625  1.00  0.00     0.293 HD
ENDBRANCH   8  26
TORSDOF 6
ENDMDL
MODEL 2
REMARK VINA RESULT:    -6.483      3.554      5.200
REMARK INTER + INTRA:          -8.131
REMARK INTER:                  -7.906
REMARK INTRA:                  -0.226
REMARK UNBOUND:                -0.322
REMARK SMILES O=c1c(O)c(-c2ccc(O)c(O)c2)oc2cc(O)cc(O)c12
REMARK SMILES IDX 5 1 3 2 2 3 1 4 22 5 20 6 19 7 17 8 16 9 15 10 14 11 6 12
REMARK SMILES IDX 7 13 8 14 9 15 13 16 11 17 10 18 12 20 4 22 21 24 18 26
REMARK H PARENT 10 19 12 21 4 23 21 25 18 27
REMARK Flexibility Score: inf
ROOT
ATOM      1  C   UNL     1     108.186  45.169 138.581  1.00  0.00     0.180 A 
ATOM      2  C   UNL     1     109.024  44.272 139.266  1.00  0.00     0.208 A 
ATOM      3  C   UNL     1     109.354  43.049 138.662  1.00  0.00     0.238 A 
ATOM      4  O   UNL     1     110.060  42.228 139.303  1.00  0.00    -0.285 OA
ATOM      5  C   UNL     1     108.856  42.745 137.372  1.00  0.00     0.111 A 
ATOM      6  C   UNL     1     109.158  41.552 136.648  1.00  0.00     0.134 A 
ATOM      7  C   UNL     1     108.505  41.297 135.435  1.00  0.00     0.093 A 
ATOM      8  C   UNL     1     107.611  42.221 134.890  1.00  0.00     0.123 A 
ATOM      9  C   UNL     1     107.354  43.414 135.561  1.00  0.00     0.094 A 
ATOM     10  C   UNL     1     107.963  43.681 136.790  1.00  0.00     0.146 A 
ATOM     11  O   UNL     1     107.682  44.826 137.401  1.00  0.00    -0.452 OA
ENDROOT
BRANCH   1  12
ATOM     12  C   UNL     1     107.815  46.487 139.143  1.00  0.00     0.025 A 
ATOM     13  C   UNL     1     108.786  47.496 139.239  1.00  0.00     0.016 A 
ATOM     14  C   UNL     1     108.463  48.741 139.785  1.00  0.00     0.051 A 
ATOM     15  C   UNL     1     107.171  48.991 140.257  1.00  0.00     0.157 A 
ATOM     16  C   UNL     1     106.521  46.735 139.637  1.00  0.00     0.062 A 
ATOM     17  C   UNL     1     106.196  47.984 140.187  1.00  0.00     0.158 A 
BRANCH  15  18
ATOM     18  O   UNL     1     106.877  50.245 140.795  1.00  0.00    -0.504 OA
ATOM     19  H   UNL     1     106.985  51.098 140.259  1.00  0.00     0.293 HD
ENDBRANCH  15  18
BRANCH  17  20
ATOM     20  O   UNL     1     104.910  48.222 140.669  1.00  0.00    -0.504 OA
ATOM     21  H   UNL     1     104.180  47.522 140.606  1.00  0.00     0.293 HD
ENDBRANCH  17  20
ENDBRANCH   1  12
BRANCH   2  22
ATOM     22  O   UNL     1     109.486  44.584 140.548  1.00  0.00    -0.502 OA
ATOM     23  H   UNL     1     109.535  45.536 140.893  1.00  0.00     0.293 HD
ENDBRANCH   2  22
BRANCH   6  24
ATOM     24  O   UNL     1     110.104  40.609 137.058  1.00  0.00    -0.507 OA
ATOM     25  H   UNL     1     109.978  39.609 137.008  1.00  0.00     0.293 HD
ENDBRANCH   6  24
BRANCH   8  26
ATOM     26  O   UNL     1     106.978  41.966 133.676  1.00  0.00    -0.508 OA
ATOM     27  H   UNL     1     107.277  42.416 132.818  1.00  0.00     0.293 HD
ENDBRANCH   8  26
TORSDOF 6
ENDMDL
MODEL 3
REMARK VINA RESULT:    -6.355      3.555      5.066
REMARK INTER + INTRA:          -7.978
REMARK INTER:                  -7.725
REMARK INTRA:                  -0.253
REMARK UNBOUND:                -0.322
REMARK SMILES O=c1c(O)c(-c2ccc(O)c(O)c2)oc2cc(O)cc(O)c12
REMARK SMILES IDX 5 1 3 2 2 3 1 4 22 5 20 6 19 7 17 8 16 9 15 10 14 11 6 12
REMARK SMILES IDX 7 13 8 14 9 15 13 16 11 17 10 18 12 20 4 22 21 24 18 26
REMARK H PARENT 10 19 12 21 4 23 21 25 18 27
REMARK Flexibility Score: inf
ROOT
ATOM      1  C   UNL     1     107.985  45.159 138.619  1.00  0.00     0.180 A 
ATOM      2  C   UNL     1     108.878  44.311 139.297  1.00  0.00     0.208 A 
ATOM      3  C   UNL     1     109.287  43.118 138.680  1.00  0.00     0.238 A 
ATOM      4  O   UNL     1     110.044  42.338 139.314  1.00  0.00    -0.285 OA
ATOM      5  C   UNL     1     108.812  42.797 137.385  1.00  0.00     0.111 A 
ATOM      6  C   UNL     1     109.192  41.635 136.649  1.00  0.00     0.134 A 
ATOM      7  C   UNL     1     108.559  41.351 135.432  1.00  0.00     0.093 A 
ATOM      8  C   UNL     1     107.608  42.221 134.895  1.00  0.00     0.123 A 
ATOM      9  C   UNL     1     107.274  43.388 135.579  1.00  0.00     0.094 A 
ATOM     10  C   UNL     1     107.862  43.680 136.812  1.00  0.00     0.146 A 
ATOM     11  O   UNL     1     107.507  44.797 137.435  1.00  0.00    -0.452 OA
ENDROOT
BRANCH   1  12
ATOM     12  C   UNL     1     107.529  46.444 139.195  1.00  0.00     0.025 A 
ATOM     13  C   UNL     1     106.189  46.587 139.591  1.00  0.00     0.016 A 
ATOM     14  C   UNL     1     105.732  47.797 140.117  1.00  0.00     0.051 A 
ATOM     15  C   UNL     1     106.599  48.887 140.242  1.00  0.00     0.157 A 
ATOM     16  C   UNL     1     108.395  47.548 139.303  1.00  0.00     0.062 A 
ATOM     17  C   UNL     1     107.935  48.764 139.830  1.00  0.00     0.158 A 
BRANCH  15  18
ATOM     18  O   UNL     1     106.113  50.082 140.774  1.00  0.00    -0.504 OA
ATOM     19  H   UNL     1     106.547  50.975 140.572  1.00  0.00     0.293 HD
ENDBRANCH  15  18
BRANCH  17  20
ATOM     20  O   UNL     1     108.802  49.851 139.938  1.00  0.00    -0.504 OA
ATOM     21  H   UNL     1     108.466  50.806 139.895  1.00  0.00     0.293 HD
ENDBRANCH  17  20
ENDBRANCH   1  12
BRANCH   2  22
ATOM     22  O   UNL     1     109.318  44.637 140.583  1.00  0.00    -0.502 OA
ATOM     23  H   UNL     1     108.958  45.435 141.096  1.00  0.00     0.293 HD
ENDBRANCH   2  22
BRANCH   6  24
ATOM     24  O   UNL     1     110.197  40.750 137.051  1.00  0.00    -0.507 OA
ATOM     25  H   UNL     1     111.131  40.730 136.670  1.00  0.00     0.293 HD
ENDBRANCH   6  24
BRANCH   8  26
ATOM     26  O   UNL     1     106.995  41.940 133.677  1.00  0.00    -0.508 OA
ATOM     27  H   UNL     1     107.031  42.593 132.902  1.00  0.00     0.293 HD
ENDBRANCH   8  26
TORSDOF 6
ENDMDL
MODEL 4
REMARK VINA RESULT:    -6.146      1.176      1.452
REMARK INTER + INTRA:          -7.726
REMARK INTER:                  -7.441
REMARK INTRA:                  -0.285
REMARK UNBOUND:                -0.322
REMARK SMILES O=c1c(O)c(-c2ccc(O)c(O)c2)oc2cc(O)cc(O)c12
REMARK SMILES IDX 5 1 3 2 2 3 1 4 22 5 20 6 19 7 17 8 16 9 15 10 14 11 6 12
REMARK SMILES IDX 7 13 8 14 9 15 13 16 11 17 10 18 12 20 4 22 21 24 18 26
REMARK H PARENT 10 19 12 21 4 23 21 25 18 27
REMARK Flexibility Score: inf
ROOT
ATOM      1  C   UNL     1     105.650  42.407 136.041  1.00  0.00     0.180 A 
ATOM      2  C   UNL     1     106.543  41.889 135.087  1.00  0.00     0.208 A 
ATOM      3  C   UNL     1     107.776  41.372 135.516  1.00  0.00     0.238 A 
ATOM      4  O   UNL     1     108.592  40.959 134.652  1.00  0.00    -0.285 OA
ATOM      5  C   UNL     1     108.094  41.365 136.895  1.00  0.00     0.111 A 
ATOM      6  C   UNL     1     109.298  40.831 137.446  1.00  0.00     0.134 A 
ATOM      7  C   UNL     1     109.565  40.996 138.811  1.00  0.00     0.093 A 
ATOM      8  C   UNL     1     108.644  41.619 139.655  1.00  0.00     0.123 A 
ATOM      9  C   UNL     1     107.440  42.091 139.137  1.00  0.00     0.094 A 
ATOM     10  C   UNL     1     107.161  41.973 137.774  1.00  0.00     0.146 A 
ATOM     11  O   UNL     1     106.006  42.447 137.320  1.00  0.00    -0.452 OA
ENDROOT
BRANCH   1  12
ATOM     12  C   UNL     1     104.323  42.946 135.668  1.00  0.00     0.025 A 
ATOM     13  C   UNL     1     103.183  42.139 135.817  1.00  0.00     0.016 A 
ATOM     14  C   UNL     1     101.924  42.619 135.452  1.00  0.00     0.051 A 
ATOM     15  C   UNL     1     101.784  43.904 134.918  1.00  0.00     0.157 A 
ATOM     16  C   UNL     1     104.183  44.231 135.112  1.00  0.00     0.062 A 
ATOM     17  C   UNL     1     102.919  44.713 134.743  1.00  0.00     0.158 A 
BRANCH  15  18
ATOM     18  O   UNL     1     100.513  44.357 134.565  1.00  0.00    -0.504 OA
ATOM     19  H   UNL     1      99.823  43.748 134.142  1.00  0.00     0.293 HD
ENDBRANCH  15  18
BRANCH  17  20
ATOM     20  O   UNL     1     102.789  45.990 134.200  1.00  0.00    -0.504 OA
ATOM     21  H   UNL     1     101.881  46.402 134.020  1.00  0.00     0.293 HD
ENDBRANCH  17  20
ENDBRANCH   1  12
BRANCH   2  22
ATOM     22  O   UNL     1     106.217  41.925 133.728  1.00  0.00    -0.502 OA
ATOM     23  H   UNL     1     105.292  41.693 133.383  1.00  0.00     0.293 HD
ENDBRANCH   2  22
BRANCH   6  24
ATOM     24  O   UNL     1     110.241  40.110 136.708  1.00  0.00    -0.507 OA
ATOM     25  H   UNL     1     111.038  40.516 136.242  1.00  0.00     0.293 HD
ENDBRANCH   6  24
BRANCH   8  26
ATOM     26  O   UNL     1     108.911  41.765 141.014  1.00  0.00    -0.508 OA
ATOM     27  H   UNL     1     108.396  41.243 141.715  1.00  0.00     0.293 HD
ENDBRANCH   8  26
TORSDOF 6
ENDMDL
MODEL 5
REMARK VINA RESULT:    -5.861      3.211      4.230
REMARK INTER + INTRA:          -7.382
REMARK INTER:                  -7.074
REMARK INTRA:                  -0.308
REMARK UNBOUND:                -0.322
REMARK SMILES O=c1c(O)c(-c2ccc(O)c(O)c2)oc2cc(O)cc(O)c12
REMARK SMILES IDX 5 1 3 2 2 3 1 4 22 5 20 6 19 7 17 8 16 9 15 10 14 11 6 12
REMARK SMILES IDX 7 13 8 14 9 15 13 16 11 17 10 18 12 20 4 22 21 24 18 26
REMARK H PARENT 10 19 12 21 4 23 21 25 18 27
REMARK Flexibility Score: inf
ROOT
ATOM      1  C   UNL     1     108.078  44.830 137.354  1.00  0.00     0.180 A 
ATOM      2  C   UNL     1     107.916  44.785 135.958  1.00  0.00     0.208 A 
ATOM      3  C   UNL     1     107.978  43.544 135.304  1.00  0.00     0.238 A 
ATOM      4  O   UNL     1     107.886  43.517 134.049  1.00  0.00    -0.285 OA
ATOM      5  C   UNL     1     108.184  42.362 136.055  1.00  0.00     0.111 A 
ATOM      6  C   UNL     1     108.224  41.048 135.501  1.00  0.00     0.134 A 
ATOM      7  C   UNL     1     108.564  39.963 136.320  1.00  0.00     0.093 A 
ATOM      8  C   UNL     1     108.802  40.139 137.685  1.00  0.00     0.123 A 
ATOM      9  C   UNL     1     108.707  41.410 138.246  1.00  0.00     0.094 A 
ATOM     10  C   UNL     1     108.405  42.516 137.448  1.00  0.00     0.146 A 
ATOM     11  O   UNL     1     108.335  43.712 138.022  1.00  0.00    -0.452 OA
ENDROOT
BRANCH   1  12
ATOM     12  C   UNL     1     108.001  46.097 138.116  1.00  0.00     0.025 A 
ATOM     13  C   UNL     1     109.183  46.704 138.570  1.00  0.00     0.016 A 
ATOM     14  C   UNL     1     109.133  47.888 139.308  1.00  0.00     0.051 A 
ATOM     15  C   UNL     1     107.903  48.476 139.618  1.00  0.00     0.157 A 
ATOM     16  C   UNL     1     106.763  46.680 138.446  1.00  0.00     0.062 A 
ATOM     17  C   UNL     1     106.712  47.868 139.189  1.00  0.00     0.158 A 
BRANCH  15  18
ATOM     18  O   UNL     1     107.884  49.661 140.354  1.00  0.00    -0.504 OA
ATOM     19  H   UNL     1     108.732  50.084 140.713  1.00  0.00     0.293 HD
ENDBRANCH  15  18
BRANCH  17  20
ATOM     20  O   UNL     1     105.481  48.442 139.506  1.00  0.00    -0.504 OA
ATOM     21  H   UNL     1     105.368  49.445 139.590  1.00  0.00     0.293 HD
ENDBRANCH  17  20
ENDBRANCH   1  12
BRANCH   2  22
ATOM     22  O   UNL     1     107.736  45.967 135.234  1.00  0.00    -0.502 OA
ATOM     23  H   UNL     1     108.444  46.690 135.186  1.00  0.00     0.293 HD
ENDBRANCH   2  22
BRANCH   6  24
ATOM     24  O   UNL     1     107.912  40.751 134.171  1.00  0.00    -0.507 OA
ATOM     25  H   UNL     1     108.287  39.971 133.653  1.00  0.00     0.293 HD
ENDBRANCH   6  24
BRANCH   8  26
ATOM     26  O   UNL     1     109.125  39.053 138.495  1.00  0.00    -0.508 OA
ATOM     27  H   UNL     1     108.741  38.130 138.323  1.00  0.00     0.293 HD
ENDBRANCH   8  26
TORSDOF 6
ENDMDL
MODEL 6
REMARK VINA RESULT:    -5.818      5.012      8.286
REMARK INTER + INTRA:          -7.330
REMARK INTER:                  -7.000
REMARK INTRA:                  -0.330
REMARK UNBOUND:                -0.322
REMARK SMILES O=c1c(O)c(-c2ccc(O)c(O)c2)oc2cc(O)cc(O)c12
REMARK SMILES IDX 5 1 3 2 2 3 1 4 22 5 20 6 19 7 17 8 16 9 15 10 14 11 6 12
REMARK SMILES IDX 7 13 8 14 9 15 13 16 11 17 10 18 12 20 4 22 21 24 18 26
REMARK H PARENT 10 19 12 21 4 23 21 25 18 27
REMARK Flexibility Score: inf
ROOT
ATOM      1  C   UNL     1     101.303  48.470 132.624  1.00  0.00     0.180 A 
ATOM      2  C   UNL     1     100.549  47.312 132.365  1.00  0.00     0.208 A 
ATOM      3  C   UNL     1     100.870  46.123 133.039  1.00  0.00     0.238 A 
ATOM      4  O   UNL     1     100.226  45.078 132.762  1.00  0.00    -0.285 OA
ATOM      5  C   UNL     1     101.930  46.111 133.976  1.00  0.00     0.111 A 
ATOM      6  C   UNL     1     102.317  44.972 134.746  1.00  0.00     0.134 A 
ATOM      7  C   UNL     1     103.465  45.038 135.547  1.00  0.00     0.093 A 
ATOM      8  C   UNL     1     104.200  46.220 135.655  1.00  0.00     0.123 A 
ATOM      9  C   UNL     1     103.796  47.353 134.954  1.00  0.00     0.094 A 
ATOM     10  C   UNL     1     102.677  47.308 134.119  1.00  0.00     0.146 A 
ATOM     11  O   UNL     1     102.333  48.409 133.460  1.00  0.00    -0.452 OA
ENDROOT
BRANCH   1  12
ATOM     12  C   UNL     1     101.008  49.765 131.971  1.00  0.00     0.025 A 
ATOM     13  C   UNL     1     101.740  50.149 130.836  1.00  0.00     0.016 A 
ATOM     14  C   UNL     1     101.492  51.376 130.217  1.00  0.00     0.051 A 
ATOM     15  C   UNL     1     100.524  52.245 130.729  1.00  0.00     0.157 A 
ATOM     16  C   UNL     1     100.048  50.649 132.497  1.00  0.00     0.062 A 
ATOM     17  C   UNL     1      99.800  51.882 131.877  1.00  0.00     0.158 A 
BRANCH  15  18
ATOM     18  O   UNL     1     100.297  53.462 130.087  1.00  0.00    -0.504 OA
ATOM     19  H   UNL     1     100.383  53.564 129.083  1.00  0.00     0.293 HD
ENDBRANCH  15  18
BRANCH  17  20
ATOM     20  O   UNL     1      98.843  52.749 132.401  1.00  0.00    -0.504 OA
ATOM     21  H   UNL     1      98.676  53.664 131.999  1.00  0.00     0.293 HD
ENDBRANCH  17  20
ENDBRANCH   1  12
BRANCH   2  22
ATOM     22  O   UNL     1      99.520  47.342 131.419  1.00  0.00    -0.502 OA
ATOM     23  H   UNL     1      99.010  46.511 131.142  1.00  0.00     0.293 HD
ENDBRANCH   2  22
BRANCH   6  24
ATOM     24  O   UNL     1     101.600  43.773 134.781  1.00  0.00    -0.507 OA
ATOM     25  H   UNL     1     100.804  43.562 134.198  1.00  0.00     0.293 HD
ENDBRANCH   6  24
BRANCH   8  26
ATOM     26  O   UNL     1     105.331  46.282 136.466  1.00  0.00    -0.508 OA
ATOM     27  H   UNL     1     105.260  46.255 137.478  1.00  0.00     0.293 HD
ENDBRANCH   8  26
TORSDOF 6
ENDMDL
MODEL 7
REMARK VINA RESULT:    -5.700      6.442      8.957
REMARK INTER + INTRA:          -7.189
REMARK INTER:                  -6.874
REMARK INTRA:                  -0.315
REMARK UNBOUND:                -0.322
REMARK SMILES O=c1c(O)c(-c2ccc(O)c(O)c2)oc2cc(O)cc(O)c12
REMARK SMILES IDX 5 1 3 2 2 3 1 4 22 5 20 6 19 7 17 8 16 9 15 10 14 11 6 12
REMARK SMILES IDX 7 13 8 14 9 15 13 16 11 17 10 18 12 20 4 22 21 24 18 26
REMARK H PARENT 10 19 12 21 4 23 21 25 18 27
REMARK Flexibility Score: inf
ROOT
ATOM      1  C   UNL     1     100.358  48.496 132.785  1.00  0.00     0.180 A 
ATOM      2  C   UNL     1      99.918  47.560 131.833  1.00  0.00     0.208 A 
ATOM      3  C   UNL     1      99.916  46.196 132.167  1.00  0.00     0.238 A 
ATOM      4  O   UNL     1      99.572  45.360 131.291  1.00  0.00    -0.285 OA
ATOM      5  C   UNL     1     100.336  45.787 133.455  1.00  0.00     0.111 A 
ATOM      6  C   UNL     1     100.337  44.436 133.915  1.00  0.00     0.134 A 
ATOM      7  C   UNL     1     100.898  44.131 135.162  1.00  0.00     0.093 A 
ATOM      8  C   UNL     1     101.398  45.137 135.991  1.00  0.00     0.123 A 
ATOM      9  C   UNL     1     101.348  46.466 135.576  1.00  0.00     0.094 A 
ATOM     10  C   UNL     1     100.828  46.797 134.322  1.00  0.00     0.146 A 
ATOM     11  O   UNL     1     100.809  48.074 133.961  1.00  0.00    -0.452 OA
ENDROOT
BRANCH   1  12
ATOM     12  C   UNL     1     100.366  49.951 132.515  1.00  0.00     0.025 A 
ATOM     13  C   UNL     1      99.188  50.694 132.693  1.00  0.00     0.016 A 
ATOM     14  C   UNL     1      99.168  52.064 132.424  1.00  0.00     0.051 A 
ATOM     15  C   UNL     1     100.316  52.711 131.958  1.00  0.00     0.157 A 
ATOM     16  C   UNL     1     101.515  50.600 132.026  1.00  0.00     0.062 A 
ATOM     17  C   UNL     1     101.495  51.976 131.754  1.00  0.00     0.158 A 
BRANCH  15  18
ATOM     18  O   UNL     1     100.266  54.081 131.701  1.00  0.00    -0.504 OA
ATOM     19  H   UNL     1     100.004  54.752 132.413  1.00  0.00     0.293 HD
ENDBRANCH  15  18
BRANCH  17  20
ATOM     20  O   UNL     1     102.640  52.610 131.277  1.00  0.00    -0.504 OA
ATOM     21  H   UNL     1     102.620  53.193 130.448  1.00  0.00     0.293 HD
ENDBRANCH  17  20
ENDBRANCH   1  12
BRANCH   2  22
ATOM     22  O   UNL     1      99.528  47.985 130.559  1.00  0.00    -0.502 OA
ATOM     23  H   UNL     1      98.656  48.475 130.392  1.00  0.00     0.293 HD
ENDBRANCH   2  22
BRANCH   6  24
ATOM     24  O   UNL     1      99.778  43.369 133.205  1.00  0.00    -0.507 OA
ATOM     25  H   UNL     1      98.797  43.272 132.991  1.00  0.00     0.293 HD
ENDBRANCH   6  24
BRANCH   8  26
ATOM     26  O   UNL     1     101.940  44.828 137.237  1.00  0.00    -0.508 OA
ATOM     27  H   UNL     1     102.734  44.204 137.329  1.00  0.00     0.293 HD
ENDBRANCH   8  26
TORSDOF 6
ENDMDL
MODEL 8
REMARK VINA RESULT:    -5.646      3.025      3.639
REMARK INTER + INTRA:          -7.123
REMARK INTER:                  -6.870
REMARK INTRA:                  -0.253
REMARK UNBOUND:                -0.322
REMARK SMILES O=c1c(O)c(-c2ccc(O)c(O)c2)oc2cc(O)cc(O)c12
REMARK SMILES IDX 5 1 3 2 2 3 1 4 22 5 20 6 19 7 17 8 16 9 15 10 14 11 6 12
REMARK SMILES IDX 7 13 8 14 9 15 13 16 11 17 10 18 12 20 4 22 21 24 18 26
REMARK H PARENT 10 19 12 21 4 23 21 25 18 27
REMARK Flexibility Score: inf
ROOT
ATOM      1  C   UNL     1     107.532  45.259 137.764  1.00  0.00     0.180 A 
ATOM      2  C   UNL     1     107.585  44.979 136.388  1.00  0.00     0.208 A 
ATOM      3  C   UNL     1     108.059  43.727 135.964  1.00  0.00     0.238 A 
ATOM      4  O   UNL     1     108.155  43.503 134.730  1.00  0.00    -0.285 OA
ATOM      5  C   UNL     1     108.457  42.765 136.923  1.00  0.00     0.111 A 
ATOM      6  C   UNL     1     108.916  41.450 136.608  1.00  0.00     0.134 A 
ATOM      7  C   UNL     1     109.408  40.627 137.630  1.00  0.00     0.093 A 
ATOM      8  C   UNL     1     109.398  41.049 138.961  1.00  0.00     0.123 A 
ATOM      9  C   UNL     1     108.897  42.308 139.285  1.00  0.00     0.094 A 
ATOM     10  C   UNL     1     108.433  43.165 138.284  1.00  0.00     0.146 A 
ATOM     11  O   UNL     1     107.975  44.360 138.635  1.00  0.00    -0.452 OA
ENDROOT
BRANCH   1  12
ATOM     12  C   UNL     1     107.021  46.547 138.287  1.00  0.00     0.025 A 
ATOM     13  C   UNL     1     105.643  46.813 138.244  1.00  0.00     0.016 A 
ATOM     14  C   UNL     1     105.142  48.029 138.713  1.00  0.00     0.051 A 
ATOM     15  C   UNL     1     106.008  49.004 139.216  1.00  0.00     0.157 A 
ATOM     16  C   UNL     1     107.893  47.537 138.775  1.00  0.00     0.062 A 
ATOM     17  C   UNL     1     107.391  48.760 139.245  1.00  0.00     0.158 A 
BRANCH  15  18
ATOM     18  O   UNL     1     105.478  50.208 139.680  1.00  0.00    -0.504 OA
ATOM     19  H   UNL     1     105.909  51.101 139.472  1.00  0.00     0.293 HD
ENDBRANCH  15  18
BRANCH  17  20
ATOM     20  O   UNL     1     108.262  49.732 139.733  1.00  0.00    -0.504 OA
ATOM     21  H   UNL     1     108.841  49.568 140.548  1.00  0.00     0.293 HD
ENDBRANCH  17  20
ENDBRANCH   1  12
BRANCH   2  22
ATOM     22  O   UNL     1     107.207  45.952 135.458  1.00  0.00    -0.502 OA
ATOM     23  H   UNL     1     106.399  46.549 135.592  1.00  0.00     0.293 HD
ENDBRANCH   2  22
BRANCH   6  24
ATOM     24  O   UNL     1     108.882  40.898 135.325  1.00  0.00    -0.507 OA
ATOM     25  H   UNL     1     109.459  40.131 135.014  1.00  0.00     0.293 HD
ENDBRANCH   6  24
BRANCH   8  26
ATOM     26  O   UNL     1     109.874  40.219 139.973  1.00  0.00    -0.508 OA
ATOM     27  H   UNL     1     110.133  39.256 139.791  1.00  0.00     0.293 HD
ENDBRANCH   8  26
TORSDOF 6
ENDMDL
MODEL 9
REMARK VINA RESULT:    -5.483      1.956      7.333
REMARK INTER + INTRA:          -6.928
REMARK INTER:                  -6.779
REMARK INTRA:                  -0.148
REMARK UNBOUND:                -0.322
REMARK SMILES O=c1c(O)c(-c2ccc(O)c(O)c2)oc2cc(O)cc(O)c12
REMARK SMILES IDX 5 1 3 2 2 3 1 4 22 5 20 6 19 7 17 8 16 9 15 10 14 11 6 12
REMARK SMILES IDX 7 13 8 14 9 15 13 16 11 17 10 18 12 20 4 22 21 24 18 26
REMARK H PARENT 10 19 12 21 4 23 21 25 18 27
REMARK Flexibility Score: inf
ROOT
ATOM      1  C   UNL     1     105.002  43.974 135.497  1.00  0.00     0.180 A 
ATOM      2  C   UNL     1     104.994  45.380 135.496  1.00  0.00     0.208 A 
ATOM      3  C   UNL     1     103.769  46.055 135.369  1.00  0.00     0.238 A 
ATOM      4  O   UNL     1     103.774  47.312 135.315  1.00  0.00    -0.285 OA
ATOM      5  C   UNL     1     102.566  45.316 135.263  1.00  0.00     0.111 A 
ATOM      6  C   UNL     1     101.266  45.896 135.171  1.00  0.00     0.134 A 
ATOM      7  C   UNL     1     100.157  45.071 134.938  1.00  0.00     0.093 A 
ATOM      8  C   UNL     1     100.295  43.684 134.858  1.00  0.00     0.123 A 
ATOM      9  C   UNL     1     101.553  43.105 135.006  1.00  0.00     0.094 A 
ATOM     10  C   UNL     1     102.682  43.903 135.204  1.00  0.00     0.146 A 
ATOM     11  O   UNL     1     103.864  43.310 135.329  1.00  0.00    -0.452 OA
ENDROOT
BRANCH   1  12
ATOM     12  C   UNL     1     106.250  43.193 135.651  1.00  0.00     0.025 A 
ATOM     13  C   UNL     1     106.995  43.307 136.836  1.00  0.00     0.016 A 
ATOM     14  C   UNL     1     108.186  42.595 136.994  1.00  0.00     0.051 A 
ATOM     15  C   UNL     1     108.661  41.773 135.967  1.00  0.00     0.157 A 
ATOM     16  C   UNL     1     106.740  42.382 134.611  1.00  0.00     0.062 A 
ATOM     17  C   UNL     1     107.937  41.668 134.768  1.00  0.00     0.158 A 
BRANCH  15  18
ATOM     18  O   UNL     1     109.852  41.073 136.155  1.00  0.00    -0.504 OA
ATOM     19  H   UNL     1     110.111  40.286 135.572  1.00  0.00     0.293 HD
ENDBRANCH  15  18
BRANCH  17  20
ATOM     20  O   UNL     1     108.411  40.862 133.735  1.00  0.00    -0.504 OA
ATOM     21  H   UNL     1     109.287  41.059 133.265  1.00  0.00     0.293 HD
ENDBRANCH  17  20
ENDBRANCH   1  12
BRANCH   2  22
ATOM     22  O   UNL     1     106.195  46.089 135.580  1.00  0.00    -0.502 OA
ATOM     23  H   UNL     1     107.061  45.743 135.183  1.00  0.00     0.293 HD
ENDBRANCH   2  22
BRANCH   6  24
ATOM     24  O   UNL     1     101.006  47.260 135.328  1.00  0.00    -0.507 OA
ATOM     25  H   UNL     1     101.604  47.906 135.820  1.00  0.00     0.293 HD
ENDBRANCH   6  24
BRANCH   8  26
ATOM     26  O   UNL     1      99.186  42.871 134.642  1.00  0.00    -0.508 OA
ATOM     27  H   UNL     1      98.693  42.431 135.411  1.00  0.00     0.293 HD
ENDBRANCH   8  26
TORSDOF 6
ENDMDL
