MODEL 1
REMARK VINA RESULT:    -5.847      0.000      0.000
REMARK INTER + INTRA:          -7.069
REMARK INTER:                  -6.873
REMARK INTRA:                  -0.196
REMARK UNBOUND:                -0.196
REMARK SMILES O=c1c(O)c(-c2ccc(O)c(O)c2)oc2cc(O)ccc12
REMARK SMILES IDX 5 1 3 2 2 3 1 4 21 5 15 6 14 7 16 8 17 9 19 10 20 11 6 12
REMARK SMILES IDX 7 13 8 14 9 15 13 16 11 17 10 18 12 20 4 22 18 24
REMARK H PARENT 10 19 12 21 4 23 18 25
REMARK Flexibility Score: inf
ROOT
ATOM      1  C   UNL     1      24.710  30.041   7.078  1.00  0.00     0.180 A 
ATOM      2  C   UNL     1      25.955  30.443   7.605  1.00  0.00     0.208 A 
ATOM      3  C   UNL     1      27.005  29.513   7.645  1.00  0.00     0.235 A 
ATOM      4  O   UNL     1      28.125  29.846   8.121  1.00  0.00    -0.285 OA
ATOM      5  C   UNL     1      26.799  28.217   7.145  1.00  0.00     0.069 A 
ATOM      6  C   UNL     1      25.531  27.900   6.613  1.00  0.00     0.142 A 
ATOM      7  O   UNL     1      24.560  28.807   6.602  1.00  0.00    -0.452 OA
ATOM      8  C   UNL     1      25.289  26.622   6.096  1.00  0.00     0.094 A 
ATOM      9  C   UNL     1      26.297  25.654   6.106  1.00  0.00     0.119 A 
ATOM     10  C   UNL     1      27.558  25.965   6.635  1.00  0.00     0.047 A 
ATOM     11  C   UNL     1      27.810  27.239   7.152  1.00  0.00     0.020 A 
ENDROOT
BRANCH   1  12
ATOM     12  C   UNL     1      23.549  30.958   7.018  1.00  0.00     0.025 A 
ATOM     13  C   UNL     1      22.939  31.377   8.210  1.00  0.00     0.016 A 
ATOM     14  C   UNL     1      21.855  32.259   8.178  1.00  0.00     0.051 A 
ATOM     15  C   UNL     1      21.375  32.746   6.959  1.00  0.00     0.157 A 
ATOM     16  C   UNL     1      23.078  31.465   5.793  1.00  0.00     0.062 A 
ATOM     17  C   UNL     1      21.991  32.352   5.760  1.00  0.00     0.158 A 
BRANCH  15  18
ATOM     18  O   UNL     1      20.290  33.622   6.959  1.00  0.00    -0.504 OA
ATOM     19  H   UNL     1      20.335  34.534   7.398  1.00  0.00     0.293 HD
ENDBRANCH  15  18
BRANCH  17  20
ATOM     20  O   UNL     1      21.527  32.845   4.541  1.00  0.00    -0.504 OA
ATOM     21  H   UNL     1      21.742  33.786   4.233  1.00  0.00     0.293 HD
ENDBRANCH  17  20
ENDBRANCH   1  12
BRANCH   2  22
ATOM     22  O   UNL     1      26.145  31.754   8.049  1.00  0.00    -0.502 OA
ATOM     23  H   UNL     1      26.108  32.549   7.422  1.00  0.00     0.293 HD
ENDBRANCH   2  22
BRANCH   9  24
ATOM     24  O   UNL     1      26.039  24.387   5.588  1.00  0.00    -0.508 OA
ATOM     25  H   UNL     1      26.464  23.556   5.984  1.00  0.00     0.293 HD
ENDBRANCH   9  24
TORSDOF 5
ENDMDL
MODEL 2
REMARK VINA RESULT:    -5.678      1.848      2.683
REMARK INTER + INTRA:          -6.870
REMARK INTER:                  -6.562
REMARK INTRA:                  -0.308
REMARK UNBOUND:                -0.196
REMARK SMILES O=c1c(O)c(-c2ccc(O)c(O)c2)oc2cc(O)ccc12
REMARK SMILES IDX 5 1 3 2 2 3 1 4 21 5 15 6 14 7 16 8 17 9 19 10 20 11 6 12
REMARK SMILES IDX 7 13 8 14 9 15 13 16 11 17 10 18 12 20 4 22 18 24
REMARK H PARENT 10 19 12 21 4 23 18 25
REMARK Flexibility Score: inf
ROOT
ATOM      1  C   UNL     1      23.520  29.427   5.866  1.00  0.00     0.180 A 
ATOM      2  C   UNL     1      24.844  29.336   6.342  1.00  0.00     0.208 A 
ATOM      3  C   UNL     1      25.426  28.066   6.484  1.00  0.00     0.235 A 
ATOM      4  O   UNL     1      26.606  27.959   6.918  1.00  0.00    -0.285 OA
ATOM      5  C   UNL     1      24.688  26.925   6.134  1.00  0.00     0.069 A 
ATOM      6  C   UNL     1      23.377  27.102   5.643  1.00  0.00     0.142 A 
ATOM      7  O   UNL     1      22.859  28.321   5.531  1.00  0.00    -0.452 OA
ATOM      8  C   UNL     1      22.612  25.990   5.273  1.00  0.00     0.094 A 
ATOM      9  C   UNL     1      23.139  24.701   5.389  1.00  0.00     0.119 A 
ATOM     10  C   UNL     1      24.441  24.521   5.877  1.00  0.00     0.047 A 
ATOM     11  C   UNL     1      25.214  25.626   6.248  1.00  0.00     0.020 A 
ENDROOT
BRANCH   1  12
ATOM     12  C   UNL     1      22.830  30.728   5.706  1.00  0.00     0.025 A 
ATOM     13  C   UNL     1      22.716  31.294   4.427  1.00  0.00     0.016 A 
ATOM     14  C   UNL     1      22.051  32.510   4.250  1.00  0.00     0.051 A 
ATOM     15  C   UNL     1      21.478  33.170   5.342  1.00  0.00     0.157 A 
ATOM     16  C   UNL     1      22.236  31.382   6.800  1.00  0.00     0.062 A 
ATOM     17  C   UNL     1      21.567  32.602   6.624  1.00  0.00     0.158 A 
BRANCH  15  18
ATOM     18  O   UNL     1      20.824  34.384   5.134  1.00  0.00    -0.504 OA
ATOM     19  H   UNL     1      19.830  34.494   5.297  1.00  0.00     0.293 HD
ENDBRANCH  15  18
BRANCH  17  20
ATOM     20  O   UNL     1      20.986  33.247   7.714  1.00  0.00    -0.504 OA
ATOM     21  H   UNL     1      20.696  32.736   8.540  1.00  0.00     0.293 HD
ENDBRANCH  17  20
ENDBRANCH   1  12
BRANCH   2  22
ATOM     22  O   UNL     1      25.572  30.492   6.637  1.00  0.00    -0.502 OA
ATOM     23  H   UNL     1      26.309  30.835   6.033  1.00  0.00     0.293 HD
ENDBRANCH   2  22
BRANCH   9  24
ATOM     24  O   UNL     1      22.364  23.605   5.016  1.00  0.00    -0.508 OA
ATOM     25  H   UNL     1      22.617  22.661   5.287  1.00  0.00     0.293 HD
ENDBRANCH   9  24
TORSDOF 5
ENDMDL
MODEL 3
REMARK VINA RESULT:    -5.529      1.004      1.036
REMARK INTER + INTRA:          -6.694
REMARK INTER:                  -6.420
REMARK INTRA:                  -0.275
REMARK UNBOUND:                -0.196
REMARK SMILES O=c1c(O)c(-c2ccc(O)c(O)c2)oc2cc(O)ccc12
REMARK SMILES IDX 5 1 3 2 2 3 1 4 21 5 15 6 14 7 16 8 17 9 19 10 20 11 6 12
REMARK SMILES IDX 7 13 8 14 9 15 13 16 11 17 10 18 12 20 4 22 18 24
REMARK H PARENT 10 19 12 21 4 23 18 25
REMARK Flexibility Score: inf
ROOT
ATOM      1  C   UNL     1      24.593  29.662   6.694  1.00  0.00     0.180 A 
ATOM      2  C   UNL     1      25.953  30.008   6.551  1.00  0.00     0.208 A 
ATOM      3  C   UNL     1      26.889  28.988   6.317  1.00  0.00     0.235 A 
ATOM      4  O   UNL     1      28.112  29.271   6.196  1.00  0.00    -0.285 OA
ATOM      5  C   UNL     1      26.450  27.659   6.213  1.00  0.00     0.069 A 
ATOM      6  C   UNL     1      25.069  27.398   6.346  1.00  0.00     0.142 A 
ATOM      7  O   UNL     1      24.217  28.391   6.575  1.00  0.00    -0.452 OA
ATOM      8  C   UNL     1      24.591  26.087   6.238  1.00  0.00     0.094 A 
ATOM      9  C   UNL     1      25.476  25.030   6.002  1.00  0.00     0.119 A 
ATOM     10  C   UNL     1      26.848  25.285   5.871  1.00  0.00     0.047 A 
ATOM     11  C   UNL     1      27.335  26.591   5.976  1.00  0.00     0.020 A 
ENDROOT
BRANCH   1  12
ATOM     12  C   UNL     1      23.548  30.677   6.960  1.00  0.00     0.025 A 
ATOM     13  C   UNL     1      23.412  31.204   8.254  1.00  0.00     0.016 A 
ATOM     14  C   UNL     1      22.447  32.178   8.523  1.00  0.00     0.051 A 
ATOM     15  C   UNL     1      21.615  32.651   7.503  1.00  0.00     0.157 A 
ATOM     16  C   UNL     1      22.725  31.169   5.931  1.00  0.00     0.062 A 
ATOM     17  C   UNL     1      21.757  32.148   6.199  1.00  0.00     0.158 A 
BRANCH  15  18
ATOM     18  O   UNL     1      20.659  33.621   7.803  1.00  0.00    -0.504 OA
ATOM     19  H   UNL     1      19.851  33.419   8.380  1.00  0.00     0.293 HD
ENDBRANCH  15  18
BRANCH  17  20
ATOM     20  O   UNL     1      20.941  32.625   5.175  1.00  0.00    -0.504 OA
ATOM     21  H   UNL     1      20.458  31.996   4.544  1.00  0.00     0.293 HD
ENDBRANCH  17  20
ENDBRANCH   1  12
BRANCH   2  22
ATOM     22  O   UNL     1      26.353  31.345   6.610  1.00  0.00    -0.502 OA
ATOM     23  H   UNL     1      27.328  31.616   6.656  1.00  0.00     0.293 HD
ENDBRANCH   2  22
BRANCH   9  24
ATOM     24  O   UNL     1      24.983  23.732   5.899  1.00  0.00    -0.508 OA
ATOM     25  H   UNL     1      24.508  23.410   5.063  1.00  0.00     0.293 HD
ENDBRANCH   9  24
TORSDOF 5
ENDMDL
MODEL 4
REMARK VINA RESULT:    -5.191      1.977      3.531
REMARK INTER + INTRA:          -6.298
REMARK INTER:                  -6.136
REMARK INTRA:                  -0.161
REMARK UNBOUND:                -0.196
REMARK SMILES O=c1c(O)c(-c2ccc(O)c(O)c2)oc2cc(O)ccc12
REMARK SMILES IDX 5 1 3 2 2 3 1 4 21 5 15 6 14 7 16 8 17 9 19 10 20 11 6 12
REMARK SMILES IDX 7 13 8 14 9 15 13 16 11 17 10 18 12 20 4 22 18 24
REMARK H PARENT 10 19 12 21 4 23 18 25
REMARK Flexibility Score: inf
ROOT
ATOM      1  C   UNL     1      23.441  29.557   5.210  1.00  0.00     0.180 A 
ATOM      2  C   UNL     1      22.917  28.486   4.457  1.00  0.00     0.208 A 
ATOM      3  C   UNL     1      23.575  27.247   4.495  1.00  0.00     0.235 A 
ATOM      4  O   UNL     1      23.132  26.277   3.822  1.00  0.00    -0.285 OA
ATOM      5  C   UNL     1      24.722  27.098   5.291  1.00  0.00     0.069 A 
ATOM      6  C   UNL     1      25.170  28.212   6.033  1.00  0.00     0.142 A 
ATOM      7  O   UNL     1      24.523  29.370   5.963  1.00  0.00    -0.452 OA
ATOM      8  C   UNL     1      26.303  28.101   6.846  1.00  0.00     0.094 A 
ATOM      9  C   UNL     1      26.998  26.891   6.927  1.00  0.00     0.119 A 
ATOM     10  C   UNL     1      26.557  25.783   6.190  1.00  0.00     0.047 A 
ATOM     11  C   UNL     1      25.425  25.883   5.376  1.00  0.00     0.020 A 
ENDROOT
BRANCH   1  12
ATOM     12  C   UNL     1      22.815  30.899   5.209  1.00  0.00     0.025 A 
ATOM     13  C   UNL     1      22.782  31.643   4.020  1.00  0.00     0.016 A 
ATOM     14  C   UNL     1      22.179  32.903   3.990  1.00  0.00     0.051 A 
ATOM     15  C   UNL     1      21.585  33.431   5.141  1.00  0.00     0.157 A 
ATOM     16  C   UNL     1      22.200  31.423   6.360  1.00  0.00     0.062 A 
ATOM     17  C   UNL     1      21.592  32.686   6.332  1.00  0.00     0.158 A 
BRANCH  15  18
ATOM     18  O   UNL     1      20.993  34.692   5.081  1.00  0.00    -0.504 OA
ATOM     19  H   UNL     1      21.418  35.463   4.580  1.00  0.00     0.293 HD
ENDBRANCH  15  18
BRANCH  17  20
ATOM     20  O   UNL     1      20.990  33.200   7.479  1.00  0.00    -0.504 OA
ATOM     21  H   UNL     1      20.286  33.927   7.429  1.00  0.00     0.293 HD
ENDBRANCH  17  20
ENDBRANCH   1  12
BRANCH   2  22
ATOM     22  O   UNL     1      21.746  28.651   3.713  1.00  0.00    -0.502 OA
ATOM     23  H   UNL     1      21.193  29.499   3.754  1.00  0.00     0.293 HD
ENDBRANCH   2  22
BRANCH   9  24
ATOM     24  O   UNL     1      28.125  26.798   7.741  1.00  0.00    -0.508 OA
ATOM     25  H   UNL     1      28.053  26.531   8.716  1.00  0.00     0.293 HD
ENDBRANCH   9  24
TORSDOF 5
ENDMDL
MODEL 5
REMARK VINA RESULT:    -5.134      2.012      6.819
REMARK INTER + INTRA:          -6.231
REMARK INTER:                  -5.924
REMARK INTRA:                  -0.307
REMARK UNBOUND:                -0.196
REMARK SMILES O=c1c(O)c(-c2ccc(O)c(O)c2)oc2cc(O)ccc12
REMARK SMILES IDX 5 1 3 2 2 3 1 4 21 5 15 6 14 7 16 8 17 9 19 10 20 11 6 12
REMARK SMILES IDX 7 13 8 14 9 15 13 16 11 17 10 18 12 20 4 22 18 24
REMARK H PARENT 10 19 12 21 4 23 18 25
REMARK Flexibility Score: inf
ROOT
ATOM      1  C   UNL     1      25.046  30.519   5.672  1.00  0.00     0.180 A 
ATOM      2  C   UNL     1      25.483  31.226   4.534  1.00  0.00     0.208 A 
ATOM      3  C   UNL     1      24.654  32.224   3.999  1.00  0.00     0.235 A 
ATOM      4  O   UNL     1      25.018  32.864   2.974  1.00  0.00    -0.285 OA
ATOM      5  C   UNL     1      23.426  32.506   4.616  1.00  0.00     0.069 A 
ATOM      6  C   UNL     1      23.071  31.769   5.767  1.00  0.00     0.142 A 
ATOM      7  O   UNL     1      23.881  30.826   6.237  1.00  0.00    -0.452 OA
ATOM      8  C   UNL     1      21.860  32.028   6.417  1.00  0.00     0.094 A 
ATOM      9  C   UNL     1      20.994  33.013   5.933  1.00  0.00     0.119 A 
ATOM     10  C   UNL     1      21.342  33.746   4.790  1.00  0.00     0.047 A 
ATOM     11  C   UNL     1      22.551  33.497   4.133  1.00  0.00     0.020 A 
ENDROOT
BRANCH   1  12
ATOM     12  C   UNL     1      25.855  29.439   6.285  1.00  0.00     0.025 A 
ATOM     13  C   UNL     1      26.590  29.706   7.450  1.00  0.00     0.016 A 
ATOM     14  C   UNL     1      27.344  28.697   8.057  1.00  0.00     0.051 A 
ATOM     15  C   UNL     1      27.361  27.406   7.520  1.00  0.00     0.157 A 
ATOM     16  C   UNL     1      25.857  28.135   5.758  1.00  0.00     0.062 A 
ATOM     17  C   UNL     1      26.611  27.121   6.366  1.00  0.00     0.158 A 
BRANCH  15  18
ATOM     18  O   UNL     1      28.125  26.422   8.146  1.00  0.00    -0.504 OA
ATOM     19  H   UNL     1      28.264  26.406   9.149  1.00  0.00     0.293 HD
ENDBRANCH  15  18
BRANCH  17  20
ATOM     20  O   UNL     1      26.613  25.834   5.833  1.00  0.00    -0.504 OA
ATOM     21  H   UNL     1      27.458  25.413   5.465  1.00  0.00     0.293 HD
ENDBRANCH  17  20
ENDBRANCH   1  12
BRANCH   2  22
ATOM     22  O   UNL     1      26.733  30.957   3.969  1.00  0.00    -0.502 OA
ATOM     23  H   UNL     1      26.953  30.065   3.542  1.00  0.00     0.293 HD
ENDBRANCH   2  22
BRANCH   9  24
ATOM     24  O   UNL     1      19.792  33.256   6.592  1.00  0.00    -0.508 OA
ATOM     25  H   UNL     1      19.038  33.769   6.148  1.00  0.00     0.293 HD
ENDBRANCH   9  24
TORSDOF 5
ENDMDL
MODEL 6
REMARK VINA RESULT:    -4.784      1.645      6.478
REMARK INTER + INTRA:          -5.819
REMARK INTER:                  -5.503
REMARK INTRA:                  -0.316
REMARK UNBOUND:                -0.196
REMARK SMILES O=c1c(O)c(-c2ccc(O)c(O)c2)oc2cc(O)ccc12
REMARK SMILES IDX 5 1 3 2 2 3 1 4 21 5 15 6 14 7 16 8 17 9 19 10 20 11 6 12
REMARK SMILES IDX 7 13 8 14 9 15 13 16 11 17 10 18 12 20 4 22 18 24
REMARK H PARENT 10 19 12 21 4 23 18 25
REMARK Flexibility Score: inf
ROOT
ATOM      1  C   UNL     1      25.258  28.516   6.080  1.00  0.00     0.180 A 
ATOM      2  C   UNL     1      26.430  29.047   6.657  1.00  0.00     0.208 A 
ATOM      3  C   UNL     1      26.343  30.242   7.387  1.00  0.00     0.235 A 
ATOM      4  O   UNL     1      27.380  30.743   7.904  1.00  0.00    -0.285 OA
ATOM      5  C   UNL     1      25.096  30.868   7.541  1.00  0.00     0.069 A 
ATOM      6  C   UNL     1      23.966  30.260   6.952  1.00  0.00     0.142 A 
ATOM      7  O   UNL     1      24.093  29.133   6.261  1.00  0.00    -0.452 OA
ATOM      8  C   UNL     1      22.703  30.847   7.092  1.00  0.00     0.094 A 
ATOM      9  C   UNL     1      22.554  32.037   7.811  1.00  0.00     0.119 A 
ATOM     10  C   UNL     1      23.674  32.644   8.397  1.00  0.00     0.047 A 
ATOM     11  C   UNL     1      24.939  32.064   8.264  1.00  0.00     0.020 A 
ENDROOT
BRANCH   1  12
ATOM     12  C   UNL     1      25.271  27.269   5.280  1.00  0.00     0.025 A 
ATOM     13  C   UNL     1      25.536  27.336   3.904  1.00  0.00     0.016 A 
ATOM     14  C   UNL     1      25.574  26.171   3.133  1.00  0.00     0.051 A 
ATOM     15  C   UNL     1      25.364  24.923   3.728  1.00  0.00     0.157 A 
ATOM     16  C   UNL     1      25.081  26.012   5.880  1.00  0.00     0.062 A 
ATOM     17  C   UNL     1      25.120  24.841   5.109  1.00  0.00     0.158 A 
BRANCH  15  18
ATOM     18  O   UNL     1      25.405  23.778   2.933  1.00  0.00    -0.504 OA
ATOM     19  H   UNL     1      26.212  23.544   2.367  1.00  0.00     0.293 HD
ENDBRANCH  15  18
BRANCH  17  20
ATOM     20  O   UNL     1      24.924  23.599   5.710  1.00  0.00    -0.504 OA
ATOM     21  H   UNL     1      25.562  23.242   6.412  1.00  0.00     0.293 HD
ENDBRANCH  17  20
ENDBRANCH   1  12
BRANCH   2  22
ATOM     22  O   UNL     1      27.649  28.376   6.528  1.00  0.00    -0.502 OA
ATOM     23  H   UNL     1      27.708  27.419   6.203  1.00  0.00     0.293 HD
ENDBRANCH   2  22
BRANCH   9  24
ATOM     24  O   UNL     1      21.290  32.608   7.940  1.00  0.00    -0.508 OA
ATOM     25  H   UNL     1      20.769  32.552   8.807  1.00  0.00     0.293 HD
ENDBRANCH   9  24
TORSDOF 5
ENDMDL
MODEL 7
REMARK VINA RESULT:    -4.777      2.643      6.129
REMARK INTER + INTRA:          -5.811
REMARK INTER:                  -5.563
REMARK INTRA:                  -0.249
REMARK UNBOUND:                -0.196
REMARK SMILES O=c1c(O)c(-c2ccc(O)c(O)c2)oc2cc(O)ccc12
REMARK SMILES IDX 5 1 3 2 2 3 1 4 21 5 15 6 14 7 16 8 17 9 19 10 20 11 6 12
REMARK SMILES IDX 7 13 8 14 9 15 13 16 11 17 10 18 12 20 4 22 18 24
REMARK H PARENT 10 19 12 21 4 23 18 25
REMARK Flexibility Score: inf
ROOT
ATOM      1  C   UNL     1      24.313  27.625   5.990  1.00  0.00     0.180 A 
ATOM      2  C   UNL     1      25.705  27.498   6.177  1.00  0.00     0.208 A 
ATOM      3  C   UNL     1      26.403  28.549   6.792  1.00  0.00     0.235 A 
ATOM      4  O   UNL     1      27.651  28.463   6.961  1.00  0.00    -0.285 OA
ATOM      5  C   UNL     1      25.702  29.686   7.221  1.00  0.00     0.069 A 
ATOM      6  C   UNL     1      24.306  29.726   7.019  1.00  0.00     0.142 A 
ATOM      7  O   UNL     1      23.683  28.714   6.425  1.00  0.00    -0.452 OA
ATOM      8  C   UNL     1      23.569  30.838   7.442  1.00  0.00     0.094 A 
ATOM      9  C   UNL     1      24.209  31.914   8.064  1.00  0.00     0.119 A 
ATOM     10  C   UNL     1      25.596  31.878   8.266  1.00  0.00     0.047 A 
ATOM     11  C   UNL     1      26.341  30.771   7.848  1.00  0.00     0.020 A 
ENDROOT
BRANCH   1  12
ATOM     12  C   UNL     1      23.509  26.568   5.333  1.00  0.00     0.025 A 
ATOM     13  C   UNL     1      23.598  26.398   3.944  1.00  0.00     0.016 A 
ATOM     14  C   UNL     1      22.864  25.395   3.305  1.00  0.00     0.051 A 
ATOM     15  C   UNL     1      22.044  24.538   4.046  1.00  0.00     0.157 A 
ATOM     16  C   UNL     1      22.700  25.693   6.080  1.00  0.00     0.062 A 
ATOM     17  C   UNL     1      21.964  24.684   5.441  1.00  0.00     0.158 A 
BRANCH  15  18
ATOM     18  O   UNL     1      21.322  23.548   3.381  1.00  0.00    -0.504 OA
ATOM     19  H   UNL     1      20.350  23.672   3.123  1.00  0.00     0.293 HD
ENDBRANCH  15  18
BRANCH  17  20
ATOM     20  O   UNL     1      21.160  23.824   6.188  1.00  0.00    -0.504 OA
ATOM     21  H   UNL     1      21.558  23.145   6.825  1.00  0.00     0.293 HD
ENDBRANCH  17  20
ENDBRANCH   1  12
BRANCH   2  22
ATOM     22  O   UNL     1      26.369  26.333   5.783  1.00  0.00    -0.502 OA
ATOM     23  H   UNL     1      27.232  26.030   6.217  1.00  0.00     0.293 HD
ENDBRANCH   2  22
BRANCH   9  24
ATOM     24  O   UNL     1      23.461  33.013   8.478  1.00  0.00    -0.508 OA
ATOM     25  H   UNL     1      23.904  33.855   8.828  1.00  0.00     0.293 HD
ENDBRANCH   9  24
TORSDOF 5
ENDMDL
MODEL 8
REMARK VINA RESULT:    -4.756      2.755      6.486
REMARK INTER + INTRA:          -5.786
REMARK INTER:                  -5.537
REMARK INTRA:                  -0.248
REMARK UNBOUND:                -0.196
REMARK SMILES O=c1c(O)c(-c2ccc(O)c(O)c2)oc2cc(O)ccc12
REMARK SMILES IDX 5 1 3 2 2 3 1 4 21 5 15 6 14 7 16 8 17 9 19 10 20 11 6 12
REMARK SMILES IDX 7 13 8 14 9 15 13 16 11 17 10 18 12 20 4 22 18 24
REMARK H PARENT 10 19 12 21 4 23 18 25
REMARK Flexibility Score: inf
ROOT
ATOM      1  C   UNL     1      23.805  27.486   5.449  1.00  0.00     0.180 A 
ATOM      2  C   UNL     1      23.030  28.595   5.051  1.00  0.00     0.208 A 
ATOM      3  C   UNL     1      23.432  29.879   5.451  1.00  0.00     0.235 A 
ATOM      4  O   UNL     1      22.750  30.886   5.116  1.00  0.00    -0.285 OA
ATOM      5  C   UNL     1      24.598  30.030   6.218  1.00  0.00     0.069 A 
ATOM      6  C   UNL     1      25.330  28.872   6.556  1.00  0.00     0.142 A 
ATOM      7  O   UNL     1      24.911  27.674   6.165  1.00  0.00    -0.452 OA
ATOM      8  C   UNL     1      26.504  28.982   7.311  1.00  0.00     0.094 A 
ATOM      9  C   UNL     1      26.955  30.235   7.735  1.00  0.00     0.119 A 
ATOM     10  C   UNL     1      26.230  31.387   7.402  1.00  0.00     0.047 A 
ATOM     11  C   UNL     1      25.057  31.289   6.647  1.00  0.00     0.020 A 
ENDROOT
BRANCH   1  12
ATOM     12  C   UNL     1      23.437  26.099   5.083  1.00  0.00     0.025 A 
ATOM     13  C   UNL     1      24.236  25.392   4.170  1.00  0.00     0.016 A 
ATOM     14  C   UNL     1      23.920  24.075   3.826  1.00  0.00     0.051 A 
ATOM     15  C   UNL     1      22.813  23.440   4.398  1.00  0.00     0.157 A 
ATOM     16  C   UNL     1      22.337  25.452   5.673  1.00  0.00     0.062 A 
ATOM     17  C   UNL     1      22.019  24.129   5.330  1.00  0.00     0.158 A 
BRANCH  15  18
ATOM     18  O   UNL     1      22.522  22.126   4.032  1.00  0.00    -0.504 OA
ATOM     19  H   UNL     1      21.608  21.716   4.185  1.00  0.00     0.293 HD
ENDBRANCH  15  18
BRANCH  17  20
ATOM     20  O   UNL     1      20.923  23.497   5.915  1.00  0.00    -0.504 OA
ATOM     21  H   UNL     1      20.619  22.578   5.616  1.00  0.00     0.293 HD
ENDBRANCH  17  20
ENDBRANCH   1  12
BRANCH   2  22
ATOM     22  O   UNL     1      21.902  28.418   4.246  1.00  0.00    -0.502 OA
ATOM     23  H   UNL     1      21.970  28.195   3.261  1.00  0.00     0.293 HD
ENDBRANCH   2  22
BRANCH   9  24
ATOM     24  O   UNL     1      28.125  30.326   8.486  1.00  0.00    -0.508 OA
ATOM     25  H   UNL     1      29.037  30.204   8.062  1.00  0.00     0.293 HD
ENDBRANCH   9  24
TORSDOF 5
ENDMDL
MODEL 9
REMARK VINA RESULT:    -4.683      2.327      2.797
REMARK INTER + INTRA:          -5.700
REMARK INTER:                  -5.380
REMARK INTRA:                  -0.320
REMARK UNBOUND:                -0.196
REMARK SMILES O=c1c(O)c(-c2ccc(O)c(O)c2)oc2cc(O)ccc12
REMARK SMILES IDX 5 1 3 2 2 3 1 4 21 5 15 6 14 7 16 8 17 9 19 10 20 11 6 12
REMARK SMILES IDX 7 13 8 14 9 15 13 16 11 17 10 18 12 20 4 22 18 24
REMARK H PARENT 10 19 12 21 4 23 18 25
REMARK Flexibility Score: inf
ROOT
ATOM      1  C   UNL     1      24.414  29.647   5.387  1.00  0.00     0.180 A 
ATOM      2  C   UNL     1      25.701  30.010   4.940  1.00  0.00     0.208 A 
ATOM      3  C   UNL     1      26.503  29.034   4.327  1.00  0.00     0.235 A 
ATOM      4  O   UNL     1      27.662  29.332   3.928  1.00  0.00    -0.285 OA
ATOM      5  C   UNL     1      26.001  27.735   4.156  1.00  0.00     0.069 A 
ATOM      6  C   UNL     1      24.693  27.458   4.611  1.00  0.00     0.142 A 
ATOM      7  O   UNL     1      23.970  28.408   5.194  1.00  0.00    -0.452 OA
ATOM      8  C   UNL     1      24.153  26.177   4.450  1.00  0.00     0.094 A 
ATOM      9  C   UNL     1      24.903  25.166   3.843  1.00  0.00     0.119 A 
ATOM     10  C   UNL     1      26.203  25.437   3.392  1.00  0.00     0.047 A 
ATOM     11  C   UNL     1      26.751  26.713   3.546  1.00  0.00     0.020 A 
ENDROOT
BRANCH   1  12
ATOM     12  C   UNL     1      23.515  30.614   6.060  1.00  0.00     0.025 A 
ATOM     13  C   UNL     1      22.632  31.385   5.290  1.00  0.00     0.016 A 
ATOM     14  C   UNL     1      21.760  32.288   5.905  1.00  0.00     0.051 A 
ATOM     15  C   UNL     1      21.746  32.422   7.297  1.00  0.00     0.157 A 
ATOM     16  C   UNL     1      23.485  30.734   7.461  1.00  0.00     0.062 A 
ATOM     17  C   UNL     1      22.610  31.638   8.081  1.00  0.00     0.158 A 
BRANCH  15  18
ATOM     18  O   UNL     1      20.868  33.333   7.881  1.00  0.00    -0.504 OA
ATOM     19  H   UNL     1      20.286  33.087   8.674  1.00  0.00     0.293 HD
ENDBRANCH  15  18
BRANCH  17  20
ATOM     20  O   UNL     1      22.591  31.756   9.469  1.00  0.00    -0.504 OA
ATOM     21  H   UNL     1      22.439  30.953  10.068  1.00  0.00     0.293 HD
ENDBRANCH  17  20
ENDBRANCH   1  12
BRANCH   2  22
ATOM     22  O   UNL     1      26.155  31.324   5.079  1.00  0.00    -0.502 OA
ATOM     23  H   UNL     1      25.549  32.076   5.384  1.00  0.00     0.293 HD
ENDBRANCH   2  22
BRANCH   9  24
ATOM     24  O   UNL     1      24.350  23.897   3.692  1.00  0.00    -0.508 OA
ATOM     25  H   UNL     1      24.262  23.462   2.781  1.00  0.00     0.293 HD
ENDBRANCH   9  24
TORSDOF 5
ENDMDL
