MODEL 1
REMARK VINA RESULT:    -4.981      0.000      0.000
REMARK INTER + INTRA:          -7.699
REMARK INTER:                  -7.602
REMARK INTRA:                  -0.097
REMARK UNBOUND:                -0.097
REMARK SMILES CC1=CCC[C@@H](C)C(=O)C[C@@H](C(C)C)C(=O)C1
REMARK SMILES IDX 8 1 9 2 6 3 7 4 5 5 4 6 3 7 2 8 1 9 10 11 11 12 15 13 16 14
REMARK SMILES IDX 17 15 12 17 13 18 14 19
REMARK H PARENT
REMARK Flexibility Score: 70.00
ROOT
ATOM      1  C   UNL     1     -13.619 -15.601  30.637  1.00  0.00     0.136 C 
ATOM      2  O   UNL     1     -14.375 -14.662  30.424  1.00  0.00    -0.299 OA
ENDROOT
BRANCH   1   3
ATOM      3  C   UNL     1     -13.647 -16.259  32.000  1.00  0.00     0.053 C 
ATOM      4  C   UNL     1     -14.845 -15.724  32.798  1.00  0.00     0.016 C 
BRANCH   3   5
ATOM      5  C   UNL     1     -12.321 -15.990  32.758  1.00  0.00     0.015 C 
BRANCH   5   6
ATOM      6  C   UNL     1     -11.195 -16.976  32.381  1.00  0.00     0.028 C 
BRANCH   6   7
ATOM      7  C   UNL     1     -11.625 -18.427  32.423  1.00  0.00    -0.028 C 
ATOM      8  C   UNL     1     -11.813 -19.257  31.363  1.00  0.00    -0.070 CG0
ATOM      9  C   UNL     1     -12.319 -20.648  31.661  1.00  0.00     0.039 C 
ATOM     10  G   UNL     1     -11.505 -18.900  29.914  1.00  0.00     0.000 G0
ENDBRANCH   6   7
ENDBRANCH   5   6
ENDBRANCH   3   5
ENDBRANCH   1   3
BRANCH   1  11
ATOM     11  C   UNL     1     -12.769 -16.103  29.489  1.00  0.00     0.087 C 
BRANCH  11  12
ATOM     12  C   UNL     1     -13.320 -17.321  28.691  1.00  0.00     0.066 C 
BRANCH  12  13
ATOM     13  C   UNL     1     -12.753 -18.694  29.075  1.00  0.00     0.140 C 
ATOM     14  O   UNL     1     -13.344 -19.689  28.682  1.00  0.00    -0.299 OA
BRANCH  13  15
ATOM     15  C   UNL     1     -11.512 -18.908  29.909  1.00  0.00     0.106 CG0
ATOM     16  G   UNL     1     -11.813 -19.279  31.356  1.00  0.00     0.000 G0
ENDBRANCH  13  15
ENDBRANCH  12  13
BRANCH  12  17
ATOM     17  C   UNL     1     -13.181 -17.045  27.155  1.00  0.00    -0.006 C 
ATOM     18  C   UNL     1     -13.942 -15.789  26.692  1.00  0.00     0.008 C 
ATOM     19  C   UNL     1     -11.714 -16.970  26.699  1.00  0.00     0.008 C 
ENDBRANCH  12  17
ENDBRANCH  11  12
ENDBRANCH   1  11
TORSDOF 1
ENDMDL
MODEL 2
REMARK VINA RESULT:    -4.605      1.487      2.312
REMARK INTER + INTRA:          -7.125
REMARK INTER:                  -7.873
REMARK INTRA:                   0.749
REMARK UNBOUND:                -0.097
REMARK SMILES CC1=CCC[C@@H](C)C(=O)C[C@@H](C(C)C)C(=O)C1
REMARK SMILES IDX 8 1 9 2 6 3 7 4 5 5 4 6 3 7 2 8 1 9 10 11 11 12 15 13 16 14
REMARK SMILES IDX 17 15 12 17 13 18 14 19
REMARK H PARENT
REMARK Flexibility Score: 70.00
ROOT
ATOM      1  C   UNL     1     -12.822 -16.308  31.443  1.00  0.00     0.136 C 
ATOM      2  O   UNL     1     -14.009 -16.094  31.654  1.00  0.00    -0.299 OA
ENDROOT
BRANCH   1   3
ATOM      3  C   UNL     1     -12.030 -17.077  32.479  1.00  0.00     0.053 C 
ATOM      4  C   UNL     1     -10.987 -16.146  33.115  1.00  0.00     0.016 C 
BRANCH   3   5
ATOM      5  C   UNL     1     -11.344 -18.307  31.831  1.00  0.00     0.015 C 
BRANCH   5   6
ATOM      6  C   UNL     1     -12.132 -19.619  32.034  1.00  0.00     0.028 C 
BRANCH   6   7
ATOM      7  C   UNL     1     -13.085 -19.932  30.900  1.00  0.00    -0.028 C 
ATOM      8  C   UNL     1     -12.910 -19.650  29.582  1.00  0.00    -0.070 CG0
ATOM      9  C   UNL     1     -14.046 -19.998  28.650  1.00  0.00     0.039 C 
ATOM     10  G   UNL     1     -11.643 -19.056  28.980  1.00  0.00     0.000 G0
ENDBRANCH   6   7
ENDBRANCH   5   6
ENDBRANCH   3   5
ENDBRANCH   1   3
BRANCH   1  11
ATOM     11  C   UNL     1     -12.245 -15.868  30.115  1.00  0.00     0.087 C 
BRANCH  11  12
ATOM     12  C   UNL     1     -12.781 -16.593  28.845  1.00  0.00     0.066 C 
BRANCH  12  13
ATOM     13  C   UNL     1     -11.894 -17.710  28.279  1.00  0.00     0.140 C 
ATOM     14  O   UNL     1     -11.338 -17.515  27.208  1.00  0.00    -0.299 OA
BRANCH  13  15
ATOM     15  C   UNL     1     -11.657 -19.042  28.951  1.00  0.00     0.106 CG0
ATOM     16  G   UNL     1     -12.912 -19.634  29.581  1.00  0.00     0.000 G0
ENDBRANCH  13  15
ENDBRANCH  12  13
BRANCH  12  17
ATOM     17  C   UNL     1     -13.146 -15.532  27.752  1.00  0.00    -0.006 C 
ATOM     18  C   UNL     1     -13.826 -16.144  26.514  1.00  0.00     0.008 C 
ATOM     19  C   UNL     1     -14.001 -14.382  28.310  1.00  0.00     0.008 C 
ENDBRANCH  12  17
ENDBRANCH  11  12
ENDBRANCH   1  11
TORSDOF 1
ENDMDL
MODEL 3
REMARK VINA RESULT:    -4.493      2.012      4.671
REMARK INTER + INTRA:          -6.954
REMARK INTER:                  -7.243
REMARK INTRA:                   0.289
REMARK UNBOUND:                -0.097
REMARK SMILES CC1=CCC[C@@H](C)C(=O)C[C@@H](C(C)C)C(=O)C1
REMARK SMILES IDX 8 1 9 2 6 3 7 4 5 5 4 6 3 7 2 8 1 9 10 11 11 12 15 13 16 14
REMARK SMILES IDX 17 15 12 17 13 18 14 19
REMARK H PARENT
REMARK Flexibility Score: 70.00
ROOT
ATOM      1  C   UNL     1     -12.170 -18.668  31.791  1.00  0.00     0.136 C 
ATOM      2  O   UNL     1     -10.958 -18.799  31.899  1.00  0.00    -0.299 OA
ENDROOT
BRANCH   1   3
ATOM      3  C   UNL     1     -12.984 -19.842  31.290  1.00  0.00     0.053 C 
ATOM      4  C   UNL     1     -12.549 -21.115  32.031  1.00  0.00     0.016 C 
BRANCH   3   5
ATOM      5  C   UNL     1     -12.803 -20.011  29.759  1.00  0.00     0.015 C 
BRANCH   5   6
ATOM      6  C   UNL     1     -13.561 -18.946  28.938  1.00  0.00     0.028 C 
BRANCH   6   7
ATOM      7  C   UNL     1     -12.725 -18.325  27.838  1.00  0.00    -0.028 C 
ATOM      8  C   UNL     1     -12.488 -17.003  27.636  1.00  0.00    -0.070 CG0
ATOM      9  C   UNL     1     -11.679 -16.629  26.418  1.00  0.00     0.039 C 
ATOM     10  G   UNL     1     -12.938 -15.886  28.570  1.00  0.00     0.000 G0
ENDBRANCH   6   7
ENDBRANCH   5   6
ENDBRANCH   3   5
ENDBRANCH   1   3
BRANCH   1  11
ATOM     11  C   UNL     1     -12.789 -17.367  32.255  1.00  0.00     0.087 C 
BRANCH  11  12
ATOM     12  C   UNL     1     -13.413 -16.457  31.157  1.00  0.00     0.066 C 
BRANCH  12  13
ATOM     13  C   UNL     1     -12.484 -16.052  30.005  1.00  0.00     0.140 C 
ATOM     14  O   UNL     1     -11.303 -15.865  30.258  1.00  0.00    -0.299 OA
BRANCH  13  15
ATOM     15  C   UNL     1     -12.924 -15.866  28.572  1.00  0.00     0.106 CG0
ATOM     16  G   UNL     1     -12.478 -16.995  27.651  1.00  0.00     0.000 G0
ENDBRANCH  13  15
ENDBRANCH  12  13
BRANCH  12  17
ATOM     17  C   UNL     1     -14.082 -15.209  31.829  1.00  0.00    -0.006 C 
ATOM     18  C   UNL     1     -14.932 -14.376  30.853  1.00  0.00     0.008 C 
ATOM     19  C   UNL     1     -14.914 -15.583  33.067  1.00  0.00     0.008 C 
ENDBRANCH  12  17
ENDBRANCH  11  12
ENDBRANCH   1  11
TORSDOF 1
ENDMDL
MODEL 4
REMARK VINA RESULT:    -4.388      1.927      4.184
REMARK INTER + INTRA:          -6.795
REMARK INTER:                  -7.015
REMARK INTRA:                   0.221
REMARK UNBOUND:                -0.097
REMARK SMILES CC1=CCC[C@@H](C)C(=O)C[C@@H](C(C)C)C(=O)C1
REMARK SMILES IDX 8 1 9 2 6 3 7 4 5 5 4 6 3 7 2 8 1 9 10 11 11 12 15 13 16 14
REMARK SMILES IDX 17 15 12 17 13 18 14 19
REMARK H PARENT
REMARK Flexibility Score: 70.00
ROOT
ATOM      1  C   UNL     1     -11.784 -15.904  29.316  1.00  0.00     0.136 C 
ATOM      2  O   UNL     1     -10.587 -15.728  29.133  1.00  0.00    -0.299 OA
ENDROOT
BRANCH   1   3
ATOM      3  C   UNL     1     -12.710 -15.888  28.118  1.00  0.00     0.053 C 
ATOM      4  C   UNL     1     -13.741 -14.763  28.288  1.00  0.00     0.016 C 
BRANCH   3   5
ATOM      5  C   UNL     1     -13.416 -17.259  27.962  1.00  0.00     0.015 C 
BRANCH   5   6
ATOM      6  C   UNL     1     -12.460 -18.458  28.135  1.00  0.00     0.028 C 
BRANCH   6   7
ATOM      7  C   UNL     1     -12.781 -19.319  29.338  1.00  0.00    -0.028 C 
ATOM      8  C   UNL     1     -11.978 -19.569  30.404  1.00  0.00    -0.070 CG0
ATOM      9  C   UNL     1     -12.501 -20.527  31.448  1.00  0.00     0.039 C 
ATOM     10  G   UNL     1     -10.619 -18.921  30.641  1.00  0.00     0.000 G0
ENDBRANCH   6   7
ENDBRANCH   5   6
ENDBRANCH   3   5
ENDBRANCH   1   3
BRANCH   1  11
ATOM     11  C   UNL     1     -12.250 -16.221  30.721  1.00  0.00     0.087 C 
BRANCH  11  12
ATOM     12  C   UNL     1     -11.143 -16.513  31.776  1.00  0.00     0.066 C 
BRANCH  12  13
ATOM     13  C   UNL     1     -10.622 -17.955  31.829  1.00  0.00     0.140 C 
ATOM     14  O   UNL     1     -10.172 -18.364  32.890  1.00  0.00    -0.299 OA
BRANCH  13  15
ATOM     15  C   UNL     1     -10.624 -18.912  30.662  1.00  0.00     0.106 CG0
ATOM     16  G   UNL     1     -11.984 -19.552  30.407  1.00  0.00     0.000 G0
ENDBRANCH  13  15
ENDBRANCH  12  13
BRANCH  12  17
ATOM     17  C   UNL     1     -11.617 -16.014  33.184  1.00  0.00    -0.006 C 
ATOM     18  C   UNL     1     -10.607 -15.076  33.869  1.00  0.00     0.008 C 
ATOM     19  C   UNL     1     -13.005 -15.352  33.137  1.00  0.00     0.008 C 
ENDBRANCH  12  17
ENDBRANCH  11  12
ENDBRANCH   1  11
TORSDOF 1
ENDMDL
MODEL 5
REMARK VINA RESULT:    -4.205      1.805      4.117
REMARK INTER + INTRA:          -6.515
REMARK INTER:                  -7.156
REMARK INTRA:                   0.641
REMARK UNBOUND:                -0.097
REMARK SMILES CC1=CCC[C@@H](C)C(=O)C[C@@H](C(C)C)C(=O)C1
REMARK SMILES IDX 8 1 9 2 6 3 7 4 5 5 4 6 3 7 2 8 1 9 10 11 11 12 15 13 16 14
REMARK SMILES IDX 17 15 12 17 13 18 14 19
REMARK H PARENT
REMARK Flexibility Score: 70.00
ROOT
ATOM      1  C   UNL     1     -12.274 -15.811  28.547  1.00  0.00     0.136 C 
ATOM      2  O   UNL     1     -13.188 -15.019  28.738  1.00  0.00    -0.299 OA
ENDROOT
BRANCH   1   3
ATOM      3  C   UNL     1     -12.277 -16.625  27.270  1.00  0.00     0.053 C 
ATOM      4  C   UNL     1     -13.507 -16.251  26.432  1.00  0.00     0.016 C 
BRANCH   3   5
ATOM      5  C   UNL     1     -12.275 -18.141  27.596  1.00  0.00     0.015 C 
BRANCH   5   6
ATOM      6  C   UNL     1     -13.407 -18.556  28.560  1.00  0.00     0.028 C 
BRANCH   6   7
ATOM      7  C   UNL     1     -12.984 -19.596  29.575  1.00  0.00    -0.028 C 
ATOM      8  C   UNL     1     -12.934 -19.450  30.925  1.00  0.00    -0.070 CG0
ATOM      9  C   UNL     1     -12.403 -20.617  31.723  1.00  0.00     0.039 C 
ATOM     10  G   UNL     1     -13.414 -18.220  31.686  1.00  0.00     0.000 G0
ENDBRANCH   6   7
ENDBRANCH   5   6
ENDBRANCH   3   5
ENDBRANCH   1   3
BRANCH   1  11
ATOM     11  C   UNL     1     -11.151 -15.857  29.560  1.00  0.00     0.087 C 
BRANCH  11  12
ATOM     12  C   UNL     1     -11.278 -16.910  30.699  1.00  0.00     0.066 C 
BRANCH  12  13
ATOM     13  C   UNL     1     -12.624 -16.954  31.433  1.00  0.00     0.140 C 
ATOM     14  O   UNL     1     -13.095 -15.899  31.833  1.00  0.00    -0.299 OA
BRANCH  13  15
ATOM     15  C   UNL     1     -13.416 -18.212  31.701  1.00  0.00     0.106 CG0
ATOM     16  G   UNL     1     -12.912 -19.421  30.921  1.00  0.00     0.000 G0
ENDBRANCH  13  15
ENDBRANCH  12  13
BRANCH  12  17
ATOM     17  C   UNL     1     -10.078 -16.750  31.695  1.00  0.00    -0.006 C 
ATOM     18  C   UNL     1      -9.979 -15.341  32.306  1.00  0.00     0.008 C 
ATOM     19  C   UNL     1     -10.093 -17.809  32.810  1.00  0.00     0.008 C 
ENDBRANCH  12  17
ENDBRANCH  11  12
ENDBRANCH   1  11
TORSDOF 1
ENDMDL
MODEL 6
REMARK VINA RESULT:    -4.095      1.903      3.614
REMARK INTER + INTRA:          -6.347
REMARK INTER:                  -6.829
REMARK INTRA:                   0.483
REMARK UNBOUND:                -0.097
REMARK SMILES CC1=CCC[C@@H](C)C(=O)C[C@@H](C(C)C)C(=O)C1
REMARK SMILES IDX 8 1 9 2 6 3 7 4 5 5 4 6 3 7 2 8 1 9 10 11 11 12 15 13 16 14
REMARK SMILES IDX 17 15 12 17 13 18 14 19
REMARK H PARENT
REMARK Flexibility Score: 70.00
ROOT
ATOM      1  C   UNL     1     -11.526 -18.761  29.012  1.00  0.00     0.136 C 
ATOM      2  O   UNL     1     -10.565 -18.618  29.757  1.00  0.00    -0.299 OA
ENDROOT
BRANCH   1   3
ATOM      3  C   UNL     1     -12.518 -19.864  29.314  1.00  0.00     0.053 C 
ATOM      4  C   UNL     1     -13.880 -19.505  28.701  1.00  0.00     0.016 C 
BRANCH   3   5
ATOM      5  C   UNL     1     -12.645 -20.073  30.845  1.00  0.00     0.015 C 
BRANCH   5   6
ATOM      6  C   UNL     1     -13.510 -18.998  31.535  1.00  0.00     0.028 C 
BRANCH   6   7
ATOM      7  C   UNL     1     -12.712 -18.043  32.398  1.00  0.00    -0.028 C 
ATOM      8  C   UNL     1     -12.365 -16.764  32.099  1.00  0.00    -0.070 CG0
ATOM      9  C   UNL     1     -11.496 -16.037  33.098  1.00  0.00     0.039 C 
ATOM     10  G   UNL     1     -12.825 -16.004  30.861  1.00  0.00     0.000 G0
ENDBRANCH   6   7
ENDBRANCH   5   6
ENDBRANCH   3   5
ENDBRANCH   1   3
BRANCH   1  11
ATOM     11  C   UNL     1     -11.710 -17.763  27.889  1.00  0.00     0.087 C 
BRANCH  11  12
ATOM     12  C   UNL     1     -12.031 -16.296  28.300  1.00  0.00     0.066 C 
BRANCH  12  13
ATOM     13  C   UNL     1     -11.782 -15.936  29.770  1.00  0.00     0.140 C 
ATOM     14  O   UNL     1     -10.661 -15.565  30.089  1.00  0.00    -0.299 OA
BRANCH  13  15
ATOM     15  C   UNL     1     -12.824 -16.006  30.861  1.00  0.00     0.106 CG0
ATOM     16  G   UNL     1     -12.352 -16.754  32.101  1.00  0.00     0.000 G0
ENDBRANCH  13  15
ENDBRANCH  12  13
BRANCH  12  17
ATOM     17  C   UNL     1     -13.488 -15.935  27.852  1.00  0.00    -0.006 C 
ATOM     18  C   UNL     1     -13.843 -14.454  28.076  1.00  0.00     0.008 C 
ATOM     19  C   UNL     1     -13.772 -16.331  26.394  1.00  0.00     0.008 C 
ENDBRANCH  12  17
ENDBRANCH  11  12
ENDBRANCH   1  11
TORSDOF 1
ENDMDL
MODEL 7
REMARK VINA RESULT:    -4.073      2.151      4.269
REMARK INTER + INTRA:          -6.314
REMARK INTER:                  -6.153
REMARK INTRA:                  -0.160
REMARK UNBOUND:                -0.097
REMARK SMILES CC1=CCC[C@@H](C)C(=O)C[C@@H](C(C)C)C(=O)C1
REMARK SMILES IDX 8 1 9 2 6 3 7 4 5 5 4 6 3 7 2 8 1 9 10 11 11 12 15 13 16 14
REMARK SMILES IDX 17 15 12 17 13 18 14 19
REMARK H PARENT
REMARK Flexibility Score: 70.00
ROOT
ATOM      1  C   UNL     1     -13.527 -16.927  32.182  1.00  0.00     0.136 C 
ATOM      2  O   UNL     1     -14.437 -17.414  32.841  1.00  0.00    -0.299 OA
ENDROOT
BRANCH   1   3
ATOM      3  C   UNL     1     -13.662 -15.496  31.708  1.00  0.00     0.053 C 
ATOM      4  C   UNL     1     -14.755 -14.791  32.525  1.00  0.00     0.016 C 
BRANCH   3   5
ATOM      5  C   UNL     1     -13.997 -15.456  30.195  1.00  0.00     0.015 C 
BRANCH   5   6
ATOM      6  C   UNL     1     -12.777 -15.118  29.311  1.00  0.00     0.028 C 
BRANCH   6   7
ATOM      7  C   UNL     1     -12.538 -16.122  28.204  1.00  0.00    -0.028 C 
ATOM      8  C   UNL     1     -11.404 -16.834  27.974  1.00  0.00    -0.070 CG0
ATOM      9  C   UNL     1     -11.386 -17.722  26.752  1.00  0.00     0.039 C 
ATOM     10  G   UNL     1     -10.178 -16.835  28.880  1.00  0.00     0.000 G0
ENDBRANCH   6   7
ENDBRANCH   5   6
ENDBRANCH   3   5
ENDBRANCH   1   3
BRANCH   1  11
ATOM     11  C   UNL     1     -12.284 -17.762  31.962  1.00  0.00     0.087 C 
BRANCH  11  12
ATOM     12  C   UNL     1     -11.022 -17.014  31.440  1.00  0.00     0.066 C 
BRANCH  12  13
ATOM     13  C   UNL     1     -10.371 -17.586  30.175  1.00  0.00     0.140 C 
ATOM     14  O   UNL     1      -9.974 -18.743  30.205  1.00  0.00    -0.299 OA
BRANCH  13  15
ATOM     15  C   UNL     1     -10.182 -16.823  28.885  1.00  0.00     0.106 CG0
ATOM     16  G   UNL     1     -11.407 -16.855  27.979  1.00  0.00     0.000 G0
ENDBRANCH  13  15
ENDBRANCH  12  13
BRANCH  12  17
ATOM     17  C   UNL     1      -9.987 -16.857  32.606  1.00  0.00    -0.006 C 
ATOM     18  C   UNL     1     -10.188 -15.573  33.430  1.00  0.00     0.008 C 
ATOM     19  C   UNL     1      -9.958 -18.082  33.536  1.00  0.00     0.008 C 
ENDBRANCH  12  17
ENDBRANCH  11  12
ENDBRANCH   1  11
TORSDOF 1
ENDMDL
MODEL 8
REMARK VINA RESULT:    -4.017      1.820      4.922
REMARK INTER + INTRA:          -6.228
REMARK INTER:                  -6.315
REMARK INTRA:                   0.087
REMARK UNBOUND:                -0.097
REMARK SMILES CC1=CCC[C@@H](C)C(=O)C[C@@H](C(C)C)C(=O)C1
REMARK SMILES IDX 8 1 9 2 6 3 7 4 5 5 4 6 3 7 2 8 1 9 10 11 11 12 15 13 16 14
REMARK SMILES IDX 17 15 12 17 13 18 14 19
REMARK H PARENT
REMARK Flexibility Score: 70.00
ROOT
ATOM      1  C   UNL     1     -13.159 -18.095  28.110  1.00  0.00     0.136 C 
ATOM      2  O   UNL     1     -14.157 -18.803  28.137  1.00  0.00    -0.299 OA
ENDROOT
BRANCH   1   3
ATOM      3  C   UNL     1     -12.996 -17.118  26.964  1.00  0.00     0.053 C 
ATOM      4  C   UNL     1     -11.501 -16.929  26.667  1.00  0.00     0.016 C 
BRANCH   3   5
ATOM      5  C   UNL     1     -13.660 -15.761  27.312  1.00  0.00     0.015 C 
BRANCH   5   6
ATOM      6  C   UNL     1     -12.998 -15.050  28.511  1.00  0.00     0.028 C 
BRANCH   6   7
ATOM      7  C   UNL     1     -13.969 -14.702  29.619  1.00  0.00    -0.028 C 
ATOM      8  C   UNL     1     -13.966 -15.181  30.891  1.00  0.00    -0.070 CG0
ATOM      9  C   UNL     1     -15.092 -14.737  31.793  1.00  0.00     0.039 C 
ATOM     10  G   UNL     1     -12.891 -16.088  31.477  1.00  0.00     0.000 G0
ENDBRANCH   6   7
ENDBRANCH   5   6
ENDBRANCH   3   5
ENDBRANCH   1   3
BRANCH   1  11
ATOM     11  C   UNL     1     -12.197 -18.176  29.275  1.00  0.00     0.087 C 
BRANCH  11  12
ATOM     12  C   UNL     1     -12.786 -18.650  30.637  1.00  0.00     0.066 C 
BRANCH  12  13
ATOM     13  C   UNL     1     -13.264 -17.546  31.588  1.00  0.00     0.140 C 
ATOM     14  O   UNL     1     -14.014 -17.860  32.501  1.00  0.00    -0.299 OA
BRANCH  13  15
ATOM     15  C   UNL     1     -12.875 -16.091  31.480  1.00  0.00     0.106 CG0
ATOM     16  G   UNL     1     -13.974 -15.213  30.893  1.00  0.00     0.000 G0
ENDBRANCH  13  15
ENDBRANCH  12  13
BRANCH  12  17
ATOM     17  C   UNL     1     -11.772 -19.620  31.335  1.00  0.00    -0.006 C 
ATOM     18  C   UNL     1     -10.836 -18.908  32.328  1.00  0.00     0.008 C 
ATOM     19  C   UNL     1     -12.470 -20.805  32.023  1.00  0.00     0.008 C 
ENDBRANCH  12  17
ENDBRANCH  11  12
ENDBRANCH   1  11
TORSDOF 1
ENDMDL
MODEL 9
REMARK VINA RESULT:    -3.873      1.634      3.832
REMARK INTER + INTRA:          -6.007
REMARK INTER:                  -6.345
REMARK INTRA:                   0.337
REMARK UNBOUND:                -0.097
REMARK SMILES CC1=CCC[C@@H](C)C(=O)C[C@@H](C(C)C)C(=O)C1
REMARK SMILES IDX 8 1 9 2 6 3 7 4 5 5 4 6 3 7 2 8 1 9 10 11 11 12 15 13 16 14
REMARK SMILES IDX 17 15 12 17 13 18 14 19
REMARK H PARENT
REMARK Flexibility Score: 70.00
ROOT
ATOM      1  C   UNL     1     -12.753 -19.463  29.566  1.00  0.00     0.136 C 
ATOM      2  O   UNL     1     -12.922 -20.191  28.597  1.00  0.00    -0.299 OA
ENDROOT
BRANCH   1   3
ATOM      3  C   UNL     1     -11.910 -19.973  30.716  1.00  0.00     0.053 C 
ATOM      4  C   UNL     1     -12.792 -20.129  31.963  1.00  0.00     0.016 C 
BRANCH   3   5
ATOM      5  C   UNL     1     -10.733 -19.003  30.995  1.00  0.00     0.015 C 
BRANCH   5   6
ATOM      6  C   UNL     1     -10.501 -18.746  32.500  1.00  0.00     0.028 C 
BRANCH   6   7
ATOM      7  C   UNL     1     -10.153 -17.309  32.820  1.00  0.00    -0.028 C 
ATOM      8  C   UNL     1     -11.004 -16.251  32.871  1.00  0.00    -0.070 CG0
ATOM      9  C   UNL     1     -10.398 -14.894  33.141  1.00  0.00     0.039 C 
ATOM     10  G   UNL     1     -12.518 -16.344  32.723  1.00  0.00     0.000 G0
ENDBRANCH   6   7
ENDBRANCH   5   6
ENDBRANCH   3   5
ENDBRANCH   1   3
BRANCH   1  11
ATOM     11  C   UNL     1     -13.322 -18.062  29.512  1.00  0.00     0.087 C 
BRANCH  11  12
ATOM     12  C   UNL     1     -12.433 -16.922  30.090  1.00  0.00     0.066 C 
BRANCH  12  13
ATOM     13  C   UNL     1     -13.004 -16.166  31.297  1.00  0.00     0.140 C 
ATOM     14  O   UNL     1     -13.905 -15.364  31.099  1.00  0.00    -0.299 OA
BRANCH  13  15
ATOM     15  C   UNL     1     -12.531 -16.339  32.721  1.00  0.00     0.106 CG0
ATOM     16  G   UNL     1     -11.018 -16.230  32.873  1.00  0.00     0.000 G0
ENDBRANCH  13  15
ENDBRANCH  12  13
BRANCH  12  17
ATOM     17  C   UNL     1     -12.018 -15.946  28.937  1.00  0.00    -0.006 C 
ATOM     18  C   UNL     1     -10.543 -15.513  29.009  1.00  0.00     0.008 C 
ATOM     19  C   UNL     1     -12.334 -16.514  27.543  1.00  0.00     0.008 C 
ENDBRANCH  12  17
ENDBRANCH  11  12
ENDBRANCH   1  11
TORSDOF 1
ENDMDL
