MODEL 1
REMARK VINA RESULT:    -7.516      0.000      0.000
REMARK INTER + INTRA:          -8.665
REMARK INTER:                  -8.175
REMARK INTRA:                  -0.490
REMARK UNBOUND:                -0.490
REMARK SMILES C=C(C)[C@H]1CC[C@]2(C)CC[C@@]3(C)[C@H](CC[C@@H]4[C@@]5(C)CC[C@H](O)C(C)(C)[C@H]5CC[C@]43C)[C@H]12
REMARK SMILES IDX 4 1 5 2 6 3 7 4 31 5 13 6 14 7 15 8 16 9 17 10 19 11 20 12
REMARK SMILES IDX 21 13 23 14 26 15 27 16 28 17 29 18 11 19 10 20 9 21 12 22
REMARK SMILES IDX 30 23 24 24 25 25 18 26 8 27 2 28 3 29 1 30 22 31
REMARK H PARENT 22 32
REMARK Flexibility Score: inf
ROOT
ATOM      1  C   UNL     1      10.212 -27.744  44.923  1.00  0.00     0.018 C 
ATOM      2  C   UNL     1       8.877 -27.100  45.368  1.00  0.00     0.009 C 
ATOM      3  C   UNL     1       7.894 -27.202  44.192  1.00  0.00     0.008 C 
ATOM      4  C   UNL     1       8.686 -27.738  42.983  1.00  0.00    -0.029 C 
ATOM      5  C   UNL     1       9.868 -28.520  43.621  1.00  0.00     0.006 C 
ATOM      6  C   UNL     1       9.598 -30.058  43.868  1.00  0.00    -0.000 C 
ATOM      7  C   UNL     1       8.712 -30.371  45.106  1.00  0.00     0.005 C 
ATOM      8  C   UNL     1       8.655 -31.865  45.376  1.00  0.00     0.005 C 
ATOM      9  C   UNL     1       8.046 -32.651  44.192  1.00  0.00     0.002 C 
ATOM     10  C   UNL     1       7.705 -34.183  44.551  1.00  0.00    -0.026 C 
ATOM     11  C   UNL     1       6.291 -34.201  45.235  1.00  0.00     0.010 C 
ATOM     12  C   UNL     1       5.156 -34.404  44.228  1.00  0.00     0.033 C 
ATOM     13  C   UNL     1       5.210 -35.793  43.542  1.00  0.00     0.120 C 
ATOM     14  C   UNL     1       6.661 -36.379  43.390  1.00  0.00    -0.006 C 
ATOM     15  C   UNL     1       7.722 -35.190  43.300  1.00  0.00     0.003 C 
ATOM     16  C   UNL     1       7.675 -34.517  41.887  1.00  0.00     0.005 C 
ATOM     17  C   UNL     1       7.963 -33.019  41.754  1.00  0.00     0.008 C 
ATOM     18  C   UNL     1       8.838 -32.384  42.864  1.00  0.00    -0.024 C 
ATOM     19  C   UNL     1       9.041 -30.787  42.591  1.00  0.00    -0.024 C 
ATOM     20  C   UNL     1       7.700 -30.074  42.209  1.00  0.00     0.008 C 
ATOM     21  C   UNL     1       7.798 -28.556  41.993  1.00  0.00     0.007 C 
ATOM     22  C   UNL     1      10.049 -30.575  41.410  1.00  0.00     0.012 C 
ATOM     23  C   UNL     1      10.229 -33.095  42.882  1.00  0.00     0.012 C 
ATOM     24  C   UNL     1       7.008 -37.359  44.552  1.00  0.00     0.014 C 
ATOM     25  C   UNL     1       6.715 -37.276  42.115  1.00  0.00     0.014 C 
ATOM     26  C   UNL     1       8.735 -34.707  45.609  1.00  0.00     0.012 C 
ATOM     27  C   UNL     1       9.223 -26.522  42.176  1.00  0.00     0.011 C 
ENDROOT
BRANCH   1  28
ATOM     28  C   UNL     1      11.432 -26.826  44.749  1.00  0.00    -0.077 C 
ATOM     29  C   UNL     1      11.273 -25.373  45.124  1.00  0.00     0.039 C 
ATOM     30  C   UNL     1      12.630 -27.212  44.272  1.00  0.00     0.008 C 
ENDBRANCH   1  28
BRANCH  13  31
ATOM     31  O   UNL     1       4.334 -36.706  44.162  1.00  0.00    -0.393 OA
ATOM     32  H   UNL     1       4.849 -37.525  44.385  1.00  0.00     0.210 HD
ENDBRANCH  13  31
TORSDOF 2
ENDMDL
MODEL 2
REMARK VINA RESULT:    -7.346      4.351      6.878
REMARK INTER + INTRA:          -8.480
REMARK INTER:                  -7.969
REMARK INTRA:                  -0.511
REMARK UNBOUND:                -0.490
REMARK SMILES C=C(C)[C@H]1CC[C@]2(C)CC[C@@]3(C)[C@H](CC[C@@H]4[C@@]5(C)CC[C@H](O)C(C)(C)[C@H]5CC[C@]43C)[C@H]12
REMARK SMILES IDX 4 1 5 2 6 3 7 4 31 5 13 6 14 7 15 8 16 9 17 10 19 11 20 12
REMARK SMILES IDX 21 13 23 14 26 15 27 16 28 17 29 18 11 19 10 20 9 21 12 22
REMARK SMILES IDX 30 23 24 24 25 25 18 26 8 27 2 28 3 29 1 30 22 31
REMARK H PARENT 22 32
REMARK Flexibility Score: inf
ROOT
ATOM      1  C   UNL     1      11.092 -22.873  44.930  1.00  0.00     0.018 C 
ATOM      2  C   UNL     1      12.386 -22.459  44.189  1.00  0.00     0.009 C 
ATOM      3  C   UNL     1      13.373 -23.632  44.282  1.00  0.00     0.008 C 
ATOM      4  C   UNL     1      12.751 -24.676  45.229  1.00  0.00    -0.029 C 
ATOM      5  C   UNL     1      11.223 -24.408  45.136  1.00  0.00     0.006 C 
ATOM      6  C   UNL     1      10.460 -25.249  44.037  1.00  0.00    -0.000 C 
ATOM      7  C   UNL     1      10.647 -24.737  42.582  1.00  0.00     0.005 C 
ATOM      8  C   UNL     1       9.741 -25.483  41.617  1.00  0.00     0.005 C 
ATOM      9  C   UNL     1      10.039 -26.999  41.587  1.00  0.00     0.002 C 
ATOM     10  C   UNL     1       9.307 -27.770  40.379  1.00  0.00    -0.026 C 
ATOM     11  C   UNL     1      10.211 -27.611  39.104  1.00  0.00     0.010 C 
ATOM     12  C   UNL     1      11.214 -28.757  38.950  1.00  0.00     0.033 C 
ATOM     13  C   UNL     1      10.524 -30.122  38.697  1.00  0.00     0.120 C 
ATOM     14  C   UNL     1       9.102 -30.254  39.355  1.00  0.00    -0.006 C 
ATOM     15  C   UNL     1       9.012 -29.325  40.651  1.00  0.00     0.003 C 
ATOM     16  C   UNL     1       9.798 -29.967  41.843  1.00  0.00     0.005 C 
ATOM     17  C   UNL     1      10.495 -29.061  42.862  1.00  0.00     0.008 C 
ATOM     18  C   UNL     1       9.921 -27.631  43.019  1.00  0.00    -0.024 C 
ATOM     19  C   UNL     1      10.776 -26.787  44.126  1.00  0.00    -0.024 C 
ATOM     20  C   UNL     1      12.322 -26.947  43.929  1.00  0.00     0.008 C 
ATOM     21  C   UNL     1      13.197 -26.136  44.897  1.00  0.00     0.007 C 
ATOM     22  C   UNL     1      10.422 -27.293  45.566  1.00  0.00     0.012 C 
ATOM     23  C   UNL     1       8.429 -27.729  43.472  1.00  0.00     0.012 C 
ATOM     24  C   UNL     1       7.966 -29.920  38.341  1.00  0.00     0.014 C 
ATOM     25  C   UNL     1       8.849 -31.750  39.721  1.00  0.00     0.014 C 
ATOM     26  C   UNL     1       7.943 -27.065  40.067  1.00  0.00     0.012 C 
ATOM     27  C   UNL     1      13.258 -24.389  46.671  1.00  0.00     0.011 C 
ENDROOT
BRANCH   1  28
ATOM     28  C   UNL     1      10.742 -22.138  46.233  1.00  0.00    -0.077 C 
ATOM     29  C   UNL     1       9.916 -22.880  47.255  1.00  0.00     0.039 C 
ATOM     30  C   UNL     1      11.101 -20.875  46.530  1.00  0.00     0.008 C 
ENDBRANCH   1  28
BRANCH  13  31
ATOM     31  O   UNL     1      10.501 -30.441  37.325  1.00  0.00    -0.393 OA
ATOM     32  H   UNL     1      11.408 -30.746  37.064  1.00  0.00     0.210 HD
ENDBRANCH  13  31
TORSDOF 2
ENDMDL
MODEL 3
REMARK VINA RESULT:    -7.215      3.607      5.128
REMARK INTER + INTRA:          -8.337
REMARK INTER:                  -7.847
REMARK INTRA:                  -0.490
REMARK UNBOUND:                -0.490
REMARK SMILES C=C(C)[C@H]1CC[C@]2(C)CC[C@@]3(C)[C@H](CC[C@@H]4[C@@]5(C)CC[C@H](O)C(C)(C)[C@H]5CC[C@]43C)[C@H]12
REMARK SMILES IDX 4 1 5 2 6 3 7 4 31 5 13 6 14 7 15 8 16 9 17 10 19 11 20 12
REMARK SMILES IDX 21 13 23 14 26 15 27 16 28 17 29 18 11 19 10 20 9 21 12 22
REMARK SMILES IDX 30 23 24 24 25 25 18 26 8 27 2 28 3 29 1 30 22 31
REMARK H PARENT 22 32
REMARK Flexibility Score: inf
ROOT
ATOM      1  C   UNL     1       8.776 -31.031  39.200  1.00  0.00     0.018 C 
ATOM      2  C   UNL     1       8.401 -29.839  40.112  1.00  0.00     0.009 C 
ATOM      3  C   UNL     1       6.878 -29.654  40.035  1.00  0.00     0.008 C 
ATOM      4  C   UNL     1       6.359 -30.608  38.941  1.00  0.00    -0.029 C 
ATOM      5  C   UNL     1       7.428 -31.735  38.884  1.00  0.00     0.006 C 
ATOM      6  C   UNL     1       7.142 -32.977  39.818  1.00  0.00    -0.000 C 
ATOM      7  C   UNL     1       7.456 -32.744  41.322  1.00  0.00     0.005 C 
ATOM      8  C   UNL     1       7.330 -34.034  42.115  1.00  0.00     0.005 C 
ATOM      9  C   UNL     1       5.902 -34.623  42.053  1.00  0.00     0.002 C 
ATOM     10  C   UNL     1       5.657 -35.816  43.104  1.00  0.00    -0.026 C 
ATOM     11  C   UNL     1       5.281 -35.160  44.481  1.00  0.00     0.010 C 
ATOM     12  C   UNL     1       3.771 -34.982  44.652  1.00  0.00     0.033 C 
ATOM     13  C   UNL     1       3.015 -36.334  44.713  1.00  0.00     0.120 C 
ATOM     14  C   UNL     1       3.696 -37.488  43.891  1.00  0.00    -0.006 C 
ATOM     15  C   UNL     1       4.528 -36.874  42.675  1.00  0.00     0.003 C 
ATOM     16  C   UNL     1       3.566 -36.411  41.530  1.00  0.00     0.005 C 
ATOM     17  C   UNL     1       3.941 -35.199  40.672  1.00  0.00     0.008 C 
ATOM     18  C   UNL     1       5.451 -34.868  40.571  1.00  0.00    -0.024 C 
ATOM     19  C   UNL     1       5.687 -33.547  39.640  1.00  0.00    -0.024 C 
ATOM     20  C   UNL     1       4.697 -32.386  39.995  1.00  0.00     0.008 C 
ATOM     21  C   UNL     1       4.895 -31.085  39.201  1.00  0.00     0.007 C 
ATOM     22  C   UNL     1       5.472 -33.916  38.132  1.00  0.00     0.012 C 
ATOM     23  C   UNL     1       6.198 -36.089  39.947  1.00  0.00     0.012 C 
ATOM     24  C   UNL     1       4.596 -38.383  44.797  1.00  0.00     0.014 C 
ATOM     25  C   UNL     1       2.593 -38.466  43.379  1.00  0.00     0.014 C 
ATOM     26  C   UNL     1       6.998 -36.599  43.319  1.00  0.00     0.012 C 
ATOM     27  C   UNL     1       6.327 -29.832  37.594  1.00  0.00     0.011 C 
ENDROOT
BRANCH   1  28
ATOM     28  C   UNL     1       9.591 -30.737  37.930  1.00  0.00    -0.077 C 
ATOM     29  C   UNL     1      10.379 -29.451  37.887  1.00  0.00     0.039 C 
ATOM     30  C   UNL     1       9.647 -31.531  36.845  1.00  0.00     0.008 C 
ENDBRANCH   1  28
BRANCH  13  31
ATOM     31  O   UNL     1       2.753 -36.717  46.043  1.00  0.00    -0.393 OA
ATOM     32  H   UNL     1       2.243 -37.567  46.025  1.00  0.00     0.210 HD
ENDBRANCH  13  31
TORSDOF 2
ENDMDL
MODEL 4
REMARK VINA RESULT:    -7.141      5.091      9.444
REMARK INTER + INTRA:          -8.257
REMARK INTER:                  -7.742
REMARK INTRA:                  -0.515
REMARK UNBOUND:                -0.490
REMARK SMILES C=C(C)[C@H]1CC[C@]2(C)CC[C@@]3(C)[C@H](CC[C@@H]4[C@@]5(C)CC[C@H](O)C(C)(C)[C@H]5CC[C@]43C)[C@H]12
REMARK SMILES IDX 4 1 5 2 6 3 7 4 31 5 13 6 14 7 15 8 16 9 17 10 19 11 20 12
REMARK SMILES IDX 21 13 23 14 26 15 27 16 28 17 29 18 11 19 10 20 9 21 12 22
REMARK SMILES IDX 30 23 24 24 25 25 18 26 8 27 2 28 3 29 1 30 22 31
REMARK H PARENT 22 32
REMARK Flexibility Score: inf
ROOT
ATOM      1  C   UNL     1       2.450 -36.587  42.412  1.00  0.00     0.018 C 
ATOM      2  C   UNL     1       3.102 -36.430  43.807  1.00  0.00     0.009 C 
ATOM      3  C   UNL     1       4.418 -37.224  43.798  1.00  0.00     0.008 C 
ATOM      4  C   UNL     1       4.469 -38.005  42.471  1.00  0.00    -0.029 C 
ATOM      5  C   UNL     1       3.569 -37.178  41.510  1.00  0.00     0.006 C 
ATOM      6  C   UNL     1       4.325 -36.082  40.660  1.00  0.00    -0.000 C 
ATOM      7  C   UNL     1       4.689 -34.790  41.443  1.00  0.00     0.005 C 
ATOM      8  C   UNL     1       5.244 -33.724  40.513  1.00  0.00     0.005 C 
ATOM      9  C   UNL     1       6.538 -34.183  39.801  1.00  0.00     0.002 C 
ATOM     10  C   UNL     1       7.305 -32.990  39.042  1.00  0.00    -0.026 C 
ATOM     11  C   UNL     1       8.201 -32.257  40.104  1.00  0.00     0.010 C 
ATOM     12  C   UNL     1       9.615 -32.837  40.178  1.00  0.00     0.033 C 
ATOM     13  C   UNL     1      10.416 -32.626  38.868  1.00  0.00     0.120 C 
ATOM     14  C   UNL     1       9.527 -32.588  37.571  1.00  0.00    -0.006 C 
ATOM     15  C   UNL     1       8.203 -33.452  37.793  1.00  0.00     0.003 C 
ATOM     16  C   UNL     1       8.526 -34.982  37.719  1.00  0.00     0.005 C 
ATOM     17  C   UNL     1       7.726 -35.965  38.578  1.00  0.00     0.008 C 
ATOM     18  C   UNL     1       6.306 -35.512  39.001  1.00  0.00    -0.024 C 
ATOM     19  C   UNL     1       5.589 -36.656  39.921  1.00  0.00    -0.024 C 
ATOM     20  C   UNL     1       6.548 -37.215  41.027  1.00  0.00     0.008 C 
ATOM     21  C   UNL     1       5.928 -38.255  41.972  1.00  0.00     0.007 C 
ATOM     22  C   UNL     1       5.144 -37.858  39.020  1.00  0.00     0.012 C 
ATOM     23  C   UNL     1       5.450 -35.258  37.719  1.00  0.00     0.012 C 
ATOM     24  C   UNL     1       9.185 -31.126  37.152  1.00  0.00     0.014 C 
ATOM     25  C   UNL     1      10.359 -33.136  36.370  1.00  0.00     0.014 C 
ATOM     26  C   UNL     1       6.257 -31.946  38.525  1.00  0.00     0.012 C 
ATOM     27  C   UNL     1       3.849 -39.411  42.709  1.00  0.00     0.011 C 
ENDROOT
BRANCH   1  28
ATOM     28  C   UNL     1       1.140 -37.386  42.316  1.00  0.00    -0.077 C 
ATOM     29  C   UNL     1       0.663 -37.784  40.941  1.00  0.00     0.039 C 
ATOM     30  C   UNL     1       0.375 -37.747  43.363  1.00  0.00     0.008 C 
ENDBRANCH   1  28
BRANCH  13  31
ATOM     31  O   UNL     1      11.264 -31.504  38.959  1.00  0.00    -0.393 OA
ATOM     32  H   UNL     1      11.494 -31.215  38.038  1.00  0.00     0.210 HD
ENDBRANCH  13  31
TORSDOF 2
ENDMDL
MODEL 5
REMARK VINA RESULT:    -6.985      2.936      8.181
REMARK INTER + INTRA:          -8.087
REMARK INTER:                  -7.761
REMARK INTRA:                  -0.326
REMARK UNBOUND:                -0.490
REMARK SMILES C=C(C)[C@H]1CC[C@]2(C)CC[C@@]3(C)[C@H](CC[C@@H]4[C@@]5(C)CC[C@H](O)C(C)(C)[C@H]5CC[C@]43C)[C@H]12
REMARK SMILES IDX 4 1 5 2 6 3 7 4 31 5 13 6 14 7 15 8 16 9 17 10 19 11 20 12
REMARK SMILES IDX 21 13 23 14 26 15 27 16 28 17 29 18 11 19 10 20 9 21 12 22
REMARK SMILES IDX 30 23 24 24 25 25 18 26 8 27 2 28 3 29 1 30 22 31
REMARK H PARENT 22 32
REMARK Flexibility Score: inf
ROOT
ATOM      1  C   UNL     1       6.925 -33.742  44.469  1.00  0.00     0.018 C 
ATOM      2  C   UNL     1       8.114 -34.450  45.161  1.00  0.00     0.009 C 
ATOM      3  C   UNL     1       9.332 -34.330  44.233  1.00  0.00     0.008 C 
ATOM      4  C   UNL     1       8.837 -33.715  42.909  1.00  0.00    -0.029 C 
ATOM      5  C   UNL     1       7.563 -32.921  43.314  1.00  0.00     0.006 C 
ATOM      6  C   UNL     1       7.809 -31.406  43.690  1.00  0.00    -0.000 C 
ATOM      7  C   UNL     1       8.410 -31.178  45.105  1.00  0.00     0.005 C 
ATOM      8  C   UNL     1       8.441 -29.700  45.455  1.00  0.00     0.005 C 
ATOM      9  C   UNL     1       9.313 -28.884  44.473  1.00  0.00     0.002 C 
ATOM     10  C   UNL     1       9.603 -27.382  44.974  1.00  0.00    -0.026 C 
ATOM     11  C   UNL     1      10.834 -27.442  45.949  1.00  0.00     0.010 C 
ATOM     12  C   UNL     1      12.166 -27.234  45.225  1.00  0.00     0.033 C 
ATOM     13  C   UNL     1      12.296 -25.815  44.615  1.00  0.00     0.120 C 
ATOM     14  C   UNL     1      10.928 -25.174  44.180  1.00  0.00    -0.006 C 
ATOM     15  C   UNL     1       9.884 -26.321  43.802  1.00  0.00     0.003 C 
ATOM     16  C   UNL     1      10.224 -26.933  42.401  1.00  0.00     0.005 C 
ATOM     17  C   UNL     1       9.937 -28.413  42.133  1.00  0.00     0.008 C 
ATOM     18  C   UNL     1       8.825 -29.065  42.993  1.00  0.00    -0.024 C 
ATOM     19  C   UNL     1       8.649 -30.641  42.603  1.00  0.00    -0.024 C 
ATOM     20  C   UNL     1      10.024 -31.382  42.486  1.00  0.00     0.008 C 
ATOM     21  C   UNL     1       9.940 -32.885  42.179  1.00  0.00     0.007 C 
ATOM     22  C   UNL     1       7.919 -30.767  41.222  1.00  0.00     0.012 C 
ATOM     23  C   UNL     1       7.481 -28.310  42.744  1.00  0.00     0.012 C 
ATOM     24  C   UNL     1      10.358 -24.234  45.286  1.00  0.00     0.014 C 
ATOM     25  C   UNL     1      11.175 -24.220  42.970  1.00  0.00     0.014 C 
ATOM     26  C   UNL     1       8.380 -26.870  45.808  1.00  0.00     0.012 C 
ATOM     27  C   UNL     1       8.462 -34.875  41.945  1.00  0.00     0.011 C 
ENDROOT
BRANCH   1  28
ATOM     28  C   UNL     1       5.751 -34.610  43.987  1.00  0.00    -0.077 C 
ATOM     29  C   UNL     1       5.230 -35.667  44.929  1.00  0.00     0.039 C 
ATOM     30  C   UNL     1       5.159 -34.511  42.783  1.00  0.00     0.008 C 
ENDBRANCH   1  28
BRANCH  13  31
ATOM     31  O   UNL     1      13.036 -24.960  45.455  1.00  0.00    -0.393 OA
ATOM     32  H   UNL     1      13.660 -24.434  44.890  1.00  0.00     0.210 HD
ENDBRANCH  13  31
TORSDOF 2
ENDMDL
MODEL 6
REMARK VINA RESULT:    -6.961      6.387      8.687
REMARK INTER + INTRA:          -8.062
REMARK INTER:                  -7.572
REMARK INTRA:                  -0.490
REMARK UNBOUND:                -0.490
REMARK SMILES C=C(C)[C@H]1CC[C@]2(C)CC[C@@]3(C)[C@H](CC[C@@H]4[C@@]5(C)CC[C@H](O)C(C)(C)[C@H]5CC[C@]43C)[C@H]12
REMARK SMILES IDX 4 1 5 2 6 3 7 4 31 5 13 6 14 7 15 8 16 9 17 10 19 11 20 12
REMARK SMILES IDX 21 13 23 14 26 15 27 16 28 17 29 18 11 19 10 20 9 21 12 22
REMARK SMILES IDX 30 23 24 24 25 25 18 26 8 27 2 28 3 29 1 30 22 31
REMARK H PARENT 22 32
REMARK Flexibility Score: inf
ROOT
ATOM      1  C   UNL     1       7.989 -35.903  34.913  1.00  0.00     0.018 C 
ATOM      2  C   UNL     1       9.278 -36.646  35.339  1.00  0.00     0.009 C 
ATOM      3  C   UNL     1       9.834 -35.938  36.584  1.00  0.00     0.008 C 
ATOM      4  C   UNL     1       8.991 -34.667  36.799  1.00  0.00    -0.029 C 
ATOM      5  C   UNL     1       7.631 -34.995  36.122  1.00  0.00     0.006 C 
ATOM      6  C   UNL     1       6.544 -35.632  37.077  1.00  0.00    -0.000 C 
ATOM      7  C   UNL     1       6.760 -37.139  37.392  1.00  0.00     0.005 C 
ATOM      8  C   UNL     1       5.580 -37.713  38.159  1.00  0.00     0.005 C 
ATOM      9  C   UNL     1       5.366 -37.008  39.518  1.00  0.00     0.002 C 
ATOM     10  C   UNL     1       4.322 -37.771  40.475  1.00  0.00    -0.026 C 
ATOM     11  C   UNL     1       5.114 -38.896  41.233  1.00  0.00     0.010 C 
ATOM     12  C   UNL     1       5.672 -38.418  42.575  1.00  0.00     0.033 C 
ATOM     13  C   UNL     1       4.557 -38.059  43.590  1.00  0.00     0.120 C 
ATOM     14  C   UNL     1       3.232 -37.531  42.928  1.00  0.00    -0.006 C 
ATOM     15  C   UNL     1       3.562 -36.830  41.532  1.00  0.00     0.003 C 
ATOM     16  C   UNL     1       4.197 -35.418  41.762  1.00  0.00     0.005 C 
ATOM     17  C   UNL     1       5.236 -34.887  40.770  1.00  0.00     0.008 C 
ATOM     18  C   UNL     1       5.174 -35.462  39.333  1.00  0.00    -0.024 C 
ATOM     19  C   UNL     1       6.349 -34.812  38.404  1.00  0.00    -0.024 C 
ATOM     20  C   UNL     1       7.736 -34.788  39.132  1.00  0.00     0.008 C 
ATOM     21  C   UNL     1       8.907 -34.243  38.300  1.00  0.00     0.007 C 
ATOM     22  C   UNL     1       5.976 -33.335  38.034  1.00  0.00     0.012 C 
ATOM     23  C   UNL     1       3.776 -35.136  38.715  1.00  0.00     0.012 C 
ATOM     24  C   UNL     1       2.183 -38.671  42.754  1.00  0.00     0.014 C 
ATOM     25  C   UNL     1       2.539 -36.532  43.906  1.00  0.00     0.014 C 
ATOM     26  C   UNL     1       3.239 -38.484  39.595  1.00  0.00     0.012 C 
ATOM     27  C   UNL     1       9.687 -33.490  36.058  1.00  0.00     0.011 C 
ENDROOT
BRANCH   1  28
ATOM     28  C   UNL     1       8.011 -35.126  33.587  1.00  0.00    -0.077 C 
ATOM     29  C   UNL     1       9.253 -35.228  32.736  1.00  0.00     0.039 C 
ATOM     30  C   UNL     1       7.012 -34.347  33.130  1.00  0.00     0.008 C 
ENDBRANCH   1  28
BRANCH  13  31
ATOM     31  O   UNL     1       4.313 -39.121  44.483  1.00  0.00    -0.393 OA
ATOM     32  H   UNL     1       3.515 -39.616  44.165  1.00  0.00     0.210 HD
ENDBRANCH  13  31
TORSDOF 2
ENDMDL
MODEL 7
REMARK VINA RESULT:    -6.912      4.795      7.493
REMARK INTER + INTRA:          -8.008
REMARK INTER:                  -7.531
REMARK INTRA:                  -0.477
REMARK UNBOUND:                -0.490
REMARK SMILES C=C(C)[C@H]1CC[C@]2(C)CC[C@@]3(C)[C@H](CC[C@@H]4[C@@]5(C)CC[C@H](O)C(C)(C)[C@H]5CC[C@]43C)[C@H]12
REMARK SMILES IDX 4 1 5 2 6 3 7 4 31 5 13 6 14 7 15 8 16 9 17 10 19 11 20 12
REMARK SMILES IDX 21 13 23 14 26 15 27 16 28 17 29 18 11 19 10 20 9 21 12 22
REMARK SMILES IDX 30 23 24 24 25 25 18 26 8 27 2 28 3 29 1 30 22 31
REMARK H PARENT 22 32
REMARK Flexibility Score: inf
ROOT
ATOM      1  C   UNL     1       8.876 -32.951  41.996  1.00  0.00     0.018 C 
ATOM      2  C   UNL     1       8.070 -32.967  43.317  1.00  0.00     0.009 C 
ATOM      3  C   UNL     1       7.828 -31.508  43.733  1.00  0.00     0.008 C 
ATOM      4  C   UNL     1       8.639 -30.619  42.770  1.00  0.00    -0.029 C 
ATOM      5  C   UNL     1       8.784 -31.485  41.488  1.00  0.00     0.006 C 
ATOM      6  C   UNL     1       7.652 -31.273  40.405  1.00  0.00    -0.000 C 
ATOM      7  C   UNL     1       6.302 -31.970  40.733  1.00  0.00     0.005 C 
ATOM      8  C   UNL     1       5.336 -31.872  39.564  1.00  0.00     0.005 C 
ATOM      9  C   UNL     1       4.996 -30.406  39.207  1.00  0.00     0.002 C 
ATOM     10  C   UNL     1       3.767 -30.269  38.178  1.00  0.00    -0.026 C 
ATOM     11  C   UNL     1       2.441 -30.326  39.019  1.00  0.00     0.010 C 
ATOM     12  C   UNL     1       1.961 -28.939  39.451  1.00  0.00     0.033 C 
ATOM     13  C   UNL     1       1.552 -28.049  38.249  1.00  0.00     0.120 C 
ATOM     14  C   UNL     1       2.344 -28.354  36.925  1.00  0.00    -0.006 C 
ATOM     15  C   UNL     1       3.787 -28.940  37.276  1.00  0.00     0.003 C 
ATOM     16  C   UNL     1       4.738 -27.799  37.770  1.00  0.00     0.005 C 
ATOM     17  C   UNL     1       5.812 -28.111  38.816  1.00  0.00     0.008 C 
ATOM     18  C   UNL     1       6.293 -29.582  38.892  1.00  0.00    -0.024 C 
ATOM     19  C   UNL     1       7.422 -29.757  40.059  1.00  0.00    -0.024 C 
ATOM     20  C   UNL     1       7.012 -29.043  41.392  1.00  0.00     0.008 C 
ATOM     21  C   UNL     1       7.996 -29.212  42.560  1.00  0.00     0.007 C 
ATOM     22  C   UNL     1       8.779 -29.137  39.582  1.00  0.00     0.012 C 
ATOM     23  C   UNL     1       6.900 -29.989  37.511  1.00  0.00     0.012 C 
ATOM     24  C   UNL     1       1.553 -29.321  35.993  1.00  0.00     0.014 C 
ATOM     25  C   UNL     1       2.460 -27.041  36.089  1.00  0.00     0.014 C 
ATOM     26  C   UNL     1       3.757 -31.507  37.217  1.00  0.00     0.012 C 
ATOM     27  C   UNL     1      10.036 -30.364  43.404  1.00  0.00     0.011 C 
ENDROOT
BRANCH   1  28
ATOM     28  C   UNL     1      10.324 -33.466  42.030  1.00  0.00    -0.077 C 
ATOM     29  C   UNL     1      11.090 -33.486  40.730  1.00  0.00     0.039 C 
ATOM     30  C   UNL     1      10.960 -33.915  43.128  1.00  0.00     0.008 C 
ENDBRANCH   1  28
BRANCH  13  31
ATOM     31  O   UNL     1       0.158 -28.069  38.046  1.00  0.00    -0.393 OA
ATOM     32  H   UNL     1      -0.142 -29.015  38.049  1.00  0.00     0.210 HD
ENDBRANCH  13  31
TORSDOF 2
ENDMDL
MODEL 8
REMARK VINA RESULT:    -6.899      4.468      6.701
REMARK INTER + INTRA:          -7.994
REMARK INTER:                  -7.474
REMARK INTRA:                  -0.520
REMARK UNBOUND:                -0.490
REMARK SMILES C=C(C)[C@H]1CC[C@]2(C)CC[C@@]3(C)[C@H](CC[C@@H]4[C@@]5(C)CC[C@H](O)C(C)(C)[C@H]5CC[C@]43C)[C@H]12
REMARK SMILES IDX 4 1 5 2 6 3 7 4 31 5 13 6 14 7 15 8 16 9 17 10 19 11 20 12
REMARK SMILES IDX 21 13 23 14 26 15 27 16 28 17 29 18 11 19 10 20 9 21 12 22
REMARK SMILES IDX 30 23 24 24 25 25 18 26 8 27 2 28 3 29 1 30 22 31
REMARK H PARENT 22 32
REMARK Flexibility Score: inf
ROOT
ATOM      1  C   UNL     1      10.402 -34.987  37.733  1.00  0.00     0.018 C 
ATOM      2  C   UNL     1      11.515 -35.838  38.389  1.00  0.00     0.009 C 
ATOM      3  C   UNL     1      11.762 -35.278  39.798  1.00  0.00     0.008 C 
ATOM      4  C   UNL     1      10.935 -33.983  39.924  1.00  0.00    -0.029 C 
ATOM      5  C   UNL     1       9.780 -34.171  38.900  1.00  0.00     0.006 C 
ATOM      6  C   UNL     1       8.466 -34.826  39.485  1.00  0.00    -0.000 C 
ATOM      7  C   UNL     1       8.544 -36.364  39.691  1.00  0.00     0.005 C 
ATOM      8  C   UNL     1       7.190 -36.935  40.078  1.00  0.00     0.005 C 
ATOM      9  C   UNL     1       6.663 -36.342  41.405  1.00  0.00     0.002 C 
ATOM     10  C   UNL     1       5.385 -37.125  41.991  1.00  0.00    -0.026 C 
ATOM     11  C   UNL     1       5.921 -38.358  42.804  1.00  0.00     0.010 C 
ATOM     12  C   UNL     1       6.137 -38.034  44.284  1.00  0.00     0.033 C 
ATOM     13  C   UNL     1       4.814 -37.702  45.020  1.00  0.00     0.120 C 
ATOM     14  C   UNL     1       3.718 -37.041  44.106  1.00  0.00    -0.006 C 
ATOM     15  C   UNL     1       4.414 -36.240  42.914  1.00  0.00     0.003 C 
ATOM     16  C   UNL     1       5.018 -34.893  43.436  1.00  0.00     0.005 C 
ATOM     17  C   UNL     1       6.292 -34.337  42.793  1.00  0.00     0.008 C 
ATOM     18  C   UNL     1       6.576 -34.777  41.335  1.00  0.00    -0.024 C 
ATOM     19  C   UNL     1       7.970 -34.117  40.798  1.00  0.00    -0.024 C 
ATOM     20  C   UNL     1       9.127 -34.238  41.846  1.00  0.00     0.008 C 
ATOM     21  C   UNL     1      10.489 -33.691  41.391  1.00  0.00     0.007 C 
ATOM     22  C   UNL     1       7.753 -32.594  40.497  1.00  0.00     0.012 C 
ATOM     23  C   UNL     1       5.392 -34.317  40.425  1.00  0.00     0.012 C 
ATOM     24  C   UNL     1       2.709 -38.099  43.563  1.00  0.00     0.014 C 
ATOM     25  C   UNL     1       2.834 -36.094  44.977  1.00  0.00     0.014 C 
ATOM     26  C   UNL     1       4.537 -37.693  40.801  1.00  0.00     0.012 C 
ATOM     27  C   UNL     1      11.836 -32.788  39.501  1.00  0.00     0.011 C 
ENDROOT
BRANCH   1  28
ATOM     28  C   UNL     1      10.785 -34.097  36.539  1.00  0.00    -0.077 C 
ATOM     29  C   UNL     1       9.897 -32.917  36.232  1.00  0.00     0.039 C 
ATOM     30  C   UNL     1      11.846 -34.297  35.735  1.00  0.00     0.008 C 
ENDBRANCH   1  28
BRANCH  13  31
ATOM     31  O   UNL     1       4.316 -38.823  45.713  1.00  0.00    -0.393 OA
ATOM     32  H   UNL     1       4.031 -39.499  45.045  1.00  0.00     0.210 HD
ENDBRANCH  13  31
TORSDOF 2
ENDMDL
MODEL 9
REMARK VINA RESULT:    -6.879      3.640      8.152
REMARK INTER + INTRA:          -7.972
REMARK INTER:                  -7.516
REMARK INTRA:                  -0.456
REMARK UNBOUND:                -0.490
REMARK SMILES C=C(C)[C@H]1CC[C@]2(C)CC[C@@]3(C)[C@H](CC[C@@H]4[C@@]5(C)CC[C@H](O)C(C)(C)[C@H]5CC[C@]43C)[C@H]12
REMARK SMILES IDX 4 1 5 2 6 3 7 4 31 5 13 6 14 7 15 8 16 9 17 10 19 11 20 12
REMARK SMILES IDX 21 13 23 14 26 15 27 16 28 17 29 18 11 19 10 20 9 21 12 22
REMARK SMILES IDX 30 23 24 24 25 25 18 26 8 27 2 28 3 29 1 30 22 31
REMARK H PARENT 22 32
REMARK Flexibility Score: inf
ROOT
ATOM      1  C   UNL     1       6.670 -34.165  43.032  1.00  0.00     0.018 C 
ATOM      2  C   UNL     1       6.225 -33.290  44.228  1.00  0.00     0.009 C 
ATOM      3  C   UNL     1       7.477 -32.604  44.795  1.00  0.00     0.008 C 
ATOM      4  C   UNL     1       8.695 -33.202  44.063  1.00  0.00    -0.029 C 
ATOM      5  C   UNL     1       8.116 -33.697  42.708  1.00  0.00     0.006 C 
ATOM      6  C   UNL     1       8.180 -32.647  41.529  1.00  0.00    -0.000 C 
ATOM      7  C   UNL     1       7.098 -31.532  41.592  1.00  0.00     0.005 C 
ATOM      8  C   UNL     1       7.113 -30.680  40.335  1.00  0.00     0.005 C 
ATOM      9  C   UNL     1       8.468 -29.964  40.129  1.00  0.00     0.002 C 
ATOM     10  C   UNL     1       8.426 -28.838  38.980  1.00  0.00    -0.026 C 
ATOM     11  C   UNL     1       7.876 -27.519  39.634  1.00  0.00     0.010 C 
ATOM     12  C   UNL     1       8.993 -26.625  40.178  1.00  0.00     0.033 C 
ATOM     13  C   UNL     1       9.916 -26.079  39.058  1.00  0.00     0.120 C 
ATOM     14  C   UNL     1      10.053 -27.033  37.816  1.00  0.00    -0.006 C 
ATOM     15  C   UNL     1       9.835 -28.549  38.266  1.00  0.00     0.003 C 
ATOM     16  C   UNL     1      11.099 -29.086  39.018  1.00  0.00     0.005 C 
ATOM     17  C   UNL     1      10.930 -30.112  40.141  1.00  0.00     0.008 C 
ATOM     18  C   UNL     1       9.654 -30.989  40.087  1.00  0.00    -0.024 C 
ATOM     19  C   UNL     1       9.611 -32.019  41.354  1.00  0.00    -0.024 C 
ATOM     20  C   UNL     1       9.964 -31.310  42.706  1.00  0.00     0.008 C 
ATOM     21  C   UNL     1       9.888 -32.200  43.956  1.00  0.00     0.007 C 
ATOM     22  C   UNL     1      10.645 -33.175  41.134  1.00  0.00     0.012 C 
ATOM     23  C   UNL     1       9.652 -31.801  38.752  1.00  0.00     0.012 C 
ATOM     24  C   UNL     1       9.067 -26.635  36.675  1.00  0.00     0.014 C 
ATOM     25  C   UNL     1      11.463 -26.835  37.177  1.00  0.00     0.014 C 
ATOM     26  C   UNL     1       7.401 -29.265  37.875  1.00  0.00     0.012 C 
ATOM     27  C   UNL     1       9.217 -34.408  44.894  1.00  0.00     0.011 C 
ENDROOT
BRANCH   1  28
ATOM     28  C   UNL     1       6.571 -35.692  43.180  1.00  0.00    -0.077 C 
ATOM     29  C   UNL     1       6.103 -36.237  44.506  1.00  0.00     0.039 C 
ATOM     30  C   UNL     1       6.884 -36.584  42.222  1.00  0.00     0.008 C 
ENDBRANCH   1  28
BRANCH  13  31
ATOM     31  O   UNL     1       9.549 -24.772  38.681  1.00  0.00    -0.393 OA
ATOM     32  H   UNL     1      10.051 -24.133  39.251  1.00  0.00     0.210 HD
ENDBRANCH  13  31
TORSDOF 2
ENDMDL
