MODEL 1
REMARK VINA RESULT:    -4.380      0.000      0.000
REMARK INTER + INTRA:          -8.020
REMARK INTER:                  -6.940
REMARK INTRA:                  -1.080
REMARK UNBOUND:                -1.080
REMARK SMILES CCCCCCCCCCCC(=O)[O-]
REMARK SMILES IDX 7 1 8 2 9 3 10 4 11 5 12 6 13 7 14 8 6 9 5 10 4 11 3 12 2 13
REMARK SMILES IDX 1 14
REMARK H PARENT
REMARK Flexibility Score: inf
ROOT
ATOM      1  C   UNL     1      18.241  30.347  31.070  1.00  0.00     0.000 C 
ENDROOT
BRANCH   1   2
ATOM      2  C   UNL     1      17.861  28.858  31.153  1.00  0.00     0.000 C 
BRANCH   2   3
ATOM      3  C   UNL     1      19.079  27.921  31.047  1.00  0.00     0.000 C 
BRANCH   3   4
ATOM      4  C   UNL     1      19.144  27.072  29.764  1.00  0.00     0.006 C 
BRANCH   4   5
ATOM      5  C   UNL     1      17.807  27.014  29.014  1.00  0.00     0.053 C 
BRANCH   5   6
ATOM      6  C   UNL     1      17.935  27.652  27.668  1.00  0.00     0.041 C 
ATOM      7  O   UNL     1      17.937  26.943  26.628  1.00  0.00    -0.550 OA
ATOM      8  O   UNL     1      18.000  29.036  27.557  1.00  0.00    -0.550 OA
ENDBRANCH   5   6
ENDBRANCH   4   5
ENDBRANCH   3   4
ENDBRANCH   2   3
ENDBRANCH   1   2
BRANCH   1   9
ATOM      9  C   UNL     1      18.038  31.092  32.402  1.00  0.00     0.000 C 
BRANCH   9  10
ATOM     10  C   UNL     1      16.824  30.635  33.233  1.00  0.00    -0.000 C 
BRANCH  10  11
ATOM     11  C   UNL     1      17.178  30.316  34.692  1.00  0.00    -0.000 C 
BRANCH  11  12
ATOM     12  C   UNL     1      17.616  28.851  34.842  1.00  0.00    -0.000 C 
BRANCH  12  13
ATOM     13  C   UNL     1      19.122  28.710  35.111  1.00  0.00    -0.003 C 
ATOM     14  C   UNL     1      19.661  27.328  34.740  1.00  0.00     0.004 C 
ENDBRANCH  12  13
ENDBRANCH  11  12
ENDBRANCH  10  11
ENDBRANCH   9  10
ENDBRANCH   1   9
TORSDOF 10
ENDMDL
MODEL 2
REMARK VINA RESULT:    -4.305      1.019      2.769
REMARK INTER + INTRA:          -7.902
REMARK INTER:                  -6.782
REMARK INTRA:                  -1.120
REMARK UNBOUND:                -1.080
REMARK SMILES CCCCCCCCCCCC(=O)[O-]
REMARK SMILES IDX 7 1 8 2 9 3 10 4 11 5 12 6 13 7 14 8 6 9 5 10 4 11 3 12 2 13
REMARK SMILES IDX 1 14
REMARK H PARENT
REMARK Flexibility Score: inf
ROOT
ATOM      1  C   UNL     1      19.842  27.464  33.829  1.00  0.00     0.000 C 
ENDROOT
BRANCH   1   2
ATOM      2  C   UNL     1      19.496  27.412  32.331  1.00  0.00     0.000 C 
BRANCH   2   3
ATOM      3  C   UNL     1      19.039  28.773  31.772  1.00  0.00     0.000 C 
BRANCH   3   4
ATOM      4  C   UNL     1      17.965  28.702  30.670  1.00  0.00     0.006 C 
BRANCH   4   5
ATOM      5  C   UNL     1      18.333  27.737  29.536  1.00  0.00     0.053 C 
BRANCH   5   6
ATOM      6  C   UNL     1      18.020  28.350  28.207  1.00  0.00     0.041 C 
ATOM      7  O   UNL     1      17.493  27.657  27.298  1.00  0.00    -0.550 OA
ATOM      8  O   UNL     1      18.264  29.701  27.989  1.00  0.00    -0.550 OA
ENDBRANCH   5   6
ENDBRANCH   4   5
ENDBRANCH   3   4
ENDBRANCH   2   3
ENDBRANCH   1   2
BRANCH   1   9
ATOM      9  C   UNL     1      18.696  28.027  34.690  1.00  0.00     0.000 C 
BRANCH   9  10
ATOM     10  C   UNL     1      19.073  29.222  35.585  1.00  0.00    -0.000 C 
BRANCH  10  11
ATOM     11  C   UNL     1      18.179  30.450  35.357  1.00  0.00    -0.000 C 
BRANCH  11  12
ATOM     12  C   UNL     1      16.794  30.032  34.843  1.00  0.00    -0.000 C 
BRANCH  12  13
ATOM     13  C   UNL     1      16.451  30.666  33.486  1.00  0.00    -0.003 C 
ATOM     14  C   UNL     1      17.376  31.829  33.127  1.00  0.00     0.004 C 
ENDBRANCH  12  13
ENDBRANCH  11  12
ENDBRANCH  10  11
ENDBRANCH   9  10
ENDBRANCH   1   9
TORSDOF 10
ENDMDL
MODEL 3
REMARK VINA RESULT:    -4.273      2.794      5.916
REMARK INTER + INTRA:          -7.851
REMARK INTER:                  -6.923
REMARK INTRA:                  -0.928
REMARK UNBOUND:                -1.080
REMARK SMILES CCCCCCCCCCCC(=O)[O-]
REMARK SMILES IDX 7 1 8 2 9 3 10 4 11 5 12 6 13 7 14 8 6 9 5 10 4 11 3 12 2 13
REMARK SMILES IDX 1 14
REMARK H PARENT
REMARK Flexibility Score: inf
ROOT
ATOM      1  C   UNL     1      19.407  27.476  32.591  1.00  0.00     0.000 C 
ENDROOT
BRANCH   1   2
ATOM      2  C   UNL     1      19.256  28.752  33.438  1.00  0.00     0.000 C 
BRANCH   2   3
ATOM      3  C   UNL     1      18.273  28.581  34.612  1.00  0.00     0.000 C 
BRANCH   3   4
ATOM      4  C   UNL     1      17.382  29.802  34.905  1.00  0.00     0.006 C 
BRANCH   4   5
ATOM      5  C   UNL     1      16.541  30.233  33.696  1.00  0.00     0.053 C 
BRANCH   5   6
ATOM      6  C   UNL     1      16.853  31.647  33.321  1.00  0.00     0.041 C 
ATOM      7  O   UNL     1      16.183  32.595  33.808  1.00  0.00    -0.550 OA
ATOM      8  O   UNL     1      17.919  31.922  32.473  1.00  0.00    -0.550 OA
ENDBRANCH   5   6
ENDBRANCH   4   5
ENDBRANCH   3   4
ENDBRANCH   2   3
ENDBRANCH   1   2
BRANCH   1   9
ATOM      9  C   UNL     1      19.140  27.714  31.094  1.00  0.00     0.000 C 
BRANCH   9  10
ATOM     10  C   UNL     1      17.975  28.672  30.778  1.00  0.00    -0.000 C 
BRANCH  10  11
ATOM     11  C   UNL     1      18.286  29.640  29.627  1.00  0.00    -0.000 C 
BRANCH  11  12
ATOM     12  C   UNL     1      18.874  28.889  28.424  1.00  0.00    -0.000 C 
BRANCH  12  13
ATOM     13  C   UNL     1      17.789  28.298  27.509  1.00  0.00    -0.003 C 
ATOM     14  C   UNL     1      18.150  26.907  26.987  1.00  0.00     0.004 C 
ENDBRANCH  12  13
ENDBRANCH  11  12
ENDBRANCH  10  11
ENDBRANCH   9  10
ENDBRANCH   1   9
TORSDOF 10
ENDMDL
MODEL 4
REMARK VINA RESULT:    -4.236      1.236      2.855
REMARK INTER + INTRA:          -7.793
REMARK INTER:                  -6.870
REMARK INTRA:                  -0.923
REMARK UNBOUND:                -1.080
REMARK SMILES CCCCCCCCCCCC(=O)[O-]
REMARK SMILES IDX 7 1 8 2 9 3 10 4 11 5 12 6 13 7 14 8 6 9 5 10 4 11 3 12 2 13
REMARK SMILES IDX 1 14
REMARK H PARENT
REMARK Flexibility Score: inf
ROOT
ATOM      1  C   UNL     1      19.611  28.377  32.375  1.00  0.00     0.000 C 
ENDROOT
BRANCH   1   2
ATOM      2  C   UNL     1      18.850  27.838  31.152  1.00  0.00     0.000 C 
BRANCH   2   3
ATOM      3  C   UNL     1      18.005  28.917  30.447  1.00  0.00     0.000 C 
BRANCH   3   4
ATOM      4  C   UNL     1      18.770  29.794  29.438  1.00  0.00     0.006 C 
BRANCH   4   5
ATOM      5  C   UNL     1      18.248  29.650  28.002  1.00  0.00     0.053 C 
BRANCH   5   6
ATOM      6  C   UNL     1      18.383  28.235  27.537  1.00  0.00     0.041 C 
ATOM      7  O   UNL     1      19.519  27.696  27.469  1.00  0.00    -0.550 OA
ATOM      8  O   UNL     1      17.249  27.494  27.226  1.00  0.00    -0.550 OA
ENDBRANCH   5   6
ENDBRANCH   4   5
ENDBRANCH   3   4
ENDBRANCH   2   3
ENDBRANCH   1   2
BRANCH   1   9
ATOM      9  C   UNL     1      19.563  27.421  33.581  1.00  0.00     0.000 C 
BRANCH   9  10
ATOM     10  C   UNL     1      18.924  28.003  34.856  1.00  0.00    -0.000 C 
BRANCH  10  11
ATOM     11  C   UNL     1      18.575  29.493  34.728  1.00  0.00    -0.000 C 
BRANCH  11  12
ATOM     12  C   UNL     1      17.053  29.699  34.711  1.00  0.00    -0.000 C 
BRANCH  12  13
ATOM     13  C   UNL     1      16.577  30.482  33.477  1.00  0.00    -0.003 C 
ATOM     14  C   UNL     1      16.688  31.995  33.658  1.00  0.00     0.004 C 
ENDBRANCH  12  13
ENDBRANCH  11  12
ENDBRANCH  10  11
ENDBRANCH   9  10
ENDBRANCH   1   9
TORSDOF 10
ENDMDL
MODEL 5
REMARK VINA RESULT:    -4.216      1.820      2.746
REMARK INTER + INTRA:          -7.761
REMARK INTER:                  -6.936
REMARK INTRA:                  -0.825
REMARK UNBOUND:                -1.080
REMARK SMILES CCCCCCCCCCCC(=O)[O-]
REMARK SMILES IDX 7 1 8 2 9 3 10 4 11 5 12 6 13 7 14 8 6 9 5 10 4 11 3 12 2 13
REMARK SMILES IDX 1 14
REMARK H PARENT
REMARK Flexibility Score: inf
ROOT
ATOM      1  C   UNL     1      18.395  30.413  28.886  1.00  0.00     0.000 C 
ENDROOT
BRANCH   1   2
ATOM      2  C   UNL     1      19.204  29.246  28.294  1.00  0.00     0.000 C 
BRANCH   2   3
ATOM      3  C   UNL     1      18.504  28.576  27.096  1.00  0.00     0.000 C 
BRANCH   3   4
ATOM      4  C   UNL     1      17.607  27.375  27.449  1.00  0.00     0.006 C 
BRANCH   4   5
ATOM      5  C   UNL     1      18.132  26.564  28.641  1.00  0.00     0.053 C 
BRANCH   5   6
ATOM      6  C   UNL     1      19.129  25.547  28.182  1.00  0.00     0.041 C 
ATOM      7  O   UNL     1      20.362  25.772  28.296  1.00  0.00    -0.550 OA
ATOM      8  O   UNL     1      18.696  24.328  27.675  1.00  0.00    -0.550 OA
ENDBRANCH   5   6
ENDBRANCH   4   5
ENDBRANCH   3   4
ENDBRANCH   2   3
ENDBRANCH   1   2
BRANCH   1   9
ATOM      9  C   UNL     1      18.411  30.433  30.426  1.00  0.00     0.000 C 
BRANCH   9  10
ATOM     10  C   UNL     1      17.748  29.221  31.106  1.00  0.00    -0.000 C 
BRANCH  10  11
ATOM     11  C   UNL     1      18.643  28.559  32.163  1.00  0.00    -0.000 C 
BRANCH  11  12
ATOM     12  C   UNL     1      18.600  29.342  33.484  1.00  0.00    -0.000 C 
BRANCH  12  13
ATOM     13  C   UNL     1      18.479  28.425  34.711  1.00  0.00    -0.003 C 
ATOM     14  C   UNL     1      19.610  27.400  34.797  1.00  0.00     0.004 C 
ENDBRANCH  12  13
ENDBRANCH  11  12
ENDBRANCH  10  11
ENDBRANCH   9  10
ENDBRANCH   1   9
TORSDOF 10
ENDMDL
MODEL 6
REMARK VINA RESULT:    -4.208      1.745      2.920
REMARK INTER + INTRA:          -7.748
REMARK INTER:                  -6.899
REMARK INTRA:                  -0.850
REMARK UNBOUND:                -1.080
REMARK SMILES CCCCCCCCCCCC(=O)[O-]
REMARK SMILES IDX 7 1 8 2 9 3 10 4 11 5 12 6 13 7 14 8 6 9 5 10 4 11 3 12 2 13
REMARK SMILES IDX 1 14
REMARK H PARENT
REMARK Flexibility Score: inf
ROOT
ATOM      1  C   UNL     1      17.961  28.492  30.391  1.00  0.00     0.000 C 
ENDROOT
BRANCH   1   2
ATOM      2  C   UNL     1      18.449  29.607  29.451  1.00  0.00     0.000 C 
BRANCH   2   3
ATOM      3  C   UNL     1      18.300  29.246  27.961  1.00  0.00     0.000 C 
BRANCH   3   4
ATOM      4  C   UNL     1      17.576  27.917  27.677  1.00  0.00     0.006 C 
BRANCH   4   5
ATOM      5  C   UNL     1      18.456  26.900  26.938  1.00  0.00     0.053 C 
BRANCH   5   6
ATOM      6  C   UNL     1      19.198  26.045  27.915  1.00  0.00     0.041 C 
ATOM      7  O   UNL     1      18.582  25.192  28.607  1.00  0.00    -0.550 OA
ATOM      8  O   UNL     1      20.579  26.152  28.025  1.00  0.00    -0.550 OA
ENDBRANCH   5   6
ENDBRANCH   4   5
ENDBRANCH   3   4
ENDBRANCH   2   3
ENDBRANCH   1   2
BRANCH   1   9
ATOM      9  C   UNL     1      19.102  27.838  31.191  1.00  0.00     0.000 C 
BRANCH   9  10
ATOM     10  C   UNL     1      19.532  28.596  32.461  1.00  0.00    -0.000 C 
BRANCH  10  11
ATOM     11  C   UNL     1      19.307  27.791  33.748  1.00  0.00    -0.000 C 
BRANCH  11  12
ATOM     12  C   UNL     1      18.476  28.595  34.759  1.00  0.00    -0.000 C 
BRANCH  12  13
ATOM     13  C   UNL     1      17.542  29.610  34.082  1.00  0.00    -0.003 C 
ATOM     14  C   UNL     1      16.790  30.482  35.086  1.00  0.00     0.004 C 
ENDBRANCH  12  13
ENDBRANCH  11  12
ENDBRANCH  10  11
ENDBRANCH   9  10
ENDBRANCH   1   9
TORSDOF 10
ENDMDL
MODEL 7
REMARK VINA RESULT:    -4.179      3.694      6.599
REMARK INTER + INTRA:          -7.703
REMARK INTER:                  -7.169
REMARK INTRA:                  -0.533
REMARK UNBOUND:                -1.080
REMARK SMILES CCCCCCCCCCCC(=O)[O-]
REMARK SMILES IDX 7 1 8 2 9 3 10 4 11 5 12 6 13 7 14 8 6 9 5 10 4 11 3 12 2 13
REMARK SMILES IDX 1 14
REMARK H PARENT
REMARK Flexibility Score: inf
ROOT
ATOM      1  C   UNL     1      18.105  28.512  30.601  1.00  0.00     0.000 C 
ENDROOT
BRANCH   1   2
ATOM      2  C   UNL     1      17.853  29.251  31.927  1.00  0.00     0.000 C 
BRANCH   2   3
ATOM      3  C   UNL     1      18.643  28.654  33.107  1.00  0.00     0.000 C 
BRANCH   3   4
ATOM      4  C   UNL     1      17.989  28.828  34.490  1.00  0.00     0.006 C 
BRANCH   4   5
ATOM      5  C   UNL     1      16.840  29.845  34.486  1.00  0.00     0.053 C 
BRANCH   5   6
ATOM      6  C   UNL     1      17.207  31.050  35.291  1.00  0.00     0.041 C 
ATOM      7  O   UNL     1      16.312  31.728  35.862  1.00  0.00    -0.550 OA
ATOM      8  O   UNL     1      18.543  31.397  35.454  1.00  0.00    -0.550 OA
ENDBRANCH   5   6
ENDBRANCH   4   5
ENDBRANCH   3   4
ENDBRANCH   2   3
ENDBRANCH   1   2
BRANCH   1   9
ATOM      9  C   UNL     1      18.296  29.468  29.409  1.00  0.00     0.000 C 
BRANCH   9  10
ATOM     10  C   UNL     1      18.815  28.810  28.117  1.00  0.00    -0.000 C 
BRANCH  10  11
ATOM     11  C   UNL     1      17.727  28.043  27.352  1.00  0.00    -0.000 C 
BRANCH  11  12
ATOM     12  C   UNL     1      18.226  26.650  26.939  1.00  0.00    -0.000 C 
BRANCH  12  13
ATOM     13  C   UNL     1      18.862  25.880  28.107  1.00  0.00    -0.003 C 
ATOM     14  C   UNL     1      18.829  24.366  27.904  1.00  0.00     0.004 C 
ENDBRANCH  12  13
ENDBRANCH  11  12
ENDBRANCH  10  11
ENDBRANCH   9  10
ENDBRANCH   1   9
TORSDOF 10
ENDMDL
MODEL 8
REMARK VINA RESULT:    -4.110      3.686      6.201
REMARK INTER + INTRA:          -7.592
REMARK INTER:                  -6.449
REMARK INTRA:                  -1.143
REMARK UNBOUND:                -1.080
REMARK SMILES CCCCCCCCCCCC(=O)[O-]
REMARK SMILES IDX 7 1 8 2 9 3 10 4 11 5 12 6 13 7 14 8 6 9 5 10 4 11 3 12 2 13
REMARK SMILES IDX 1 14
REMARK H PARENT
REMARK Flexibility Score: inf
ROOT
ATOM      1  C   UNL     1      18.965  29.051  33.597  1.00  0.00     0.000 C 
ENDROOT
BRANCH   1   2
ATOM      2  C   UNL     1      17.953  28.930  34.749  1.00  0.00     0.000 C 
BRANCH   2   3
ATOM      3  C   UNL     1      16.776  29.916  34.620  1.00  0.00     0.000 C 
BRANCH   3   4
ATOM      4  C   UNL     1      16.834  30.851  33.398  1.00  0.00     0.006 C 
BRANCH   4   5
ATOM      5  C   UNL     1      17.325  32.263  33.747  1.00  0.00     0.053 C 
BRANCH   5   6
ATOM      6  C   UNL     1      16.200  33.088  34.287  1.00  0.00     0.041 C 
ATOM      7  O   UNL     1      15.471  33.753  33.505  1.00  0.00    -0.550 OA
ATOM      8  O   UNL     1      15.925  33.083  35.649  1.00  0.00    -0.550 OA
ENDBRANCH   5   6
ENDBRANCH   4   5
ENDBRANCH   3   4
ENDBRANCH   2   3
ENDBRANCH   1   2
BRANCH   1   9
ATOM      9  C   UNL     1      19.237  27.709  32.893  1.00  0.00     0.000 C 
BRANCH   9  10
ATOM     10  C   UNL     1      19.176  27.750  31.355  1.00  0.00    -0.000 C 
BRANCH  10  11
ATOM     11  C   UNL     1      17.948  28.502  30.821  1.00  0.00    -0.000 C 
BRANCH  11  12
ATOM     12  C   UNL     1      18.339  29.441  29.671  1.00  0.00    -0.000 C 
BRANCH  12  13
ATOM     13  C   UNL     1      19.195  30.627  30.142  1.00  0.00    -0.003 C 
ATOM     14  C   UNL     1      18.424  31.948  30.145  1.00  0.00     0.004 C 
ENDBRANCH  12  13
ENDBRANCH  11  12
ENDBRANCH  10  11
ENDBRANCH   9  10
ENDBRANCH   1   9
TORSDOF 10
ENDMDL
MODEL 9
REMARK VINA RESULT:    -4.099      3.135      6.026
REMARK INTER + INTRA:          -7.576
REMARK INTER:                  -6.637
REMARK INTRA:                  -0.939
REMARK UNBOUND:                -1.080
REMARK SMILES CCCCCCCCCCCC(=O)[O-]
REMARK SMILES IDX 7 1 8 2 9 3 10 4 11 5 12 6 13 7 14 8 6 9 5 10 4 11 3 12 2 13
REMARK SMILES IDX 1 14
REMARK H PARENT
REMARK Flexibility Score: inf
ROOT
ATOM      1  C   UNL     1      18.258  29.044  31.069  1.00  0.00     0.000 C 
ENDROOT
BRANCH   1   2
ATOM      2  C   UNL     1      19.190  27.940  31.596  1.00  0.00     0.000 C 
BRANCH   2   3
ATOM      3  C   UNL     1      19.175  27.824  33.133  1.00  0.00     0.000 C 
BRANCH   3   4
ATOM      4  C   UNL     1      18.898  29.137  33.887  1.00  0.00     0.006 C 
BRANCH   4   5
ATOM      5  C   UNL     1      17.656  29.061  34.786  1.00  0.00     0.053 C 
BRANCH   5   6
ATOM      6  C   UNL     1      16.809  30.282  34.610  1.00  0.00     0.041 C 
ATOM      7  O   UNL     1      16.381  30.597  33.469  1.00  0.00    -0.550 OA
ATOM      8  O   UNL     1      16.449  31.043  35.715  1.00  0.00    -0.550 OA
ENDBRANCH   5   6
ENDBRANCH   4   5
ENDBRANCH   3   4
ENDBRANCH   2   3
ENDBRANCH   1   2
BRANCH   1   9
ATOM      9  C   UNL     1      18.997  30.106  30.234  1.00  0.00     0.000 C 
BRANCH   9  10
ATOM     10  C   UNL     1      18.293  30.522  28.929  1.00  0.00    -0.000 C 
BRANCH  10  11
ATOM     11  C   UNL     1      19.172  30.337  27.685  1.00  0.00    -0.000 C 
BRANCH  11  12
ATOM     12  C   UNL     1      19.225  28.860  27.266  1.00  0.00    -0.000 C 
BRANCH  12  13
ATOM     13  C   UNL     1      17.860  28.164  27.380  1.00  0.00    -0.003 C 
ATOM     14  C   UNL     1      17.931  26.846  28.150  1.00  0.00     0.004 C 
ENDBRANCH  12  13
ENDBRANCH  11  12
ENDBRANCH  10  11
ENDBRANCH   9  10
ENDBRANCH   1   9
TORSDOF 10
ENDMDL
