MODEL 1
REMARK VINA RESULT:    -2.644      0.000      0.000
REMARK INTER + INTRA:          -5.173
REMARK INTER:                  -4.035
REMARK INTRA:                  -1.138
REMARK UNBOUND:                -1.138
REMARK SMILES CCCCCCCCCCC(=O)[O-]
REMARK SMILES IDX 7 1 8 2 9 3 10 4 11 5 12 6 13 7 6 8 5 9 4 10 3 11 2 12 1 13
REMARK H PARENT
REMARK Flexibility Score: inf
ROOT
ATOM      1  C   UNL     1      22.283  30.161  49.843  1.00  0.00     0.000 C 
ENDROOT
BRANCH   1   2
ATOM      2  C   UNL     1      22.361  29.834  48.345  1.00  0.00     0.000 C 
BRANCH   2   3
ATOM      3  C   UNL     1      23.822  29.728  47.882  1.00  0.00     0.006 C 
BRANCH   3   4
ATOM      4  C   UNL     1      23.969  29.939  46.368  1.00  0.00     0.053 C 
BRANCH   4   5
ATOM      5  C   UNL     1      24.125  31.389  46.022  1.00  0.00     0.041 C 
ATOM      6  O   UNL     1      25.221  31.975  46.225  1.00  0.00    -0.550 OA
ATOM      7  O   UNL     1      23.050  32.102  45.505  1.00  0.00    -0.550 OA
ENDBRANCH   4   5
ENDBRANCH   3   4
ENDBRANCH   2   3
ENDBRANCH   1   2
BRANCH   1   8
ATOM      8  C   UNL     1      22.370  28.909  50.729  1.00  0.00     0.000 C 
BRANCH   8   9
ATOM      9  C   UNL     1      21.444  27.779  50.252  1.00  0.00    -0.000 C 
BRANCH   9  10
ATOM     10  C   UNL     1      22.237  26.487  50.007  1.00  0.00    -0.000 C 
BRANCH  10  11
ATOM     11  C   UNL     1      23.728  26.632  50.355  1.00  0.00    -0.000 C 
BRANCH  11  12
ATOM     12  C   UNL     1      24.643  26.398  49.145  1.00  0.00    -0.003 C 
ATOM     13  C   UNL     1      23.831  26.049  47.901  1.00  0.00     0.004 C 
ENDBRANCH  11  12
ENDBRANCH  10  11
ENDBRANCH   9  10
ENDBRANCH   8   9
ENDBRANCH   1   8
TORSDOF 9
ENDMDL
MODEL 2
REMARK VINA RESULT:    -2.635      3.256      5.255
REMARK INTER + INTRA:          -5.160
REMARK INTER:                  -4.344
REMARK INTRA:                  -0.816
REMARK UNBOUND:                -1.138
REMARK SMILES CCCCCCCCCCC(=O)[O-]
REMARK SMILES IDX 7 1 8 2 9 3 10 4 11 5 12 6 13 7 6 8 5 9 4 10 3 11 2 12 1 13
REMARK H PARENT
REMARK Flexibility Score: inf
ROOT
ATOM      1  C   UNL     1      21.852  30.913  50.718  1.00  0.00     0.000 C 
ENDROOT
BRANCH   1   2
ATOM      2  C   UNL     1      21.471  29.447  50.969  1.00  0.00     0.000 C 
BRANCH   2   3
ATOM      3  C   UNL     1      22.665  28.517  50.708  1.00  0.00     0.006 C 
BRANCH   3   4
ATOM      4  C   UNL     1      22.232  27.168  50.115  1.00  0.00     0.053 C 
BRANCH   4   5
ATOM      5  C   UNL     1      23.339  26.159  50.162  1.00  0.00     0.041 C 
ATOM      6  O   UNL     1      23.179  25.070  50.773  1.00  0.00    -0.550 OA
ATOM      7  O   UNL     1      24.560  26.436  49.558  1.00  0.00    -0.550 OA
ENDBRANCH   4   5
ENDBRANCH   3   4
ENDBRANCH   2   3
ENDBRANCH   1   2
BRANCH   1   8
ATOM      8  C   UNL     1      20.708  31.725  50.091  1.00  0.00     0.000 C 
BRANCH   8   9
ATOM      9  C   UNL     1      21.108  32.388  48.764  1.00  0.00    -0.000 C 
BRANCH   9  10
ATOM     10  C   UNL     1      21.723  31.361  47.802  1.00  0.00    -0.000 C 
BRANCH  10  11
ATOM     11  C   UNL     1      22.828  31.964  46.920  1.00  0.00    -0.000 C 
BRANCH  11  12
ATOM     12  C   UNL     1      24.070  31.065  46.828  1.00  0.00    -0.003 C 
ATOM     13  C   UNL     1      23.815  29.709  47.481  1.00  0.00     0.004 C 
ENDBRANCH  11  12
ENDBRANCH  10  11
ENDBRANCH   9  10
ENDBRANCH   8   9
ENDBRANCH   1   8
TORSDOF 9
ENDMDL
MODEL 3
REMARK VINA RESULT:    -2.611      2.593      4.878
REMARK INTER + INTRA:          -5.123
REMARK INTER:                  -4.323
REMARK INTRA:                  -0.800
REMARK UNBOUND:                -1.138
REMARK SMILES CCCCCCCCCCC(=O)[O-]
REMARK SMILES IDX 7 1 8 2 9 3 10 4 11 5 12 6 13 7 6 8 5 9 4 10 3 11 2 12 1 13
REMARK H PARENT
REMARK Flexibility Score: inf
ROOT
ATOM      1  C   UNL     1      22.317  28.107  49.516  1.00  0.00     0.000 C 
ENDROOT
BRANCH   1   2
ATOM      2  C   UNL     1      22.606  29.075  50.673  1.00  0.00     0.000 C 
BRANCH   2   3
ATOM      3  C   UNL     1      21.329  29.813  51.104  1.00  0.00     0.006 C 
BRANCH   3   4
ATOM      4  C   UNL     1      21.506  31.337  51.089  1.00  0.00     0.053 C 
BRANCH   4   5
ATOM      5  C   UNL     1      20.804  31.968  49.925  1.00  0.00     0.041 C 
ATOM      6  O   UNL     1      20.191  31.252  49.091  1.00  0.00    -0.550 OA
ATOM      7  O   UNL     1      20.857  33.344  49.742  1.00  0.00    -0.550 OA
ENDBRANCH   4   5
ENDBRANCH   3   4
ENDBRANCH   2   3
ENDBRANCH   1   2
BRANCH   1   8
ATOM      8  C   UNL     1      22.478  28.767  48.137  1.00  0.00     0.000 C 
BRANCH   8   9
ATOM      9  C   UNL     1      23.629  29.783  48.096  1.00  0.00    -0.000 C 
BRANCH   9  10
ATOM     10  C   UNL     1      23.303  30.943  47.143  1.00  0.00    -0.000 C 
BRANCH  10  11
ATOM     11  C   UNL     1      24.514  31.375  46.301  1.00  0.00    -0.000 C 
BRANCH  11  12
ATOM     12  C   UNL     1      24.639  30.580  44.993  1.00  0.00    -0.003 C 
ATOM     13  C   UNL     1      25.795  31.099  44.143  1.00  0.00     0.004 C 
ENDBRANCH  11  12
ENDBRANCH  10  11
ENDBRANCH   9  10
ENDBRANCH   8   9
ENDBRANCH   1   8
TORSDOF 9
ENDMDL
MODEL 4
REMARK VINA RESULT:    -2.611      1.843      2.698
REMARK INTER + INTRA:          -5.122
REMARK INTER:                  -4.228
REMARK INTRA:                  -0.894
REMARK UNBOUND:                -1.138
REMARK SMILES CCCCCCCCCCC(=O)[O-]
REMARK SMILES IDX 7 1 8 2 9 3 10 4 11 5 12 6 13 7 6 8 5 9 4 10 3 11 2 12 1 13
REMARK H PARENT
REMARK Flexibility Score: inf
ROOT
ATOM      1  C   UNL     1      20.787  31.748  48.707  1.00  0.00     0.000 C 
ENDROOT
BRANCH   1   2
ATOM      2  C   UNL     1      21.875  32.332  47.795  1.00  0.00     0.000 C 
BRANCH   2   3
ATOM      3  C   UNL     1      22.712  31.214  47.154  1.00  0.00     0.006 C 
BRANCH   3   4
ATOM      4  C   UNL     1      24.060  31.726  46.628  1.00  0.00     0.053 C 
BRANCH   4   5
ATOM      5  C   UNL     1      24.572  30.884  45.498  1.00  0.00     0.041 C 
ATOM      6  O   UNL     1      24.070  29.752  45.273  1.00  0.00    -0.550 OA
ATOM      7  O   UNL     1      25.627  31.337  44.715  1.00  0.00    -0.550 OA
ENDBRANCH   4   5
ENDBRANCH   3   4
ENDBRANCH   2   3
ENDBRANCH   1   2
BRANCH   1   8
ATOM      8  C   UNL     1      20.852  32.304  50.139  1.00  0.00     0.000 C 
BRANCH   8   9
ATOM      9  C   UNL     1      21.512  31.328  51.125  1.00  0.00    -0.000 C 
BRANCH   9  10
ATOM     10  C   UNL     1      21.308  29.873  50.675  1.00  0.00    -0.000 C 
BRANCH  10  11
ATOM     11  C   UNL     1      22.633  29.108  50.529  1.00  0.00    -0.000 C 
BRANCH  11  12
ATOM     12  C   UNL     1      22.532  27.932  49.546  1.00  0.00    -0.003 C 
ATOM     13  C   UNL     1      23.642  27.993  48.501  1.00  0.00     0.004 C 
ENDBRANCH  11  12
ENDBRANCH  10  11
ENDBRANCH   9  10
ENDBRANCH   8   9
ENDBRANCH   1   8
TORSDOF 9
ENDMDL
MODEL 5
REMARK VINA RESULT:    -2.605      2.476      4.071
REMARK INTER + INTRA:          -5.113
REMARK INTER:                  -4.168
REMARK INTRA:                  -0.945
REMARK UNBOUND:                -1.138
REMARK SMILES CCCCCCCCCCC(=O)[O-]
REMARK SMILES IDX 7 1 8 2 9 3 10 4 11 5 12 6 13 7 6 8 5 9 4 10 3 11 2 12 1 13
REMARK H PARENT
REMARK Flexibility Score: inf
ROOT
ATOM      1  C   UNL     1      21.646  30.964  46.613  1.00  0.00     0.000 C 
ENDROOT
BRANCH   1   2
ATOM      2  C   UNL     1      22.860  30.625  47.490  1.00  0.00     0.000 C 
BRANCH   2   3
ATOM      3  C   UNL     1      24.116  30.414  46.631  1.00  0.00     0.006 C 
BRANCH   3   4
ATOM      4  C   UNL     1      24.823  31.736  46.299  1.00  0.00     0.053 C 
BRANCH   4   5
ATOM      5  C   UNL     1      25.020  31.906  44.823  1.00  0.00     0.041 C 
ATOM      6  O   UNL     1      26.117  31.596  44.290  1.00  0.00    -0.550 OA
ATOM      7  O   UNL     1      24.002  32.439  44.041  1.00  0.00    -0.550 OA
ENDBRANCH   4   5
ENDBRANCH   3   4
ENDBRANCH   2   3
ENDBRANCH   1   2
BRANCH   1   8
ATOM      8  C   UNL     1      20.781  32.087  47.207  1.00  0.00     0.000 C 
BRANCH   8   9
ATOM      9  C   UNL     1      21.429  32.751  48.431  1.00  0.00    -0.000 C 
BRANCH   9  10
ATOM     10  C   UNL     1      20.493  32.693  49.647  1.00  0.00    -0.000 C 
BRANCH  10  11
ATOM     11  C   UNL     1      21.054  31.827  50.786  1.00  0.00    -0.000 C 
BRANCH  11  12
ATOM     12  C   UNL     1      20.758  30.333  50.595  1.00  0.00    -0.003 C 
ATOM     13  C   UNL     1      21.993  29.485  50.889  1.00  0.00     0.004 C 
ENDBRANCH  11  12
ENDBRANCH  10  11
ENDBRANCH   9  10
ENDBRANCH   8   9
ENDBRANCH   1   8
TORSDOF 9
ENDMDL
MODEL 6
REMARK VINA RESULT:    -2.595      1.604      3.384
REMARK INTER + INTRA:          -5.099
REMARK INTER:                  -4.138
REMARK INTRA:                  -0.961
REMARK UNBOUND:                -1.138
REMARK SMILES CCCCCCCCCCC(=O)[O-]
REMARK SMILES IDX 7 1 8 2 9 3 10 4 11 5 12 6 13 7 6 8 5 9 4 10 3 11 2 12 1 13
REMARK H PARENT
REMARK Flexibility Score: inf
ROOT
ATOM      1  C   UNL     1      22.769  28.305  48.233  1.00  0.00     0.000 C 
ENDROOT
BRANCH   1   2
ATOM      2  C   UNL     1      23.789  29.424  47.978  1.00  0.00     0.000 C 
BRANCH   2   3
ATOM      3  C   UNL     1      23.378  30.277  46.769  1.00  0.00     0.006 C 
BRANCH   3   4
ATOM      4  C   UNL     1      24.335  31.455  46.537  1.00  0.00     0.053 C 
BRANCH   4   5
ATOM      5  C   UNL     1      25.095  31.310  45.253  1.00  0.00     0.041 C 
ATOM      6  O   UNL     1      26.027  32.108  44.975  1.00  0.00    -0.550 OA
ATOM      7  O   UNL     1      24.751  30.313  44.349  1.00  0.00    -0.550 OA
ENDBRANCH   4   5
ENDBRANCH   3   4
ENDBRANCH   2   3
ENDBRANCH   1   2
BRANCH   1   8
ATOM      8  C   UNL     1      22.849  27.744  49.661  1.00  0.00     0.000 C 
BRANCH   8   9
ATOM      9  C   UNL     1      22.778  28.841  50.735  1.00  0.00    -0.000 C 
BRANCH   9  10
ATOM     10  C   UNL     1      21.441  29.594  50.661  1.00  0.00    -0.000 C 
BRANCH  10  11
ATOM     11  C   UNL     1      21.595  31.100  50.929  1.00  0.00    -0.000 C 
BRANCH  11  12
ATOM     12  C   UNL     1      20.942  31.964  49.841  1.00  0.00    -0.003 C 
ATOM     13  C   UNL     1      20.357  31.098  48.729  1.00  0.00     0.004 C 
ENDBRANCH  11  12
ENDBRANCH  10  11
ENDBRANCH   9  10
ENDBRANCH   8   9
ENDBRANCH   1   8
TORSDOF 9
ENDMDL
MODEL 7
REMARK VINA RESULT:    -2.571     14.911     16.804
REMARK INTER + INTRA:          -5.062
REMARK INTER:                  -3.850
REMARK INTRA:                  -1.212
REMARK UNBOUND:                -1.138
REMARK SMILES CCCCCCCCCCC(=O)[O-]
REMARK SMILES IDX 7 1 8 2 9 3 10 4 11 5 12 6 13 7 6 8 5 9 4 10 3 11 2 12 1 13
REMARK H PARENT
REMARK Flexibility Score: inf
ROOT
ATOM      1  C   UNL     1      17.000  28.520  31.134  1.00  0.00     0.000 C 
ENDROOT
BRANCH   1   2
ATOM      2  C   UNL     1      18.524  28.701  31.165  1.00  0.00     0.000 C 
BRANCH   2   3
ATOM      3  C   UNL     1      18.934  29.719  32.240  1.00  0.00     0.006 C 
BRANCH   3   4
ATOM      4  C   UNL     1      18.080  30.994  32.189  1.00  0.00     0.053 C 
BRANCH   4   5
ATOM      5  C   UNL     1      18.698  32.109  32.976  1.00  0.00     0.041 C 
ATOM      6  O   UNL     1      18.855  31.996  34.220  1.00  0.00    -0.550 OA
ATOM      7  O   UNL     1      19.070  33.288  32.340  1.00  0.00    -0.550 OA
ENDBRANCH   4   5
ENDBRANCH   3   4
ENDBRANCH   2   3
ENDBRANCH   1   2
BRANCH   1   8
ATOM      8  C   UNL     1      16.574  27.052  31.295  1.00  0.00     0.000 C 
BRANCH   8   9
ATOM      9  C   UNL     1      15.634  26.834  32.490  1.00  0.00    -0.000 C 
BRANCH   9  10
ATOM     10  C   UNL     1      15.601  28.074  33.395  1.00  0.00    -0.000 C 
BRANCH  10  11
ATOM     11  C   UNL     1      16.425  27.892  34.680  1.00  0.00    -0.000 C 
BRANCH  11  12
ATOM     12  C   UNL     1      16.760  29.227  35.362  1.00  0.00    -0.003 C 
ATOM     13  C   UNL     1      15.741  30.302  34.994  1.00  0.00     0.004 C 
ENDBRANCH  11  12
ENDBRANCH  10  11
ENDBRANCH   9  10
ENDBRANCH   8   9
ENDBRANCH   1   8
TORSDOF 9
ENDMDL
MODEL 8
REMARK VINA RESULT:    -2.547      2.757      4.453
REMARK INTER + INTRA:          -5.025
REMARK INTER:                  -3.774
REMARK INTRA:                  -1.251
REMARK UNBOUND:                -1.138
REMARK SMILES CCCCCCCCCCC(=O)[O-]
REMARK SMILES IDX 7 1 8 2 9 3 10 4 11 5 12 6 13 7 6 8 5 9 4 10 3 11 2 12 1 13
REMARK H PARENT
REMARK Flexibility Score: inf
ROOT
ATOM      1  C   UNL     1      20.824  28.981  50.556  1.00  0.00     0.000 C 
ENDROOT
BRANCH   1   2
ATOM      2  C   UNL     1      21.856  29.966  51.125  1.00  0.00     0.000 C 
BRANCH   2   3
ATOM      3  C   UNL     1      21.535  31.405  50.696  1.00  0.00     0.006 C 
BRANCH   3   4
ATOM      4  C   UNL     1      20.293  31.481  49.797  1.00  0.00     0.053 C 
BRANCH   4   5
ATOM      5  C   UNL     1      19.806  32.889  49.639  1.00  0.00     0.041 C 
ATOM      6  O   UNL     1      18.573  33.140  49.670  1.00  0.00    -0.550 OA
ATOM      7  O   UNL     1      20.712  33.920  49.424  1.00  0.00    -0.550 OA
ENDBRANCH   4   5
ENDBRANCH   3   4
ENDBRANCH   2   3
ENDBRANCH   1   2
BRANCH   1   8
ATOM      8  C   UNL     1      21.472  27.835  49.763  1.00  0.00     0.000 C 
BRANCH   8   9
ATOM      9  C   UNL     1      22.999  27.968  49.669  1.00  0.00    -0.000 C 
BRANCH   9  10
ATOM     10  C   UNL     1      23.446  28.147  48.211  1.00  0.00    -0.000 C 
BRANCH  10  11
ATOM     11  C   UNL     1      23.760  29.611  47.864  1.00  0.00    -0.000 C 
BRANCH  11  12
ATOM     12  C   UNL     1      22.639  30.283  47.058  1.00  0.00    -0.003 C 
ATOM     13  C   UNL     1      22.751  31.803  47.123  1.00  0.00     0.004 C 
ENDBRANCH  11  12
ENDBRANCH  10  11
ENDBRANCH   9  10
ENDBRANCH   8   9
ENDBRANCH   1   8
TORSDOF 9
ENDMDL
