MODEL 1
REMARK VINA RESULT:    -2.419      0.000      0.000
REMARK INTER + INTRA:          -2.419
REMARK INTER:                  -2.419
REMARK INTRA:                   0.000
REMARK UNBOUND:                 0.000
REMARK SMILES CC(=O)[O-]
REMARK SMILES IDX 1 1 2 2 3 3 4 4
REMARK H PARENT
REMARK Flexibility Score: inf
ROOT
ATOM      1  C   UNL     1      38.689 -29.837  -0.462  1.00  0.00     0.063 C 
ATOM      2  C   UNL     1      39.783 -29.977   0.543  1.00  0.00     0.038 C 
ATOM      3  O   UNL     1      40.960 -29.646   0.245  1.00  0.00    -0.550 OA
ATOM      4  O   UNL     1      39.496 -30.422   1.826  1.00  0.00    -0.550 OA
ENDROOT
TORSDOF 0
ENDMDL
MODEL 2
REMARK VINA RESULT:    -2.373      1.334      2.182
REMARK INTER + INTRA:          -2.373
REMARK INTER:                  -2.373
REMARK INTRA:                   0.000
REMARK UNBOUND:                 0.000
REMARK SMILES CC(=O)[O-]
REMARK SMILES IDX 1 1 2 2 3 3 4 4
REMARK H PARENT
REMARK Flexibility Score: inf
ROOT
ATOM      1  C   UNL     1      39.719 -30.322   1.937  1.00  0.00     0.063 C 
ATOM      2  C   UNL     1      39.755 -29.998   0.481  1.00  0.00     0.038 C 
ATOM      3  O   UNL     1      38.690 -29.980  -0.189  1.00  0.00    -0.550 OA
ATOM      4  O   UNL     1      40.958 -29.663  -0.126  1.00  0.00    -0.550 OA
ENDROOT
TORSDOF 0
ENDMDL
MODEL 3
REMARK VINA RESULT:    -2.168     15.119     15.602
REMARK INTER + INTRA:          -2.168
REMARK INTER:                  -2.168
REMARK INTRA:                   0.000
REMARK UNBOUND:                 0.000
REMARK SMILES CC(=O)[O-]
REMARK SMILES IDX 1 1 2 2 3 3 4 4
REMARK H PARENT
REMARK Flexibility Score: inf
ROOT
ATOM      1  C   UNL     1      26.936 -37.526  -0.733  1.00  0.00     0.063 C 
ATOM      2  C   UNL     1      27.151 -38.767  -1.533  1.00  0.00     0.038 C 
ATOM      3  O   UNL     1      28.025 -39.602  -1.182  1.00  0.00    -0.550 OA
ATOM      4  O   UNL     1      26.352 -39.029  -2.638  1.00  0.00    -0.550 OA
ENDROOT
TORSDOF 0
ENDMDL
MODEL 4
REMARK VINA RESULT:    -2.150     15.365     15.654
REMARK INTER + INTRA:          -2.150
REMARK INTER:                  -2.150
REMARK INTRA:                   0.000
REMARK UNBOUND:                 0.000
REMARK SMILES CC(=O)[O-]
REMARK SMILES IDX 1 1 2 2 3 3 4 4
REMARK H PARENT
REMARK Flexibility Score: inf
ROOT
ATOM      1  C   UNL     1      26.540 -39.400  -2.987  1.00  0.00     0.063 C 
ATOM      2  C   UNL     1      27.253 -39.047  -1.726  1.00  0.00     0.038 C 
ATOM      3  O   UNL     1      28.112 -39.830  -1.245  1.00  0.00    -0.550 OA
ATOM      4  O   UNL     1      27.010 -37.827  -1.107  1.00  0.00    -0.550 OA
ENDROOT
TORSDOF 0
ENDMDL
MODEL 5
REMARK VINA RESULT:    -2.143     16.734     17.175
REMARK INTER + INTRA:          -2.143
REMARK INTER:                  -2.143
REMARK INTRA:                   0.000
REMARK UNBOUND:                 0.000
REMARK SMILES CC(=O)[O-]
REMARK SMILES IDX 1 1 2 2 3 3 4 4
REMARK H PARENT
REMARK Flexibility Score: inf
ROOT
ATOM      1  C   UNL     1      27.343 -39.557  -2.569  1.00  0.00     0.063 C 
ATOM      2  C   UNL     1      27.020 -40.998  -2.781  1.00  0.00     0.038 C 
ATOM      3  O   UNL     1      26.549 -41.384  -3.882  1.00  0.00    -0.550 OA
ATOM      4  O   UNL     1      27.287 -41.925  -1.782  1.00  0.00    -0.550 OA
ENDROOT
TORSDOF 0
ENDMDL
MODEL 6
REMARK VINA RESULT:    -2.127     15.838     16.342
REMARK INTER + INTRA:          -2.127
REMARK INTER:                  -2.127
REMARK INTRA:                   0.000
REMARK UNBOUND:                 0.000
REMARK SMILES CC(=O)[O-]
REMARK SMILES IDX 1 1 2 2 3 3 4 4
REMARK H PARENT
REMARK Flexibility Score: inf
ROOT
ATOM      1  C   UNL     1      27.024 -39.760  -3.390  1.00  0.00     0.063 C 
ATOM      2  C   UNL     1      27.469 -40.334  -2.087  1.00  0.00     0.038 C 
ATOM      3  O   UNL     1      27.893 -39.577  -1.175  1.00  0.00    -0.550 OA
ATOM      4  O   UNL     1      27.368 -41.700  -1.858  1.00  0.00    -0.550 OA
ENDROOT
TORSDOF 0
ENDMDL
MODEL 7
REMARK VINA RESULT:    -2.118     15.186     15.754
REMARK INTER + INTRA:          -2.118
REMARK INTER:                  -2.118
REMARK INTRA:                   0.000
REMARK UNBOUND:                 0.000
REMARK SMILES CC(=O)[O-]
REMARK SMILES IDX 1 1 2 2 3 3 4 4
REMARK H PARENT
REMARK Flexibility Score: inf
ROOT
ATOM      1  C   UNL     1      29.231 -36.010   9.035  1.00  0.00     0.063 C 
ATOM      2  C   UNL     1      28.953 -35.666  10.459  1.00  0.00     0.038 C 
ATOM      3  O   UNL     1      29.265 -34.532  10.908  1.00  0.00    -0.550 OA
ATOM      4  O   UNL     1      28.299 -36.576  11.280  1.00  0.00    -0.550 OA
ENDROOT
TORSDOF 0
ENDMDL
MODEL 8
REMARK VINA RESULT:    -2.089     14.928     15.120
REMARK INTER + INTRA:          -2.089
REMARK INTER:                  -2.089
REMARK INTRA:                   0.000
REMARK UNBOUND:                 0.000
REMARK SMILES CC(=O)[O-]
REMARK SMILES IDX 1 1 2 2 3 3 4 4
REMARK H PARENT
REMARK Flexibility Score: inf
ROOT
ATOM      1  C   UNL     1      27.158 -38.331  -0.996  1.00  0.00     0.063 C 
ATOM      2  C   UNL     1      26.745 -37.561   0.213  1.00  0.00     0.038 C 
ATOM      3  O   UNL     1      26.492 -36.331   0.122  1.00  0.00    -0.550 OA
ATOM      4  O   UNL     1      26.588 -38.209   1.431  1.00  0.00    -0.550 OA
ENDROOT
TORSDOF 0
ENDMDL
