MODEL 1
REMARK VINA RESULT:    -6.520      0.000      0.000
REMARK INTER + INTRA:          -8.377
REMARK INTER:                  -8.044
REMARK INTRA:                  -0.333
REMARK UNBOUND:                -0.333
REMARK SMILES CCCCC(=O)c1ccccc1
REMARK SMILES IDX 4 1 3 2 2 3 1 4 5 5 6 6 7 7 8 8 12 9 9 10 11 11 10 12
REMARK H PARENT
REMARK Flexibility Score: inf
ROOT
ATOM      1  C   UNL     1     130.440 124.529 126.200  1.00  0.00     0.081 C 
ENDROOT
BRANCH   1   2
ATOM      2  C   UNL     1     131.542 125.561 126.487  1.00  0.00     0.008 C 
BRANCH   2   3
ATOM      3  C   UNL     1     131.654 126.673 125.427  1.00  0.00    -0.003 C 
ATOM      4  C   UNL     1     131.532 126.146 123.998  1.00  0.00     0.004 C 
ENDBRANCH   2   3
ENDBRANCH   1   2
BRANCH   1   5
ATOM      5  C   UNL     1     129.187 124.817 126.987  1.00  0.00     0.162 C 
ATOM      6  O   UNL     1     128.293 125.527 126.449  1.00  0.00    -0.294 OA
BRANCH   5   7
ATOM      7  C   UNL     1     128.933 124.231 128.326  1.00  0.00     0.017 A 
ATOM      8  C   UNL     1     128.434 122.919 128.425  1.00  0.00     0.012 A 
ATOM      9  C   UNL     1     129.167 124.960 129.508  1.00  0.00     0.012 A 
ATOM     10  C   UNL     1     128.197 122.342 129.676  1.00  0.00     0.001 A 
ATOM     11  C   UNL     1     128.927 124.378 130.757  1.00  0.00     0.001 A 
ATOM     12  C   UNL     1     128.446 123.070 130.841  1.00  0.00     0.000 A 
ENDBRANCH   5   7
ENDBRANCH   1   5
TORSDOF 4
ENDMDL
MODEL 2
REMARK VINA RESULT:    -6.399      1.436      5.080
REMARK INTER + INTRA:          -8.228
REMARK INTER:                  -7.861
REMARK INTRA:                  -0.367
REMARK UNBOUND:                -0.333
REMARK SMILES CCCCC(=O)c1ccccc1
REMARK SMILES IDX 4 1 3 2 2 3 1 4 5 5 6 6 7 7 8 8 12 9 9 10 11 11 10 12
REMARK H PARENT
REMARK Flexibility Score: inf
ROOT
ATOM      1  C   UNL     1     128.238 123.772 127.839  1.00  0.00     0.081 C 
ENDROOT
BRANCH   1   2
ATOM      2  C   UNL     1     128.590 123.115 129.183  1.00  0.00     0.008 C 
BRANCH   2   3
ATOM      3  C   UNL     1     128.589 124.088 130.378  1.00  0.00    -0.003 C 
ATOM      4  C   UNL     1     128.524 123.373 131.726  1.00  0.00     0.004 C 
ENDBRANCH   2   3
ENDBRANCH   1   2
BRANCH   1   5
ATOM      5  C   UNL     1     129.443 123.881 126.940  1.00  0.00     0.162 C 
ATOM      6  O   UNL     1     129.784 122.868 126.270  1.00  0.00    -0.294 OA
BRANCH   5   7
ATOM      7  C   UNL     1     130.184 125.152 126.751  1.00  0.00     0.017 A 
ATOM      8  C   UNL     1     130.963 125.335 125.593  1.00  0.00     0.012 A 
ATOM      9  C   UNL     1     130.140 126.183 127.710  1.00  0.00     0.012 A 
ATOM     10  C   UNL     1     131.663 126.529 125.389  1.00  0.00     0.001 A 
ATOM     11  C   UNL     1     130.842 127.373 127.501  1.00  0.00     0.001 A 
ATOM     12  C   UNL     1     131.600 127.548 126.341  1.00  0.00     0.000 A 
ENDBRANCH   5   7
ENDBRANCH   1   5
TORSDOF 4
ENDMDL
MODEL 3
REMARK VINA RESULT:    -6.309      2.328      3.188
REMARK INTER + INTRA:          -8.116
REMARK INTER:                  -7.639
REMARK INTRA:                  -0.478
REMARK UNBOUND:                -0.333
REMARK SMILES CCCCC(=O)c1ccccc1
REMARK SMILES IDX 4 1 3 2 2 3 1 4 5 5 6 6 7 7 8 8 12 9 9 10 11 11 10 12
REMARK H PARENT
REMARK Flexibility Score: inf
ROOT
ATOM      1  C   UNL     1     130.604 126.392 124.103  1.00  0.00     0.081 C 
ENDROOT
BRANCH   1   2
ATOM      2  C   UNL     1     129.401 127.342 124.213  1.00  0.00     0.008 C 
BRANCH   2   3
ATOM      3  C   UNL     1     128.042 126.671 123.937  1.00  0.00    -0.003 C 
ATOM      4  C   UNL     1     127.298 127.299 122.760  1.00  0.00     0.004 C 
ENDBRANCH   2   3
ENDBRANCH   1   2
BRANCH   1   5
ATOM      5  C   UNL     1     131.146 126.018 125.459  1.00  0.00     0.162 C 
ATOM      6  O   UNL     1     132.303 126.412 125.770  1.00  0.00    -0.294 OA
BRANCH   5   7
ATOM      7  C   UNL     1     130.340 125.284 126.465  1.00  0.00     0.017 A 
ATOM      8  C   UNL     1     129.903 123.977 126.183  1.00  0.00     0.012 A 
ATOM      9  C   UNL     1     129.987 125.868 127.697  1.00  0.00     0.012 A 
ATOM     10  C   UNL     1     129.151 123.262 127.120  1.00  0.00     0.001 A 
ATOM     11  C   UNL     1     129.233 125.148 128.630  1.00  0.00     0.001 A 
ATOM     12  C   UNL     1     128.818 123.846 128.343  1.00  0.00     0.000 A 
ENDBRANCH   5   7
ENDBRANCH   1   5
TORSDOF 4
ENDMDL
MODEL 4
REMARK VINA RESULT:    -6.298      1.181      5.454
REMARK INTER + INTRA:          -8.103
REMARK INTER:                  -7.879
REMARK INTRA:                  -0.224
REMARK UNBOUND:                -0.333
REMARK SMILES CCCCC(=O)c1ccccc1
REMARK SMILES IDX 4 1 3 2 2 3 1 4 5 5 6 6 7 7 8 8 12 9 9 10 11 11 10 12
REMARK H PARENT
REMARK Flexibility Score: inf
ROOT
ATOM      1  C   UNL     1     128.954 124.071 128.329  1.00  0.00     0.081 C 
ENDROOT
BRANCH   1   2
ATOM      2  C   UNL     1     128.966 124.374 129.836  1.00  0.00     0.008 C 
BRANCH   2   3
ATOM      3  C   UNL     1     128.411 123.235 130.712  1.00  0.00    -0.003 C 
ATOM      4  C   UNL     1     128.591 123.493 132.207  1.00  0.00     0.004 C 
ENDBRANCH   2   3
ENDBRANCH   1   2
BRANCH   1   5
ATOM      5  C   UNL     1     128.688 125.310 127.513  1.00  0.00     0.162 C 
ATOM      6  O   UNL     1     127.672 126.004 127.794  1.00  0.00    -0.294 OA
BRANCH   5   7
ATOM      7  C   UNL     1     129.616 125.785 126.458  1.00  0.00     0.017 A 
ATOM      8  C   UNL     1     129.096 126.352 125.281  1.00  0.00     0.012 A 
ATOM      9  C   UNL     1     131.013 125.671 126.598  1.00  0.00     0.012 A 
ATOM     10  C   UNL     1     129.952 126.816 124.277  1.00  0.00     0.001 A 
ATOM     11  C   UNL     1     131.865 126.135 125.590  1.00  0.00     0.001 A 
ATOM     12  C   UNL     1     131.336 126.709 124.433  1.00  0.00     0.000 A 
ENDBRANCH   5   7
ENDBRANCH   1   5
TORSDOF 4
ENDMDL
MODEL 5
REMARK VINA RESULT:    -6.282      1.124      2.063
REMARK INTER + INTRA:          -8.083
REMARK INTER:                  -7.587
REMARK INTRA:                  -0.496
REMARK UNBOUND:                -0.333
REMARK SMILES CCCCC(=O)c1ccccc1
REMARK SMILES IDX 4 1 3 2 2 3 1 4 5 5 6 6 7 7 8 8 12 9 9 10 11 11 10 12
REMARK H PARENT
REMARK Flexibility Score: inf
ROOT
ATOM      1  C   UNL     1     130.893 125.233 126.580  1.00  0.00     0.081 C 
ENDROOT
BRANCH   1   2
ATOM      2  C   UNL     1     130.935 126.609 125.898  1.00  0.00     0.008 C 
BRANCH   2   3
ATOM      3  C   UNL     1     130.429 127.765 126.782  1.00  0.00    -0.003 C 
ATOM      4  C   UNL     1     131.328 128.028 127.989  1.00  0.00     0.004 C 
ENDBRANCH   2   3
ENDBRANCH   1   2
BRANCH   1   5
ATOM      5  C   UNL     1     129.484 124.822 126.922  1.00  0.00     0.162 C 
ATOM      6  O   UNL     1     128.604 124.896 126.020  1.00  0.00    -0.294 OA
BRANCH   5   7
ATOM      7  C   UNL     1     129.116 124.257 128.243  1.00  0.00     0.017 A 
ATOM      8  C   UNL     1     129.345 125.013 129.408  1.00  0.00     0.012 A 
ATOM      9  C   UNL     1     128.552 122.972 128.366  1.00  0.00     0.012 A 
ATOM     10  C   UNL     1     128.997 124.505 130.663  1.00  0.00     0.001 A 
ATOM     11  C   UNL     1     128.208 122.469 129.624  1.00  0.00     0.001 A 
ATOM     12  C   UNL     1     128.426 123.235 130.771  1.00  0.00     0.000 A 
ENDBRANCH   5   7
ENDBRANCH   1   5
TORSDOF 4
ENDMDL
MODEL 6
REMARK VINA RESULT:    -6.110      1.589      2.177
REMARK INTER + INTRA:          -7.871
REMARK INTER:                  -7.635
REMARK INTRA:                  -0.236
REMARK UNBOUND:                -0.333
REMARK SMILES CCCCC(=O)c1ccccc1
REMARK SMILES IDX 4 1 3 2 2 3 1 4 5 5 6 6 7 7 8 8 12 9 9 10 11 11 10 12
REMARK H PARENT
REMARK Flexibility Score: inf
ROOT
ATOM      1  C   UNL     1     128.805 125.592 126.534  1.00  0.00     0.081 C 
ENDROOT
BRANCH   1   2
ATOM      2  C   UNL     1     129.833 125.908 125.436  1.00  0.00     0.008 C 
BRANCH   2   3
ATOM      3  C   UNL     1     129.576 127.234 124.696  1.00  0.00    -0.003 C 
ATOM      4  C   UNL     1     128.497 127.116 123.622  1.00  0.00     0.004 C 
ENDBRANCH   2   3
ENDBRANCH   1   2
BRANCH   1   5
ATOM      5  C   UNL     1     129.446 125.529 127.897  1.00  0.00     0.162 C 
ATOM      6  O   UNL     1     130.297 126.411 128.198  1.00  0.00    -0.294 OA
BRANCH   5   7
ATOM      7  C   UNL     1     129.052 124.529 128.919  1.00  0.00     0.017 A 
ATOM      8  C   UNL     1     129.152 124.855 130.284  1.00  0.00     0.012 A 
ATOM      9  C   UNL     1     128.589 123.248 128.558  1.00  0.00     0.012 A 
ATOM     10  C   UNL     1     128.777 123.931 131.264  1.00  0.00     0.001 A 
ATOM     11  C   UNL     1     128.216 122.328 129.543  1.00  0.00     0.001 A 
ATOM     12  C   UNL     1     128.307 122.670 130.894  1.00  0.00     0.000 A 
ENDBRANCH   5   7
ENDBRANCH   1   5
TORSDOF 4
ENDMDL
MODEL 7
REMARK VINA RESULT:    -5.915      3.639      4.733
REMARK INTER + INTRA:          -7.631
REMARK INTER:                  -7.423
REMARK INTRA:                  -0.208
REMARK UNBOUND:                -0.333
REMARK SMILES CCCCC(=O)c1ccccc1
REMARK SMILES IDX 4 1 3 2 2 3 1 4 5 5 6 6 7 7 8 8 12 9 9 10 11 11 10 12
REMARK H PARENT
REMARK Flexibility Score: inf
ROOT
ATOM      1  C   UNL     1     127.730 126.782 123.572  1.00  0.00     0.081 C 
ENDROOT
BRANCH   1   2
ATOM      2  C   UNL     1     127.523 127.886 122.524  1.00  0.00     0.008 C 
BRANCH   2   3
ATOM      3  C   UNL     1     126.090 128.449 122.477  1.00  0.00    -0.003 C 
ATOM      4  C   UNL     1     126.037 129.906 122.021  1.00  0.00     0.004 C 
ENDBRANCH   2   3
ENDBRANCH   1   2
BRANCH   1   5
ATOM      5  C   UNL     1     128.997 126.991 124.361  1.00  0.00     0.162 C 
ATOM      6  O   UNL     1     129.910 127.696 123.849  1.00  0.00    -0.294 OA
BRANCH   5   7
ATOM      7  C   UNL     1     129.172 126.475 125.740  1.00  0.00     0.017 A 
ATOM      8  C   UNL     1     130.280 126.893 126.501  1.00  0.00     0.012 A 
ATOM      9  C   UNL     1     128.262 125.563 126.309  1.00  0.00     0.012 A 
ATOM     10  C   UNL     1     130.460 126.427 127.807  1.00  0.00     0.001 A 
ATOM     11  C   UNL     1     128.448 125.100 127.615  1.00  0.00     0.001 A 
ATOM     12  C   UNL     1     129.543 125.534 128.365  1.00  0.00     0.000 A 
ENDBRANCH   5   7
ENDBRANCH   1   5
TORSDOF 4
ENDMDL
MODEL 8
REMARK VINA RESULT:    -5.714      3.768      5.596
REMARK INTER + INTRA:          -7.383
REMARK INTER:                  -7.164
REMARK INTRA:                  -0.219
REMARK UNBOUND:                -0.333
REMARK SMILES CCCCC(=O)c1ccccc1
REMARK SMILES IDX 4 1 3 2 2 3 1 4 5 5 6 6 7 7 8 8 12 9 9 10 11 11 10 12
REMARK H PARENT
REMARK Flexibility Score: inf
ROOT
ATOM      1  C   UNL     1     128.365 128.260 122.842  1.00  0.00     0.081 C 
ENDROOT
BRANCH   1   2
ATOM      2  C   UNL     1     127.238 128.294 121.798  1.00  0.00     0.008 C 
BRANCH   2   3
ATOM      3  C   UNL     1     126.124 129.312 122.105  1.00  0.00    -0.003 C 
ATOM      4  C   UNL     1     126.494 130.738 121.701  1.00  0.00     0.004 C 
ENDBRANCH   2   3
ENDBRANCH   1   2
BRANCH   1   5
ATOM      5  C   UNL     1     128.254 127.057 123.744  1.00  0.00     0.162 C 
ATOM      6  O   UNL     1     127.202 126.362 123.687  1.00  0.00    -0.294 OA
BRANCH   5   7
ATOM      7  C   UNL     1     129.362 126.617 124.626  1.00  0.00     0.017 A 
ATOM      8  C   UNL     1     129.066 125.977 125.844  1.00  0.00     0.012 A 
ATOM      9  C   UNL     1     130.710 126.835 124.283  1.00  0.00     0.012 A 
ATOM     10  C   UNL     1     130.095 125.545 126.687  1.00  0.00     0.001 A 
ATOM     11  C   UNL     1     131.734 126.402 125.130  1.00  0.00     0.001 A 
ATOM     12  C   UNL     1     131.428 125.754 126.329  1.00  0.00     0.000 A 
ENDBRANCH   5   7
ENDBRANCH   1   5
TORSDOF 4
ENDMDL
MODEL 9
REMARK VINA RESULT:    -5.331      1.703      2.104
REMARK INTER + INTRA:          -6.911
REMARK INTER:                  -6.437
REMARK INTRA:                  -0.474
REMARK UNBOUND:                -0.333
REMARK SMILES CCCCC(=O)c1ccccc1
REMARK SMILES IDX 4 1 3 2 2 3 1 4 5 5 6 6 7 7 8 8 12 9 9 10 11 11 10 12
REMARK H PARENT
REMARK Flexibility Score: inf
ROOT
ATOM      1  C   UNL     1     130.059 125.571 125.507  1.00  0.00     0.081 C 
ENDROOT
BRANCH   1   2
ATOM      2  C   UNL     1     131.502 126.055 125.724  1.00  0.00     0.008 C 
BRANCH   2   3
ATOM      3  C   UNL     1     131.622 127.281 126.648  1.00  0.00    -0.003 C 
ATOM      4  C   UNL     1     130.276 127.941 126.939  1.00  0.00     0.004 C 
ENDBRANCH   2   3
ENDBRANCH   1   2
BRANCH   1   5
ATOM      5  C   UNL     1     129.772 124.308 126.277  1.00  0.00     0.162 C 
ATOM      6  O   UNL     1     130.497 123.298 126.060  1.00  0.00    -0.294 OA
BRANCH   5   7
ATOM      7  C   UNL     1     128.733 124.236 127.333  1.00  0.00     0.017 A 
ATOM      8  C   UNL     1     128.686 123.116 128.184  1.00  0.00     0.012 A 
ATOM      9  C   UNL     1     127.778 125.258 127.501  1.00  0.00     0.012 A 
ATOM     10  C   UNL     1     127.721 123.032 129.193  1.00  0.00     0.001 A 
ATOM     11  C   UNL     1     126.816 125.167 128.511  1.00  0.00     0.001 A 
ATOM     12  C   UNL     1     126.789 124.058 129.358  1.00  0.00     0.000 A 
ENDBRANCH   5   7
ENDBRANCH   1   5
TORSDOF 4
ENDMDL
