MODEL 1
REMARK VINA RESULT:    -0.689      0.000      0.000
REMARK INTER + INTRA:          -1.049
REMARK INTER:                  -0.750
REMARK INTRA:                  -0.299
REMARK UNBOUND:                -0.299
REMARK SMILES C[C@H]1[C@H](C)CC[C@@]2(C(=O)[O-])CC[C@@]3(C)C(=CC[C@@H]4[C@@]5(C)CC[C@H](O)C(C)(C)[C@@H]5CC[C@@]43C)[C@@H]12
REMARK SMILES IDX 7 1 6 2 11 3 33 4 5 5 12 6 15 7 2 8 3 9 13 10 16 11 1 12
REMARK SMILES IDX 4 13 14 14 31 15 17 16 18 17 30 18 32 19 19 20 29 21 28 22
REMARK SMILES IDX 21 23 20 24 25 25 22 26 23 27 26 28 27 29 8 30 9 31 10 32
REMARK SMILES IDX 24 33
REMARK H PARENT 24 34
REMARK Flexibility Score: inf
ROOT
ATOM      1  C   UNL     1      -6.052  39.934   3.159  1.00  0.00     0.017 C 
ATOM      2  C   UNL     1      -6.250  41.400   3.640  1.00  0.00     0.014 C 
ATOM      3  C   UNL     1      -7.397  39.345   2.665  1.00  0.00     0.014 C 
ATOM      4  C   UNL     1      -4.949  39.871   2.015  1.00  0.00     0.030 C 
ATOM      5  C   UNL     1      -4.926  42.028   4.085  1.00  0.00     0.004 C 
ATOM      6  C   UNL     1      -7.718  39.770   1.231  1.00  0.00     0.013 C 
ATOM      7  C   UNL     1      -5.369  39.040   0.763  1.00  0.00    -0.063 C 
ATOM      8  C   UNL     1      -4.179  41.203   1.700  1.00  0.00    -0.003 C 
ATOM      9  C   UNL     1      -3.828  42.029   2.984  1.00  0.00    -0.011 C 
ATOM     10  C   UNL     1      -6.815  39.033   0.162  1.00  0.00    -0.006 C 
ATOM     11  C   UNL     1      -4.480  38.115   0.375  1.00  0.00    -0.027 C 
ATOM     12  C   UNL     1      -4.811  42.096   0.622  1.00  0.00     0.008 C 
ATOM     13  C   UNL     1      -2.479  41.575   3.578  1.00  0.00     0.008 C 
ATOM     14  C   UNL     1      -6.826  39.990  -1.069  1.00  0.00     0.017 C 
ATOM     15  C   UNL     1      -7.331  37.507  -0.298  1.00  0.00    -0.020 C 
ATOM     16  C   UNL     1      -4.899  36.844  -0.267  1.00  0.00     0.032 C 
ATOM     17  C   UNL     1      -6.328  36.386   0.209  1.00  0.00     0.006 C 
ATOM     18  C   UNL     1      -7.428  37.318  -1.891  1.00  0.00     0.008 C 
ATOM     19  C   UNL     1      -8.775  37.300   0.296  1.00  0.00     0.012 C 
ATOM     20  C   UNL     1      -6.681  34.855  -0.217  1.00  0.00    -0.025 C 
ATOM     21  C   UNL     1      -7.193  35.893  -2.487  1.00  0.00     0.005 C 
ATOM     22  C   UNL     1      -7.598  34.812  -1.496  1.00  0.00     0.003 C 
ATOM     23  C   UNL     1      -7.470  34.117   0.909  1.00  0.00     0.010 C 
ATOM     24  C   UNL     1      -5.351  34.053  -0.412  1.00  0.00     0.012 C 
ATOM     25  C   UNL     1      -8.017  33.389  -2.034  1.00  0.00    -0.006 C 
ATOM     26  C   UNL     1      -7.921  32.686   0.512  1.00  0.00     0.033 C 
ATOM     27  C   UNL     1      -8.680  32.605  -0.839  1.00  0.00     0.120 C 
ATOM     28  C   UNL     1      -9.125  33.547  -3.124  1.00  0.00     0.014 C 
ATOM     29  C   UNL     1      -6.854  32.590  -2.692  1.00  0.00     0.014 C 
ENDROOT
BRANCH   1  30
ATOM     30  C   UNL     1      -5.671  39.072   4.371  1.00  0.00     0.048 C 
ATOM     31  O   UNL     1      -4.643  38.337   4.333  1.00  0.00    -0.550 OA
ATOM     32  O   UNL     1      -6.314  39.234   5.593  1.00  0.00    -0.550 OA
ENDBRANCH   1  30
BRANCH  27  33
ATOM     33  O   UNL     1      -8.871  31.257  -1.193  1.00  0.00    -0.393 OA
ATOM     34  H   UNL     1      -9.726  31.209  -1.697  1.00  0.00     0.210 HD
ENDBRANCH  27  33
TORSDOF 2
ENDMDL
MODEL 2
REMARK VINA RESULT:    -0.190      1.436      2.081
REMARK INTER + INTRA:          -0.505
REMARK INTER:                  -0.195
REMARK INTRA:                  -0.311
REMARK UNBOUND:                -0.299
REMARK SMILES C[C@H]1[C@H](C)CC[C@@]2(C(=O)[O-])CC[C@@]3(C)C(=CC[C@@H]4[C@@]5(C)CC[C@H](O)C(C)(C)[C@@H]5CC[C@@]43C)[C@@H]12
REMARK SMILES IDX 7 1 6 2 11 3 33 4 5 5 12 6 15 7 2 8 3 9 13 10 16 11 1 12
REMARK SMILES IDX 4 13 14 14 31 15 17 16 18 17 30 18 32 19 19 20 29 21 28 22
REMARK SMILES IDX 21 23 20 24 25 25 22 26 23 27 26 28 27 29 8 30 9 31 10 32
REMARK SMILES IDX 24 33
REMARK H PARENT 24 34
REMARK Flexibility Score: inf
ROOT
ATOM      1  C   UNL     1      -6.709  39.278   1.273  1.00  0.00     0.017 C 
ATOM      2  C   UNL     1      -6.941  40.815   1.230  1.00  0.00     0.014 C 
ATOM      3  C   UNL     1      -7.995  38.527   0.847  1.00  0.00     0.014 C 
ATOM      4  C   UNL     1      -5.483  38.877   0.342  1.00  0.00     0.030 C 
ATOM      5  C   UNL     1      -5.669  41.585   1.594  1.00  0.00     0.004 C 
ATOM      6  C   UNL     1      -8.145  38.460  -0.674  1.00  0.00     0.013 C 
ATOM      7  C   UNL     1      -5.767  37.676  -0.614  1.00  0.00    -0.063 C 
ATOM      8  C   UNL     1      -4.665  40.055  -0.298  1.00  0.00    -0.003 C 
ATOM      9  C   UNL     1      -4.453  41.259   0.682  1.00  0.00    -0.011 C 
ATOM     10  C   UNL     1      -7.135  37.441  -1.339  1.00  0.00    -0.006 C 
ATOM     11  C   UNL     1      -4.852  36.699  -0.580  1.00  0.00    -0.027 C 
ATOM     12  C   UNL     1      -5.158  40.537  -1.669  1.00  0.00     0.008 C 
ATOM     13  C   UNL     1      -3.187  41.055   1.539  1.00  0.00     0.008 C 
ATOM     14  C   UNL     1      -6.993  37.949  -2.806  1.00  0.00     0.017 C 
ATOM     15  C   UNL     1      -7.615  35.835  -1.337  1.00  0.00    -0.020 C 
ATOM     16  C   UNL     1      -5.211  35.278  -0.821  1.00  0.00     0.032 C 
ATOM     17  C   UNL     1      -6.691  34.963  -0.386  1.00  0.00     0.006 C 
ATOM     18  C   UNL     1      -7.531  35.141  -2.784  1.00  0.00     0.008 C 
ATOM     19  C   UNL     1      -9.119  35.795  -0.874  1.00  0.00     0.012 C 
ATOM     20  C   UNL     1      -7.012  33.368  -0.332  1.00  0.00    -0.025 C 
ATOM     21  C   UNL     1      -7.247  33.607  -2.858  1.00  0.00     0.005 C 
ATOM     22  C   UNL     1      -7.777  32.892  -1.623  1.00  0.00     0.003 C 
ATOM     23  C   UNL     1      -7.935  33.013   0.876  1.00  0.00     0.010 C 
ATOM     24  C   UNL     1      -5.679  32.579  -0.106  1.00  0.00     0.012 C 
ATOM     25  C   UNL     1      -8.150  31.362  -1.716  1.00  0.00    -0.006 C 
ATOM     26  C   UNL     1      -8.355  31.519   0.914  1.00  0.00     0.033 C 
ATOM     27  C   UNL     1      -8.956  30.989  -0.415  1.00  0.00     0.120 C 
ATOM     28  C   UNL     1      -9.124  31.133  -2.916  1.00  0.00     0.014 C 
ATOM     29  C   UNL     1      -6.930  30.423  -1.946  1.00  0.00     0.014 C 
ENDROOT
BRANCH   1  30
ATOM     30  C   UNL     1      -6.480  38.861   2.733  1.00  0.00     0.048 C 
ATOM     31  O   UNL     1      -5.444  38.214   3.056  1.00  0.00    -0.550 OA
ATOM     32  O   UNL     1      -7.286  39.358   3.751  1.00  0.00    -0.550 OA
ENDBRANCH   1  30
BRANCH  27  33
ATOM     33  O   UNL     1      -9.122  29.594  -0.334  1.00  0.00    -0.393 OA
ATOM     34  H   UNL     1     -10.099  29.422  -0.281  1.00  0.00     0.210 HD
ENDBRANCH  27  33
TORSDOF 2
ENDMDL
MODEL 3
REMARK VINA RESULT:     0.374      1.642      2.182
REMARK INTER + INTRA:           0.108
REMARK INTER:                   0.128
REMARK INTRA:                  -0.020
REMARK UNBOUND:                -0.299
REMARK SMILES C[C@H]1[C@H](C)CC[C@@]2(C(=O)[O-])CC[C@@]3(C)C(=CC[C@@H]4[C@@]5(C)CC[C@H](O)C(C)(C)[C@@H]5CC[C@@]43C)[C@@H]12
REMARK SMILES IDX 7 1 6 2 11 3 33 4 5 5 12 6 15 7 2 8 3 9 13 10 16 11 1 12
REMARK SMILES IDX 4 13 14 14 31 15 17 16 18 17 30 18 32 19 19 20 29 21 28 22
REMARK SMILES IDX 21 23 20 24 25 25 22 26 23 27 26 28 27 29 8 30 9 31 10 32
REMARK SMILES IDX 24 33
REMARK H PARENT 24 34
REMARK Flexibility Score: inf
ROOT
ATOM      1  C   UNL     1      -3.571  40.274   2.011  1.00  0.00     0.017 C 
ATOM      2  C   UNL     1      -3.331  41.764   2.388  1.00  0.00     0.014 C 
ATOM      3  C   UNL     1      -5.082  40.012   1.790  1.00  0.00     0.014 C 
ATOM      4  C   UNL     1      -2.732  39.889   0.717  1.00  0.00     0.030 C 
ATOM      5  C   UNL     1      -1.841  42.067   2.560  1.00  0.00     0.004 C 
ATOM      6  C   UNL     1      -5.540  40.436   0.394  1.00  0.00     0.013 C 
ATOM      7  C   UNL     1      -3.548  39.129  -0.375  1.00  0.00    -0.063 C 
ATOM      8  C   UNL     1      -1.738  40.974   0.168  1.00  0.00    -0.003 C 
ATOM      9  C   UNL     1      -0.984  41.747   1.303  1.00  0.00    -0.011 C 
ATOM     10  C   UNL     1      -5.037  39.451  -0.737  1.00  0.00    -0.006 C 
ATOM     11  C   UNL     1      -2.983  37.997  -0.817  1.00  0.00    -0.027 C 
ATOM     12  C   UNL     1      -2.321  41.944  -0.870  1.00  0.00     0.008 C 
ATOM     13  C   UNL     1       0.304  41.003   1.713  1.00  0.00     0.008 C 
ATOM     14  C   UNL     1      -5.039  40.323  -2.029  1.00  0.00     0.017 C 
ATOM     15  C   UNL     1      -5.970  38.079  -0.974  1.00  0.00    -0.020 C 
ATOM     16  C   UNL     1      -3.795  36.840  -1.271  1.00  0.00     0.032 C 
ATOM     17  C   UNL     1      -5.185  36.771  -0.536  1.00  0.00     0.006 C 
ATOM     18  C   UNL     1      -6.386  37.846  -2.508  1.00  0.00     0.008 C 
ATOM     19  C   UNL     1      -7.294  38.263  -0.142  1.00  0.00     0.012 C 
ATOM     20  C   UNL     1      -5.957  35.356  -0.765  1.00  0.00    -0.025 C 
ATOM     21  C   UNL     1      -6.600  36.382  -3.007  1.00  0.00     0.005 C 
ATOM     22  C   UNL     1      -7.068  35.481  -1.873  1.00  0.00     0.003 C 
ATOM     23  C   UNL     1      -6.688  34.888   0.533  1.00  0.00     0.010 C 
ATOM     24  C   UNL     1      -4.908  34.243  -1.097  1.00  0.00     0.012 C 
ATOM     25  C   UNL     1      -7.896  34.181  -2.211  1.00  0.00    -0.006 C 
ATOM     26  C   UNL     1      -7.524  33.596   0.338  1.00  0.00     0.033 C 
ATOM     27  C   UNL     1      -8.506  33.642  -0.863  1.00  0.00     0.120 C 
ATOM     28  C   UNL     1      -9.110  34.557  -3.122  1.00  0.00     0.014 C 
ATOM     29  C   UNL     1      -7.088  33.091  -2.973  1.00  0.00     0.014 C 
ENDROOT
BRANCH   1  30
ATOM     30  C   UNL     1      -3.198  39.402   3.218  1.00  0.00     0.048 C 
ATOM     31  O   UNL     1      -3.136  39.907   4.375  1.00  0.00    -0.550 OA
ATOM     32  O   UNL     1      -3.126  38.018   3.104  1.00  0.00    -0.550 OA
ENDBRANCH   1  30
BRANCH  27  33
ATOM     33  O   UNL     1      -9.066  32.367  -1.062  1.00  0.00    -0.393 OA
ATOM     34  H   UNL     1      -8.885  32.116  -2.006  1.00  0.00     0.210 HD
ENDBRANCH  27  33
TORSDOF 2
ENDMDL
