MODEL 1
REMARK VINA RESULT:    -4.162      0.000      0.000
REMARK INTER + INTRA:         -10.384
REMARK INTER:                  -8.054
REMARK INTRA:                  -2.330
REMARK UNBOUND:                -2.330
REMARK SMILES CCCCCCCCCCCCCCCCCC(=O)[O-]
REMARK SMILES IDX 10 1 11 2 12 3 13 4 14 5 15 6 16 7 17 8 18 9 19 10 20 11
REMARK SMILES IDX 9 12 8 13 7 14 6 15 5 16 4 17 3 18 2 19 1 20
REMARK H PARENT
REMARK Flexibility Score: inf
ROOT
ATOM      1  C   UNL     1     -14.712  -3.644 -33.344  1.00  0.00     0.000 C 
ENDROOT
BRANCH   1   2
ATOM      2  C   UNL     1     -16.004  -3.916 -32.555  1.00  0.00     0.000 C 
BRANCH   2   3
ATOM      3  C   UNL     1     -16.101  -5.372 -32.069  1.00  0.00     0.000 C 
BRANCH   3   4
ATOM      4  C   UNL     1     -14.859  -5.815 -31.272  1.00  0.00     0.000 C 
BRANCH   4   5
ATOM      5  C   UNL     1     -15.017  -7.217 -30.661  1.00  0.00     0.000 C 
BRANCH   5   6
ATOM      6  C   UNL     1     -13.719  -7.726 -30.012  1.00  0.00     0.000 C 
BRANCH   6   7
ATOM      7  C   UNL     1     -12.965  -6.623 -29.241  1.00  0.00     0.006 C 
BRANCH   7   8
ATOM      8  C   UNL     1     -11.484  -6.946 -28.983  1.00  0.00     0.053 C 
BRANCH   8   9
ATOM      9  C   UNL     1     -11.279  -8.334 -28.453  1.00  0.00     0.041 C 
ATOM     10  O   UNL     1     -10.488  -9.125 -29.033  1.00  0.00    -0.550 OA
ATOM     11  O   UNL     1     -11.949  -8.749 -27.308  1.00  0.00    -0.550 OA
ENDBRANCH   8   9
ENDBRANCH   7   8
ENDBRANCH   6   7
ENDBRANCH   5   6
ENDBRANCH   4   5
ENDBRANCH   3   4
ENDBRANCH   2   3
ENDBRANCH   1   2
BRANCH   1  12
ATOM     12  C   UNL     1     -14.746  -2.297 -34.085  1.00  0.00     0.000 C 
BRANCH  12  13
ATOM     13  C   UNL     1     -15.699  -1.282 -33.430  1.00  0.00    -0.000 C 
BRANCH  13  14
ATOM     14  C   UNL     1     -14.976  -0.013 -32.941  1.00  0.00    -0.000 C 
BRANCH  14  15
ATOM     15  C   UNL     1     -14.698   0.033 -31.427  1.00  0.00    -0.000 C 
BRANCH  15  16
ATOM     16  C   UNL     1     -13.535  -0.881 -31.005  1.00  0.00    -0.000 C 
BRANCH  16  17
ATOM     17  C   UNL     1     -13.978  -1.991 -30.036  1.00  0.00    -0.000 C 
BRANCH  17  18
ATOM     18  C   UNL     1     -12.867  -3.021 -29.770  1.00  0.00    -0.000 C 
BRANCH  18  19
ATOM     19  C   UNL     1     -12.029  -3.320 -31.024  1.00  0.00    -0.003 C 
ATOM     20  C   UNL     1     -10.559  -3.593 -30.705  1.00  0.00     0.004 C 
ENDBRANCH  18  19
ENDBRANCH  17  18
ENDBRANCH  16  17
ENDBRANCH  15  16
ENDBRANCH  14  15
ENDBRANCH  13  14
ENDBRANCH  12  13
ENDBRANCH   1  12
TORSDOF 16
ENDMDL
MODEL 2
REMARK VINA RESULT:    -4.128      3.526      7.068
REMARK INTER + INTRA:         -10.319
REMARK INTER:                  -8.807
REMARK INTRA:                  -1.513
REMARK UNBOUND:                -2.330
REMARK SMILES CCCCCCCCCCCCCCCCCC(=O)[O-]
REMARK SMILES IDX 10 1 11 2 12 3 13 4 14 5 15 6 16 7 17 8 18 9 19 10 20 11
REMARK SMILES IDX 9 12 8 13 7 14 6 15 5 16 4 17 3 18 2 19 1 20
REMARK H PARENT
REMARK Flexibility Score: inf
ROOT
ATOM      1  C   UNL     1     -13.740  -7.564 -29.944  1.00  0.00     0.000 C 
ENDROOT
BRANCH   1   2
ATOM      2  C   UNL     1     -15.108  -7.447 -30.638  1.00  0.00     0.000 C 
BRANCH   2   3
ATOM      3  C   UNL     1     -15.662  -6.013 -30.609  1.00  0.00     0.000 C 
BRANCH   3   4
ATOM      4  C   UNL     1     -15.607  -5.327 -31.987  1.00  0.00     0.000 C 
BRANCH   4   5
ATOM      5  C   UNL     1     -14.263  -4.626 -32.246  1.00  0.00     0.000 C 
BRANCH   5   6
ATOM      6  C   UNL     1     -14.307  -3.705 -33.478  1.00  0.00     0.000 C 
BRANCH   6   7
ATOM      7  C   UNL     1     -15.619  -2.899 -33.573  1.00  0.00     0.006 C 
BRANCH   7   8
ATOM      8  C   UNL     1     -15.410  -1.406 -33.880  1.00  0.00     0.053 C 
BRANCH   8   9
ATOM      9  C   UNL     1     -15.251  -0.577 -32.640  1.00  0.00     0.041 C 
ATOM     10  O   UNL     1     -15.605  -1.036 -31.521  1.00  0.00    -0.550 OA
ATOM     11  O   UNL     1     -14.699   0.695 -32.719  1.00  0.00    -0.550 OA
ENDBRANCH   8   9
ENDBRANCH   7   8
ENDBRANCH   6   7
ENDBRANCH   5   6
ENDBRANCH   4   5
ENDBRANCH   3   4
ENDBRANCH   2   3
ENDBRANCH   1   2
BRANCH   1  12
ATOM     12  C   UNL     1     -13.399  -9.011 -29.552  1.00  0.00     0.000 C 
BRANCH  12  13
ATOM     13  C   UNL     1     -12.525  -9.096 -28.289  1.00  0.00    -0.000 C 
BRANCH  13  14
ATOM     14  C   UNL     1     -11.087  -8.596 -28.523  1.00  0.00    -0.000 C 
BRANCH  14  15
ATOM     15  C   UNL     1     -10.720  -7.299 -27.776  1.00  0.00    -0.000 C 
BRANCH  15  16
ATOM     16  C   UNL     1      -9.519  -6.570 -28.401  1.00  0.00    -0.000 C 
BRANCH  16  17
ATOM     17  C   UNL     1      -9.250  -7.010 -29.850  1.00  0.00    -0.000 C 
BRANCH  17  18
ATOM     18  C   UNL     1      -9.571  -5.907 -30.873  1.00  0.00    -0.000 C 
BRANCH  18  19
ATOM     19  C   UNL     1     -10.965  -5.295 -30.659  1.00  0.00    -0.003 C 
ATOM     20  C   UNL     1     -11.010  -3.798 -30.965  1.00  0.00     0.004 C 
ENDBRANCH  18  19
ENDBRANCH  17  18
ENDBRANCH  16  17
ENDBRANCH  15  16
ENDBRANCH  14  15
ENDBRANCH  13  14
ENDBRANCH  12  13
ENDBRANCH   1  12
TORSDOF 16
ENDMDL
MODEL 3
REMARK VINA RESULT:    -4.052     20.676     23.123
REMARK INTER + INTRA:         -10.171
REMARK INTER:                  -7.527
REMARK INTRA:                  -2.645
REMARK UNBOUND:                -2.330
REMARK SMILES CCCCCCCCCCCCCCCCCC(=O)[O-]
REMARK SMILES IDX 10 1 11 2 12 3 13 4 14 5 15 6 16 7 17 8 18 9 19 10 20 11
REMARK SMILES IDX 9 12 8 13 7 14 6 15 5 16 4 17 3 18 2 19 1 20
REMARK H PARENT
REMARK Flexibility Score: inf
ROOT
ATOM      1  C   UNL     1       3.593   9.248 -19.077  1.00  0.00     0.000 C 
ENDROOT
BRANCH   1   2
ATOM      2  C   UNL     1       2.305   9.218 -19.919  1.00  0.00     0.000 C 
BRANCH   2   3
ATOM      3  C   UNL     1       2.362   8.174 -21.046  1.00  0.00     0.000 C 
BRANCH   3   4
ATOM      4  C   UNL     1       3.679   7.375 -21.047  1.00  0.00     0.000 C 
BRANCH   4   5
ATOM      5  C   UNL     1       3.469   5.885 -20.728  1.00  0.00     0.000 C 
BRANCH   5   6
ATOM      6  C   UNL     1       2.314   5.268 -21.537  1.00  0.00     0.000 C 
BRANCH   6   7
ATOM      7  C   UNL     1       1.897   3.878 -21.015  1.00  0.00     0.006 C 
BRANCH   7   8
ATOM      8  C   UNL     1       2.823   3.323 -19.920  1.00  0.00     0.053 C 
BRANCH   8   9
ATOM      9  C   UNL     1       2.381   1.981 -19.414  1.00  0.00     0.041 C 
ATOM     10  O   UNL     1       1.177   1.788 -19.097  1.00  0.00    -0.550 OA
ATOM     11  O   UNL     1       3.296   0.941 -19.308  1.00  0.00    -0.550 OA
ENDBRANCH   8   9
ENDBRANCH   7   8
ENDBRANCH   6   7
ENDBRANCH   5   6
ENDBRANCH   4   5
ENDBRANCH   3   4
ENDBRANCH   2   3
ENDBRANCH   1   2
BRANCH   1  12
ATOM     12  C   UNL     1       3.424  10.037 -17.769  1.00  0.00     0.000 C 
BRANCH  12  13
ATOM     13  C   UNL     1       1.999  10.588 -17.585  1.00  0.00    -0.000 C 
BRANCH  13  14
ATOM     14  C   UNL     1       1.547  10.597 -16.113  1.00  0.00    -0.000 C 
BRANCH  14  15
ATOM     15  C   UNL     1       1.977   9.366 -15.293  1.00  0.00    -0.000 C 
BRANCH  15  16
ATOM     16  C   UNL     1       0.802   8.431 -14.960  1.00  0.00    -0.000 C 
BRANCH  16  17
ATOM     17  C   UNL     1       0.322   7.627 -16.180  1.00  0.00    -0.000 C 
BRANCH  17  18
ATOM     18  C   UNL     1       1.480   6.960 -16.941  1.00  0.00    -0.000 C 
BRANCH  18  19
ATOM     19  C   UNL     1       0.987   6.015 -18.050  1.00  0.00    -0.003 C 
ATOM     20  C   UNL     1      -0.188   6.590 -18.841  1.00  0.00     0.004 C 
ENDBRANCH  18  19
ENDBRANCH  17  18
ENDBRANCH  16  17
ENDBRANCH  15  16
ENDBRANCH  14  15
ENDBRANCH  13  14
ENDBRANCH  12  13
ENDBRANCH   1  12
TORSDOF 16
ENDMDL
MODEL 4
REMARK VINA RESULT:    -4.009      2.492      4.087
REMARK INTER + INTRA:         -10.089
REMARK INTER:                  -7.858
REMARK INTRA:                  -2.231
REMARK UNBOUND:                -2.330
REMARK SMILES CCCCCCCCCCCCCCCCCC(=O)[O-]
REMARK SMILES IDX 10 1 11 2 12 3 13 4 14 5 15 6 16 7 17 8 18 9 19 10 20 11
REMARK SMILES IDX 9 12 8 13 7 14 6 15 5 16 4 17 3 18 2 19 1 20
REMARK H PARENT
REMARK Flexibility Score: inf
ROOT
ATOM      1  C   UNL     1     -15.745  -6.193 -31.481  1.00  0.00     0.000 C 
ENDROOT
BRANCH   1   2
ATOM      2  C   UNL     1     -14.979  -7.234 -30.646  1.00  0.00     0.000 C 
BRANCH   2   3
ATOM      3  C   UNL     1     -13.793  -6.620 -29.884  1.00  0.00     0.000 C 
BRANCH   3   4
ATOM      4  C   UNL     1     -12.842  -7.687 -29.310  1.00  0.00     0.000 C 
BRANCH   4   5
ATOM      5  C   UNL     1     -11.452  -7.121 -28.971  1.00  0.00     0.000 C 
BRANCH   5   6
ATOM      6  C   UNL     1     -11.373  -5.598 -29.171  1.00  0.00     0.000 C 
BRANCH   6   7
ATOM      7  C   UNL     1     -10.963  -5.205 -30.604  1.00  0.00     0.006 C 
BRANCH   7   8
ATOM      8  C   UNL     1     -11.428  -3.799 -31.020  1.00  0.00     0.053 C 
BRANCH   8   9
ATOM      9  C   UNL     1     -10.322  -2.788 -30.978  1.00  0.00     0.041 C 
ATOM     10  O   UNL     1      -9.152  -3.112 -31.316  1.00  0.00    -0.550 OA
ATOM     11  O   UNL     1     -10.586  -1.483 -30.579  1.00  0.00    -0.550 OA
ENDBRANCH   8   9
ENDBRANCH   7   8
ENDBRANCH   6   7
ENDBRANCH   5   6
ENDBRANCH   4   5
ENDBRANCH   3   4
ENDBRANCH   2   3
ENDBRANCH   1   2
BRANCH   1  12
ATOM     12  C   UNL     1     -14.833  -5.073 -32.009  1.00  0.00     0.000 C 
BRANCH  12  13
ATOM     13  C   UNL     1     -15.589  -4.050 -32.876  1.00  0.00    -0.000 C 
BRANCH  13  14
ATOM     14  C   UNL     1     -14.648  -3.070 -33.600  1.00  0.00    -0.000 C 
BRANCH  14  15
ATOM     15  C   UNL     1     -15.153  -1.616 -33.669  1.00  0.00    -0.000 C 
BRANCH  15  16
ATOM     16  C   UNL     1     -15.435  -1.015 -32.282  1.00  0.00    -0.000 C 
BRANCH  16  17
ATOM     17  C   UNL     1     -14.148  -0.640 -31.528  1.00  0.00    -0.000 C 
BRANCH  17  18
ATOM     18  C   UNL     1     -14.068  -1.290 -30.136  1.00  0.00    -0.000 C 
BRANCH  18  19
ATOM     19  C   UNL     1     -15.336  -2.084 -29.784  1.00  0.00    -0.003 C 
ATOM     20  C   UNL     1     -15.056  -3.275 -28.867  1.00  0.00     0.004 C 
ENDBRANCH  18  19
ENDBRANCH  17  18
ENDBRANCH  16  17
ENDBRANCH  15  16
ENDBRANCH  14  15
ENDBRANCH  13  14
ENDBRANCH  12  13
ENDBRANCH   1  12
TORSDOF 16
ENDMDL
MODEL 5
REMARK VINA RESULT:    -4.008      3.194      6.641
REMARK INTER + INTRA:         -10.087
REMARK INTER:                  -8.409
REMARK INTRA:                  -1.677
REMARK UNBOUND:                -2.330
REMARK SMILES CCCCCCCCCCCCCCCCCC(=O)[O-]
REMARK SMILES IDX 10 1 11 2 12 3 13 4 14 5 15 6 16 7 17 8 18 9 19 10 20 11
REMARK SMILES IDX 9 12 8 13 7 14 6 15 5 16 4 17 3 18 2 19 1 20
REMARK H PARENT
REMARK Flexibility Score: inf
ROOT
ATOM      1  C   UNL     1     -15.202  -5.191 -30.203  1.00  0.00     0.000 C 
ENDROOT
BRANCH   1   2
ATOM      2  C   UNL     1     -14.526  -4.021 -30.939  1.00  0.00     0.000 C 
BRANCH   2   3
ATOM      3  C   UNL     1     -13.742  -4.480 -32.179  1.00  0.00     0.000 C 
BRANCH   3   4
ATOM      4  C   UNL     1     -14.318  -3.910 -33.489  1.00  0.00     0.000 C 
BRANCH   4   5
ATOM      5  C   UNL     1     -15.442  -2.889 -33.246  1.00  0.00     0.000 C 
BRANCH   5   6
ATOM      6  C   UNL     1     -15.221  -1.575 -34.015  1.00  0.00     0.000 C 
BRANCH   6   7
ATOM      7  C   UNL     1     -15.133  -0.348 -33.084  1.00  0.00     0.006 C 
BRANCH   7   8
ATOM      8  C   UNL     1     -15.571  -0.632 -31.638  1.00  0.00     0.053 C 
BRANCH   8   9
ATOM      9  C   UNL     1     -14.483  -0.368 -30.641  1.00  0.00     0.041 C 
ATOM     10  O   UNL     1     -14.770  -0.120 -29.439  1.00  0.00    -0.550 OA
ATOM     11  O   UNL     1     -13.151  -0.412 -31.036  1.00  0.00    -0.550 OA
ENDBRANCH   8   9
ENDBRANCH   7   8
ENDBRANCH   6   7
ENDBRANCH   5   6
ENDBRANCH   4   5
ENDBRANCH   3   4
ENDBRANCH   2   3
ENDBRANCH   1   2
BRANCH   1  12
ATOM     12  C   UNL     1     -15.485  -6.385 -31.129  1.00  0.00     0.000 C 
BRANCH  12  13
ATOM     13  C   UNL     1     -14.879  -7.699 -30.606  1.00  0.00    -0.000 C 
BRANCH  13  14
ATOM     14  C   UNL     1     -13.549  -7.488 -29.858  1.00  0.00    -0.000 C 
BRANCH  14  15
ATOM     15  C   UNL     1     -13.037  -8.717 -29.082  1.00  0.00    -0.000 C 
BRANCH  15  16
ATOM     16  C   UNL     1     -11.893  -8.376 -28.112  1.00  0.00    -0.000 C 
BRANCH  16  17
ATOM     17  C   UNL     1     -10.590  -8.008 -28.842  1.00  0.00    -0.000 C 
BRANCH  17  18
ATOM     18  C   UNL     1     -10.162  -6.553 -28.588  1.00  0.00    -0.000 C 
BRANCH  18  19
ATOM     19  C   UNL     1     -10.355  -5.660 -29.825  1.00  0.00    -0.003 C 
ATOM     20  C   UNL     1      -9.385  -5.996 -30.958  1.00  0.00     0.004 C 
ENDBRANCH  18  19
ENDBRANCH  17  18
ENDBRANCH  16  17
ENDBRANCH  15  16
ENDBRANCH  14  15
ENDBRANCH  13  14
ENDBRANCH  12  13
ENDBRANCH   1  12
TORSDOF 16
ENDMDL
MODEL 6
REMARK VINA RESULT:    -3.991     21.547     23.741
REMARK INTER + INTRA:         -10.054
REMARK INTER:                  -7.062
REMARK INTRA:                  -2.992
REMARK UNBOUND:                -2.330
REMARK SMILES CCCCCCCCCCCCCCCCCC(=O)[O-]
REMARK SMILES IDX 10 1 11 2 12 3 13 4 14 5 15 6 16 7 17 8 18 9 19 10 20 11
REMARK SMILES IDX 9 12 8 13 7 14 6 15 5 16 4 17 3 18 2 19 1 20
REMARK H PARENT
REMARK Flexibility Score: inf
ROOT
ATOM      1  C   UNL     1       1.181  10.758 -16.810  1.00  0.00     0.000 C 
ENDROOT
BRANCH   1   2
ATOM      2  C   UNL     1       1.822  10.540 -18.191  1.00  0.00     0.000 C 
BRANCH   2   3
ATOM      3  C   UNL     1       3.308  10.155 -18.096  1.00  0.00     0.000 C 
BRANCH   3   4
ATOM      4  C   UNL     1       3.712   9.093 -19.136  1.00  0.00     0.000 C 
BRANCH   4   5
ATOM      5  C   UNL     1       2.716   8.999 -20.304  1.00  0.00     0.000 C 
BRANCH   5   6
ATOM      6  C   UNL     1       2.920   7.730 -21.150  1.00  0.00     0.000 C 
BRANCH   6   7
ATOM      7  C   UNL     1       2.772   6.434 -20.327  1.00  0.00     0.006 C 
BRANCH   7   8
ATOM      8  C   UNL     1       3.785   5.340 -20.702  1.00  0.00     0.053 C 
BRANCH   8   9
ATOM      9  C   UNL     1       3.260   3.957 -20.456  1.00  0.00     0.041 C 
ATOM     10  O   UNL     1       2.629   3.697 -19.397  1.00  0.00    -0.550 OA
ATOM     11  O   UNL     1       3.455   2.959 -21.403  1.00  0.00    -0.550 OA
ENDBRANCH   8   9
ENDBRANCH   7   8
ENDBRANCH   6   7
ENDBRANCH   5   6
ENDBRANCH   4   5
ENDBRANCH   3   4
ENDBRANCH   2   3
ENDBRANCH   1   2
BRANCH   1  12
ATOM     12  C   UNL     1       1.973  10.083 -15.678  1.00  0.00     0.000 C 
BRANCH  12  13
ATOM     13  C   UNL     1       1.227   8.886 -15.062  1.00  0.00    -0.000 C 
BRANCH  13  14
ATOM     14  C   UNL     1       1.845   7.531 -15.454  1.00  0.00    -0.000 C 
BRANCH  14  15
ATOM     15  C   UNL     1       1.508   7.049 -16.877  1.00  0.00    -0.000 C 
BRANCH  15  16
ATOM     16  C   UNL     1       0.002   7.109 -17.186  1.00  0.00    -0.000 C 
BRANCH  16  17
ATOM     17  C   UNL     1      -0.290   7.628 -18.605  1.00  0.00    -0.000 C 
BRANCH  17  18
ATOM     18  C   UNL     1      -1.431   8.659 -18.633  1.00  0.00    -0.000 C 
BRANCH  18  19
ATOM     19  C   UNL     1      -2.274   8.638 -17.348  1.00  0.00    -0.003 C 
ATOM     20  C   UNL     1      -2.286   9.984 -16.623  1.00  0.00     0.004 C 
ENDBRANCH  18  19
ENDBRANCH  17  18
ENDBRANCH  16  17
ENDBRANCH  15  16
ENDBRANCH  14  15
ENDBRANCH  13  14
ENDBRANCH  12  13
ENDBRANCH   1  12
TORSDOF 16
ENDMDL
MODEL 7
REMARK VINA RESULT:    -3.987     21.278     23.879
REMARK INTER + INTRA:         -10.046
REMARK INTER:                  -7.748
REMARK INTRA:                  -2.298
REMARK UNBOUND:                -2.330
REMARK SMILES CCCCCCCCCCCCCCCCCC(=O)[O-]
REMARK SMILES IDX 10 1 11 2 12 3 13 4 14 5 15 6 16 7 17 8 18 9 19 10 20 11
REMARK SMILES IDX 9 12 8 13 7 14 6 15 5 16 4 17 3 18 2 19 1 20
REMARK H PARENT
REMARK Flexibility Score: inf
ROOT
ATOM      1  C   UNL     1       2.091  10.439 -18.280  1.00  0.00     0.000 C 
ENDROOT
BRANCH   1   2
ATOM      2  C   UNL     1       1.468  10.754 -16.909  1.00  0.00     0.000 C 
BRANCH   2   3
ATOM      3  C   UNL     1       2.177  10.020 -15.759  1.00  0.00     0.000 C 
BRANCH   3   4
ATOM      4  C   UNL     1       1.201   9.218 -14.877  1.00  0.00     0.000 C 
BRANCH   4   5
ATOM      5  C   UNL     1       1.412   7.699 -14.991  1.00  0.00     0.000 C 
BRANCH   5   6
ATOM      6  C   UNL     1       1.883   7.274 -16.392  1.00  0.00     0.000 C 
BRANCH   6   7
ATOM      7  C   UNL     1       0.752   6.660 -17.241  1.00  0.00     0.006 C 
BRANCH   7   8
ATOM      8  C   UNL     1      -0.036   7.692 -18.065  1.00  0.00     0.053 C 
BRANCH   8   9
ATOM      9  C   UNL     1      -1.325   8.092 -17.410  1.00  0.00     0.041 C 
ATOM     10  O   UNL     1      -1.931   9.131 -17.786  1.00  0.00    -0.550 OA
ATOM     11  O   UNL     1      -1.864   7.310 -16.396  1.00  0.00    -0.550 OA
ENDBRANCH   8   9
ENDBRANCH   7   8
ENDBRANCH   6   7
ENDBRANCH   5   6
ENDBRANCH   4   5
ENDBRANCH   3   4
ENDBRANCH   2   3
ENDBRANCH   1   2
BRANCH   1  12
ATOM     12  C   UNL     1       3.562  10.004 -18.175  1.00  0.00     0.000 C 
BRANCH  12  13
ATOM     13  C   UNL     1       4.054   9.260 -19.429  1.00  0.00    -0.000 C 
BRANCH  13  14
ATOM     14  C   UNL     1       2.901   8.695 -20.279  1.00  0.00    -0.000 C 
BRANCH  14  15
ATOM     15  C   UNL     1       2.766   7.161 -20.255  1.00  0.00    -0.000 C 
BRANCH  15  16
ATOM     16  C   UNL     1       3.717   6.462 -21.242  1.00  0.00    -0.000 C 
BRANCH  16  17
ATOM     17  C   UNL     1       3.890   4.965 -20.934  1.00  0.00    -0.000 C 
BRANCH  17  18
ATOM     18  C   UNL     1       3.076   4.515 -19.709  1.00  0.00    -0.000 C 
BRANCH  18  19
ATOM     19  C   UNL     1       2.151   3.328 -20.023  1.00  0.00    -0.003 C 
ATOM     20  C   UNL     1       2.899   1.997 -20.104  1.00  0.00     0.004 C 
ENDBRANCH  18  19
ENDBRANCH  17  18
ENDBRANCH  16  17
ENDBRANCH  15  16
ENDBRANCH  14  15
ENDBRANCH  13  14
ENDBRANCH  12  13
ENDBRANCH   1  12
TORSDOF 16
ENDMDL
MODEL 8
REMARK VINA RESULT:    -3.973      1.615      2.438
REMARK INTER + INTRA:         -10.019
REMARK INTER:                  -7.832
REMARK INTRA:                  -2.187
REMARK UNBOUND:                -2.330
REMARK SMILES CCCCCCCCCCCCCCCCCC(=O)[O-]
REMARK SMILES IDX 10 1 11 2 12 3 13 4 14 5 15 6 16 7 17 8 18 9 19 10 20 11
REMARK SMILES IDX 9 12 8 13 7 14 6 15 5 16 4 17 3 18 2 19 1 20
REMARK H PARENT
REMARK Flexibility Score: inf
ROOT
ATOM      1  C   UNL     1     -14.708  -5.081 -31.954  1.00  0.00     0.000 C 
ENDROOT
BRANCH   1   2
ATOM      2  C   UNL     1     -15.621  -5.805 -30.950  1.00  0.00     0.000 C 
BRANCH   2   3
ATOM      3  C   UNL     1     -15.211  -7.271 -30.732  1.00  0.00     0.000 C 
BRANCH   3   4
ATOM      4  C   UNL     1     -13.857  -7.406 -30.010  1.00  0.00     0.000 C 
BRANCH   4   5
ATOM      5  C   UNL     1     -13.528  -8.861 -29.637  1.00  0.00     0.000 C 
BRANCH   5   6
ATOM      6  C   UNL     1     -12.293  -8.971 -28.725  1.00  0.00     0.000 C 
BRANCH   6   7
ATOM      7  C   UNL     1     -11.630  -7.605 -28.454  1.00  0.00     0.006 C 
BRANCH   7   8
ATOM      8  C   UNL     1     -10.234  -7.457 -29.081  1.00  0.00     0.053 C 
BRANCH   8   9
ATOM      9  C   UNL     1      -9.955  -6.060 -29.548  1.00  0.00     0.041 C 
ATOM     10  O   UNL     1      -9.645  -5.163 -28.719  1.00  0.00    -0.550 OA
ATOM     11  O   UNL     1     -10.022  -5.752 -30.902  1.00  0.00    -0.550 OA
ENDBRANCH   8   9
ENDBRANCH   7   8
ENDBRANCH   6   7
ENDBRANCH   5   6
ENDBRANCH   4   5
ENDBRANCH   3   4
ENDBRANCH   2   3
ENDBRANCH   1   2
BRANCH   1  12
ATOM     12  C   UNL     1     -15.498  -4.251 -32.979  1.00  0.00     0.000 C 
BRANCH  12  13
ATOM     13  C   UNL     1     -14.661  -3.116 -33.596  1.00  0.00    -0.000 C 
BRANCH  13  14
ATOM     14  C   UNL     1     -15.367  -1.749 -33.530  1.00  0.00    -0.000 C 
BRANCH  14  15
ATOM     15  C   UNL     1     -14.946  -0.857 -32.346  1.00  0.00    -0.000 C 
BRANCH  15  16
ATOM     16  C   UNL     1     -15.519  -1.339 -31.003  1.00  0.00    -0.000 C 
BRANCH  16  17
ATOM     17  C   UNL     1     -14.420  -1.696 -29.987  1.00  0.00    -0.000 C 
BRANCH  17  18
ATOM     18  C   UNL     1     -13.020  -1.739 -30.622  1.00  0.00    -0.000 C 
BRANCH  18  19
ATOM     19  C   UNL     1     -12.272  -3.045 -30.307  1.00  0.00    -0.003 C 
ATOM     20  C   UNL     1     -12.853  -3.787 -29.103  1.00  0.00     0.004 C 
ENDBRANCH  18  19
ENDBRANCH  17  18
ENDBRANCH  16  17
ENDBRANCH  15  16
ENDBRANCH  14  15
ENDBRANCH  13  14
ENDBRANCH  12  13
ENDBRANCH   1  12
TORSDOF 16
ENDMDL
MODEL 9
REMARK VINA RESULT:    -3.838     21.257     23.706
REMARK INTER + INTRA:          -9.759
REMARK INTER:                  -6.736
REMARK INTRA:                  -3.023
REMARK UNBOUND:                -2.330
REMARK SMILES CCCCCCCCCCCCCCCCCC(=O)[O-]
REMARK SMILES IDX 10 1 11 2 12 3 13 4 14 5 15 6 16 7 17 8 18 9 19 10 20 11
REMARK SMILES IDX 9 12 8 13 7 14 6 15 5 16 4 17 3 18 2 19 1 20
REMARK H PARENT
REMARK Flexibility Score: inf
ROOT
ATOM      1  C   UNL     1       0.650   7.761 -15.745  1.00  0.00     0.000 C 
ENDROOT
BRANCH   1   2
ATOM      2  C   UNL     1       1.880   7.171 -16.456  1.00  0.00     0.000 C 
BRANCH   2   3
ATOM      3  C   UNL     1       1.535   6.566 -17.826  1.00  0.00     0.000 C 
BRANCH   3   4
ATOM      4  C   UNL     1       0.051   6.169 -17.942  1.00  0.00     0.000 C 
BRANCH   4   5
ATOM      5  C   UNL     1      -0.637   6.797 -19.166  1.00  0.00     0.000 C 
BRANCH   5   6
ATOM      6  C   UNL     1      -0.720   8.330 -19.072  1.00  0.00     0.000 C 
BRANCH   6   7
ATOM      7  C   UNL     1      -2.127   8.828 -18.684  1.00  0.00     0.006 C 
BRANCH   7   8
ATOM      8  C   UNL     1      -2.266   9.201 -17.199  1.00  0.00     0.053 C 
BRANCH   8   9
ATOM      9  C   UNL     1      -3.210   8.297 -16.462  1.00  0.00     0.041 C 
ATOM     10  O   UNL     1      -4.405   8.648 -16.272  1.00  0.00    -0.550 OA
ATOM     11  O   UNL     1      -2.773   7.062 -15.999  1.00  0.00    -0.550 OA
ENDBRANCH   8   9
ENDBRANCH   7   8
ENDBRANCH   6   7
ENDBRANCH   5   6
ENDBRANCH   4   5
ENDBRANCH   3   4
ENDBRANCH   2   3
ENDBRANCH   1   2
BRANCH   1  12
ATOM     12  C   UNL     1       0.999   8.980 -14.875  1.00  0.00     0.000 C 
BRANCH  12  13
ATOM     13  C   UNL     1       1.879  10.005 -15.612  1.00  0.00    -0.000 C 
BRANCH  13  14
ATOM     14  C   UNL     1       1.168  10.645 -16.818  1.00  0.00    -0.000 C 
BRANCH  14  15
ATOM     15  C   UNL     1       1.931  10.544 -18.153  1.00  0.00    -0.000 C 
BRANCH  15  16
ATOM     16  C   UNL     1       3.387  10.083 -17.974  1.00  0.00    -0.000 C 
BRANCH  16  17
ATOM     17  C   UNL     1       3.933   9.357 -19.216  1.00  0.00    -0.000 C 
BRANCH  17  18
ATOM     18  C   UNL     1       2.829   9.005 -20.228  1.00  0.00    -0.000 C 
BRANCH  18  19
ATOM     19  C   UNL     1       3.358   8.179 -21.411  1.00  0.00    -0.003 C 
ATOM     20  C   UNL     1       3.145   6.676 -21.227  1.00  0.00     0.004 C 
ENDBRANCH  18  19
ENDBRANCH  17  18
ENDBRANCH  16  17
ENDBRANCH  15  16
ENDBRANCH  14  15
ENDBRANCH  13  14
ENDBRANCH  12  13
ENDBRANCH   1  12
TORSDOF 16
ENDMDL
