MODEL 1
REMARK VINA RESULT:    -7.336      0.000      0.000
REMARK INTER + INTRA:          -8.889
REMARK INTER:                  -8.623
REMARK INTRA:                  -0.266
REMARK UNBOUND:                -0.266
REMARK SMILES O=c1cc(-c2ccc(O)c(O)c2)oc2cc(O)cc(O)c12
REMARK SMILES IDX 4 1 3 2 2 3 1 4 21 5 19 6 18 7 16 8 15 9 14 10 13 11 5 12
REMARK SMILES IDX 6 13 7 14 8 15 12 16 10 17 9 18 11 20 20 22 17 24
REMARK H PARENT 9 19 11 21 20 23 17 25
REMARK Flexibility Score: inf
ROOT
ATOM      1  C   UNL     1      31.252 -92.215  37.199  1.00  0.00     0.138 A 
ATOM      2  C   UNL     1      30.013 -92.803  36.908  1.00  0.00     0.100 A 
ATOM      3  C   UNL     1      29.842 -94.177  37.080  1.00  0.00     0.197 A 
ATOM      4  O   UNL     1      28.736 -94.681  36.758  1.00  0.00    -0.289 OA
ATOM      5  C   UNL     1      30.908 -94.961  37.582  1.00  0.00     0.107 A 
ATOM      6  C   UNL     1      30.838 -96.366  37.831  1.00  0.00     0.134 A 
ATOM      7  C   UNL     1      31.991 -97.052  38.235  1.00  0.00     0.093 A 
ATOM      8  C   UNL     1      33.192 -96.379  38.454  1.00  0.00     0.123 A 
ATOM      9  C   UNL     1      33.258 -94.998  38.263  1.00  0.00     0.094 A 
ATOM     10  C   UNL     1      32.136 -94.291  37.827  1.00  0.00     0.146 A 
ATOM     11  O   UNL     1      32.247 -92.980  37.639  1.00  0.00    -0.456 OA
ENDROOT
BRANCH   1  12
ATOM     12  C   UNL     1      31.488 -90.759  37.037  1.00  0.00     0.021 A 
ATOM     13  C   UNL     1      32.434 -90.259  36.122  1.00  0.00     0.016 A 
ATOM     14  C   UNL     1      32.642 -88.883  35.998  1.00  0.00     0.051 A 
ATOM     15  C   UNL     1      31.917 -87.984  36.790  1.00  0.00     0.157 A 
ATOM     16  C   UNL     1      30.775 -89.849  37.839  1.00  0.00     0.062 A 
ATOM     17  C   UNL     1      30.981 -88.470  37.716  1.00  0.00     0.158 A 
BRANCH  15  18
ATOM     18  O   UNL     1      32.127 -86.611  36.663  1.00  0.00    -0.504 OA
ATOM     19  H   UNL     1      31.971 -86.130  35.786  1.00  0.00     0.293 HD
ENDBRANCH  15  18
BRANCH  17  20
ATOM     20  O   UNL     1      30.245 -87.602  38.522  1.00  0.00    -0.504 OA
ATOM     21  H   UNL     1      30.284 -87.644  39.533  1.00  0.00     0.293 HD
ENDBRANCH  17  20
ENDBRANCH   1  12
BRANCH   6  22
ATOM     22  O   UNL     1      29.670 -97.125  37.721  1.00  0.00    -0.507 OA
ATOM     23  H   UNL     1      29.408 -97.878  38.338  1.00  0.00     0.293 HD
ENDBRANCH   6  22
BRANCH   8  24
ATOM     24  O   UNL     1      34.313 -97.093  38.871  1.00  0.00    -0.508 OA
ATOM     25  H   UNL     1      34.475 -98.048  38.574  1.00  0.00     0.293 HD
ENDBRANCH   8  24
TORSDOF 5
ENDMDL
MODEL 2
REMARK VINA RESULT:    -6.235      1.305      2.763
REMARK INTER + INTRA:          -7.595
REMARK INTER:                  -7.303
REMARK INTRA:                  -0.291
REMARK UNBOUND:                -0.266
REMARK SMILES O=c1cc(-c2ccc(O)c(O)c2)oc2cc(O)cc(O)c12
REMARK SMILES IDX 4 1 3 2 2 3 1 4 21 5 19 6 18 7 16 8 15 9 14 10 13 11 5 12
REMARK SMILES IDX 6 13 7 14 8 15 12 16 10 17 9 18 11 20 20 22 17 24
REMARK H PARENT 9 19 11 21 20 23 17 25
REMARK Flexibility Score: inf
ROOT
ATOM      1  C   UNL     1      31.384 -92.016  37.170  1.00  0.00     0.138 A 
ATOM      2  C   UNL     1      32.500 -92.760  37.579  1.00  0.00     0.100 A 
ATOM      3  C   UNL     1      32.384 -94.140  37.752  1.00  0.00     0.197 A 
ATOM      4  O   UNL     1      33.387 -94.770  38.173  1.00  0.00    -0.289 OA
ATOM      5  C   UNL     1      31.153 -94.782  37.479  1.00  0.00     0.107 A 
ATOM      6  C   UNL     1      30.927 -96.189  37.588  1.00  0.00     0.134 A 
ATOM      7  C   UNL     1      29.637 -96.697  37.387  1.00  0.00     0.093 A 
ATOM      8  C   UNL     1      28.581 -95.862  37.025  1.00  0.00     0.123 A 
ATOM      9  C   UNL     1      28.801 -94.493  36.867  1.00  0.00     0.094 A 
ATOM     10  C   UNL     1      30.068 -93.951  37.094  1.00  0.00     0.146 A 
ATOM     11  O   UNL     1      30.231 -92.640  36.950  1.00  0.00    -0.456 OA
ENDROOT
BRANCH   1  12
ATOM     12  C   UNL     1      31.452 -90.547  36.967  1.00  0.00     0.021 A 
ATOM     13  C   UNL     1      32.511 -89.944  36.262  1.00  0.00     0.016 A 
ATOM     14  C   UNL     1      32.552 -88.557  36.095  1.00  0.00     0.051 A 
ATOM     15  C   UNL     1      31.544 -87.749  36.635  1.00  0.00     0.157 A 
ATOM     16  C   UNL     1      30.450 -89.726  37.517  1.00  0.00     0.062 A 
ATOM     17  C   UNL     1      30.490 -88.337  37.351  1.00  0.00     0.158 A 
BRANCH  15  18
ATOM     18  O   UNL     1      31.589 -86.366  36.464  1.00  0.00    -0.504 OA
ATOM     19  H   UNL     1      32.053 -85.764  37.134  1.00  0.00     0.293 HD
ENDBRANCH  15  18
BRANCH  17  20
ATOM     20  O   UNL     1      29.472 -87.560  37.903  1.00  0.00    -0.504 OA
ATOM     21  H   UNL     1      29.599 -86.577  38.112  1.00  0.00     0.293 HD
ENDBRANCH  17  20
ENDBRANCH   1  12
BRANCH   6  22
ATOM     22  O   UNL     1      31.927 -97.125  37.866  1.00  0.00    -0.507 OA
ATOM     23  H   UNL     1      32.831 -96.909  38.256  1.00  0.00     0.293 HD
ENDBRANCH   6  22
BRANCH   8  24
ATOM     24  O   UNL     1      27.315 -96.406  36.818  1.00  0.00    -0.508 OA
ATOM     25  H   UNL     1      27.119 -97.382  37.009  1.00  0.00     0.293 HD
ENDBRANCH   8  24
TORSDOF 5
ENDMDL
MODEL 3
REMARK VINA RESULT:    -5.695      8.872     11.039
REMARK INTER + INTRA:          -6.960
REMARK INTER:                  -6.643
REMARK INTRA:                  -0.317
REMARK UNBOUND:                -0.266
REMARK SMILES O=c1cc(-c2ccc(O)c(O)c2)oc2cc(O)cc(O)c12
REMARK SMILES IDX 4 1 3 2 2 3 1 4 21 5 19 6 18 7 16 8 15 9 14 10 13 11 5 12
REMARK SMILES IDX 6 13 7 14 8 15 12 16 10 17 9 18 11 20 20 22 17 24
REMARK H PARENT 9 19 11 21 20 23 17 25
REMARK Flexibility Score: inf
ROOT
ATOM      1  C   UNL     1      40.846 -95.271  35.394  1.00  0.00     0.138 A 
ATOM      2  C   UNL     1      41.968 -95.495  34.584  1.00  0.00     0.100 A 
ATOM      3  C   UNL     1      41.819 -95.549  33.197  1.00  0.00     0.197 A 
ATOM      4  O   UNL     1      42.835 -95.807  32.502  1.00  0.00    -0.289 OA
ATOM      5  C   UNL     1      40.544 -95.342  32.618  1.00  0.00     0.107 A 
ATOM      6  C   UNL     1      40.279 -95.340  31.214  1.00  0.00     0.134 A 
ATOM      7  C   UNL     1      38.958 -95.222  30.764  1.00  0.00     0.093 A 
ATOM      8  C   UNL     1      37.903 -95.047  31.658  1.00  0.00     0.123 A 
ATOM      9  C   UNL     1      38.157 -94.996  33.029  1.00  0.00     0.094 A 
ATOM     10  C   UNL     1      39.459 -95.146  33.512  1.00  0.00     0.146 A 
ATOM     11  O   UNL     1      39.655 -95.110  34.826  1.00  0.00    -0.456 OA
ENDROOT
BRANCH   1  12
ATOM     12  C   UNL     1      40.947 -95.200  36.873  1.00  0.00     0.021 A 
ATOM     13  C   UNL     1      42.126 -95.561  37.553  1.00  0.00     0.016 A 
ATOM     14  C   UNL     1      42.189 -95.494  38.948  1.00  0.00     0.051 A 
ATOM     15  C   UNL     1      41.075 -95.074  39.686  1.00  0.00     0.157 A 
ATOM     16  C   UNL     1      39.830 -94.793  37.624  1.00  0.00     0.062 A 
ATOM     17  C   UNL     1      39.890 -94.725  39.021  1.00  0.00     0.158 A 
BRANCH  15  18
ATOM     18  O   UNL     1      41.142 -95.008  41.077  1.00  0.00    -0.504 OA
ATOM     19  H   UNL     1      40.992 -95.826  41.656  1.00  0.00     0.293 HD
ENDBRANCH  15  18
BRANCH  17  20
ATOM     20  O   UNL     1      38.763 -94.306  39.727  1.00  0.00    -0.504 OA
ATOM     21  H   UNL     1      37.848 -94.710  39.568  1.00  0.00     0.293 HD
ENDBRANCH  17  20
ENDBRANCH   1  12
BRANCH   6  22
ATOM     22  O   UNL     1      41.266 -95.428  30.229  1.00  0.00    -0.507 OA
ATOM     23  H   UNL     1      42.211 -95.087  30.323  1.00  0.00     0.293 HD
ENDBRANCH   6  22
BRANCH   8  24
ATOM     24  O   UNL     1      36.604 -94.917  31.171  1.00  0.00    -0.508 OA
ATOM     25  H   UNL     1      36.420 -94.589  30.230  1.00  0.00     0.293 HD
ENDBRANCH   8  24
TORSDOF 5
ENDMDL
MODEL 4
REMARK VINA RESULT:    -5.690     15.792     17.292
REMARK INTER + INTRA:          -6.954
REMARK INTER:                  -6.637
REMARK INTRA:                  -0.317
REMARK UNBOUND:                -0.266
REMARK SMILES O=c1cc(-c2ccc(O)c(O)c2)oc2cc(O)cc(O)c12
REMARK SMILES IDX 4 1 3 2 2 3 1 4 21 5 19 6 18 7 16 8 15 9 14 10 13 11 5 12
REMARK SMILES IDX 6 13 7 14 8 15 12 16 10 17 9 18 11 20 20 22 17 24
REMARK H PARENT 9 19 11 21 20 23 17 25
REMARK Flexibility Score: inf
ROOT
ATOM      1  C   UNL     1      38.871 -77.840  38.293  1.00  0.00     0.138 A 
ATOM      2  C   UNL     1      39.226 -77.358  39.561  1.00  0.00     0.100 A 
ATOM      3  C   UNL     1      40.536 -77.514  40.017  1.00  0.00     0.197 A 
ATOM      4  O   UNL     1      40.809 -77.122  41.180  1.00  0.00    -0.289 OA
ATOM      5  C   UNL     1      41.504 -78.124  39.183  1.00  0.00     0.107 A 
ATOM      6  C   UNL     1      42.878 -78.306  39.529  1.00  0.00     0.134 A 
ATOM      7  C   UNL     1      43.719 -79.012  38.660  1.00  0.00     0.093 A 
ATOM      8  C   UNL     1      43.254 -79.492  37.436  1.00  0.00     0.123 A 
ATOM      9  C   UNL     1      41.926 -79.275  37.066  1.00  0.00     0.094 A 
ATOM     10  C   UNL     1      41.053 -78.605  37.925  1.00  0.00     0.146 A 
ATOM     11  O   UNL     1      39.792 -78.437  37.542  1.00  0.00    -0.456 OA
ENDROOT
BRANCH   1  12
ATOM     12  C   UNL     1      37.495 -77.698  37.757  1.00  0.00     0.021 A 
ATOM     13  C   UNL     1      36.434 -77.223  38.552  1.00  0.00     0.016 A 
ATOM     14  C   UNL     1      35.146 -77.110  38.022  1.00  0.00     0.051 A 
ATOM     15  C   UNL     1      34.893 -77.475  36.694  1.00  0.00     0.157 A 
ATOM     16  C   UNL     1      37.227 -78.075  36.428  1.00  0.00     0.062 A 
ATOM     17  C   UNL     1      35.938 -77.962  35.895  1.00  0.00     0.158 A 
BRANCH  15  18
ATOM     18  O   UNL     1      33.606 -77.359  36.170  1.00  0.00    -0.504 OA
ATOM     19  H   UNL     1      32.980 -76.616  36.458  1.00  0.00     0.293 HD
ENDBRANCH  15  18
BRANCH  17  20
ATOM     20  O   UNL     1      35.719 -78.337  34.570  1.00  0.00    -0.504 OA
ATOM     21  H   UNL     1      35.055 -79.059  34.318  1.00  0.00     0.293 HD
ENDBRANCH  17  20
ENDBRANCH   1  12
BRANCH   6  22
ATOM     22  O   UNL     1      43.468 -77.799  40.690  1.00  0.00    -0.507 OA
ATOM     23  H   UNL     1      44.431 -77.934  40.957  1.00  0.00     0.293 HD
ENDBRANCH   6  22
BRANCH   8  24
ATOM     24  O   UNL     1      44.124 -80.176  36.591  1.00  0.00    -0.508 OA
ATOM     25  H   UNL     1      44.482 -81.095  36.828  1.00  0.00     0.293 HD
ENDBRANCH   8  24
TORSDOF 5
ENDMDL
MODEL 5
REMARK VINA RESULT:    -5.656     15.711     17.205
REMARK INTER + INTRA:          -6.913
REMARK INTER:                  -6.596
REMARK INTRA:                  -0.317
REMARK UNBOUND:                -0.266
REMARK SMILES O=c1cc(-c2ccc(O)c(O)c2)oc2cc(O)cc(O)c12
REMARK SMILES IDX 4 1 3 2 2 3 1 4 21 5 19 6 18 7 16 8 15 9 14 10 13 11 5 12
REMARK SMILES IDX 6 13 7 14 8 15 12 16 10 17 9 18 11 20 20 22 17 24
REMARK H PARENT 9 19 11 21 20 23 17 25
REMARK Flexibility Score: inf
ROOT
ATOM      1  C   UNL     1      38.301 -77.617  34.447  1.00  0.00     0.138 A 
ATOM      2  C   UNL     1      36.931 -77.341  34.335  1.00  0.00     0.100 A 
ATOM      3  C   UNL     1      36.111 -77.440  35.460  1.00  0.00     0.197 A 
ATOM      4  O   UNL     1      34.878 -77.240  35.314  1.00  0.00    -0.289 OA
ATOM      5  C   UNL     1      36.675 -77.781  36.713  1.00  0.00     0.107 A 
ATOM      6  C   UNL     1      35.942 -77.878  37.935  1.00  0.00     0.134 A 
ATOM      7  C   UNL     1      36.592 -78.321  39.094  1.00  0.00     0.093 A 
ATOM      8  C   UNL     1      37.955 -78.615  39.090  1.00  0.00     0.123 A 
ATOM      9  C   UNL     1      38.691 -78.475  37.913  1.00  0.00     0.094 A 
ATOM     10  C   UNL     1      38.066 -78.069  36.732  1.00  0.00     0.146 A 
ATOM     11  O   UNL     1      38.799 -77.966  35.629  1.00  0.00    -0.456 OA
ENDROOT
BRANCH   1  12
ATOM     12  C   UNL     1      39.218 -77.525  33.284  1.00  0.00     0.021 A 
ATOM     13  C   UNL     1      38.738 -77.347  31.973  1.00  0.00     0.016 A 
ATOM     14  C   UNL     1      39.626 -77.274  30.896  1.00  0.00     0.051 A 
ATOM     15  C   UNL     1      41.006 -77.385  31.109  1.00  0.00     0.157 A 
ATOM     16  C   UNL     1      40.605 -77.649  33.486  1.00  0.00     0.062 A 
ATOM     17  C   UNL     1      41.496 -77.575  32.410  1.00  0.00     0.158 A 
BRANCH  15  18
ATOM     18  O   UNL     1      41.888 -77.310  30.032  1.00  0.00    -0.504 OA
ATOM     19  H   UNL     1      42.161 -78.135  29.511  1.00  0.00     0.293 HD
ENDBRANCH  15  18
BRANCH  17  20
ATOM     20  O   UNL     1      42.864 -77.692  32.654  1.00  0.00    -0.504 OA
ATOM     21  H   UNL     1      43.336 -78.589  32.653  1.00  0.00     0.293 HD
ENDBRANCH  17  20
ENDBRANCH   1  12
BRANCH   6  22
ATOM     22  O   UNL     1      34.595 -77.533  38.072  1.00  0.00    -0.507 OA
ATOM     23  H   UNL     1      34.233 -76.856  38.726  1.00  0.00     0.293 HD
ENDBRANCH   6  22
BRANCH   8  24
ATOM     24  O   UNL     1      38.570 -79.038  40.266  1.00  0.00    -0.508 OA
ATOM     25  H   UNL     1      38.974 -78.378  40.921  1.00  0.00     0.293 HD
ENDBRANCH   8  24
TORSDOF 5
ENDMDL
MODEL 6
REMARK VINA RESULT:    -5.640     15.204     17.306
REMARK INTER + INTRA:          -6.895
REMARK INTER:                  -6.605
REMARK INTRA:                  -0.291
REMARK UNBOUND:                -0.266
REMARK SMILES O=c1cc(-c2ccc(O)c(O)c2)oc2cc(O)cc(O)c12
REMARK SMILES IDX 4 1 3 2 2 3 1 4 21 5 19 6 18 7 16 8 15 9 14 10 13 11 5 12
REMARK SMILES IDX 6 13 7 14 8 15 12 16 10 17 9 18 11 20 20 22 17 24
REMARK H PARENT 9 19 11 21 20 23 17 25
REMARK Flexibility Score: inf
ROOT
ATOM      1  C   UNL     1      37.852 -77.485  34.052  1.00  0.00     0.138 A 
ATOM      2  C   UNL     1      38.136 -77.245  35.404  1.00  0.00     0.100 A 
ATOM      3  C   UNL     1      37.108 -77.294  36.345  1.00  0.00     0.197 A 
ATOM      4  O   UNL     1      37.385 -77.019  37.541  1.00  0.00    -0.289 OA
ATOM      5  C   UNL     1      35.793 -77.621  35.934  1.00  0.00     0.107 A 
ATOM      6  C   UNL     1      34.671 -77.735  36.811  1.00  0.00     0.134 A 
ATOM      7  C   UNL     1      33.399 -77.968  36.274  1.00  0.00     0.093 A 
ATOM      8  C   UNL     1      33.215 -78.149  34.904  1.00  0.00     0.123 A 
ATOM      9  C   UNL     1      34.312 -78.090  34.044  1.00  0.00     0.094 A 
ATOM     10  C   UNL     1      35.588 -77.825  34.544  1.00  0.00     0.146 A 
ATOM     11  O   UNL     1      36.603 -77.759  33.688  1.00  0.00    -0.456 OA
ENDROOT
BRANCH   1  12
ATOM     12  C   UNL     1      38.908 -77.448  33.009  1.00  0.00     0.021 A 
ATOM     13  C   UNL     1      38.596 -77.305  31.644  1.00  0.00     0.016 A 
ATOM     14  C   UNL     1      39.611 -77.284  30.683  1.00  0.00     0.051 A 
ATOM     15  C   UNL     1      40.951 -77.413  31.068  1.00  0.00     0.157 A 
ATOM     16  C   UNL     1      40.256 -77.591  33.384  1.00  0.00     0.062 A 
ATOM     17  C   UNL     1      41.274 -77.569  32.424  1.00  0.00     0.158 A 
BRANCH  15  18
ATOM     18  O   UNL     1      41.961 -77.390  30.106  1.00  0.00    -0.504 OA
ATOM     19  H   UNL     1      42.228 -76.533  29.637  1.00  0.00     0.293 HD
ENDBRANCH  15  18
BRANCH  17  20
ATOM     20  O   UNL     1      42.599 -77.703  32.840  1.00  0.00    -0.504 OA
ATOM     21  H   UNL     1      43.021 -78.608  33.006  1.00  0.00     0.293 HD
ENDBRANCH  17  20
ENDBRANCH   1  12
BRANCH   6  22
ATOM     22  O   UNL     1      34.752 -77.652  38.204  1.00  0.00    -0.507 OA
ATOM     23  H   UNL     1      33.961 -77.623  38.830  1.00  0.00     0.293 HD
ENDBRANCH   6  22
BRANCH   8  24
ATOM     24  O   UNL     1      31.936 -78.394  34.408  1.00  0.00    -0.508 OA
ATOM     25  H   UNL     1      31.709 -78.247  33.431  1.00  0.00     0.293 HD
ENDBRANCH   8  24
TORSDOF 5
ENDMDL
MODEL 7
REMARK VINA RESULT:    -5.633     15.413     17.638
REMARK INTER + INTRA:          -6.887
REMARK INTER:                  -6.574
REMARK INTRA:                  -0.313
REMARK UNBOUND:                -0.266
REMARK SMILES O=c1cc(-c2ccc(O)c(O)c2)oc2cc(O)cc(O)c12
REMARK SMILES IDX 4 1 3 2 2 3 1 4 21 5 19 6 18 7 16 8 15 9 14 10 13 11 5 12
REMARK SMILES IDX 6 13 7 14 8 15 12 16 10 17 9 18 11 20 20 22 17 24
REMARK H PARENT 9 19 11 21 20 23 17 25
REMARK Flexibility Score: inf
ROOT
ATOM      1  C   UNL     1      36.840 -77.345  33.422  1.00  0.00     0.138 A 
ATOM      2  C   UNL     1      36.416 -77.156  32.099  1.00  0.00     0.100 A 
ATOM      3  C   UNL     1      37.359 -77.101  31.072  1.00  0.00     0.197 A 
ATOM      4  O   UNL     1      36.950 -76.875  29.904  1.00  0.00    -0.289 OA
ATOM      5  C   UNL     1      38.732 -77.272  31.368  1.00  0.00     0.107 A 
ATOM      6  C   UNL     1      39.781 -77.268  30.398  1.00  0.00     0.134 A 
ATOM      7  C   UNL     1      41.113 -77.349  30.823  1.00  0.00     0.093 A 
ATOM      8  C   UNL     1      41.433 -77.490  32.172  1.00  0.00     0.123 A 
ATOM      9  C   UNL     1      40.414 -77.545  33.124  1.00  0.00     0.094 A 
ATOM     10  C   UNL     1      39.077 -77.432  32.737  1.00  0.00     0.146 A 
ATOM     11  O   UNL     1      38.139 -77.472  33.676  1.00  0.00    -0.456 OA
ENDROOT
BRANCH   1  12
ATOM     12  C   UNL     1      35.881 -77.415  34.552  1.00  0.00     0.021 A 
ATOM     13  C   UNL     1      34.584 -76.876  34.458  1.00  0.00     0.016 A 
ATOM     14  C   UNL     1      33.705 -76.948  35.542  1.00  0.00     0.051 A 
ATOM     15  C   UNL     1      34.109 -77.551  36.740  1.00  0.00     0.157 A 
ATOM     16  C   UNL     1      36.282 -78.007  35.764  1.00  0.00     0.062 A 
ATOM     17  C   UNL     1      35.404 -78.080  36.851  1.00  0.00     0.158 A 
BRANCH  15  18
ATOM     18  O   UNL     1      33.229 -77.622  37.819  1.00  0.00    -0.504 OA
ATOM     19  H   UNL     1      33.162 -76.874  38.500  1.00  0.00     0.293 HD
ENDBRANCH  15  18
BRANCH  17  20
ATOM     20  O   UNL     1      35.837 -78.684  38.031  1.00  0.00    -0.504 OA
ATOM     21  H   UNL     1      36.041 -79.675  38.084  1.00  0.00     0.293 HD
ENDBRANCH  17  20
ENDBRANCH   1  12
BRANCH   6  22
ATOM     22  O   UNL     1      39.572 -77.213  29.017  1.00  0.00    -0.507 OA
ATOM     23  H   UNL     1      39.773 -76.417  28.432  1.00  0.00     0.293 HD
ENDBRANCH   6  22
BRANCH   8  24
ATOM     24  O   UNL     1      42.769 -77.582  32.556  1.00  0.00    -0.508 OA
ATOM     25  H   UNL     1      43.432 -76.842  32.353  1.00  0.00     0.293 HD
ENDBRANCH   8  24
TORSDOF 5
ENDMDL
MODEL 8
REMARK VINA RESULT:    -5.571      9.251     10.893
REMARK INTER + INTRA:          -6.814
REMARK INTER:                  -6.536
REMARK INTRA:                  -0.279
REMARK UNBOUND:                -0.266
REMARK SMILES O=c1cc(-c2ccc(O)c(O)c2)oc2cc(O)cc(O)c12
REMARK SMILES IDX 4 1 3 2 2 3 1 4 21 5 19 6 18 7 16 8 15 9 14 10 13 11 5 12
REMARK SMILES IDX 6 13 7 14 8 15 12 16 10 17 9 18 11 20 20 22 17 24
REMARK H PARENT 9 19 11 21 20 23 17 25
REMARK Flexibility Score: inf
ROOT
ATOM      1  C   UNL     1      37.781 -95.538  30.699  1.00  0.00     0.138 A 
ATOM      2  C   UNL     1      38.393 -96.246  29.656  1.00  0.00     0.100 A 
ATOM      3  C   UNL     1      37.709 -96.437  28.455  1.00  0.00     0.197 A 
ATOM      4  O   UNL     1      38.264 -97.125  27.560  1.00  0.00    -0.289 OA
ATOM      5  C   UNL     1      36.417 -95.883  28.286  1.00  0.00     0.107 A 
ATOM      6  C   UNL     1      35.638 -95.984  27.093  1.00  0.00     0.134 A 
ATOM      7  C   UNL     1      34.332 -95.479  27.078  1.00  0.00     0.093 A 
ATOM      8  C   UNL     1      33.798 -94.828  28.189  1.00  0.00     0.123 A 
ATOM      9  C   UNL     1      34.568 -94.679  29.343  1.00  0.00     0.094 A 
ATOM     10  C   UNL     1      35.861 -95.202  29.401  1.00  0.00     0.146 A 
ATOM     11  O   UNL     1      36.555 -95.054  30.525  1.00  0.00    -0.456 OA
ENDROOT
BRANCH   1  12
ATOM     12  C   UNL     1      38.464 -95.302  31.996  1.00  0.00     0.021 A 
ATOM     13  C   UNL     1      39.698 -94.628  32.072  1.00  0.00     0.016 A 
ATOM     14  C   UNL     1      40.322 -94.430  33.307  1.00  0.00     0.051 A 
ATOM     15  C   UNL     1      39.731 -94.907  34.483  1.00  0.00     0.157 A 
ATOM     16  C   UNL     1      37.885 -95.790  33.181  1.00  0.00     0.062 A 
ATOM     17  C   UNL     1      38.508 -95.592  34.419  1.00  0.00     0.158 A 
BRANCH  15  18
ATOM     18  O   UNL     1      40.356 -94.706  35.713  1.00  0.00    -0.504 OA
ATOM     19  H   UNL     1      40.098 -95.240  36.534  1.00  0.00     0.293 HD
ENDBRANCH  15  18
BRANCH  17  20
ATOM     20  O   UNL     1      37.894 -96.083  35.571  1.00  0.00    -0.504 OA
ATOM     21  H   UNL     1      37.773 -97.075  35.735  1.00  0.00     0.293 HD
ENDBRANCH  17  20
ENDBRANCH   1  12
BRANCH   6  22
ATOM     22  O   UNL     1      36.101 -96.544  25.899  1.00  0.00    -0.507 OA
ATOM     23  H   UNL     1      35.763 -96.308  24.978  1.00  0.00     0.293 HD
ENDBRANCH   6  22
BRANCH   8  24
ATOM     24  O   UNL     1      32.500 -94.324  28.132  1.00  0.00    -0.508 OA
ATOM     25  H   UNL     1      31.735 -94.870  27.750  1.00  0.00     0.293 HD
ENDBRANCH   8  24
TORSDOF 5
ENDMDL
MODEL 9
REMARK VINA RESULT:    -5.515      9.904     11.468
REMARK INTER + INTRA:          -6.749
REMARK INTER:                  -6.438
REMARK INTRA:                  -0.311
REMARK UNBOUND:                -0.266
REMARK SMILES O=c1cc(-c2ccc(O)c(O)c2)oc2cc(O)cc(O)c12
REMARK SMILES IDX 4 1 3 2 2 3 1 4 21 5 19 6 18 7 16 8 15 9 14 10 13 11 5 12
REMARK SMILES IDX 6 13 7 14 8 15 12 16 10 17 9 18 11 20 20 22 17 24
REMARK H PARENT 9 19 11 21 20 23 17 25
REMARK Flexibility Score: inf
ROOT
ATOM      1  C   UNL     1      39.424 -95.625  30.863  1.00  0.00     0.138 A 
ATOM      2  C   UNL     1      39.816 -95.924  29.551  1.00  0.00     0.100 A 
ATOM      3  C   UNL     1      38.846 -96.110  28.565  1.00  0.00     0.197 A 
ATOM      4  O   UNL     1      39.229 -96.432  27.411  1.00  0.00    -0.289 OA
ATOM      5  C   UNL     1      37.476 -95.959  28.888  1.00  0.00     0.107 A 
ATOM      6  C   UNL     1      36.401 -96.091  27.957  1.00  0.00     0.134 A 
ATOM      7  C   UNL     1      35.080 -96.017  28.416  1.00  0.00     0.093 A 
ATOM      8  C   UNL     1      34.794 -95.759  29.756  1.00  0.00     0.123 A 
ATOM      9  C   UNL     1      35.838 -95.578  30.665  1.00  0.00     0.094 A 
ATOM     10  C   UNL     1      37.166 -95.681  30.246  1.00  0.00     0.146 A 
ATOM     11  O   UNL     1      38.129 -95.520  31.147  1.00  0.00    -0.456 OA
ENDROOT
BRANCH   1  12
ATOM     12  C   UNL     1      40.412 -95.414  31.950  1.00  0.00     0.021 A 
ATOM     13  C   UNL     1      41.704 -95.971  31.895  1.00  0.00     0.016 A 
ATOM     14  C   UNL     1      42.610 -95.764  32.939  1.00  0.00     0.051 A 
ATOM     15  C   UNL     1      42.241 -95.005  34.056  1.00  0.00     0.157 A 
ATOM     16  C   UNL     1      40.046 -94.665  33.083  1.00  0.00     0.062 A 
ATOM     17  C   UNL     1      40.952 -94.456  34.129  1.00  0.00     0.158 A 
BRANCH  15  18
ATOM     18  O   UNL     1      43.149 -94.800  35.094  1.00  0.00    -0.504 OA
ATOM     19  H   UNL     1      43.718 -95.555  35.459  1.00  0.00     0.293 HD
ENDBRANCH  15  18
BRANCH  17  20
ATOM     20  O   UNL     1      40.552 -93.698  35.229  1.00  0.00    -0.504 OA
ATOM     21  H   UNL     1      39.943 -92.894  35.135  1.00  0.00     0.293 HD
ENDBRANCH  17  20
ENDBRANCH   1  12
BRANCH   6  22
ATOM     22  O   UNL     1      36.572 -96.271  26.582  1.00  0.00    -0.507 OA
ATOM     23  H   UNL     1      36.646 -97.164  26.118  1.00  0.00     0.293 HD
ENDBRANCH   6  22
BRANCH   8  24
ATOM     24  O   UNL     1      33.467 -95.677  30.172  1.00  0.00    -0.508 OA
ATOM     25  H   UNL     1      32.976 -96.483  30.542  1.00  0.00     0.293 HD
ENDBRANCH   8  24
TORSDOF 5
ENDMDL
