MODEL 1
REMARK VINA RESULT:    -2.966      0.000      0.000
REMARK INTER + INTRA:          -3.323
REMARK INTER:                  -3.313
REMARK INTRA:                  -0.009
REMARK UNBOUND:                -0.009
REMARK SMILES CCCC(=O)[O-]
REMARK SMILES IDX 3 1 4 2 5 3 6 4 2 5 1 6
REMARK H PARENT
REMARK Flexibility Score: inf
ROOT
ATOM      1  C   UNL     1      -6.123  35.302  21.153  1.00  0.00     0.052 C 
ENDROOT
BRANCH   1   2
ATOM      2  C   UNL     1      -5.346  36.216  20.256  1.00  0.00     0.041 C 
ATOM      3  O   UNL     1      -4.647  35.744  19.320  1.00  0.00    -0.550 OA
ATOM      4  O   UNL     1      -5.368  37.588  20.474  1.00  0.00    -0.550 OA
ENDBRANCH   1   2
BRANCH   1   5
ATOM      5  C   UNL     1      -6.125  35.800  22.604  1.00  0.00     0.003 C 
ATOM      6  C   UNL     1      -5.802  34.687  23.602  1.00  0.00     0.004 C 
ENDBRANCH   1   5
TORSDOF 2
ENDMDL
MODEL 2
REMARK VINA RESULT:    -2.614      2.876      3.901
REMARK INTER + INTRA:          -2.929
REMARK INTER:                  -2.922
REMARK INTRA:                  -0.007
REMARK UNBOUND:                -0.009
REMARK SMILES CCCC(=O)[O-]
REMARK SMILES IDX 3 1 4 2 5 3 6 4 2 5 1 6
REMARK H PARENT
REMARK Flexibility Score: inf
ROOT
ATOM      1  C   UNL     1      -6.125  36.070  22.628  1.00  0.00     0.052 C 
ENDROOT
BRANCH   1   2
ATOM      2  C   UNL     1      -5.943  35.218  23.845  1.00  0.00     0.041 C 
ATOM      3  O   UNL     1      -5.624  35.741  24.945  1.00  0.00    -0.550 OA
ATOM      4  O   UNL     1      -6.093  33.839  23.757  1.00  0.00    -0.550 OA
ENDBRANCH   1   2
BRANCH   1   5
ATOM      5  C   UNL     1      -5.631  35.362  21.360  1.00  0.00     0.003 C 
ATOM      6  C   UNL     1      -5.350  36.339  20.219  1.00  0.00     0.004 C 
ENDBRANCH   1   5
TORSDOF 2
ENDMDL
MODEL 3
REMARK VINA RESULT:    -2.578      1.873      3.194
REMARK INTER + INTRA:          -2.889
REMARK INTER:                  -2.883
REMARK INTRA:                  -0.006
REMARK UNBOUND:                -0.009
REMARK SMILES CCCC(=O)[O-]
REMARK SMILES IDX 3 1 4 2 5 3 6 4 2 5 1 6
REMARK H PARENT
REMARK Flexibility Score: inf
ROOT
ATOM      1  C   UNL     1      -5.898  35.318  19.989  1.00  0.00     0.052 C 
ENDROOT
BRANCH   1   2
ATOM      2  C   UNL     1      -5.814  36.241  21.164  1.00  0.00     0.041 C 
ATOM      3  O   UNL     1      -6.037  35.810  22.328  1.00  0.00    -0.550 OA
ATOM      4  O   UNL     1      -5.521  37.585  20.974  1.00  0.00    -0.550 OA
ENDBRANCH   1   2
BRANCH   1   5
ATOM      5  C   UNL     1      -4.623  35.364  19.139  1.00  0.00     0.003 C 
ATOM      6  C   UNL     1      -4.661  34.372  17.976  1.00  0.00     0.004 C 
ENDBRANCH   1   5
TORSDOF 2
ENDMDL
MODEL 4
REMARK VINA RESULT:    -2.543      2.467      3.003
REMARK INTER + INTRA:          -2.849
REMARK INTER:                  -2.805
REMARK INTRA:                  -0.044
REMARK UNBOUND:                -0.009
REMARK SMILES CCCC(=O)[O-]
REMARK SMILES IDX 3 1 4 2 5 3 6 4 2 5 1 6
REMARK H PARENT
REMARK Flexibility Score: inf
ROOT
ATOM      1  C   UNL     1      -4.624  35.239  20.095  1.00  0.00     0.052 C 
ENDROOT
BRANCH   1   2
ATOM      2  C   UNL     1      -5.054  34.733  18.753  1.00  0.00     0.041 C 
ATOM      3  O   UNL     1      -6.125  34.081  18.633  1.00  0.00    -0.550 OA
ATOM      4  O   UNL     1      -4.255  34.954  17.638  1.00  0.00    -0.550 OA
ENDBRANCH   1   2
BRANCH   1   5
ATOM      5  C   UNL     1      -5.638  36.232  20.678  1.00  0.00     0.003 C 
ATOM      6  C   UNL     1      -5.363  37.670  20.238  1.00  0.00     0.004 C 
ENDBRANCH   1   5
TORSDOF 2
ENDMDL
MODEL 5
REMARK VINA RESULT:    -2.472     12.346     13.119
REMARK INTER + INTRA:          -2.770
REMARK INTER:                  -2.749
REMARK INTRA:                  -0.021
REMARK UNBOUND:                -0.009
REMARK SMILES CCCC(=O)[O-]
REMARK SMILES IDX 3 1 4 2 5 3 6 4 2 5 1 6
REMARK H PARENT
REMARK Flexibility Score: inf
ROOT
ATOM      1  C   UNL     1      -4.810  26.523  29.251  1.00  0.00     0.052 C 
ENDROOT
BRANCH   1   2
ATOM      2  C   UNL     1      -5.123  27.454  30.381  1.00  0.00     0.041 C 
ATOM      3  O   UNL     1      -6.125  28.215  30.318  1.00  0.00    -0.550 OA
ATOM      4  O   UNL     1      -4.288  27.507  31.490  1.00  0.00    -0.550 OA
ENDBRANCH   1   2
BRANCH   1   5
ATOM      5  C   UNL     1      -5.742  25.305  29.246  1.00  0.00     0.003 C 
ATOM      6  C   UNL     1      -5.009  24.009  29.592  1.00  0.00     0.004 C 
ENDBRANCH   1   5
TORSDOF 2
ENDMDL
MODEL 6
REMARK VINA RESULT:    -2.448     13.050     14.038
REMARK INTER + INTRA:          -2.744
REMARK INTER:                  -2.730
REMARK INTRA:                  -0.014
REMARK UNBOUND:                -0.009
REMARK SMILES CCCC(=O)[O-]
REMARK SMILES IDX 3 1 4 2 5 3 6 4 2 5 1 6
REMARK H PARENT
REMARK Flexibility Score: inf
ROOT
ATOM      1  C   UNL     1      -4.436  25.375  30.042  1.00  0.00     0.052 C 
ENDROOT
BRANCH   1   2
ATOM      2  C   UNL     1      -5.061  24.049  29.735  1.00  0.00     0.041 C 
ATOM      3  O   UNL     1      -4.929  23.534  28.593  1.00  0.00    -0.550 OA
ATOM      4  O   UNL     1      -5.819  23.397  30.700  1.00  0.00    -0.550 OA
ENDBRANCH   1   2
BRANCH   1   5
ATOM      5  C   UNL     1      -5.024  26.494  29.173  1.00  0.00     0.003 C 
ATOM      6  C   UNL     1      -5.738  27.561  30.003  1.00  0.00     0.004 C 
ENDBRANCH   1   5
TORSDOF 2
ENDMDL
MODEL 7
REMARK VINA RESULT:    -2.255      2.058      2.855
REMARK INTER + INTRA:          -2.528
REMARK INTER:                  -2.522
REMARK INTRA:                  -0.006
REMARK UNBOUND:                -0.009
REMARK SMILES CCCC(=O)[O-]
REMARK SMILES IDX 3 1 4 2 5 3 6 4 2 5 1 6
REMARK H PARENT
REMARK Flexibility Score: inf
ROOT
ATOM      1  C   UNL     1      -5.561  36.440  20.840  1.00  0.00     0.052 C 
ENDROOT
BRANCH   1   2
ATOM      2  C   UNL     1      -4.598  35.436  20.286  1.00  0.00     0.041 C 
ATOM      3  O   UNL     1      -4.550  35.220  19.045  1.00  0.00    -0.550 OA
ATOM      4  O   UNL     1      -3.776  34.715  21.142  1.00  0.00    -0.550 OA
ENDBRANCH   1   2
BRANCH   1   5
ATOM      5  C   UNL     1      -5.351  37.828  20.222  1.00  0.00     0.003 C 
ATOM      6  C   UNL     1      -5.712  38.956  21.189  1.00  0.00     0.004 C 
ENDBRANCH   1   5
TORSDOF 2
ENDMDL
MODEL 8
REMARK VINA RESULT:    -2.214      3.119      3.793
REMARK INTER + INTRA:          -2.482
REMARK INTER:                  -2.451
REMARK INTRA:                  -0.031
REMARK UNBOUND:                -0.009
REMARK SMILES CCCC(=O)[O-]
REMARK SMILES IDX 3 1 4 2 5 3 6 4 2 5 1 6
REMARK H PARENT
REMARK Flexibility Score: inf
ROOT
ATOM      1  C   UNL     1      -6.111  35.332  25.099  1.00  0.00     0.052 C 
ENDROOT
BRANCH   1   2
ATOM      2  C   UNL     1      -6.125  34.679  23.752  1.00  0.00     0.041 C 
ATOM      3  O   UNL     1      -6.109  33.423  23.654  1.00  0.00    -0.550 OA
ATOM      4  O   UNL     1      -6.122  35.458  22.601  1.00  0.00    -0.550 OA
ENDBRANCH   1   2
BRANCH   1   5
ATOM      5  C   UNL     1      -6.117  36.861  24.988  1.00  0.00     0.003 C 
ATOM      6  C   UNL     1      -4.874  37.495  25.614  1.00  0.00     0.004 C 
ENDBRANCH   1   5
TORSDOF 2
ENDMDL
