MODEL 1
REMARK VINA RESULT:    27.011      0.000      0.000
REMARK INTER + INTRA:          31.486
REMARK INTER:                  31.748
REMARK INTRA:                  -0.262
REMARK UNBOUND:                -0.262
REMARK SMILES O=c1cc(-c2ccc(O)c(O)c2)oc2cc(O)cc(O)c12
REMARK SMILES IDX 4 1 3 2 2 3 1 4 21 5 19 6 18 7 16 8 15 9 14 10 13 11 5 12
REMARK SMILES IDX 6 13 7 14 8 15 12 16 10 17 9 18 11 20 20 22 17 24
REMARK H PARENT 9 19 11 21 20 23 17 25
REMARK Flexibility Score: inf
ROOT
ATOM      1  C   UNL     1      17.718  95.716   8.712  1.00  0.00     0.138 A 
ATOM      2  C   UNL     1      16.412  95.702   9.221  1.00  0.00     0.100 A 
ATOM      3  C   UNL     1      15.778  96.908   9.525  1.00  0.00     0.197 A 
ATOM      4  O   UNL     1      14.630  96.862  10.038  1.00  0.00    -0.289 OA
ATOM      5  C   UNL     1      16.446  98.133   9.289  1.00  0.00     0.107 A 
ATOM      6  C   UNL     1      15.883  99.424   9.523  1.00  0.00     0.134 A 
ATOM      7  C   UNL     1      16.680 100.564   9.363  1.00  0.00     0.093 A 
ATOM      8  C   UNL     1      18.001 100.463   8.918  1.00  0.00     0.123 A 
ATOM      9  C   UNL     1      18.542  99.211   8.635  1.00  0.00     0.094 A 
ATOM     10  C   UNL     1      17.783  98.053   8.819  1.00  0.00     0.146 A 
ATOM     11  O   UNL     1      18.343  96.878   8.551  1.00  0.00    -0.456 OA
ENDROOT
BRANCH   1  12
ATOM     12  C   UNL     1      18.439  94.464   8.370  1.00  0.00     0.021 A 
ATOM     13  C   UNL     1      18.509  93.989   7.046  1.00  0.00     0.016 A 
ATOM     14  C   UNL     1      19.203  92.812   6.751  1.00  0.00     0.051 A 
ATOM     15  C   UNL     1      19.844  92.095   7.768  1.00  0.00     0.157 A 
ATOM     16  C   UNL     1      19.097  93.744   9.383  1.00  0.00     0.062 A 
ATOM     17  C   UNL     1      19.792  92.565   9.090  1.00  0.00     0.158 A 
BRANCH  15  18
ATOM     18  O   UNL     1      20.534  90.921   7.470  1.00  0.00    -0.504 OA
ATOM     19  H   UNL     1      20.580  90.558   6.525  1.00  0.00     0.293 HD
ENDBRANCH  15  18
BRANCH  17  20
ATOM     20  O   UNL     1      20.423  91.876  10.125  1.00  0.00    -0.504 OA
ATOM     21  H   UNL     1      21.114  91.158   9.950  1.00  0.00     0.293 HD
ENDBRANCH  17  20
ENDBRANCH   1  12
BRANCH   6  22
ATOM     22  O   UNL     1      14.550  99.641   9.888  1.00  0.00    -0.507 OA
ATOM     23  H   UNL     1      13.772  99.075   9.588  1.00  0.00     0.293 HD
ENDBRANCH   6  22
BRANCH   8  24
ATOM     24  O   UNL     1      18.782 101.604   8.747  1.00  0.00    -0.508 OA
ATOM     25  H   UNL     1      19.674 101.570   8.268  1.00  0.00     0.293 HD
ENDBRANCH   8  24
TORSDOF 5
ENDMDL
MODEL 2
REMARK VINA RESULT:    27.562      2.426      6.167
REMARK INTER + INTRA:          32.134
REMARK INTER:                  32.420
REMARK INTRA:                  -0.286
REMARK UNBOUND:                -0.262
REMARK SMILES O=c1cc(-c2ccc(O)c(O)c2)oc2cc(O)cc(O)c12
REMARK SMILES IDX 4 1 3 2 2 3 1 4 21 5 19 6 18 7 16 8 15 9 14 10 13 11 5 12
REMARK SMILES IDX 6 13 7 14 8 15 12 16 10 17 9 18 11 20 20 22 17 24
REMARK H PARENT 9 19 11 21 20 23 17 25
REMARK Flexibility Score: inf
ROOT
ATOM      1  C   UNL     1      17.685  97.461   9.264  1.00  0.00     0.138 A 
ATOM      2  C   UNL     1      18.180  96.198   8.907  1.00  0.00     0.100 A 
ATOM      3  C   UNL     1      17.306  95.113   8.822  1.00  0.00     0.197 A 
ATOM      4  O   UNL     1      17.788  93.981   8.560  1.00  0.00    -0.289 OA
ATOM      5  C   UNL     1      15.924  95.302   9.067  1.00  0.00     0.107 A 
ATOM      6  C   UNL     1      14.935  94.278   8.971  1.00  0.00     0.134 A 
ATOM      7  C   UNL     1      13.616  94.555   9.349  1.00  0.00     0.093 A 
ATOM      8  C   UNL     1      13.238  95.836   9.763  1.00  0.00     0.123 A 
ATOM      9  C   UNL     1      14.186  96.855   9.809  1.00  0.00     0.094 A 
ATOM     10  C   UNL     1      15.517  96.601   9.470  1.00  0.00     0.146 A 
ATOM     11  O   UNL     1      16.392  97.599   9.542  1.00  0.00    -0.456 OA
ENDROOT
BRANCH   1  12
ATOM     12  C   UNL     1      18.569  98.649   9.367  1.00  0.00     0.021 A 
ATOM     13  C   UNL     1      18.078  99.955   9.176  1.00  0.00     0.016 A 
ATOM     14  C   UNL     1      18.931 101.056   9.290  1.00  0.00     0.051 A 
ATOM     15  C   UNL     1      20.284 100.874   9.602  1.00  0.00     0.157 A 
ATOM     16  C   UNL     1      19.926  98.476   9.694  1.00  0.00     0.062 A 
ATOM     17  C   UNL     1      20.782  99.578   9.806  1.00  0.00     0.158 A 
BRANCH  15  18
ATOM     18  O   UNL     1      21.132 101.974   9.712  1.00  0.00    -0.504 OA
ATOM     19  H   UNL     1      21.360 102.551   8.910  1.00  0.00     0.293 HD
ENDBRANCH  15  18
BRANCH  17  20
ATOM     20  O   UNL     1      22.123  99.363  10.122  1.00  0.00    -0.504 OA
ATOM     21  H   UNL     1      22.755 100.125  10.335  1.00  0.00     0.293 HD
ENDBRANCH  17  20
ENDBRANCH   1  12
BRANCH   6  22
ATOM     22  O   UNL     1      15.188  92.989   8.490  1.00  0.00    -0.507 OA
ATOM     23  H   UNL     1      14.494  92.376   8.093  1.00  0.00     0.293 HD
ENDBRANCH   6  22
BRANCH   8  24
ATOM     24  O   UNL     1      11.920  96.105  10.124  1.00  0.00    -0.508 OA
ATOM     25  H   UNL     1      11.590  97.054  10.256  1.00  0.00     0.293 HD
ENDBRANCH   8  24
TORSDOF 5
ENDMDL
MODEL 3
REMARK VINA RESULT:    29.936      1.852      6.368
REMARK INTER + INTRA:          34.924
REMARK INTER:                  35.219
REMARK INTRA:                  -0.295
REMARK UNBOUND:                -0.262
REMARK SMILES O=c1cc(-c2ccc(O)c(O)c2)oc2cc(O)cc(O)c12
REMARK SMILES IDX 4 1 3 2 2 3 1 4 21 5 19 6 18 7 16 8 15 9 14 10 13 11 5 12
REMARK SMILES IDX 6 13 7 14 8 15 12 16 10 17 9 18 11 20 20 22 17 24
REMARK H PARENT 9 19 11 21 20 23 17 25
REMARK Flexibility Score: inf
ROOT
ATOM      1  C   UNL     1      17.971  97.578   9.068  1.00  0.00     0.138 A 
ATOM      2  C   UNL     1      16.678  97.383   9.573  1.00  0.00     0.100 A 
ATOM      3  C   UNL     1      16.039  96.157   9.380  1.00  0.00     0.197 A 
ATOM      4  O   UNL     1      14.857  96.032   9.790  1.00  0.00    -0.289 OA
ATOM      5  C   UNL     1      16.714  95.112   8.703  1.00  0.00     0.107 A 
ATOM      6  C   UNL     1      16.177  93.808   8.483  1.00  0.00     0.134 A 
ATOM      7  C   UNL     1      16.889  92.892   7.699  1.00  0.00     0.093 A 
ATOM      8  C   UNL     1      18.146  93.213   7.178  1.00  0.00     0.123 A 
ATOM      9  C   UNL     1      18.700  94.464   7.433  1.00  0.00     0.094 A 
ATOM     10  C   UNL     1      17.999  95.412   8.182  1.00  0.00     0.146 A 
ATOM     11  O   UNL     1      18.560  96.599   8.389  1.00  0.00    -0.456 OA
ENDROOT
BRANCH   1  12
ATOM     12  C   UNL     1      18.697  98.861   9.247  1.00  0.00     0.021 A 
ATOM     13  C   UNL     1      18.050 100.104   9.101  1.00  0.00     0.016 A 
ATOM     14  C   UNL     1      18.756 101.296   9.285  1.00  0.00     0.051 A 
ATOM     15  C   UNL     1      20.114 101.269   9.624  1.00  0.00     0.157 A 
ATOM     16  C   UNL     1      20.058  98.843   9.601  1.00  0.00     0.062 A 
ATOM     17  C   UNL     1      20.767 100.036   9.784  1.00  0.00     0.158 A 
BRANCH  15  18
ATOM     18  O   UNL     1      20.815 102.460   9.805  1.00  0.00    -0.504 OA
ATOM     19  H   UNL     1      21.331 102.892   9.047  1.00  0.00     0.293 HD
ENDBRANCH  15  18
BRANCH  17  20
ATOM     20  O   UNL     1      22.118  99.976  10.125  1.00  0.00    -0.504 OA
ATOM     21  H   UNL     1      22.559  99.115  10.425  1.00  0.00     0.293 HD
ENDBRANCH  17  20
ENDBRANCH   1  12
BRANCH   6  22
ATOM     22  O   UNL     1      14.970  93.357   9.028  1.00  0.00    -0.507 OA
ATOM     23  H   UNL     1      14.142  93.143   8.495  1.00  0.00     0.293 HD
ENDBRANCH   6  22
BRANCH   8  24
ATOM     24  O   UNL     1      18.853  92.290   6.411  1.00  0.00    -0.508 OA
ATOM     25  H   UNL     1      18.911  91.314   6.676  1.00  0.00     0.293 HD
ENDBRANCH   8  24
TORSDOF 5
ENDMDL
