MODEL 1
REMARK VINA RESULT:    -1.103      0.000      0.000
REMARK INTER + INTRA:          -4.409
REMARK INTER:                  -1.683
REMARK INTRA:                  -2.727
REMARK UNBOUND:                -2.727
REMARK SMILES CC(=O)CCC=C(C)CCC=C(C)CCC=C(C)C
REMARK SMILES IDX 10 1 11 2 12 3 13 4 14 5 15 6 16 7 18 8 17 9 19 10 9 11 7 12
REMARK SMILES IDX 6 13 8 14 5 15 4 16 2 17 3 18 1 19
REMARK H PARENT
REMARK Flexibility Score: inf
ROOT
ATOM      1  C   UNL     1      90.130  29.918   9.830  1.00  0.00     0.032 C 
ENDROOT
BRANCH   1   2
ATOM      2  C   UNL     1      91.007  28.694   9.773  1.00  0.00    -0.028 C 
ATOM      3  C   UNL     1      92.296  28.655  10.182  1.00  0.00    -0.077 C 
ATOM      4  C   UNL     1      92.998  29.883  10.715  1.00  0.00     0.039 C 
BRANCH   3   5
ATOM      5  C   UNL     1      93.052  27.342  10.115  1.00  0.00     0.034 C 
BRANCH   5   6
ATOM      6  C   UNL     1      92.239  26.174  10.692  1.00  0.00     0.032 C 
BRANCH   6   7
ATOM      7  C   UNL     1      92.191  26.204  12.203  1.00  0.00    -0.028 C 
ATOM      8  C   UNL     1      91.103  26.237  14.408  1.00  0.00     0.039 C 
ATOM      9  C   UNL     1      91.036  26.208  12.903  1.00  0.00    -0.080 C 
ATOM     10  C   UNL     1      89.693  26.183  12.213  1.00  0.00     0.039 C 
ENDBRANCH   6   7
ENDBRANCH   5   6
ENDBRANCH   3   5
ENDBRANCH   1   2
BRANCH   1  11
ATOM     11  C   UNL     1      89.169  29.843  11.021  1.00  0.00     0.034 C 
BRANCH  11  12
ATOM     12  C   UNL     1      89.779  30.489  12.246  1.00  0.00    -0.077 C 
ATOM     13  C   UNL     1      90.169  29.705  13.277  1.00  0.00    -0.028 C 
ATOM     14  C   UNL     1      89.917  31.993  12.291  1.00  0.00     0.039 C 
BRANCH  13  15
ATOM     15  C   UNL     1      90.820  30.213  14.538  1.00  0.00     0.035 C 
BRANCH  15  16
ATOM     16  C   UNL     1      92.317  29.886  14.545  1.00  0.00     0.079 C 
BRANCH  16  17
ATOM     17  C   UNL     1      92.796  29.617  15.948  1.00  0.00     0.130 C 
ATOM     18  O   UNL     1      93.911  29.989  16.284  1.00  0.00    -0.300 OA
ATOM     19  C   UNL     1      91.940  28.889  16.941  1.00  0.00     0.087 C 
ENDBRANCH  16  17
ENDBRANCH  15  16
ENDBRANCH  13  15
ENDBRANCH  11  12
ENDBRANCH   1  11
TORSDOF 9
ENDMDL
MODEL 2
REMARK VINA RESULT:    -1.073      2.435      5.875
REMARK INTER + INTRA:          -4.363
REMARK INTER:                  -1.842
REMARK INTRA:                  -2.521
REMARK UNBOUND:                -2.727
REMARK SMILES CC(=O)CCC=C(C)CCC=C(C)CCC=C(C)C
REMARK SMILES IDX 10 1 11 2 12 3 13 4 14 5 15 6 16 7 18 8 17 9 19 10 9 11 7 12
REMARK SMILES IDX 6 13 8 14 5 15 4 16 2 17 3 18 1 19
REMARK H PARENT
REMARK Flexibility Score: inf
ROOT
ATOM      1  C   UNL     1      89.758  28.429  15.180  1.00  0.00     0.032 C 
ENDROOT
BRANCH   1   2
ATOM      2  C   UNL     1      90.652  28.874  16.309  1.00  0.00    -0.028 C 
ATOM      3  C   UNL     1      91.649  28.127  16.836  1.00  0.00    -0.077 C 
ATOM      4  C   UNL     1      91.938  26.728  16.345  1.00  0.00     0.039 C 
BRANCH   3   5
ATOM      5  C   UNL     1      92.506  28.716  17.941  1.00  0.00     0.034 C 
BRANCH   5   6
ATOM      6  C   UNL     1      93.083  30.087  17.559  1.00  0.00     0.032 C 
BRANCH   6   7
ATOM      7  C   UNL     1      93.864  30.038  16.266  1.00  0.00    -0.028 C 
ATOM      8  C   UNL     1      94.460  30.728  13.982  1.00  0.00     0.039 C 
ATOM      9  C   UNL     1      93.618  30.862  15.225  1.00  0.00    -0.080 C 
ATOM     10  C   UNL     1      92.528  31.905  15.283  1.00  0.00     0.039 C 
ENDBRANCH   6   7
ENDBRANCH   5   6
ENDBRANCH   3   5
ENDBRANCH   1   2
BRANCH   1  11
ATOM     11  C   UNL     1      89.582  29.553  14.152  1.00  0.00     0.034 C 
BRANCH  11  12
ATOM     12  C   UNL     1      90.671  29.497  13.103  1.00  0.00    -0.077 C 
ATOM     13  C   UNL     1      91.444  28.391  13.016  1.00  0.00    -0.028 C 
ATOM     14  C   UNL     1      90.877  30.688  12.195  1.00  0.00     0.039 C 
BRANCH  13  15
ATOM     15  C   UNL     1      92.539  28.190  11.999  1.00  0.00     0.035 C 
BRANCH  15  16
ATOM     16  C   UNL     1      92.159  27.089  11.003  1.00  0.00     0.079 C 
BRANCH  16  17
ATOM     17  C   UNL     1      91.698  27.687   9.699  1.00  0.00     0.130 C 
ATOM     18  O   UNL     1      92.504  27.852   8.795  1.00  0.00    -0.300 OA
ATOM     19  C   UNL     1      90.270  28.097   9.487  1.00  0.00     0.087 C 
ENDBRANCH  16  17
ENDBRANCH  15  16
ENDBRANCH  13  15
ENDBRANCH  11  12
ENDBRANCH   1  11
TORSDOF 9
ENDMDL
MODEL 3
REMARK VINA RESULT:    -1.018      2.446      5.674
REMARK INTER + INTRA:          -4.280
REMARK INTER:                  -1.776
REMARK INTRA:                  -2.504
REMARK UNBOUND:                -2.727
REMARK SMILES CC(=O)CCC=C(C)CCC=C(C)CCC=C(C)C
REMARK SMILES IDX 10 1 11 2 12 3 13 4 14 5 15 6 16 7 18 8 17 9 19 10 9 11 7 12
REMARK SMILES IDX 6 13 8 14 5 15 4 16 2 17 3 18 1 19
REMARK H PARENT
REMARK Flexibility Score: inf
ROOT
ATOM      1  C   UNL     1      90.779  26.308  13.541  1.00  0.00     0.032 C 
ENDROOT
BRANCH   1   2
ATOM      2  C   UNL     1      91.219  26.730  14.920  1.00  0.00    -0.028 C 
ATOM      3  C   UNL     1      90.766  27.830  15.565  1.00  0.00    -0.077 C 
ATOM      4  C   UNL     1      89.776  28.775  14.925  1.00  0.00     0.039 C 
BRANCH   3   5
ATOM      5  C   UNL     1      91.257  28.114  16.972  1.00  0.00     0.034 C 
BRANCH   5   6
ATOM      6  C   UNL     1      91.868  29.517  17.100  1.00  0.00     0.032 C 
BRANCH   6   7
ATOM      7  C   UNL     1      93.155  29.653  16.318  1.00  0.00    -0.028 C 
ATOM      8  C   UNL     1      94.687  30.671  14.686  1.00  0.00     0.039 C 
ATOM      9  C   UNL     1      93.364  30.627  15.408  1.00  0.00    -0.080 C 
ATOM     10  C   UNL     1      92.310  31.664  15.103  1.00  0.00     0.039 C 
ENDBRANCH   6   7
ENDBRANCH   5   6
ENDBRANCH   3   5
ENDBRANCH   1   2
BRANCH   1  11
ATOM     11  C   UNL     1      91.871  26.607  12.508  1.00  0.00     0.034 C 
BRANCH  11  12
ATOM     12  C   UNL     1      91.625  27.940  11.837  1.00  0.00    -0.077 C 
ATOM     13  C   UNL     1      92.336  29.019  12.239  1.00  0.00    -0.028 C 
ATOM     14  C   UNL     1      90.579  28.034  10.750  1.00  0.00     0.039 C 
BRANCH  13  15
ATOM     15  C   UNL     1      92.216  30.395  11.634  1.00  0.00     0.035 C 
BRANCH  15  16
ATOM     16  C   UNL     1      93.544  30.829  11.004  1.00  0.00     0.079 C 
BRANCH  16  17
ATOM     17  C   UNL     1      93.525  30.604   9.515  1.00  0.00     0.130 C 
ATOM     18  O   UNL     1      93.167  31.509   8.774  1.00  0.00    -0.300 OA
ATOM     19  C   UNL     1      93.923  29.287   8.917  1.00  0.00     0.087 C 
ENDBRANCH  16  17
ENDBRANCH  15  16
ENDBRANCH  13  15
ENDBRANCH  11  12
ENDBRANCH   1  11
TORSDOF 9
ENDMDL
MODEL 4
REMARK VINA RESULT:    -1.017      1.996      4.570
REMARK INTER + INTRA:          -4.279
REMARK INTER:                  -1.301
REMARK INTRA:                  -2.978
REMARK UNBOUND:                -2.727
REMARK SMILES CC(=O)CCC=C(C)CCC=C(C)CCC=C(C)C
REMARK SMILES IDX 10 1 11 2 12 3 13 4 14 5 15 6 16 7 18 8 17 9 19 10 9 11 7 12
REMARK SMILES IDX 6 13 8 14 5 15 4 16 2 17 3 18 1 19
REMARK H PARENT
REMARK Flexibility Score: inf
ROOT
ATOM      1  C   UNL     1      92.070  30.325  10.404  1.00  0.00     0.032 C 
ENDROOT
BRANCH   1   2
ATOM      2  C   UNL     1      92.130  31.494  11.353  1.00  0.00    -0.028 C 
ATOM      3  C   UNL     1      91.083  31.940  12.085  1.00  0.00    -0.077 C 
ATOM      4  C   UNL     1      89.715  31.306  11.985  1.00  0.00     0.039 C 
BRANCH   3   5
ATOM      5  C   UNL     1      91.292  33.101  13.039  1.00  0.00     0.034 C 
BRANCH   5   6
ATOM      6  C   UNL     1      92.602  32.971  13.832  1.00  0.00     0.032 C 
BRANCH   6   7
ATOM      7  C   UNL     1      92.505  31.934  14.927  1.00  0.00    -0.028 C 
ATOM      8  C   UNL     1      93.162  29.908  16.156  1.00  0.00     0.039 C 
ATOM      9  C   UNL     1      93.347  30.883  15.022  1.00  0.00    -0.080 C 
ATOM     10  C   UNL     1      94.459  30.668  14.024  1.00  0.00     0.039 C 
ENDBRANCH   6   7
ENDBRANCH   5   6
ENDBRANCH   3   5
ENDBRANCH   1   2
BRANCH   1  11
ATOM     11  C   UNL     1      92.738  29.091  11.021  1.00  0.00     0.034 C 
BRANCH  11  12
ATOM     12  C   UNL     1      91.722  28.239  11.751  1.00  0.00    -0.077 C 
ATOM     13  C   UNL     1      91.652  28.309  13.100  1.00  0.00    -0.028 C 
ATOM     14  C   UNL     1      90.826  27.319  10.953  1.00  0.00     0.039 C 
BRANCH  13  15
ATOM     15  C   UNL     1      90.666  27.543  13.946  1.00  0.00     0.035 C 
BRANCH  15  16
ATOM     16  C   UNL     1      89.412  28.383  14.212  1.00  0.00     0.079 C 
BRANCH  16  17
ATOM     17  C   UNL     1      89.533  29.118  15.522  1.00  0.00     0.130 C 
ATOM     18  O   UNL     1      89.904  28.514  16.518  1.00  0.00    -0.300 OA
ATOM     19  C   UNL     1      89.194  30.575  15.636  1.00  0.00     0.087 C 
ENDBRANCH  16  17
ENDBRANCH  15  16
ENDBRANCH  13  15
ENDBRANCH  11  12
ENDBRANCH   1  11
TORSDOF 9
ENDMDL
MODEL 5
REMARK VINA RESULT:    -1.004      2.699      5.620
REMARK INTER + INTRA:          -4.259
REMARK INTER:                  -1.788
REMARK INTRA:                  -2.471
REMARK UNBOUND:                -2.727
REMARK SMILES CC(=O)CCC=C(C)CCC=C(C)CCC=C(C)C
REMARK SMILES IDX 10 1 11 2 12 3 13 4 14 5 15 6 16 7 18 8 17 9 19 10 9 11 7 12
REMARK SMILES IDX 6 13 8 14 5 15 4 16 2 17 3 18 1 19
REMARK H PARENT
REMARK Flexibility Score: inf
ROOT
ATOM      1  C   UNL     1      92.366  32.349  15.595  1.00  0.00     0.032 C 
ENDROOT
BRANCH   1   2
ATOM      2  C   UNL     1      92.480  31.334  16.704  1.00  0.00    -0.028 C 
ATOM      3  C   UNL     1      93.522  30.485  16.860  1.00  0.00    -0.077 C 
ATOM      4  C   UNL     1      94.678  30.457  15.887  1.00  0.00     0.039 C 
BRANCH   3   5
ATOM      5  C   UNL     1      93.533  29.544  18.049  1.00  0.00     0.034 C 
BRANCH   5   6
ATOM      6  C   UNL     1      92.260  28.687  18.123  1.00  0.00     0.032 C 
BRANCH   6   7
ATOM      7  C   UNL     1      92.171  27.698  16.983  1.00  0.00    -0.028 C 
ATOM      8  C   UNL     1      91.164  26.659  14.995  1.00  0.00     0.039 C 
ATOM      9  C   UNL     1      91.153  27.688  16.096  1.00  0.00    -0.080 C 
ATOM     10  C   UNL     1      90.017  28.678  16.185  1.00  0.00     0.039 C 
ENDBRANCH   6   7
ENDBRANCH   5   6
ENDBRANCH   3   5
ENDBRANCH   1   2
BRANCH   1  11
ATOM     11  C   UNL     1      91.419  31.849  14.498  1.00  0.00     0.034 C 
BRANCH  11  12
ATOM     12  C   UNL     1      92.189  31.140  13.405  1.00  0.00    -0.077 C 
ATOM     13  C   UNL     1      92.024  29.807  13.244  1.00  0.00    -0.028 C 
ATOM     14  C   UNL     1      93.136  31.937  12.538  1.00  0.00     0.039 C 
BRANCH  13  15
ATOM     15  C   UNL     1      92.701  28.985  12.176  1.00  0.00     0.035 C 
BRANCH  15  16
ATOM     16  C   UNL     1      91.742  28.710  11.013  1.00  0.00     0.079 C 
BRANCH  16  17
ATOM     17  C   UNL     1      92.470  28.779   9.696  1.00  0.00     0.130 C 
ATOM     18  O   UNL     1      92.200  27.974   8.817  1.00  0.00    -0.300 OA
ATOM     19  C   UNL     1      93.531  29.809   9.441  1.00  0.00     0.087 C 
ENDBRANCH  16  17
ENDBRANCH  15  16
ENDBRANCH  13  15
ENDBRANCH  11  12
ENDBRANCH   1  11
TORSDOF 9
ENDMDL
MODEL 6
REMARK VINA RESULT:    -0.993      3.247      6.542
REMARK INTER + INTRA:          -4.242
REMARK INTER:                  -1.498
REMARK INTRA:                  -2.745
REMARK UNBOUND:                -2.727
REMARK SMILES CC(=O)CCC=C(C)CCC=C(C)CCC=C(C)C
REMARK SMILES IDX 10 1 11 2 12 3 13 4 14 5 15 6 16 7 18 8 17 9 19 10 9 11 7 12
REMARK SMILES IDX 6 13 8 14 5 15 4 16 2 17 3 18 1 19
REMARK H PARENT
REMARK Flexibility Score: inf
ROOT
ATOM      1  C   UNL     1      90.710  28.911  11.822  1.00  0.00     0.032 C 
ENDROOT
BRANCH   1   2
ATOM      2  C   UNL     1      90.703  29.979  10.759  1.00  0.00    -0.028 C 
ATOM      3  C   UNL     1      90.323  29.780   9.476  1.00  0.00    -0.077 C 
ATOM      4  C   UNL     1      89.892  28.421   8.976  1.00  0.00     0.039 C 
BRANCH   3   5
ATOM      5  C   UNL     1      90.320  30.956   8.517  1.00  0.00     0.034 C 
BRANCH   5   6
ATOM      6  C   UNL     1      91.634  31.749   8.569  1.00  0.00     0.032 C 
BRANCH   6   7
ATOM      7  C   UNL     1      92.798  30.963   8.009  1.00  0.00    -0.028 C 
ATOM      8  C   UNL     1      95.012  29.895   8.065  1.00  0.00     0.039 C 
ATOM      9  C   UNL     1      93.912  30.690   8.721  1.00  0.00    -0.080 C 
ATOM     10  C   UNL     1      94.075  31.160  10.146  1.00  0.00     0.039 C 
ENDBRANCH   6   7
ENDBRANCH   5   6
ENDBRANCH   3   5
ENDBRANCH   1   2
BRANCH   1  11
ATOM     11  C   UNL     1      92.142  28.464  12.134  1.00  0.00     0.034 C 
BRANCH  11  12
ATOM     12  C   UNL     1      92.515  27.246  11.317  1.00  0.00    -0.077 C 
ATOM     13  C   UNL     1      93.211  27.411  10.170  1.00  0.00    -0.028 C 
ATOM     14  C   UNL     1      92.081  25.879  11.797  1.00  0.00     0.039 C 
BRANCH  13  15
ATOM     15  C   UNL     1      93.675  26.284   9.281  1.00  0.00     0.035 C 
BRANCH  15  16
ATOM     16  C   UNL     1      92.706  26.082   8.112  1.00  0.00     0.079 C 
BRANCH  16  17
ATOM     17  C   UNL     1      93.122  26.912   6.926  1.00  0.00     0.130 C 
ATOM     18  O   UNL     1      92.380  27.794   6.519  1.00  0.00    -0.300 OA
ATOM     19  C   UNL     1      94.425  26.673   6.221  1.00  0.00     0.087 C 
ENDBRANCH  16  17
ENDBRANCH  15  16
ENDBRANCH  13  15
ENDBRANCH  11  12
ENDBRANCH   1  11
TORSDOF 9
ENDMDL
MODEL 7
REMARK VINA RESULT:    -0.989      1.508      2.175
REMARK INTER + INTRA:          -4.236
REMARK INTER:                  -1.387
REMARK INTRA:                  -2.848
REMARK UNBOUND:                -2.727
REMARK SMILES CC(=O)CCC=C(C)CCC=C(C)CCC=C(C)C
REMARK SMILES IDX 10 1 11 2 12 3 13 4 14 5 15 6 16 7 18 8 17 9 19 10 9 11 7 12
REMARK SMILES IDX 6 13 8 14 5 15 4 16 2 17 3 18 1 19
REMARK H PARENT
REMARK Flexibility Score: inf
ROOT
ATOM      1  C   UNL     1      89.484  31.623  11.469  1.00  0.00     0.032 C 
ENDROOT
BRANCH   1   2
ATOM      2  C   UNL     1      90.742  30.980  10.945  1.00  0.00    -0.028 C 
ATOM      3  C   UNL     1      91.954  31.073  11.538  1.00  0.00    -0.077 C 
ATOM      4  C   UNL     1      92.163  31.884  12.796  1.00  0.00     0.039 C 
BRANCH   3   5
ATOM      5  C   UNL     1      93.132  30.336  10.929  1.00  0.00     0.034 C 
BRANCH   5   6
ATOM      6  C   UNL     1      92.725  28.973  10.349  1.00  0.00     0.032 C 
BRANCH   6   7
ATOM      7  C   UNL     1      92.729  27.883  11.397  1.00  0.00    -0.028 C 
ATOM      8  C   UNL     1      91.818  25.963  12.633  1.00  0.00     0.039 C 
ATOM      9  C   UNL     1      91.710  27.013  11.558  1.00  0.00    -0.080 C 
ATOM     10  C   UNL     1      90.476  27.071  10.689  1.00  0.00     0.039 C 
ENDBRANCH   6   7
ENDBRANCH   5   6
ENDBRANCH   3   5
ENDBRANCH   1   2
BRANCH   1  11
ATOM     11  C   UNL     1      88.563  30.576  12.105  1.00  0.00     0.034 C 
BRANCH  11  12
ATOM     12  C   UNL     1      89.034  30.222  13.499  1.00  0.00    -0.077 C 
ATOM     13  C   UNL     1      89.603  29.014  13.714  1.00  0.00    -0.028 C 
ATOM     14  C   UNL     1      88.837  31.221  14.616  1.00  0.00     0.039 C 
BRANCH  13  15
ATOM     15  C   UNL     1      90.145  28.548  15.042  1.00  0.00     0.035 C 
BRANCH  15  16
ATOM     16  C   UNL     1      91.662  28.759  15.113  1.00  0.00     0.079 C 
BRANCH  16  17
ATOM     17  C   UNL     1      92.042  29.453  16.395  1.00  0.00     0.130 C 
ATOM     18  O   UNL     1      92.321  28.785  17.380  1.00  0.00    -0.300 OA
ATOM     19  C   UNL     1      92.075  30.949  16.496  1.00  0.00     0.087 C 
ENDBRANCH  16  17
ENDBRANCH  15  16
ENDBRANCH  13  15
ENDBRANCH  11  12
ENDBRANCH   1  11
TORSDOF 9
ENDMDL
MODEL 8
REMARK VINA RESULT:    -0.956      3.083      5.447
REMARK INTER + INTRA:          -4.186
REMARK INTER:                  -1.312
REMARK INTRA:                  -2.874
REMARK UNBOUND:                -2.727
REMARK SMILES CC(=O)CCC=C(C)CCC=C(C)CCC=C(C)C
REMARK SMILES IDX 10 1 11 2 12 3 13 4 14 5 15 6 16 7 18 8 17 9 19 10 9 11 7 12
REMARK SMILES IDX 6 13 8 14 5 15 4 16 2 17 3 18 1 19
REMARK H PARENT
REMARK Flexibility Score: inf
ROOT
ATOM      1  C   UNL     1      92.710  29.467  12.211  1.00  0.00     0.032 C 
ENDROOT
BRANCH   1   2
ATOM      2  C   UNL     1      92.771  28.089  11.603  1.00  0.00    -0.028 C 
ATOM      3  C   UNL     1      91.739  27.215  11.581  1.00  0.00    -0.077 C 
ATOM      4  C   UNL     1      90.406  27.543  12.214  1.00  0.00     0.039 C 
BRANCH   3   5
ATOM      5  C   UNL     1      91.921  25.875  10.893  1.00  0.00     0.034 C 
BRANCH   5   6
ATOM      6  C   UNL     1      93.081  25.894   9.886  1.00  0.00     0.032 C 
BRANCH   6   7
ATOM      7  C   UNL     1      92.632  26.320   8.507  1.00  0.00    -0.028 C 
ATOM      8  C   UNL     1      92.722  27.631   6.429  1.00  0.00     0.039 C 
ATOM      9  C   UNL     1      93.252  27.286   7.797  1.00  0.00    -0.080 C 
ATOM     10  C   UNL     1      94.453  28.021   8.341  1.00  0.00     0.039 C 
ENDBRANCH   6   7
ENDBRANCH   5   6
ENDBRANCH   3   5
ENDBRANCH   1   2
BRANCH   1  11
ATOM     11  C   UNL     1      92.724  30.543  11.120  1.00  0.00     0.034 C 
BRANCH  11  12
ATOM     12  C   UNL     1      91.416  30.555  10.360  1.00  0.00    -0.077 C 
ATOM     13  C   UNL     1      91.389  30.096   9.088  1.00  0.00    -0.028 C 
ATOM     14  C   UNL     1      90.179  31.099  11.037  1.00  0.00     0.039 C 
BRANCH  13  15
ATOM     15  C   UNL     1      90.150  30.021   8.232  1.00  0.00     0.035 C 
BRANCH  15  16
ATOM     16  C   UNL     1      89.583  28.597   8.222  1.00  0.00     0.079 C 
BRANCH  16  17
ATOM     17  C   UNL     1      88.289  28.534   8.990  1.00  0.00     0.130 C 
ATOM     18  O   UNL     1      87.620  29.549   9.124  1.00  0.00    -0.300 OA
ATOM     19  C   UNL     1      87.805  27.255   9.607  1.00  0.00     0.087 C 
ENDBRANCH  16  17
ENDBRANCH  15  16
ENDBRANCH  13  15
ENDBRANCH  11  12
ENDBRANCH   1  11
TORSDOF 9
ENDMDL
MODEL 9
REMARK VINA RESULT:    -0.926      1.881      4.676
REMARK INTER + INTRA:          -4.140
REMARK INTER:                  -1.434
REMARK INTRA:                  -2.706
REMARK UNBOUND:                -2.727
REMARK SMILES CC(=O)CCC=C(C)CCC=C(C)CCC=C(C)C
REMARK SMILES IDX 10 1 11 2 12 3 13 4 14 5 15 6 16 7 18 8 17 9 19 10 9 11 7 12
REMARK SMILES IDX 6 13 8 14 5 15 4 16 2 17 3 18 1 19
REMARK H PARENT
REMARK Flexibility Score: inf
ROOT
ATOM      1  C   UNL     1      91.687  27.949  12.692  1.00  0.00     0.032 C 
ENDROOT
BRANCH   1   2
ATOM      2  C   UNL     1      90.415  28.470  13.312  1.00  0.00    -0.028 C 
ATOM      3  C   UNL     1      90.283  28.812  14.615  1.00  0.00    -0.077 C 
ATOM      4  C   UNL     1      91.423  28.664  15.596  1.00  0.00     0.039 C 
BRANCH   3   5
ATOM      5  C   UNL     1      88.958  29.369  15.099  1.00  0.00     0.034 C 
BRANCH   5   6
ATOM      6  C   UNL     1      88.545  30.634  14.332  1.00  0.00     0.032 C 
BRANCH   6   7
ATOM      7  C   UNL     1      89.643  31.672  14.310  1.00  0.00    -0.028 C 
ATOM      8  C   UNL     1      91.215  33.247  13.264  1.00  0.00     0.039 C 
ATOM      9  C   UNL     1      90.119  32.217  13.170  1.00  0.00    -0.080 C 
ATOM     10  C   UNL     1      89.578  31.819  11.818  1.00  0.00     0.039 C 
ENDBRANCH   6   7
ENDBRANCH   5   6
ENDBRANCH   3   5
ENDBRANCH   1   2
BRANCH   1  11
ATOM     11  C   UNL     1      92.051  28.757  11.442  1.00  0.00     0.034 C 
BRANCH  11  12
ATOM     12  C   UNL     1      92.874  29.973  11.808  1.00  0.00    -0.077 C 
ATOM     13  C   UNL     1      93.438  30.040  13.035  1.00  0.00    -0.028 C 
ATOM     14  C   UNL     1      93.026  31.088  10.799  1.00  0.00     0.039 C 
BRANCH  13  15
ATOM     15  C   UNL     1      94.307  31.175  13.516  1.00  0.00     0.035 C 
BRANCH  15  16
ATOM     16  C   UNL     1      95.125  30.750  14.741  1.00  0.00     0.079 C 
BRANCH  16  17
ATOM     17  C   UNL     1      94.351  30.998  16.009  1.00  0.00     0.130 C 
ATOM     18  O   UNL     1      94.632  30.368  17.018  1.00  0.00    -0.300 OA
ATOM     19  C   UNL     1      93.231  31.995  16.061  1.00  0.00     0.087 C 
ENDBRANCH  16  17
ENDBRANCH  15  16
ENDBRANCH  13  15
ENDBRANCH  11  12
ENDBRANCH   1  11
TORSDOF 9
ENDMDL
