MODEL 1
REMARK VINA RESULT:     6.779      0.000      0.000
REMARK INTER + INTRA:           9.667
REMARK INTER:                  10.346
REMARK INTRA:                  -0.680
REMARK UNBOUND:                -0.680
REMARK SMILES CC(=O)CCC=C(C)CCC=C(C)CCC=C(C)C
REMARK SMILES IDX 10 1 11 2 12 3 13 4 14 5 15 6 16 7 18 8 17 9 19 10 9 11 7 12
REMARK SMILES IDX 6 13 8 14 5 15 4 16 2 17 3 18 1 19
REMARK H PARENT
REMARK Flexibility Score: inf
ROOT
ATOM      1  C   UNL     1      33.273  24.991  32.689  1.00  0.00     0.032 C 
ENDROOT
BRANCH   1   2
ATOM      2  C   UNL     1      32.822  24.904  34.127  1.00  0.00    -0.028 C 
ATOM      3  C   UNL     1      31.524  24.962  34.498  1.00  0.00    -0.077 C 
ATOM      4  C   UNL     1      30.421  25.115  33.478  1.00  0.00     0.039 C 
BRANCH   3   5
ATOM      5  C   UNL     1      31.169  24.868  35.965  1.00  0.00     0.034 C 
BRANCH   5   6
ATOM      6  C   UNL     1      32.250  24.109  36.741  1.00  0.00     0.032 C 
BRANCH   6   7
ATOM      7  C   UNL     1      31.909  22.644  36.840  1.00  0.00    -0.028 C 
ATOM      8  C   UNL     1      30.996  20.596  37.848  1.00  0.00     0.039 C 
ATOM      9  C   UNL     1      31.315  22.067  37.909  1.00  0.00    -0.080 C 
ATOM     10  C   UNL     1      30.981  22.851  39.157  1.00  0.00     0.039 C 
ENDBRANCH   6   7
ENDBRANCH   5   6
ENDBRANCH   3   5
ENDBRANCH   1   2
BRANCH   1  11
ATOM     11  C   UNL     1      34.796  25.125  32.591  1.00  0.00     0.034 C 
BRANCH  11  12
ATOM     12  C   UNL     1      35.269  24.896  31.172  1.00  0.00    -0.077 C 
ATOM     13  C   UNL     1      34.412  25.125  30.150  1.00  0.00    -0.028 C 
ATOM     14  C   UNL     1      36.689  24.438  30.935  1.00  0.00     0.039 C 
BRANCH  13  15
ATOM     15  C   UNL     1      34.737  24.903  28.692  1.00  0.00     0.035 C 
BRANCH  15  16
ATOM     16  C   UNL     1      33.904  23.767  28.087  1.00  0.00     0.079 C 
BRANCH  16  17
ATOM     17  C   UNL     1      32.535  23.687  28.710  1.00  0.00     0.130 C 
ATOM     18  O   UNL     1      32.162  22.641  29.218  1.00  0.00    -0.300 OA
ATOM     19  C   UNL     1      31.635  24.886  28.754  1.00  0.00     0.087 C 
ENDBRANCH  16  17
ENDBRANCH  15  16
ENDBRANCH  13  15
ENDBRANCH  11  12
ENDBRANCH   1  11
TORSDOF 9
ENDMDL
MODEL 2
REMARK VINA RESULT:     7.784      1.356      2.135
REMARK INTER + INTRA:          11.200
REMARK INTER:                  12.012
REMARK INTRA:                  -0.813
REMARK UNBOUND:                -0.680
REMARK SMILES CC(=O)CCC=C(C)CCC=C(C)CCC=C(C)C
REMARK SMILES IDX 10 1 11 2 12 3 13 4 14 5 15 6 16 7 18 8 17 9 19 10 9 11 7 12
REMARK SMILES IDX 6 13 8 14 5 15 4 16 2 17 3 18 1 19
REMARK H PARENT
REMARK Flexibility Score: inf
ROOT
ATOM      1  C   UNL     1      32.428  24.162  33.147  1.00  0.00     0.032 C 
ENDROOT
BRANCH   1   2
ATOM      2  C   UNL     1      32.552  23.489  34.492  1.00  0.00    -0.028 C 
ATOM      3  C   UNL     1      31.904  23.921  35.596  1.00  0.00    -0.077 C 
ATOM      4  C   UNL     1      30.992  25.125  35.551  1.00  0.00     0.039 C 
BRANCH   3   5
ATOM      5  C   UNL     1      32.092  23.182  36.902  1.00  0.00     0.034 C 
BRANCH   5   6
ATOM      6  C   UNL     1      31.324  21.856  36.895  1.00  0.00     0.032 C 
BRANCH   6   7
ATOM      7  C   UNL     1      31.918  20.889  37.887  1.00  0.00    -0.028 C 
ATOM      8  C   UNL     1      32.269  18.731  39.011  1.00  0.00     0.039 C 
ATOM      9  C   UNL     1      31.558  19.590  37.998  1.00  0.00    -0.080 C 
ATOM     10  C   UNL     1      30.460  18.990  37.152  1.00  0.00     0.039 C 
ENDBRANCH   6   7
ENDBRANCH   5   6
ENDBRANCH   3   5
ENDBRANCH   1   2
BRANCH   1  11
ATOM     11  C   UNL     1      33.645  25.047  32.854  1.00  0.00     0.034 C 
BRANCH  11  12
ATOM     12  C   UNL     1      33.977  25.037  31.378  1.00  0.00    -0.077 C 
ATOM     13  C   UNL     1      32.970  25.123  30.478  1.00  0.00    -0.028 C 
ATOM     14  C   UNL     1      35.425  24.954  30.951  1.00  0.00     0.039 C 
BRANCH  13  15
ATOM     15  C   UNL     1      33.154  25.087  28.980  1.00  0.00     0.035 C 
BRANCH  15  16
ATOM     16  C   UNL     1      31.822  24.896  28.244  1.00  0.00     0.079 C 
BRANCH  16  17
ATOM     17  C   UNL     1      31.341  23.471  28.327  1.00  0.00     0.130 C 
ATOM     18  O   UNL     1      30.179  23.243  28.628  1.00  0.00    -0.300 OA
ATOM     19  C   UNL     1      32.255  22.327  28.006  1.00  0.00     0.087 C 
ENDBRANCH  16  17
ENDBRANCH  15  16
ENDBRANCH  13  15
ENDBRANCH  11  12
ENDBRANCH   1  11
TORSDOF 9
ENDMDL
