MODEL 1
REMARK VINA RESULT:     4.197      0.000      0.000
REMARK INTER + INTRA:           5.467
REMARK INTER:                   5.668
REMARK INTRA:                  -0.201
REMARK UNBOUND:                -0.201
REMARK SMILES CCCCCCCC(=O)[O-]
REMARK SMILES IDX 5 1 6 2 7 3 8 4 9 5 10 6 4 7 3 8 2 9 1 10
REMARK H PARENT
REMARK Flexibility Score: inf
ROOT
ATOM      1  C   UNL     1      11.628 -10.207   5.116  1.00  0.00     0.000 C 
ENDROOT
BRANCH   1   2
ATOM      2  C   UNL     1      10.902 -11.185   6.052  1.00  0.00     0.006 C 
BRANCH   2   3
ATOM      3  C   UNL     1      11.154 -12.637   5.633  1.00  0.00     0.053 C 
BRANCH   3   4
ATOM      4  C   UNL     1       9.864 -13.320   5.306  1.00  0.00     0.041 C 
ATOM      5  O   UNL     1       9.826 -14.571   5.171  1.00  0.00    -0.550 OA
ATOM      6  O   UNL     1       8.713 -12.569   5.101  1.00  0.00    -0.550 OA
ENDBRANCH   3   4
ENDBRANCH   2   3
ENDBRANCH   1   2
BRANCH   1   7
ATOM      7  C   UNL     1      12.752 -10.894   4.313  1.00  0.00     0.000 C 
BRANCH   7   8
ATOM      8  C   UNL     1      13.817  -9.918   3.783  1.00  0.00    -0.000 C 
BRANCH   8   9
ATOM      9  C   UNL     1      14.668 -10.517   2.656  1.00  0.00    -0.003 C 
ATOM     10  C   UNL     1      15.622  -9.478   2.075  1.00  0.00     0.004 C 
ENDBRANCH   8   9
ENDBRANCH   7   8
ENDBRANCH   1   7
TORSDOF 6
ENDMDL
MODEL 2
REMARK VINA RESULT:     4.206      4.220      4.889
REMARK INTER + INTRA:           5.481
REMARK INTER:                   5.578
REMARK INTRA:                  -0.097
REMARK UNBOUND:                -0.201
REMARK SMILES CCCCCCCC(=O)[O-]
REMARK SMILES IDX 5 1 6 2 7 3 8 4 9 5 10 6 4 7 3 8 2 9 1 10
REMARK H PARENT
REMARK Flexibility Score: inf
ROOT
ATOM      1  C   UNL     1      13.509 -14.462   6.166  1.00  0.00     0.000 C 
ENDROOT
BRANCH   1   2
ATOM      2  C   UNL     1      12.596 -13.238   6.337  1.00  0.00     0.006 C 
BRANCH   2   3
ATOM      3  C   UNL     1      11.252 -13.453   5.636  1.00  0.00     0.053 C 
BRANCH   3   4
ATOM      4  C   UNL     1      10.458 -12.186   5.627  1.00  0.00     0.041 C 
ATOM      5  O   UNL     1      11.016 -11.086   5.883  1.00  0.00    -0.550 OA
ATOM      6  O   UNL     1       9.090 -12.224   5.385  1.00  0.00    -0.550 OA
ENDBRANCH   3   4
ENDBRANCH   2   3
ENDBRANCH   1   2
BRANCH   1   7
ATOM      7  C   UNL     1      14.719 -14.425   7.123  1.00  0.00     0.000 C 
BRANCH   7   8
ATOM      8  C   UNL     1      15.659 -15.634   6.976  1.00  0.00    -0.000 C 
BRANCH   8   9
ATOM      9  C   UNL     1      17.125 -15.230   6.772  1.00  0.00    -0.003 C 
ATOM     10  C   UNL     1      18.039 -16.451   6.782  1.00  0.00     0.004 C 
ENDBRANCH   8   9
ENDBRANCH   7   8
ENDBRANCH   1   7
TORSDOF 6
ENDMDL
MODEL 3
REMARK VINA RESULT:     4.440      4.288      4.987
REMARK INTER + INTRA:           5.796
REMARK INTER:                   5.890
REMARK INTRA:                  -0.094
REMARK UNBOUND:                -0.201
REMARK SMILES CCCCCCCC(=O)[O-]
REMARK SMILES IDX 5 1 6 2 7 3 8 4 9 5 10 6 4 7 3 8 2 9 1 10
REMARK H PARENT
REMARK Flexibility Score: inf
ROOT
ATOM      1  C   UNL     1      13.889 -13.957   6.931  1.00  0.00     0.000 C 
ENDROOT
BRANCH   1   2
ATOM      2  C   UNL     1      12.700 -13.887   5.961  1.00  0.00     0.006 C 
BRANCH   2   3
ATOM      3  C   UNL     1      11.971 -12.545   6.080  1.00  0.00     0.053 C 
BRANCH   3   4
ATOM      4  C   UNL     1      10.545 -12.683   5.653  1.00  0.00     0.041 C 
ATOM      5  O   UNL     1       9.787 -11.677   5.636  1.00  0.00    -0.550 OA
ATOM      6  O   UNL     1      10.036 -13.933   5.322  1.00  0.00    -0.550 OA
ENDBRANCH   3   4
ENDBRANCH   2   3
ENDBRANCH   1   2
BRANCH   1   7
ATOM      7  C   UNL     1      14.723 -15.241   6.738  1.00  0.00     0.000 C 
BRANCH   7   8
ATOM      8  C   UNL     1      16.240 -15.016   6.861  1.00  0.00    -0.000 C 
BRANCH   8   9
ATOM      9  C   UNL     1      17.019 -16.315   7.101  1.00  0.00    -0.003 C 
ATOM     10  C   UNL     1      18.382 -16.274   6.417  1.00  0.00     0.004 C 
ENDBRANCH   8   9
ENDBRANCH   7   8
ENDBRANCH   1   7
TORSDOF 6
ENDMDL
MODEL 4
REMARK VINA RESULT:     5.822      1.408      2.099
REMARK INTER + INTRA:           7.663
REMARK INTER:                   6.080
REMARK INTRA:                   1.583
REMARK UNBOUND:                -0.201
REMARK SMILES CCCCCCCC(=O)[O-]
REMARK SMILES IDX 5 1 6 2 7 3 8 4 9 5 10 6 4 7 3 8 2 9 1 10
REMARK H PARENT
REMARK Flexibility Score: inf
ROOT
ATOM      1  C   UNL     1      10.737 -11.754   5.770  1.00  0.00     0.000 C 
ENDROOT
BRANCH   1   2
ATOM      2  C   UNL     1       9.241 -12.011   5.535  1.00  0.00     0.006 C 
BRANCH   2   3
ATOM      3  C   UNL     1       9.013 -13.382   4.893  1.00  0.00     0.053 C 
BRANCH   3   4
ATOM      4  C   UNL     1      10.194 -14.271   5.119  1.00  0.00     0.041 C 
ATOM      5  O   UNL     1      10.111 -15.507   4.892  1.00  0.00    -0.550 OA
ATOM      6  O   UNL     1      11.374 -13.742   5.628  1.00  0.00    -0.550 OA
ENDBRANCH   3   4
ENDBRANCH   2   3
ENDBRANCH   1   2
BRANCH   1   7
ATOM      7  C   UNL     1      11.076 -10.249   5.783  1.00  0.00     0.000 C 
BRANCH   7   8
ATOM      8  C   UNL     1      12.211  -9.863   4.819  1.00  0.00    -0.000 C 
BRANCH   8   9
ATOM      9  C   UNL     1      12.789 -11.068   4.064  1.00  0.00    -0.003 C 
ATOM     10  C   UNL     1      13.935 -10.646   3.151  1.00  0.00     0.004 C 
ENDBRANCH   8   9
ENDBRANCH   7   8
ENDBRANCH   1   7
TORSDOF 6
ENDMDL
