MODEL 1
REMARK VINA RESULT:    -5.460      0.000      0.000
REMARK INTER + INTRA:          -6.718
REMARK INTER:                  -6.417
REMARK INTRA:                  -0.300
REMARK UNBOUND:                -0.300
REMARK SMILES O=c1c(O)c(-c2ccc(O)cc2)oc2cc(O)cc(O)c12
REMARK SMILES IDX 5 1 3 2 2 3 1 4 21 5 19 6 18 7 16 8 15 9 14 10 13 11 6 12
REMARK SMILES IDX 7 13 8 14 9 15 12 16 11 17 10 18 4 20 20 22 17 24
REMARK H PARENT 10 19 4 21 20 23 17 25
REMARK Flexibility Score: inf
ROOT
ATOM      1  C   UNL     1      19.107  19.912  20.462  1.00  0.00     0.180 A 
ATOM      2  C   UNL     1      18.702  19.875  19.116  1.00  0.00     0.208 A 
ATOM      3  C   UNL     1      18.744  21.058  18.361  1.00  0.00     0.238 A 
ATOM      4  O   UNL     1      18.328  21.032  17.173  1.00  0.00    -0.285 OA
ATOM      5  C   UNL     1      19.205  22.258  18.954  1.00  0.00     0.111 A 
ATOM      6  C   UNL     1      19.328  23.505  18.272  1.00  0.00     0.134 A 
ATOM      7  C   UNL     1      19.671  24.657  18.992  1.00  0.00     0.093 A 
ATOM      8  C   UNL     1      19.960  24.592  20.357  1.00  0.00     0.123 A 
ATOM      9  C   UNL     1      19.901  23.369  21.019  1.00  0.00     0.094 A 
ATOM     10  C   UNL     1      19.526  22.210  20.336  1.00  0.00     0.146 A 
ATOM     11  O   UNL     1      19.473  21.065  21.008  1.00  0.00    -0.452 OA
ENDROOT
BRANCH   1  12
ATOM     12  C   UNL     1      19.116  18.702  21.315  1.00  0.00     0.021 A 
ATOM     13  C   UNL     1      17.999  18.413  22.117  1.00  0.00     0.016 A 
ATOM     14  C   UNL     1      17.993  17.287  22.946  1.00  0.00     0.047 A 
ATOM     15  C   UNL     1      19.109  16.446  22.997  1.00  0.00     0.115 A 
ATOM     16  C   UNL     1      20.243  17.862  21.386  1.00  0.00     0.016 A 
ATOM     17  C   UNL     1      20.235  16.737  22.217  1.00  0.00     0.047 A 
BRANCH  15  18
ATOM     18  O   UNL     1      19.090  15.327  23.828  1.00  0.00    -0.508 OA
ATOM     19  H   UNL     1      18.286  14.714  23.871  1.00  0.00     0.293 HD
ENDBRANCH  15  18
ENDBRANCH   1  12
BRANCH   2  20
ATOM     20  O   UNL     1      18.229  18.686  18.557  1.00  0.00    -0.502 OA
ATOM     21  H   UNL     1      18.756  18.162  17.868  1.00  0.00     0.293 HD
ENDBRANCH   2  20
BRANCH   6  22
ATOM     22  O   UNL     1      19.151  23.661  16.894  1.00  0.00    -0.507 OA
ATOM     23  H   UNL     1      18.281  23.917  16.451  1.00  0.00     0.293 HD
ENDBRANCH   6  22
BRANCH   8  24
ATOM     24  O   UNL     1      20.316  25.739  21.063  1.00  0.00    -0.508 OA
ATOM     25  H   UNL     1      19.618  26.382  21.418  1.00  0.00     0.293 HD
ENDBRANCH   8  24
TORSDOF 5
ENDMDL
MODEL 2
REMARK VINA RESULT:    -5.259      3.369      6.231
REMARK INTER + INTRA:          -6.482
REMARK INTER:                  -6.202
REMARK INTRA:                  -0.280
REMARK UNBOUND:                -0.300
REMARK SMILES O=c1c(O)c(-c2ccc(O)cc2)oc2cc(O)cc(O)c12
REMARK SMILES IDX 5 1 3 2 2 3 1 4 21 5 19 6 18 7 16 8 15 9 14 10 13 11 6 12
REMARK SMILES IDX 7 13 8 14 9 15 12 16 11 17 10 18 4 20 20 22 17 24
REMARK H PARENT 10 19 4 21 20 23 17 25
REMARK Flexibility Score: inf
ROOT
ATOM      1  C   UNL     1      21.658  17.451  21.326  1.00  0.00     0.180 A 
ATOM      2  C   UNL     1      21.160  16.476  22.208  1.00  0.00     0.208 A 
ATOM      3  C   UNL     1      19.824  16.563  22.632  1.00  0.00     0.238 A 
ATOM      4  O   UNL     1      19.398  15.719  23.464  1.00  0.00    -0.285 OA
ATOM      5  C   UNL     1      18.999  17.611  22.157  1.00  0.00     0.111 A 
ATOM      6  C   UNL     1      17.621  17.772  22.489  1.00  0.00     0.134 A 
ATOM      7  C   UNL     1      16.938  18.919  22.067  1.00  0.00     0.093 A 
ATOM      8  C   UNL     1      17.567  19.879  21.269  1.00  0.00     0.123 A 
ATOM      9  C   UNL     1      18.894  19.700  20.890  1.00  0.00     0.094 A 
ATOM     10  C   UNL     1      19.613  18.584  21.326  1.00  0.00     0.146 A 
ATOM     11  O   UNL     1      20.880  18.458  20.950  1.00  0.00    -0.452 OA
ENDROOT
BRANCH   1  12
ATOM     12  C   UNL     1      23.048  17.413  20.814  1.00  0.00     0.021 A 
ATOM     13  C   UNL     1      24.013  18.269  21.370  1.00  0.00     0.016 A 
ATOM     14  C   UNL     1      25.326  18.265  20.889  1.00  0.00     0.047 A 
ATOM     15  C   UNL     1      25.685  17.419  19.835  1.00  0.00     0.115 A 
ATOM     16  C   UNL     1      23.412  16.579  19.741  1.00  0.00     0.016 A 
ATOM     17  C   UNL     1      24.725  16.578  19.260  1.00  0.00     0.047 A 
BRANCH  15  18
ATOM     18  O   UNL     1      26.997  17.426  19.364  1.00  0.00    -0.508 OA
ATOM     19  H   UNL     1      27.371  16.652  18.828  1.00  0.00     0.293 HD
ENDBRANCH  15  18
ENDBRANCH   1  12
BRANCH   2  20
ATOM     20  O   UNL     1      21.996  15.463  22.681  1.00  0.00    -0.502 OA
ATOM     21  H   UNL     1      21.697  14.792  23.379  1.00  0.00     0.293 HD
ENDBRANCH   2  20
BRANCH   6  22
ATOM     22  O   UNL     1      16.875  16.830  23.203  1.00  0.00    -0.507 OA
ATOM     23  H   UNL     1      17.203  15.909  23.456  1.00  0.00     0.293 HD
ENDBRANCH   6  22
BRANCH   8  24
ATOM     24  O   UNL     1      16.875  21.009  20.839  1.00  0.00    -0.508 OA
ATOM     25  H   UNL     1      17.143  21.507  19.998  1.00  0.00     0.293 HD
ENDBRANCH   8  24
TORSDOF 5
ENDMDL
MODEL 3
REMARK VINA RESULT:    -5.233      1.762      6.958
REMARK INTER + INTRA:          -6.450
REMARK INTER:                  -6.205
REMARK INTRA:                  -0.245
REMARK UNBOUND:                -0.300
REMARK SMILES O=c1c(O)c(-c2ccc(O)cc2)oc2cc(O)cc(O)c12
REMARK SMILES IDX 5 1 3 2 2 3 1 4 21 5 19 6 18 7 16 8 15 9 14 10 13 11 6 12
REMARK SMILES IDX 7 13 8 14 9 15 12 16 11 17 10 18 4 20 20 22 17 24
REMARK H PARENT 10 19 4 21 20 23 17 25
REMARK Flexibility Score: inf
ROOT
ATOM      1  C   UNL     1      19.068  19.827  20.812  1.00  0.00     0.180 A 
ATOM      2  C   UNL     1      18.009  19.372  21.617  1.00  0.00     0.208 A 
ATOM      3  C   UNL     1      18.094  18.095  22.195  1.00  0.00     0.238 A 
ATOM      4  O   UNL     1      17.119  17.671  22.869  1.00  0.00    -0.285 OA
ATOM      5  C   UNL     1      19.242  17.296  21.975  1.00  0.00     0.111 A 
ATOM      6  C   UNL     1      19.451  16.004  22.543  1.00  0.00     0.134 A 
ATOM      7  C   UNL     1      20.565  15.250  22.152  1.00  0.00     0.093 A 
ATOM      8  C   UNL     1      21.509  15.768  21.263  1.00  0.00     0.123 A 
ATOM      9  C   UNL     1      21.344  17.051  20.749  1.00  0.00     0.094 A 
ATOM     10  C   UNL     1      20.225  17.814  21.092  1.00  0.00     0.146 A 
ATOM     11  O   UNL     1      20.101  19.029  20.571  1.00  0.00    -0.452 OA
ENDROOT
BRANCH   1  12
ATOM     12  C   UNL     1      19.063  21.171  20.189  1.00  0.00     0.021 A 
ATOM     13  C   UNL     1      19.334  22.300  20.980  1.00  0.00     0.016 A 
ATOM     14  C   UNL     1      19.313  23.580  20.419  1.00  0.00     0.047 A 
ATOM     15  C   UNL     1      19.005  23.749  19.065  1.00  0.00     0.115 A 
ATOM     16  C   UNL     1      18.734  21.350  18.833  1.00  0.00     0.016 A 
ATOM     17  C   UNL     1      18.713  22.632  18.274  1.00  0.00     0.047 A 
BRANCH  15  18
ATOM     18  O   UNL     1      18.988  25.031  18.519  1.00  0.00    -0.508 OA
ATOM     19  H   UNL     1      18.496  25.793  18.970  1.00  0.00     0.293 HD
ENDBRANCH  15  18
ENDBRANCH   1  12
BRANCH   2  20
ATOM     20  O   UNL     1      16.875  20.167  21.803  1.00  0.00    -0.502 OA
ATOM     21  H   UNL     1      16.934  21.144  22.067  1.00  0.00     0.293 HD
ENDBRANCH   2  20
BRANCH   6  22
ATOM     22  O   UNL     1      18.618  15.432  23.508  1.00  0.00    -0.507 OA
ATOM     23  H   UNL     1      18.258  15.916  24.317  1.00  0.00     0.293 HD
ENDBRANCH   6  22
BRANCH   8  24
ATOM     24  O   UNL     1      22.622  15.017  20.891  1.00  0.00    -0.508 OA
ATOM     25  H   UNL     1      23.087  15.160  20.002  1.00  0.00     0.293 HD
ENDBRANCH   8  24
TORSDOF 5
ENDMDL
MODEL 4
REMARK VINA RESULT:    -5.230      1.845      7.063
REMARK INTER + INTRA:          -6.447
REMARK INTER:                  -6.159
REMARK INTRA:                  -0.288
REMARK UNBOUND:                -0.300
REMARK SMILES O=c1c(O)c(-c2ccc(O)cc2)oc2cc(O)cc(O)c12
REMARK SMILES IDX 5 1 3 2 2 3 1 4 21 5 19 6 18 7 16 8 15 9 14 10 13 11 6 12
REMARK SMILES IDX 7 13 8 14 9 15 12 16 11 17 10 18 4 20 20 22 17 24
REMARK H PARENT 10 19 4 21 20 23 17 25
REMARK Flexibility Score: inf
ROOT
ATOM      1  C   UNL     1      19.901  19.848  20.871  1.00  0.00     0.180 A 
ATOM      2  C   UNL     1      21.231  19.409  20.992  1.00  0.00     0.208 A 
ATOM      3  C   UNL     1      21.479  18.115  21.476  1.00  0.00     0.238 A 
ATOM      4  O   UNL     1      22.673  17.748  21.636  1.00  0.00    -0.285 OA
ATOM      5  C   UNL     1      20.396  17.269  21.817  1.00  0.00     0.111 A 
ATOM      6  C   UNL     1      20.530  15.926  22.278  1.00  0.00     0.134 A 
ATOM      7  C   UNL     1      19.395  15.227  22.710  1.00  0.00     0.093 A 
ATOM      8  C   UNL     1      18.124  15.801  22.634  1.00  0.00     0.123 A 
ATOM      9  C   UNL     1      17.977  17.090  22.129  1.00  0.00     0.094 A 
ATOM     10  C   UNL     1      19.094  17.826  21.725  1.00  0.00     0.146 A 
ATOM     11  O   UNL     1      18.909  19.056  21.259  1.00  0.00    -0.452 OA
ENDROOT
BRANCH   1  12
ATOM     12  C   UNL     1      19.559  21.189  20.344  1.00  0.00     0.021 A 
ATOM     13  C   UNL     1      19.366  21.361  18.963  1.00  0.00     0.016 A 
ATOM     14  C   UNL     1      19.063  22.623  18.442  1.00  0.00     0.047 A 
ATOM     15  C   UNL     1      18.966  23.730  19.290  1.00  0.00     0.115 A 
ATOM     16  C   UNL     1      19.479  22.311  21.190  1.00  0.00     0.016 A 
ATOM     17  C   UNL     1      19.178  23.572  20.665  1.00  0.00     0.047 A 
BRANCH  15  18
ATOM     18  O   UNL     1      18.664  24.981  18.757  1.00  0.00    -0.508 OA
ATOM     19  H   UNL     1      18.399  25.093  17.786  1.00  0.00     0.293 HD
ENDBRANCH  15  18
ENDBRANCH   1  12
BRANCH   2  20
ATOM     20  O   UNL     1      22.286  20.268  20.672  1.00  0.00    -0.502 OA
ATOM     21  H   UNL     1      22.805  20.191  19.806  1.00  0.00     0.293 HD
ENDBRANCH   2  20
BRANCH   6  22
ATOM     22  O   UNL     1      21.741  15.228  22.307  1.00  0.00    -0.507 OA
ATOM     23  H   UNL     1      22.549  15.501  22.847  1.00  0.00     0.293 HD
ENDBRANCH   6  22
BRANCH   8  24
ATOM     24  O   UNL     1      16.999  15.093  23.050  1.00  0.00    -0.508 OA
ATOM     25  H   UNL     1      16.696  14.251  22.575  1.00  0.00     0.293 HD
ENDBRANCH   8  24
TORSDOF 5
ENDMDL
MODEL 5
REMARK VINA RESULT:    -5.187      1.670      6.609
REMARK INTER + INTRA:          -6.396
REMARK INTER:                  -6.097
REMARK INTRA:                  -0.299
REMARK UNBOUND:                -0.300
REMARK SMILES O=c1c(O)c(-c2ccc(O)cc2)oc2cc(O)cc(O)c12
REMARK SMILES IDX 5 1 3 2 2 3 1 4 21 5 19 6 18 7 16 8 15 9 14 10 13 11 6 12
REMARK SMILES IDX 7 13 8 14 9 15 12 16 11 17 10 18 4 20 20 22 17 24
REMARK H PARENT 10 19 4 21 20 23 17 25
REMARK Flexibility Score: inf
ROOT
ATOM      1  C   UNL     1      19.413  20.569  20.151  1.00  0.00     0.180 A 
ATOM      2  C   UNL     1      18.233  20.025  19.614  1.00  0.00     0.208 A 
ATOM      3  C   UNL     1      17.943  18.670  19.844  1.00  0.00     0.238 A 
ATOM      4  O   UNL     1      16.914  18.174  19.315  1.00  0.00    -0.285 OA
ATOM      5  C   UNL     1      18.826  17.882  20.621  1.00  0.00     0.111 A 
ATOM      6  C   UNL     1      18.611  16.510  20.951  1.00  0.00     0.134 A 
ATOM      7  C   UNL     1      19.615  15.794  21.615  1.00  0.00     0.093 A 
ATOM      8  C   UNL     1      20.798  16.418  22.019  1.00  0.00     0.123 A 
ATOM      9  C   UNL     1      20.990  17.771  21.754  1.00  0.00     0.094 A 
ATOM     10  C   UNL     1      20.023  18.503  21.061  1.00  0.00     0.146 A 
ATOM     11  O   UNL     1      20.252  19.789  20.820  1.00  0.00    -0.452 OA
ENDROOT
BRANCH   1  12
ATOM     12  C   UNL     1      19.774  21.995  19.973  1.00  0.00     0.021 A 
ATOM     13  C   UNL     1      20.629  22.365  18.923  1.00  0.00     0.016 A 
ATOM     14  C   UNL     1      21.000  23.702  18.749  1.00  0.00     0.047 A 
ATOM     15  C   UNL     1      20.536  24.681  19.632  1.00  0.00     0.115 A 
ATOM     16  C   UNL     1      19.326  22.982  20.870  1.00  0.00     0.016 A 
ATOM     17  C   UNL     1      19.700  24.318  20.694  1.00  0.00     0.047 A 
BRANCH  15  18
ATOM     18  O   UNL     1      20.914  26.010  19.447  1.00  0.00    -0.508 OA
ATOM     19  H   UNL     1      20.866  26.452  18.537  1.00  0.00     0.293 HD
ENDBRANCH  15  18
ENDBRANCH   1  12
BRANCH   2  20
ATOM     20  O   UNL     1      17.387  20.814  18.832  1.00  0.00    -0.502 OA
ATOM     21  H   UNL     1      16.873  21.601  19.210  1.00  0.00     0.293 HD
ENDBRANCH   2  20
BRANCH   6  22
ATOM     22  O   UNL     1      17.429  15.818  20.675  1.00  0.00    -0.507 OA
ATOM     23  H   UNL     1      17.310  14.821  20.777  1.00  0.00     0.293 HD
ENDBRANCH   6  22
BRANCH   8  24
ATOM     24  O   UNL     1      21.784  15.702  22.693  1.00  0.00    -0.508 OA
ATOM     25  H   UNL     1      22.122  15.993  23.603  1.00  0.00     0.293 HD
ENDBRANCH   8  24
TORSDOF 5
ENDMDL
MODEL 6
REMARK VINA RESULT:    -5.178      5.487      7.390
REMARK INTER + INTRA:          -6.387
REMARK INTER:                  -6.598
REMARK INTRA:                   0.211
REMARK UNBOUND:                -0.300
REMARK SMILES O=c1c(O)c(-c2ccc(O)cc2)oc2cc(O)cc(O)c12
REMARK SMILES IDX 5 1 3 2 2 3 1 4 21 5 19 6 18 7 16 8 15 9 14 10 13 11 6 12
REMARK SMILES IDX 7 13 8 14 9 15 12 16 11 17 10 18 4 20 20 22 17 24
REMARK H PARENT 10 19 4 21 20 23 17 25
REMARK Flexibility Score: inf
ROOT
ATOM      1  C   UNL     1      21.803  16.463  20.767  1.00  0.00     0.180 A 
ATOM      2  C   UNL     1      20.933  16.040  19.746  1.00  0.00     0.208 A 
ATOM      3  C   UNL     1      19.648  15.592  20.090  1.00  0.00     0.238 A 
ATOM      4  O   UNL     1      18.893  15.162  19.178  1.00  0.00    -0.285 OA
ATOM      5  C   UNL     1      19.241  15.588  21.446  1.00  0.00     0.111 A 
ATOM      6  C   UNL     1      17.949  15.194  21.904  1.00  0.00     0.134 A 
ATOM      7  C   UNL     1      17.700  15.106  23.280  1.00  0.00     0.093 A 
ATOM      8  C   UNL     1      18.678  15.461  24.212  1.00  0.00     0.123 A 
ATOM      9  C   UNL     1      19.922  15.905  23.774  1.00  0.00     0.094 A 
ATOM     10  C   UNL     1      20.212  15.968  22.409  1.00  0.00     0.146 A 
ATOM     11  O   UNL     1      21.416  16.386  22.034  1.00  0.00    -0.452 OA
ENDROOT
BRANCH   1  12
ATOM     12  C   UNL     1      23.164  16.972  20.481  1.00  0.00     0.021 A 
ATOM     13  C   UNL     1      23.647  18.087  21.187  1.00  0.00     0.016 A 
ATOM     14  C   UNL     1      24.920  18.598  20.918  1.00  0.00     0.047 A 
ATOM     15  C   UNL     1      25.719  18.013  19.931  1.00  0.00     0.115 A 
ATOM     16  C   UNL     1      23.965  16.401  19.475  1.00  0.00     0.016 A 
ATOM     17  C   UNL     1      25.238  16.915  19.208  1.00  0.00     0.047 A 
BRANCH  15  18
ATOM     18  O   UNL     1      26.986  18.533  19.673  1.00  0.00    -0.508 OA
ATOM     19  H   UNL     1      27.362  19.303  20.213  1.00  0.00     0.293 HD
ENDBRANCH  15  18
ENDBRANCH   1  12
BRANCH   2  20
ATOM     20  O   UNL     1      21.362  16.030  18.417  1.00  0.00    -0.502 OA
ATOM     21  H   UNL     1      22.169  16.556  18.102  1.00  0.00     0.293 HD
ENDBRANCH   2  20
BRANCH   6  22
ATOM     22  O   UNL     1      16.875  14.907  21.057  1.00  0.00    -0.507 OA
ATOM     23  H   UNL     1      16.306  15.600  20.594  1.00  0.00     0.293 HD
ENDBRANCH   6  22
BRANCH   8  24
ATOM     24  O   UNL     1      18.417  15.386  25.579  1.00  0.00    -0.508 OA
ATOM     25  H   UNL     1      17.469  15.375  25.938  1.00  0.00     0.293 HD
ENDBRANCH   8  24
TORSDOF 5
ENDMDL
MODEL 7
REMARK VINA RESULT:    -4.389      2.046      5.951
REMARK INTER + INTRA:          -5.460
REMARK INTER:                  -5.212
REMARK INTRA:                  -0.247
REMARK UNBOUND:                -0.300
REMARK SMILES O=c1c(O)c(-c2ccc(O)cc2)oc2cc(O)cc(O)c12
REMARK SMILES IDX 5 1 3 2 2 3 1 4 21 5 19 6 18 7 16 8 15 9 14 10 13 11 6 12
REMARK SMILES IDX 7 13 8 14 9 15 12 16 11 17 10 18 4 20 20 22 17 24
REMARK H PARENT 10 19 4 21 20 23 17 25
REMARK Flexibility Score: inf
ROOT
ATOM      1  C   UNL     1      19.308  20.842  20.076  1.00  0.00     0.180 A 
ATOM      2  C   UNL     1      18.705  21.053  18.822  1.00  0.00     0.208 A 
ATOM      3  C   UNL     1      18.218  19.947  18.108  1.00  0.00     0.238 A 
ATOM      4  O   UNL     1      17.730  20.135  16.962  1.00  0.00    -0.285 OA
ATOM      5  C   UNL     1      18.323  18.648  18.660  1.00  0.00     0.111 A 
ATOM      6  C   UNL     1      17.827  17.461  18.042  1.00  0.00     0.134 A 
ATOM      7  C   UNL     1      18.102  16.215  18.619  1.00  0.00     0.093 A 
ATOM      8  C   UNL     1      18.799  16.118  19.825  1.00  0.00     0.123 A 
ATOM      9  C   UNL     1      19.235  17.274  20.466  1.00  0.00     0.094 A 
ATOM     10  C   UNL     1      19.007  18.530  19.898  1.00  0.00     0.146 A 
ATOM     11  O   UNL     1      19.450  19.606  20.537  1.00  0.00    -0.452 OA
ENDROOT
BRANCH   1  12
ATOM     12  C   UNL     1      19.822  21.960  20.900  1.00  0.00     0.021 A 
ATOM     13  C   UNL     1      18.918  22.771  21.605  1.00  0.00     0.016 A 
ATOM     14  C   UNL     1      19.380  23.845  22.373  1.00  0.00     0.047 A 
ATOM     15  C   UNL     1      20.748  24.131  22.431  1.00  0.00     0.115 A 
ATOM     16  C   UNL     1      21.195  22.265  20.947  1.00  0.00     0.016 A 
ATOM     17  C   UNL     1      21.654  23.341  21.714  1.00  0.00     0.047 A 
BRANCH  15  18
ATOM     18  O   UNL     1      21.194  25.205  23.199  1.00  0.00    -0.508 OA
ATOM     19  H   UNL     1      21.404  26.104  22.781  1.00  0.00     0.293 HD
ENDBRANCH  15  18
ENDBRANCH   1  12
BRANCH   2  20
ATOM     20  O   UNL     1      18.632  22.340  18.285  1.00  0.00    -0.502 OA
ATOM     21  H   UNL     1      17.994  23.042  18.641  1.00  0.00     0.293 HD
ENDBRANCH   2  20
BRANCH   6  22
ATOM     22  O   UNL     1      17.042  17.454  16.886  1.00  0.00    -0.507 OA
ATOM     23  H   UNL     1      16.377  16.733  16.647  1.00  0.00     0.293 HD
ENDBRANCH   6  22
BRANCH   8  24
ATOM     24  O   UNL     1      19.055  14.875  20.400  1.00  0.00    -0.508 OA
ATOM     25  H   UNL     1      19.296  14.069  19.836  1.00  0.00     0.293 HD
ENDBRANCH   8  24
TORSDOF 5
ENDMDL
