MODEL 1
REMARK VINA RESULT:    -3.514      0.000      0.000
REMARK INTER + INTRA:          -4.803
REMARK INTER:                  -4.643
REMARK INTRA:                  -0.160
REMARK UNBOUND:                -0.160
REMARK SMILES CCCCCCCO
REMARK SMILES IDX 5 1 4 2 3 3 2 4 1 5 6 6 7 7 8 8
REMARK H PARENT 8 9
REMARK Flexibility Score: inf
ROOT
ATOM      1  C   UNL     1      29.755  27.238  22.258  1.00  0.00     0.002 C 
ENDROOT
BRANCH   1   2
ATOM      2  C   UNL     1      29.915  25.714  22.207  1.00  0.00     0.000 C 
BRANCH   2   3
ATOM      3  C   UNL     1      28.918  25.088  21.225  1.00  0.00    -0.000 C 
BRANCH   3   4
ATOM      4  C   UNL     1      28.651  26.024  20.040  1.00  0.00    -0.003 C 
ATOM      5  C   UNL     1      28.748  25.275  18.714  1.00  0.00     0.004 C 
ENDBRANCH   3   4
ENDBRANCH   2   3
ENDBRANCH   1   2
BRANCH   1   6
ATOM      6  C   UNL     1      31.115  27.929  22.412  1.00  0.00     0.028 C 
BRANCH   6   7
ATOM      7  C   UNL     1      30.982  29.445  22.282  1.00  0.00     0.156 C 
BRANCH   7   8
ATOM      8  O   UNL     1      32.083  29.953  21.581  1.00  0.00    -0.396 OA
ATOM      9  H   UNL     1      32.188  29.378  20.780  1.00  0.00     0.210 HD
ENDBRANCH   7   8
ENDBRANCH   6   7
ENDBRANCH   1   6
TORSDOF 6
ENDMDL
MODEL 2
REMARK VINA RESULT:    -3.508      2.324      4.265
REMARK INTER + INTRA:          -4.796
REMARK INTER:                  -4.618
REMARK INTRA:                  -0.177
REMARK UNBOUND:                -0.160
REMARK SMILES CCCCCCCO
REMARK SMILES IDX 5 1 4 2 3 3 2 4 1 5 6 6 7 7 8 8
REMARK H PARENT 8 9
REMARK Flexibility Score: inf
ROOT
ATOM      1  C   UNL     1      29.398  25.826  22.226  1.00  0.00     0.002 C 
ENDROOT
BRANCH   1   2
ATOM      2  C   UNL     1      30.784  25.672  22.866  1.00  0.00     0.000 C 
BRANCH   2   3
ATOM      3  C   UNL     1      31.351  27.033  23.285  1.00  0.00    -0.000 C 
BRANCH   3   4
ATOM      4  C   UNL     1      30.888  28.140  22.331  1.00  0.00    -0.003 C 
ATOM      5  C   UNL     1      32.069  28.967  21.831  1.00  0.00     0.004 C 
ENDBRANCH   3   4
ENDBRANCH   2   3
ENDBRANCH   1   2
BRANCH   1   6
ATOM      6  C   UNL     1      29.209  24.831  21.076  1.00  0.00     0.028 C 
BRANCH   6   7
ATOM      7  C   UNL     1      28.655  25.524  19.832  1.00  0.00     0.156 C 
BRANCH   7   8
ATOM      8  O   UNL     1      27.474  26.201  20.161  1.00  0.00    -0.396 OA
ATOM      9  H   UNL     1      27.288  25.983  21.111  1.00  0.00     0.210 HD
ENDBRANCH   7   8
ENDBRANCH   6   7
ENDBRANCH   1   6
TORSDOF 6
ENDMDL
MODEL 3
REMARK VINA RESULT:    -3.502      2.669      4.531
REMARK INTER + INTRA:          -4.788
REMARK INTER:                  -4.641
REMARK INTRA:                  -0.147
REMARK UNBOUND:                -0.160
REMARK SMILES CCCCCCCO
REMARK SMILES IDX 5 1 4 2 3 3 2 4 1 5 6 6 7 7 8 8
REMARK H PARENT 8 9
REMARK Flexibility Score: inf
ROOT
ATOM      1  C   UNL     1      29.048  25.279  21.244  1.00  0.00     0.002 C 
ENDROOT
BRANCH   1   2
ATOM      2  C   UNL     1      28.967  26.201  22.467  1.00  0.00     0.000 C 
BRANCH   2   3
ATOM      3  C   UNL     1      30.361  26.476  23.043  1.00  0.00    -0.000 C 
BRANCH   3   4
ATOM      4  C   UNL     1      31.251  25.231  22.948  1.00  0.00    -0.003 C 
ATOM      5  C   UNL     1      31.856  24.881  24.304  1.00  0.00     0.004 C 
ENDBRANCH   3   4
ENDBRANCH   2   3
ENDBRANCH   1   2
BRANCH   1   6
ATOM      6  C   UNL     1      28.564  25.998  19.980  1.00  0.00     0.028 C 
BRANCH   6   7
ATOM      7  C   UNL     1      28.779  25.136  18.737  1.00  0.00     0.156 C 
BRANCH   7   8
ATOM      8  O   UNL     1      28.971  25.962  17.623  1.00  0.00    -0.396 OA
ATOM      9  H   UNL     1      28.228  26.619  17.636  1.00  0.00     0.210 HD
ENDBRANCH   7   8
ENDBRANCH   6   7
ENDBRANCH   1   6
TORSDOF 6
ENDMDL
MODEL 4
REMARK VINA RESULT:    -3.482      4.226      5.142
REMARK INTER + INTRA:          -4.761
REMARK INTER:                  -4.555
REMARK INTRA:                  -0.207
REMARK UNBOUND:                -0.160
REMARK SMILES CCCCCCCO
REMARK SMILES IDX 5 1 4 2 3 3 2 4 1 5 6 6 7 7 8 8
REMARK H PARENT 8 9
REMARK Flexibility Score: inf
ROOT
ATOM      1  C   UNL     1      26.431  26.037  22.473  1.00  0.00     0.002 C 
ENDROOT
BRANCH   1   2
ATOM      2  C   UNL     1      27.741  26.690  22.929  1.00  0.00     0.000 C 
BRANCH   2   3
ATOM      3  C   UNL     1      28.898  26.313  21.996  1.00  0.00    -0.000 C 
BRANCH   3   4
ATOM      4  C   UNL     1      28.518  25.130  21.098  1.00  0.00    -0.003 C 
ATOM      5  C   UNL     1      28.712  25.473  19.623  1.00  0.00     0.004 C 
ENDBRANCH   3   4
ENDBRANCH   2   3
ENDBRANCH   1   2
BRANCH   1   6
ATOM      6  C   UNL     1      25.453  25.889  23.644  1.00  0.00     0.028 C 
BRANCH   6   7
ATOM      7  C   UNL     1      24.780  24.518  23.633  1.00  0.00     0.156 C 
BRANCH   7   8
ATOM      8  O   UNL     1      25.277  23.762  22.564  1.00  0.00    -0.396 OA
ATOM      9  H   UNL     1      24.484  23.438  22.064  1.00  0.00     0.210 HD
ENDBRANCH   7   8
ENDBRANCH   6   7
ENDBRANCH   1   6
TORSDOF 6
ENDMDL
MODEL 5
REMARK VINA RESULT:    -3.454     10.086     11.210
REMARK INTER + INTRA:          -4.724
REMARK INTER:                  -4.612
REMARK INTRA:                  -0.112
REMARK UNBOUND:                -0.160
REMARK SMILES CCCCCCCO
REMARK SMILES IDX 5 1 4 2 3 3 2 4 1 5 6 6 7 7 8 8
REMARK H PARENT 8 9
REMARK Flexibility Score: inf
ROOT
ATOM      1  C   UNL     1      22.055  21.518  21.716  1.00  0.00     0.002 C 
ENDROOT
BRANCH   1   2
ATOM      2  C   UNL     1      21.068  20.590  22.436  1.00  0.00     0.000 C 
BRANCH   2   3
ATOM      3  C   UNL     1      20.095  19.944  21.444  1.00  0.00    -0.000 C 
BRANCH   3   4
ATOM      4  C   UNL     1      19.761  18.506  21.857  1.00  0.00    -0.003 C 
ATOM      5  C   UNL     1      18.962  17.791  20.771  1.00  0.00     0.004 C 
ENDBRANCH   3   4
ENDBRANCH   2   3
ENDBRANCH   1   2
BRANCH   1   6
ATOM      6  C   UNL     1      22.191  22.855  22.454  1.00  0.00     0.028 C 
BRANCH   6   7
ATOM      7  C   UNL     1      21.291  22.899  23.688  1.00  0.00     0.156 C 
BRANCH   7   8
ATOM      8  O   UNL     1      20.823  24.205  23.878  1.00  0.00    -0.396 OA
ATOM      9  H   UNL     1      21.149  24.730  23.102  1.00  0.00     0.210 HD
ENDBRANCH   7   8
ENDBRANCH   6   7
ENDBRANCH   1   6
TORSDOF 6
ENDMDL
MODEL 6
REMARK VINA RESULT:    -3.449      3.442      3.932
REMARK INTER + INTRA:          -4.718
REMARK INTER:                  -4.619
REMARK INTRA:                  -0.099
REMARK UNBOUND:                -0.160
REMARK SMILES CCCCCCCO
REMARK SMILES IDX 5 1 4 2 3 3 2 4 1 5 6 6 7 7 8 8
REMARK H PARENT 8 9
REMARK Flexibility Score: inf
ROOT
ATOM      1  C   UNL     1      27.081  26.154  22.436  1.00  0.00     0.002 C 
ENDROOT
BRANCH   1   2
ATOM      2  C   UNL     1      28.582  25.940  22.201  1.00  0.00     0.000 C 
BRANCH   2   3
ATOM      3  C   UNL     1      28.829  25.126  20.926  1.00  0.00    -0.000 C 
BRANCH   3   4
ATOM      4  C   UNL     1      28.781  26.023  19.683  1.00  0.00    -0.003 C 
ATOM      5  C   UNL     1      28.863  25.196  18.403  1.00  0.00     0.004 C 
ENDBRANCH   3   4
ENDBRANCH   2   3
ENDBRANCH   1   2
BRANCH   1   6
ATOM      6  C   UNL     1      26.839  27.108  23.611  1.00  0.00     0.028 C 
BRANCH   6   7
ATOM      7  C   UNL     1      25.348  27.383  23.801  1.00  0.00     0.156 C 
BRANCH   7   8
ATOM      8  O   UNL     1      25.006  28.575  23.152  1.00  0.00    -0.396 OA
ATOM      9  H   UNL     1      25.268  29.308  23.767  1.00  0.00     0.210 HD
ENDBRANCH   7   8
ENDBRANCH   6   7
ENDBRANCH   1   6
TORSDOF 6
ENDMDL
MODEL 7
REMARK VINA RESULT:    -3.437     10.479     12.050
REMARK INTER + INTRA:          -4.702
REMARK INTER:                  -4.523
REMARK INTRA:                  -0.180
REMARK UNBOUND:                -0.160
REMARK SMILES CCCCCCCO
REMARK SMILES IDX 5 1 4 2 3 3 2 4 1 5 6 6 7 7 8 8
REMARK H PARENT 8 9
REMARK Flexibility Score: inf
ROOT
ATOM      1  C   UNL     1      21.256  20.552  22.404  1.00  0.00     0.002 C 
ENDROOT
BRANCH   1   2
ATOM      2  C   UNL     1      21.979  21.718  21.719  1.00  0.00     0.000 C 
BRANCH   2   3
ATOM      3  C   UNL     1      21.881  22.997  22.558  1.00  0.00    -0.000 C 
BRANCH   3   4
ATOM      4  C   UNL     1      21.226  22.715  23.916  1.00  0.00    -0.003 C 
ATOM      5  C   UNL     1      20.373  23.895  24.372  1.00  0.00     0.004 C 
ENDBRANCH   3   4
ENDBRANCH   2   3
ENDBRANCH   1   2
BRANCH   1   6
ATOM      6  C   UNL     1      20.116  20.021  21.528  1.00  0.00     0.028 C 
BRANCH   6   7
ATOM      7  C   UNL     1      19.819  18.555  21.837  1.00  0.00     0.156 C 
BRANCH   7   8
ATOM      8  O   UNL     1      19.358  18.439  23.154  1.00  0.00    -0.396 OA
ATOM      9  H   UNL     1      19.082  19.351  23.430  1.00  0.00     0.210 HD
ENDBRANCH   7   8
ENDBRANCH   6   7
ENDBRANCH   1   6
TORSDOF 6
ENDMDL
MODEL 8
REMARK VINA RESULT:    -3.371      4.495      4.882
REMARK INTER + INTRA:          -4.614
REMARK INTER:                  -4.529
REMARK INTRA:                  -0.085
REMARK UNBOUND:                -0.160
REMARK SMILES CCCCCCCO
REMARK SMILES IDX 5 1 4 2 3 3 2 4 1 5 6 6 7 7 8 8
REMARK H PARENT 8 9
REMARK Flexibility Score: inf
ROOT
ATOM      1  C   UNL     1      25.436  27.237  23.598  1.00  0.00     0.002 C 
ENDROOT
BRANCH   1   2
ATOM      2  C   UNL     1      26.886  26.799  23.363  1.00  0.00     0.000 C 
BRANCH   2   3
ATOM      3  C   UNL     1      26.996  25.897  22.129  1.00  0.00    -0.000 C 
BRANCH   3   4
ATOM      4  C   UNL     1      28.456  25.751  21.682  1.00  0.00    -0.003 C 
ATOM      5  C   UNL     1      28.613  26.068  20.198  1.00  0.00     0.004 C 
ENDBRANCH   3   4
ENDBRANCH   2   3
ENDBRANCH   1   2
BRANCH   1   6
ATOM      6  C   UNL     1      25.374  28.473  24.504  1.00  0.00     0.028 C 
BRANCH   6   7
ATOM      7  C   UNL     1      24.221  29.392  24.105  1.00  0.00     0.156 C 
BRANCH   7   8
ATOM      8  O   UNL     1      24.362  29.762  22.761  1.00  0.00    -0.396 OA
ATOM      9  H   UNL     1      23.530  29.469  22.307  1.00  0.00     0.210 HD
ENDBRANCH   7   8
ENDBRANCH   6   7
ENDBRANCH   1   6
TORSDOF 6
ENDMDL
MODEL 9
REMARK VINA RESULT:    -3.355      3.470      4.579
REMARK INTER + INTRA:          -4.593
REMARK INTER:                  -4.440
REMARK INTRA:                  -0.154
REMARK UNBOUND:                -0.160
REMARK SMILES CCCCCCCO
REMARK SMILES IDX 5 1 4 2 3 3 2 4 1 5 6 6 7 7 8 8
REMARK H PARENT 8 9
REMARK Flexibility Score: inf
ROOT
ATOM      1  C   UNL     1      27.472  26.376  22.610  1.00  0.00     0.002 C 
ENDROOT
BRANCH   1   2
ATOM      2  C   UNL     1      28.009  25.751  21.316  1.00  0.00     0.000 C 
BRANCH   2   3
ATOM      3  C   UNL     1      29.414  25.175  21.524  1.00  0.00    -0.000 C 
BRANCH   3   4
ATOM      4  C   UNL     1      30.187  25.976  22.578  1.00  0.00    -0.003 C 
ATOM      5  C   UNL     1      31.346  25.163  23.148  1.00  0.00     0.004 C 
ENDBRANCH   3   4
ENDBRANCH   2   3
ENDBRANCH   1   2
BRANCH   1   6
ATOM      6  C   UNL     1      25.994  26.028  22.817  1.00  0.00     0.028 C 
BRANCH   6   7
ATOM      7  C   UNL     1      25.310  27.044  23.730  1.00  0.00     0.156 C 
BRANCH   7   8
ATOM      8  O   UNL     1      25.260  28.289  23.090  1.00  0.00    -0.396 OA
ATOM      9  H   UNL     1      24.855  28.124  22.199  1.00  0.00     0.210 HD
ENDBRANCH   7   8
ENDBRANCH   6   7
ENDBRANCH   1   6
TORSDOF 6
ENDMDL
