MODEL 1
REMARK VINA RESULT:    -4.033      0.000      0.000
REMARK INTER + INTRA:          -5.396
REMARK INTER:                  -5.684
REMARK INTRA:                   0.288
REMARK UNBOUND:                 0.288
REMARK SMILES CC1=CCC(=C(C)C)C(=O)CC(C)=CCC1
REMARK SMILES IDX 12 1 14 2 13 3 15 4 16 5 2 6 1 7 3 8 11 10 9 11 10 12 5 13
REMARK SMILES IDX 6 14 7 15 8 16 4 17
REMARK H PARENT
REMARK Flexibility Score: 60.00
ROOT
ATOM      1  C   UNL     1      16.869  31.163  29.780  1.00  0.00    -0.070 C 
ATOM      2  C   UNL     1      18.077  31.494  29.254  1.00  0.00    -0.027 C 
ATOM      3  C   UNL     1      15.798  32.227  29.773  1.00  0.00     0.039 C 
ENDROOT
BRANCH   2   4
ATOM      4  C   UNL     1      19.252  30.564  29.067  1.00  0.00     0.032 C 
BRANCH   4   5
ATOM      5  C   UNL     1      18.959  29.401  28.110  1.00  0.00     0.034 C 
BRANCH   5   6
ATOM      6  C   UNL     1      19.333  28.082  28.759  1.00  0.00    -0.077 C 
ATOM      7  C   UNL     1      20.736  27.915  29.282  1.00  0.00     0.039 C 
ATOM      8  C   UNL     1      18.496  27.019  28.823  1.00  0.00    -0.023 CG0
ATOM      9  G   UNL     1      17.055  27.002  28.367  1.00  0.00     0.000 G0
ENDBRANCH   5   6
ENDBRANCH   4   5
ENDBRANCH   2   4
BRANCH   1  10
ATOM     10  C   UNL     1      16.553  29.825  30.442  1.00  0.00     0.111 C 
BRANCH  10  11
ATOM     11  C   UNL     1      15.750  28.887  29.577  1.00  0.00     0.163 C 
ATOM     12  O   UNL     1      14.734  29.357  28.994  1.00  0.00    -0.294 OA
BRANCH  11  13
ATOM     13  C   UNL     1      16.077  27.430  29.438  1.00  0.00    -0.002 C 
ATOM     14  C   UNL     1      15.465  26.496  30.231  1.00  0.00    -0.069 C 
ATOM     15  C   UNL     1      15.704  25.013  30.045  1.00  0.00     0.039 C 
ATOM     16  C   UNL     1      14.553  26.894  31.371  1.00  0.00     0.039 C 
BRANCH  13  17
ATOM     17  C   UNL     1      17.065  26.999  28.354  1.00  0.00     0.066 CG0
ATOM     18  G   UNL     1      18.495  27.037  28.839  1.00  0.00     0.000 G0
ENDBRANCH  13  17
ENDBRANCH  11  13
ENDBRANCH  10  11
ENDBRANCH   1  10
TORSDOF 0
ENDMDL
MODEL 2
REMARK VINA RESULT:    -3.951      2.340      4.679
REMARK INTER + INTRA:          -5.280
REMARK INTER:                  -5.391
REMARK INTRA:                   0.111
REMARK UNBOUND:                 0.288
REMARK SMILES CC1=CCC(=C(C)C)C(=O)CC(C)=CCC1
REMARK SMILES IDX 12 1 14 2 13 3 15 4 16 5 2 6 1 7 3 8 11 10 9 11 10 12 5 13
REMARK SMILES IDX 6 14 7 15 8 16 4 17
REMARK H PARENT
REMARK Flexibility Score: 60.00
ROOT
ATOM      1  C   UNL     1      20.623  25.503  27.884  1.00  0.00    -0.070 C 
ATOM      2  C   UNL     1      21.902  25.951  27.986  1.00  0.00    -0.027 C 
ATOM      3  C   UNL     1      20.351  24.413  26.876  1.00  0.00     0.039 C 
ENDROOT
BRANCH   2   4
ATOM      4  C   UNL     1      22.417  26.955  28.988  1.00  0.00     0.032 C 
BRANCH   4   5
ATOM      5  C   UNL     1      22.119  28.409  28.600  1.00  0.00     0.034 C 
BRANCH   5   6
ATOM      6  C   UNL     1      21.579  29.170  29.795  1.00  0.00    -0.077 C 
ATOM      7  C   UNL     1      22.444  29.278  31.025  1.00  0.00     0.039 C 
ATOM      8  C   UNL     1      20.331  29.693  29.844  1.00  0.00    -0.023 CG0
ATOM      9  G   UNL     1      19.332  29.698  28.710  1.00  0.00     0.000 G0
ENDBRANCH   5   6
ENDBRANCH   4   5
ENDBRANCH   2   4
BRANCH   1  10
ATOM     10  C   UNL     1      19.443  26.079  28.660  1.00  0.00     0.111 C 
BRANCH  10  11
ATOM     11  C   UNL     1      18.779  27.253  27.985  1.00  0.00     0.163 C 
ATOM     12  O   UNL     1      18.611  27.189  26.736  1.00  0.00    -0.294 OA
BRANCH  11  13
ATOM     13  C   UNL     1      18.376  28.494  28.724  1.00  0.00    -0.002 C 
ATOM     14  C   UNL     1      17.216  28.531  29.451  1.00  0.00    -0.069 C 
ATOM     15  C   UNL     1      16.837  29.736  30.284  1.00  0.00     0.039 C 
ATOM     16  C   UNL     1      16.223  27.391  29.423  1.00  0.00     0.039 C 
BRANCH  13  17
ATOM     17  C   UNL     1      19.315  29.700  28.699  1.00  0.00     0.066 CG0
ATOM     18  G   UNL     1      20.316  29.667  29.831  1.00  0.00     0.000 G0
ENDBRANCH  13  17
ENDBRANCH  11  13
ENDBRANCH  10  11
ENDBRANCH   1  10
TORSDOF 0
ENDMDL
MODEL 3
REMARK VINA RESULT:    -3.948      4.647      6.993
REMARK INTER + INTRA:          -5.276
REMARK INTER:                  -5.612
REMARK INTRA:                   0.337
REMARK UNBOUND:                 0.288
REMARK SMILES CC1=CCC(=C(C)C)C(=O)CC(C)=CCC1
REMARK SMILES IDX 12 1 14 2 13 3 15 4 16 5 2 6 1 7 3 8 11 10 9 11 10 12 5 13
REMARK SMILES IDX 6 14 7 15 8 16 4 17
REMARK H PARENT
REMARK Flexibility Score: 60.00
ROOT
ATOM      1  C   UNL     1      25.767  28.788  28.628  1.00  0.00    -0.070 C 
ATOM      2  C   UNL     1      25.912  29.916  29.373  1.00  0.00    -0.027 C 
ATOM      3  C   UNL     1      26.629  28.659  27.395  1.00  0.00     0.039 C 
ENDROOT
BRANCH   2   4
ATOM      4  C   UNL     1      25.232  30.207  30.688  1.00  0.00     0.032 C 
BRANCH   4   5
ATOM      5  C   UNL     1      23.838  30.828  30.527  1.00  0.00     0.034 C 
BRANCH   5   6
ATOM      6  C   UNL     1      22.802  29.984  31.243  1.00  0.00    -0.077 C 
ATOM      7  C   UNL     1      22.846  29.921  32.748  1.00  0.00     0.039 C 
ATOM      8  C   UNL     1      21.887  29.222  30.597  1.00  0.00    -0.023 CG0
ATOM      9  G   UNL     1      21.682  29.167  29.101  1.00  0.00     0.000 G0
ENDBRANCH   5   6
ENDBRANCH   4   5
ENDBRANCH   2   4
BRANCH   1  10
ATOM     10  C   UNL     1      24.744  27.693  28.911  1.00  0.00     0.111 C 
BRANCH  10  11
ATOM     11  C   UNL     1      23.543  27.725  28.000  1.00  0.00     0.163 C 
ATOM     12  O   UNL     1      23.754  27.719  26.756  1.00  0.00    -0.294 OA
BRANCH  11  13
ATOM     13  C   UNL     1      22.137  27.823  28.513  1.00  0.00    -0.002 C 
ATOM     14  C   UNL     1      21.308  26.733  28.499  1.00  0.00    -0.069 C 
ATOM     15  C   UNL     1      19.920  26.780  29.099  1.00  0.00     0.039 C 
ATOM     16  C   UNL     1      21.713  25.433  27.837  1.00  0.00     0.039 C 
BRANCH  13  17
ATOM     17  C   UNL     1      21.663  29.149  29.106  1.00  0.00     0.066 CG0
ATOM     18  G   UNL     1      21.887  29.218  30.599  1.00  0.00     0.000 G0
ENDBRANCH  13  17
ENDBRANCH  11  13
ENDBRANCH  10  11
ENDBRANCH   1  10
TORSDOF 0
ENDMDL
MODEL 4
REMARK VINA RESULT:    -3.902      2.492      4.906
REMARK INTER + INTRA:          -5.211
REMARK INTER:                  -5.428
REMARK INTRA:                   0.217
REMARK UNBOUND:                 0.288
REMARK SMILES CC1=CCC(=C(C)C)C(=O)CC(C)=CCC1
REMARK SMILES IDX 12 1 14 2 13 3 15 4 16 5 2 6 1 7 3 8 11 10 9 11 10 12 5 13
REMARK SMILES IDX 6 14 7 15 8 16 4 17
REMARK H PARENT
REMARK Flexibility Score: 60.00
ROOT
ATOM      1  C   UNL     1      18.314  26.577  27.940  1.00  0.00    -0.070 C 
ATOM      2  C   UNL     1      19.319  25.674  27.784  1.00  0.00    -0.027 C 
ATOM      3  C   UNL     1      16.908  26.035  28.031  1.00  0.00     0.039 C 
ENDROOT
BRANCH   2   4
ATOM      4  C   UNL     1      20.797  25.980  27.772  1.00  0.00     0.032 C 
BRANCH   4   5
ATOM      5  C   UNL     1      21.310  26.550  29.101  1.00  0.00     0.034 C 
BRANCH   5   6
ATOM      6  C   UNL     1      22.108  27.816  28.856  1.00  0.00    -0.077 C 
ATOM      7  C   UNL     1      23.272  27.754  27.900  1.00  0.00     0.039 C 
ATOM      8  C   UNL     1      21.878  28.980  29.509  1.00  0.00    -0.023 CG0
ATOM      9  G   UNL     1      20.754  29.236  30.486  1.00  0.00     0.000 G0
ENDBRANCH   5   6
ENDBRANCH   4   5
ENDBRANCH   2   4
BRANCH   1  10
ATOM     10  C   UNL     1      18.507  28.089  27.950  1.00  0.00     0.111 C 
BRANCH  10  11
ATOM     11  C   UNL     1      18.467  28.705  29.326  1.00  0.00     0.163 C 
ATOM     12  O   UNL     1      17.517  28.371  30.086  1.00  0.00    -0.294 OA
BRANCH  11  13
ATOM     13  C   UNL     1      19.463  29.726  29.788  1.00  0.00    -0.002 C 
ATOM     14  C   UNL     1      19.218  31.064  29.634  1.00  0.00    -0.069 C 
ATOM     15  C   UNL     1      20.160  32.115  30.179  1.00  0.00     0.039 C 
ATOM     16  C   UNL     1      18.016  31.570  28.865  1.00  0.00     0.039 C 
BRANCH  13  17
ATOM     17  C   UNL     1      20.734  29.247  30.489  1.00  0.00     0.066 CG0
ATOM     18  G   UNL     1      21.860  28.988  29.515  1.00  0.00     0.000 G0
ENDBRANCH  13  17
ENDBRANCH  11  13
ENDBRANCH  10  11
ENDBRANCH   1  10
TORSDOF 0
ENDMDL
MODEL 5
REMARK VINA RESULT:    -3.862      2.230      3.634
REMARK INTER + INTRA:          -5.154
REMARK INTER:                  -5.468
REMARK INTRA:                   0.314
REMARK UNBOUND:                 0.288
REMARK SMILES CC1=CCC(=C(C)C)C(=O)CC(C)=CCC1
REMARK SMILES IDX 12 1 14 2 13 3 15 4 16 5 2 6 1 7 3 8 11 10 9 11 10 12 5 13
REMARK SMILES IDX 6 14 7 15 8 16 4 17
REMARK H PARENT
REMARK Flexibility Score: 60.00
ROOT
ATOM      1  C   UNL     1      15.903  31.050  30.108  1.00  0.00    -0.070 C 
ATOM      2  C   UNL     1      16.033  32.272  29.528  1.00  0.00    -0.027 C 
ATOM      3  C   UNL     1      14.861  30.121  29.533  1.00  0.00     0.039 C 
ENDROOT
BRANCH   2   4
ATOM      4  C   UNL     1      17.070  33.314  29.871  1.00  0.00     0.032 C 
BRANCH   4   5
ATOM      5  C   UNL     1      18.350  33.195  29.034  1.00  0.00     0.034 C 
BRANCH   5   6
ATOM      6  C   UNL     1      19.447  32.530  29.843  1.00  0.00    -0.077 C 
ATOM      7  C   UNL     1      20.258  33.383  30.784  1.00  0.00     0.039 C 
ATOM      8  C   UNL     1      19.787  31.226  29.708  1.00  0.00    -0.023 CG0
ATOM      9  G   UNL     1      19.082  30.218  28.831  1.00  0.00     0.000 G0
ENDBRANCH   5   6
ENDBRANCH   4   5
ENDBRANCH   2   4
BRANCH   1  10
ATOM     10  C   UNL     1      16.678  30.592  31.339  1.00  0.00     0.111 C 
BRANCH  10  11
ATOM     11  C   UNL     1      17.806  29.639  31.034  1.00  0.00     0.163 C 
ATOM     12  O   UNL     1      18.472  29.191  32.008  1.00  0.00    -0.294 OA
BRANCH  11  13
ATOM     13  C   UNL     1      18.194  29.261  29.635  1.00  0.00    -0.002 C 
ATOM     14  C   UNL     1      17.718  28.113  29.061  1.00  0.00    -0.069 C 
ATOM     15  C   UNL     1      18.016  27.759  27.620  1.00  0.00     0.039 C 
ATOM     16  C   UNL     1      16.910  27.105  29.849  1.00  0.00     0.039 C 
BRANCH  13  17
ATOM     17  C   UNL     1      19.087  30.214  28.839  1.00  0.00     0.066 CG0
ATOM     18  G   UNL     1      19.777  31.224  29.726  1.00  0.00     0.000 G0
ENDBRANCH  13  17
ENDBRANCH  11  13
ENDBRANCH  10  11
ENDBRANCH   1  10
TORSDOF 0
ENDMDL
MODEL 6
REMARK VINA RESULT:    -3.861      2.715      5.837
REMARK INTER + INTRA:          -5.153
REMARK INTER:                  -5.318
REMARK INTRA:                   0.165
REMARK UNBOUND:                 0.288
REMARK SMILES CC1=CCC(=C(C)C)C(=O)CC(C)=CCC1
REMARK SMILES IDX 12 1 14 2 13 3 15 4 16 5 2 6 1 7 3 8 11 10 9 11 10 12 5 13
REMARK SMILES IDX 6 14 7 15 8 16 4 17
REMARK H PARENT
REMARK Flexibility Score: 60.00
ROOT
ATOM      1  C   UNL     1      20.124  25.672  28.306  1.00  0.00    -0.070 C 
ATOM      2  C   UNL     1      18.791  25.490  28.114  1.00  0.00    -0.027 C 
ATOM      3  C   UNL     1      21.062  24.822  27.485  1.00  0.00     0.039 C 
ENDROOT
BRANCH   2   4
ATOM      4  C   UNL     1      17.682  26.295  28.747  1.00  0.00     0.032 C 
BRANCH   4   5
ATOM      5  C   UNL     1      17.571  27.720  28.190  1.00  0.00     0.034 C 
BRANCH   5   6
ATOM      6  C   UNL     1      17.548  28.726  29.325  1.00  0.00    -0.077 C 
ATOM      7  C   UNL     1      16.388  28.692  30.287  1.00  0.00     0.039 C 
ATOM      8  C   UNL     1      18.474  29.703  29.475  1.00  0.00    -0.023 CG0
ATOM      9  G   UNL     1      19.708  29.886  28.623  1.00  0.00     0.000 G0
ENDBRANCH   5   6
ENDBRANCH   4   5
ENDBRANCH   2   4
BRANCH   1  10
ATOM     10  C   UNL     1      20.725  26.614  29.344  1.00  0.00     0.111 C 
BRANCH  10  11
ATOM     11  C   UNL     1      21.329  27.866  28.760  1.00  0.00     0.163 C 
ATOM     12  O   UNL     1      22.225  27.727  27.882  1.00  0.00    -0.294 OA
BRANCH  11  13
ATOM     13  C   UNL     1      20.953  29.242  29.224  1.00  0.00    -0.002 C 
ATOM     14  C   UNL     1      21.732  29.915  30.126  1.00  0.00    -0.069 C 
ATOM     15  C   UNL     1      21.427  31.340  30.535  1.00  0.00     0.039 C 
ATOM     16  C   UNL     1      22.914  29.257  30.804  1.00  0.00     0.039 C 
BRANCH  13  17
ATOM     17  C   UNL     1      19.711  29.903  28.626  1.00  0.00     0.066 CG0
ATOM     18  G   UNL     1      18.484  29.692  29.481  1.00  0.00     0.000 G0
ENDBRANCH  13  17
ENDBRANCH  11  13
ENDBRANCH  10  11
ENDBRANCH   1  10
TORSDOF 0
ENDMDL
MODEL 7
REMARK VINA RESULT:    -3.765      1.690      3.837
REMARK INTER + INTRA:          -5.017
REMARK INTER:                  -5.347
REMARK INTRA:                   0.329
REMARK UNBOUND:                 0.288
REMARK SMILES CC1=CCC(=C(C)C)C(=O)CC(C)=CCC1
REMARK SMILES IDX 12 1 14 2 13 3 15 4 16 5 2 6 1 7 3 8 11 10 9 11 10 12 5 13
REMARK SMILES IDX 6 14 7 15 8 16 4 17
REMARK H PARENT
REMARK Flexibility Score: 60.00
ROOT
ATOM      1  C   UNL     1      16.267  25.032  28.316  1.00  0.00    -0.070 C 
ATOM      2  C   UNL     1      17.265  25.270  27.425  1.00  0.00    -0.027 C 
ATOM      3  C   UNL     1      15.155  24.111  27.878  1.00  0.00     0.039 C 
ENDROOT
BRANCH   2   4
ATOM      4  C   UNL     1      18.518  26.070  27.683  1.00  0.00     0.032 C 
BRANCH   4   5
ATOM      5  C   UNL     1      18.310  27.584  27.550  1.00  0.00     0.034 C 
BRANCH   5   6
ATOM      6  C   UNL     1      19.051  28.315  28.653  1.00  0.00    -0.077 C 
ATOM      7  C   UNL     1      20.546  28.151  28.740  1.00  0.00     0.039 C 
ATOM      8  C   UNL     1      18.431  29.046  29.610  1.00  0.00    -0.023 CG0
ATOM      9  G   UNL     1      16.950  29.334  29.678  1.00  0.00     0.000 G0
ENDBRANCH   5   6
ENDBRANCH   4   5
ENDBRANCH   2   4
BRANCH   1  10
ATOM     10  C   UNL     1      16.160  25.692  29.687  1.00  0.00     0.111 C 
BRANCH  10  11
ATOM     11  C   UNL     1      15.606  27.094  29.652  1.00  0.00     0.163 C 
ATOM     12  O   UNL     1      14.637  27.319  28.876  1.00  0.00    -0.294 OA
BRANCH  11  13
ATOM     13  C   UNL     1      16.198  28.221  30.446  1.00  0.00    -0.002 C 
ATOM     14  C   UNL     1      16.117  28.232  31.813  1.00  0.00    -0.069 C 
ATOM     15  C   UNL     1      16.789  29.306  32.641  1.00  0.00     0.039 C 
ATOM     16  C   UNL     1      15.309  27.202  32.571  1.00  0.00     0.039 C 
BRANCH  13  17
ATOM     17  C   UNL     1      16.944  29.329  29.704  1.00  0.00     0.066 CG0
ATOM     18  G   UNL     1      18.426  29.050  29.604  1.00  0.00     0.000 G0
ENDBRANCH  13  17
ENDBRANCH  11  13
ENDBRANCH  10  11
ENDBRANCH   1  10
TORSDOF 0
ENDMDL
MODEL 8
REMARK VINA RESULT:    -3.755      1.925      4.881
REMARK INTER + INTRA:          -5.003
REMARK INTER:                  -5.531
REMARK INTRA:                   0.527
REMARK UNBOUND:                 0.288
REMARK SMILES CC1=CCC(=C(C)C)C(=O)CC(C)=CCC1
REMARK SMILES IDX 12 1 14 2 13 3 15 4 16 5 2 6 1 7 3 8 11 10 9 11 10 12 5 13
REMARK SMILES IDX 6 14 7 15 8 16 4 17
REMARK H PARENT
REMARK Flexibility Score: 60.00
ROOT
ATOM      1  C   UNL     1      18.270  26.082  27.823  1.00  0.00    -0.070 C 
ATOM      2  C   UNL     1      17.280  25.152  27.781  1.00  0.00    -0.027 C 
ATOM      3  C   UNL     1      19.686  25.578  27.964  1.00  0.00     0.039 C 
ENDROOT
BRANCH   2   4
ATOM      4  C   UNL     1      15.814  25.421  27.544  1.00  0.00     0.032 C 
BRANCH   4   5
ATOM      5  C   UNL     1      14.905  24.833  28.631  1.00  0.00     0.034 C 
BRANCH   5   6
ATOM      6  C   UNL     1      15.399  25.241  30.005  1.00  0.00    -0.077 C 
ATOM      7  C   UNL     1      15.749  24.156  30.991  1.00  0.00     0.039 C 
ATOM      8  C   UNL     1      15.469  26.529  30.421  1.00  0.00    -0.023 CG0
ATOM      9  G   UNL     1      15.175  27.745  29.574  1.00  0.00     0.000 G0
ENDBRANCH   5   6
ENDBRANCH   4   5
ENDBRANCH   2   4
BRANCH   1  10
ATOM     10  C   UNL     1      18.038  27.590  27.815  1.00  0.00     0.111 C 
BRANCH  10  11
ATOM     11  C   UNL     1      17.715  28.167  29.170  1.00  0.00     0.163 C 
ATOM     12  O   UNL     1      18.619  28.133  30.050  1.00  0.00    -0.294 OA
BRANCH  11  13
ATOM     13  C   UNL     1      16.362  28.714  29.518  1.00  0.00    -0.002 C 
ATOM     14  C   UNL     1      16.179  30.056  29.719  1.00  0.00    -0.069 C 
ATOM     15  C   UNL     1      14.808  30.644  29.975  1.00  0.00     0.039 C 
ATOM     16  C   UNL     1      17.343  31.022  29.749  1.00  0.00     0.039 C 
BRANCH  13  17
ATOM     17  C   UNL     1      15.177  27.751  29.586  1.00  0.00     0.066 CG0
ATOM     18  G   UNL     1      15.483  26.528  30.418  1.00  0.00     0.000 G0
ENDBRANCH  13  17
ENDBRANCH  11  13
ENDBRANCH  10  11
ENDBRANCH   1  10
TORSDOF 0
ENDMDL
MODEL 9
REMARK VINA RESULT:    -3.609      4.088      6.605
REMARK INTER + INTRA:          -4.798
REMARK INTER:                  -5.005
REMARK INTRA:                   0.207
REMARK UNBOUND:                 0.288
REMARK SMILES CC1=CCC(=C(C)C)C(=O)CC(C)=CCC1
REMARK SMILES IDX 12 1 14 2 13 3 15 4 16 5 2 6 1 7 3 8 11 10 9 11 10 12 5 13
REMARK SMILES IDX 6 14 7 15 8 16 4 17
REMARK H PARENT
REMARK Flexibility Score: 60.00
ROOT
ATOM      1  C   UNL     1      23.340  27.955  28.663  1.00  0.00    -0.070 C 
ATOM      2  C   UNL     1      24.619  28.294  28.974  1.00  0.00    -0.027 C 
ATOM      3  C   UNL     1      23.087  26.529  28.239  1.00  0.00     0.039 C 
ENDROOT
BRANCH   2   4
ATOM      4  C   UNL     1      25.082  29.625  29.515  1.00  0.00     0.032 C 
BRANCH   4   5
ATOM      5  C   UNL     1      24.539  29.933  30.916  1.00  0.00     0.034 C 
BRANCH   5   6
ATOM      6  C   UNL     1      23.909  31.312  30.944  1.00  0.00    -0.077 C 
ATOM      7  C   UNL     1      24.758  32.494  30.553  1.00  0.00     0.039 C 
ATOM      8  C   UNL     1      22.647  31.546  31.375  1.00  0.00    -0.023 CG0
ATOM      9  G   UNL     1      21.647  30.492  31.791  1.00  0.00     0.000 G0
ENDBRANCH   5   6
ENDBRANCH   4   5
ENDBRANCH   2   4
BRANCH   1  10
ATOM     10  C   UNL     1      22.170  28.934  28.640  1.00  0.00     0.111 C 
BRANCH  10  11
ATOM     11  C   UNL     1      21.249  28.817  29.828  1.00  0.00     0.163 C 
ATOM     12  O   UNL     1      20.823  27.667  30.126  1.00  0.00    -0.294 OA
BRANCH  11  13
ATOM     13  C   UNL     1      20.783  30.007  30.614  1.00  0.00    -0.002 C 
ATOM     14  C   UNL     1      19.596  30.621  30.317  1.00  0.00    -0.069 C 
ATOM     15  C   UNL     1      19.058  31.760  31.155  1.00  0.00     0.039 C 
ATOM     16  C   UNL     1      18.779  30.231  29.105  1.00  0.00     0.039 C 
BRANCH  13  17
ATOM     17  C   UNL     1      21.631  30.486  31.792  1.00  0.00     0.066 CG0
ATOM     18  G   UNL     1      22.642  31.531  31.380  1.00  0.00     0.000 G0
ENDBRANCH  13  17
ENDBRANCH  11  13
ENDBRANCH  10  11
ENDBRANCH   1  10
TORSDOF 0
ENDMDL
