MODEL 1
REMARK VINA RESULT:    -5.128      0.000      0.000
REMARK INTER + INTRA:          -5.638
REMARK INTER:                  -5.577
REMARK INTRA:                  -0.060
REMARK UNBOUND:                -0.060
REMARK SMILES CCc1cccc(O)c1
REMARK SMILES IDX 3 1 9 2 7 3 6 4 5 5 4 6 2 7 1 8 8 9
REMARK H PARENT 8 10
REMARK Flexibility Score: inf
ROOT
ATOM      1  C   UNL     1     -10.883  -4.749  -8.915  1.00  0.00    -0.045 A 
ATOM      2  C   UNL     1     -11.373  -3.700  -8.120  1.00  0.00     0.049 A 
ATOM      3  C   UNL     1     -11.438  -3.840  -6.726  1.00  0.00     0.115 A 
ATOM      4  C   UNL     1     -11.005  -5.027  -6.126  1.00  0.00     0.046 A 
ATOM      5  C   UNL     1     -10.504  -6.068  -6.911  1.00  0.00     0.004 A 
ATOM      6  C   UNL     1     -10.437  -5.931  -8.300  1.00  0.00     0.004 A 
ENDROOT
BRANCH   1   7
ATOM      7  C   UNL     1     -10.781  -4.587 -10.408  1.00  0.00     0.032 C 
ATOM      8  C   UNL     1     -11.627  -5.633 -11.124  1.00  0.00     0.009 C 
ENDBRANCH   1   7
BRANCH   3   9
ATOM      9  O   UNL     1     -11.930  -2.807  -5.931  1.00  0.00    -0.508 OA
ATOM     10  H   UNL     1     -12.105  -1.883  -6.310  1.00  0.00     0.293 HD
ENDBRANCH   3   9
TORSDOF 2
ENDMDL
MODEL 2
REMARK VINA RESULT:    -4.945      2.362      4.347
REMARK INTER + INTRA:          -5.439
REMARK INTER:                  -5.366
REMARK INTRA:                  -0.072
REMARK UNBOUND:                -0.060
REMARK SMILES CCc1cccc(O)c1
REMARK SMILES IDX 3 1 9 2 7 3 6 4 5 5 4 6 2 7 1 8 8 9
REMARK H PARENT 8 10
REMARK Flexibility Score: inf
ROOT
ATOM      1  C   UNL     1     -12.249  -5.792  -5.945  1.00  0.00    -0.045 A 
ATOM      2  C   UNL     1     -11.187  -6.411  -6.626  1.00  0.00     0.049 A 
ATOM      3  C   UNL     1     -10.495  -5.721  -7.633  1.00  0.00     0.115 A 
ATOM      4  C   UNL     1     -10.859  -4.409  -7.953  1.00  0.00     0.046 A 
ATOM      5  C   UNL     1     -11.905  -3.784  -7.269  1.00  0.00     0.004 A 
ATOM      6  C   UNL     1     -12.596  -4.469  -6.265  1.00  0.00     0.004 A 
ENDROOT
BRANCH   1   7
ATOM      7  C   UNL     1     -12.970  -6.520  -4.842  1.00  0.00     0.032 C 
ATOM      8  C   UNL     1     -13.380  -5.554  -3.736  1.00  0.00     0.009 C 
ENDBRANCH   1   7
BRANCH   3   9
ATOM      9  O   UNL     1      -9.446  -6.330  -8.318  1.00  0.00    -0.508 OA
ATOM     10  H   UNL     1      -9.509  -7.289  -8.639  1.00  0.00     0.293 HD
ENDBRANCH   3   9
TORSDOF 2
ENDMDL
MODEL 3
REMARK VINA RESULT:    -4.939      1.112      3.285
REMARK INTER + INTRA:          -5.433
REMARK INTER:                  -5.385
REMARK INTRA:                  -0.048
REMARK UNBOUND:                -0.060
REMARK SMILES CCc1cccc(O)c1
REMARK SMILES IDX 3 1 9 2 7 3 6 4 5 5 4 6 2 7 1 8 8 9
REMARK H PARENT 8 10
REMARK Flexibility Score: inf
ROOT
ATOM      1  C   UNL     1     -10.732  -6.110  -6.636  1.00  0.00    -0.045 A 
ATOM      2  C   UNL     1     -11.278  -4.978  -6.009  1.00  0.00     0.049 A 
ATOM      3  C   UNL     1     -11.459  -3.789  -6.730  1.00  0.00     0.115 A 
ATOM      4  C   UNL     1     -11.102  -3.733  -8.081  1.00  0.00     0.046 A 
ATOM      5  C   UNL     1     -10.571  -4.861  -8.714  1.00  0.00     0.004 A 
ATOM      6  C   UNL     1     -10.390  -6.047  -7.998  1.00  0.00     0.004 A 
ENDROOT
BRANCH   1   7
ATOM      7  C   UNL     1     -10.569  -7.397  -5.873  1.00  0.00     0.032 C 
ATOM      8  C   UNL     1      -9.256  -7.403  -5.098  1.00  0.00     0.009 C 
ENDBRANCH   1   7
BRANCH   3   9
ATOM      9  O   UNL     1     -11.993  -2.659  -6.113  1.00  0.00    -0.508 OA
ATOM     10  H   UNL     1     -12.764  -2.145  -6.525  1.00  0.00     0.293 HD
ENDBRANCH   3   9
TORSDOF 2
ENDMDL
MODEL 4
REMARK VINA RESULT:    -4.867      1.884      2.440
REMARK INTER + INTRA:          -5.354
REMARK INTER:                  -5.302
REMARK INTRA:                  -0.051
REMARK UNBOUND:                -0.060
REMARK SMILES CCc1cccc(O)c1
REMARK SMILES IDX 3 1 9 2 7 3 6 4 5 5 4 6 2 7 1 8 8 9
REMARK H PARENT 8 10
REMARK Flexibility Score: inf
ROOT
ATOM      1  C   UNL     1     -11.192  -4.271  -8.307  1.00  0.00    -0.045 A 
ATOM      2  C   UNL     1     -10.156  -5.217  -8.231  1.00  0.00     0.049 A 
ATOM      3  C   UNL     1      -9.884  -5.873  -7.021  1.00  0.00     0.115 A 
ATOM      4  C   UNL     1     -10.653  -5.588  -5.888  1.00  0.00     0.046 A 
ATOM      5  C   UNL     1     -11.694  -4.659  -5.961  1.00  0.00     0.004 A 
ATOM      6  C   UNL     1     -11.967  -4.004  -7.165  1.00  0.00     0.004 A 
ENDROOT
BRANCH   1   7
ATOM      7  C   UNL     1     -11.507  -3.592  -9.612  1.00  0.00     0.032 C 
ATOM      8  C   UNL     1     -11.121  -4.479 -10.790  1.00  0.00     0.009 C 
ENDBRANCH   1   7
BRANCH   3   9
ATOM      9  O   UNL     1      -8.853  -6.807  -6.937  1.00  0.00    -0.508 OA
ATOM     10  H   UNL     1      -8.103  -6.708  -6.263  1.00  0.00     0.293 HD
ENDBRANCH   3   9
TORSDOF 2
ENDMDL
MODEL 5
REMARK VINA RESULT:    -4.741      1.741      3.439
REMARK INTER + INTRA:          -5.217
REMARK INTER:                  -5.144
REMARK INTRA:                  -0.074
REMARK UNBOUND:                -0.060
REMARK SMILES CCc1cccc(O)c1
REMARK SMILES IDX 3 1 9 2 7 3 6 4 5 5 4 6 2 7 1 8 8 9
REMARK H PARENT 8 10
REMARK Flexibility Score: inf
ROOT
ATOM      1  C   UNL     1     -11.816  -4.799  -6.830  1.00  0.00    -0.045 A 
ATOM      2  C   UNL     1     -11.974  -3.722  -7.718  1.00  0.00     0.049 A 
ATOM      3  C   UNL     1     -11.326  -3.730  -8.962  1.00  0.00     0.115 A 
ATOM      4  C   UNL     1     -10.526  -4.820  -9.322  1.00  0.00     0.046 A 
ATOM      5  C   UNL     1     -10.376  -5.900  -8.448  1.00  0.00     0.004 A 
ATOM      6  C   UNL     1     -11.022  -5.895  -7.208  1.00  0.00     0.004 A 
ENDROOT
BRANCH   1   7
ATOM      7  C   UNL     1     -12.538  -4.807  -5.509  1.00  0.00     0.032 C 
ATOM      8  C   UNL     1     -12.834  -6.234  -5.064  1.00  0.00     0.009 C 
ENDBRANCH   1   7
BRANCH   3   9
ATOM      9  O   UNL     1     -11.472  -2.662  -9.845  1.00  0.00    -0.508 OA
ATOM     10  H   UNL     1     -10.780  -1.924  -9.902  1.00  0.00     0.293 HD
ENDBRANCH   3   9
TORSDOF 2
ENDMDL
MODEL 6
REMARK VINA RESULT:    -4.722     12.791     14.034
REMARK INTER + INTRA:          -5.197
REMARK INTER:                  -5.143
REMARK INTRA:                  -0.054
REMARK UNBOUND:                -0.060
REMARK SMILES CCc1cccc(O)c1
REMARK SMILES IDX 3 1 9 2 7 3 6 4 5 5 4 6 2 7 1 8 8 9
REMARK H PARENT 8 10
REMARK Flexibility Score: inf
ROOT
ATOM      1  C   UNL     1      -1.752 -13.188  -4.294  1.00  0.00    -0.045 A 
ATOM      2  C   UNL     1      -0.351 -13.115  -4.215  1.00  0.00     0.049 A 
ATOM      3  C   UNL     1       0.310 -13.484  -3.034  1.00  0.00     0.115 A 
ATOM      4  C   UNL     1      -0.428 -13.934  -1.935  1.00  0.00     0.046 A 
ATOM      5  C   UNL     1      -1.820 -14.022  -2.013  1.00  0.00     0.004 A 
ATOM      6  C   UNL     1      -2.482 -13.656  -3.189  1.00  0.00     0.004 A 
ENDROOT
BRANCH   1   7
ATOM      7  C   UNL     1      -2.461 -12.825  -5.572  1.00  0.00     0.032 C 
ATOM      8  C   UNL     1      -3.120 -11.456  -5.454  1.00  0.00     0.009 C 
ENDBRANCH   1   7
BRANCH   3   9
ATOM      9  O   UNL     1       1.699 -13.406  -2.945  1.00  0.00    -0.508 OA
ATOM     10  H   UNL     1       2.160 -12.596  -2.548  1.00  0.00     0.293 HD
ENDBRANCH   3   9
TORSDOF 2
ENDMDL
MODEL 7
REMARK VINA RESULT:    -4.502      2.088      3.919
REMARK INTER + INTRA:          -4.957
REMARK INTER:                  -4.909
REMARK INTRA:                  -0.048
REMARK UNBOUND:                -0.060
REMARK SMILES CCc1cccc(O)c1
REMARK SMILES IDX 3 1 9 2 7 3 6 4 5 5 4 6 2 7 1 8 8 9
REMARK H PARENT 8 10
REMARK Flexibility Score: inf
ROOT
ATOM      1  C   UNL     1     -10.513  -5.495  -6.272  1.00  0.00    -0.045 A 
ATOM      2  C   UNL     1     -10.003  -5.683  -7.567  1.00  0.00     0.049 A 
ATOM      3  C   UNL     1     -10.523  -4.950  -8.644  1.00  0.00     0.115 A 
ATOM      4  C   UNL     1     -11.547  -4.024  -8.425  1.00  0.00     0.046 A 
ATOM      5  C   UNL     1     -12.049  -3.823  -7.137  1.00  0.00     0.004 A 
ATOM      6  C   UNL     1     -11.533  -4.552  -6.061  1.00  0.00     0.004 A 
ENDROOT
BRANCH   1   7
ATOM      7  C   UNL     1      -9.934  -6.256  -5.109  1.00  0.00     0.032 C 
ATOM      8  C   UNL     1      -9.612  -7.692  -5.509  1.00  0.00     0.009 C 
ENDBRANCH   1   7
BRANCH   3   9
ATOM      9  O   UNL     1     -10.027  -5.136  -9.934  1.00  0.00    -0.508 OA
ATOM     10  H   UNL     1     -10.613  -5.006 -10.750  1.00  0.00     0.293 HD
ENDBRANCH   3   9
TORSDOF 2
ENDMDL
MODEL 8
REMARK VINA RESULT:    -4.481     13.610     14.388
REMARK INTER + INTRA:          -4.934
REMARK INTER:                  -4.860
REMARK INTRA:                  -0.074
REMARK UNBOUND:                -0.060
REMARK SMILES CCc1cccc(O)c1
REMARK SMILES IDX 3 1 9 2 7 3 6 4 5 5 4 6 2 7 1 8 8 9
REMARK H PARENT 8 10
REMARK Flexibility Score: inf
ROOT
ATOM      1  C   UNL     1      -0.483 -13.891  -4.960  1.00  0.00    -0.045 A 
ATOM      2  C   UNL     1      -1.784 -13.833  -4.436  1.00  0.00     0.049 A 
ATOM      3  C   UNL     1      -1.985 -13.700  -3.054  1.00  0.00     0.115 A 
ATOM      4  C   UNL     1      -0.883 -13.618  -2.196  1.00  0.00     0.046 A 
ATOM      5  C   UNL     1       0.414 -13.661  -2.714  1.00  0.00     0.004 A 
ATOM      6  C   UNL     1       0.616 -13.793  -4.090  1.00  0.00     0.004 A 
ENDROOT
BRANCH   1   7
ATOM      7  C   UNL     1      -0.266 -13.999  -6.446  1.00  0.00     0.032 C 
ATOM      8  C   UNL     1       1.090 -13.422  -6.837  1.00  0.00     0.009 C 
ENDBRANCH   1   7
BRANCH   3   9
ATOM      9  O   UNL     1      -3.274 -13.649  -2.525  1.00  0.00    -0.508 OA
ATOM     10  H   UNL     1      -3.955 -12.976  -2.856  1.00  0.00     0.293 HD
ENDBRANCH   3   9
TORSDOF 2
ENDMDL
MODEL 9
REMARK VINA RESULT:    -4.080      2.101      3.857
REMARK INTER + INTRA:          -4.499
REMARK INTER:                  -4.426
REMARK INTRA:                  -0.073
REMARK UNBOUND:                -0.060
REMARK SMILES CCc1cccc(O)c1
REMARK SMILES IDX 3 1 9 2 7 3 6 4 5 5 4 6 2 7 1 8 8 9
REMARK H PARENT 8 10
REMARK Flexibility Score: inf
ROOT
ATOM      1  C   UNL     1     -12.331  -5.950  -5.320  1.00  0.00    -0.045 A 
ATOM      2  C   UNL     1     -12.158  -4.600  -5.669  1.00  0.00     0.049 A 
ATOM      3  C   UNL     1     -11.191  -4.233  -6.616  1.00  0.00     0.115 A 
ATOM      4  C   UNL     1     -10.401  -5.216  -7.221  1.00  0.00     0.046 A 
ATOM      5  C   UNL     1     -10.578  -6.562  -6.888  1.00  0.00     0.004 A 
ATOM      6  C   UNL     1     -11.542  -6.930  -5.945  1.00  0.00     0.004 A 
ENDROOT
BRANCH   1   7
ATOM      7  C   UNL     1     -13.391  -6.348  -4.329  1.00  0.00     0.032 C 
ATOM      8  C   UNL     1     -13.978  -7.710  -4.684  1.00  0.00     0.009 C 
ENDBRANCH   1   7
BRANCH   3   9
ATOM      9  O   UNL     1     -11.008  -2.895  -6.963  1.00  0.00    -0.508 OA
ATOM     10  H   UNL     1     -10.089  -2.522  -7.168  1.00  0.00     0.293 HD
ENDBRANCH   3   9
TORSDOF 2
ENDMDL
