MODEL 1
REMARK VINA RESULT:    -4.067      0.000      0.000
REMARK INTER + INTRA:          -6.805
REMARK INTER:                  -6.207
REMARK INTRA:                  -0.598
REMARK UNBOUND:                -0.598
REMARK SMILES CCCCCCCCCCC(=O)[O-]
REMARK SMILES IDX 7 1 8 2 9 3 10 4 11 5 12 6 13 7 6 8 5 9 4 10 3 11 2 12 1 13
REMARK H PARENT
REMARK Flexibility Score: inf
ROOT
ATOM      1  C   UNL     1      -6.063  17.933 -10.644  1.00  0.00     0.000 C 
ENDROOT
BRANCH   1   2
ATOM      2  C   UNL     1      -7.393  18.686 -10.466  1.00  0.00     0.000 C 
BRANCH   2   3
ATOM      3  C   UNL     1      -8.382  18.416 -11.612  1.00  0.00     0.006 C 
BRANCH   3   4
ATOM      4  C   UNL     1      -9.841  18.668 -11.208  1.00  0.00     0.053 C 
BRANCH   4   5
ATOM      5  C   UNL     1     -10.614  17.387 -11.221  1.00  0.00     0.041 C 
ATOM      6  O   UNL     1     -10.212  16.397 -10.554  1.00  0.00    -0.550 OA
ATOM      7  O   UNL     1     -11.751  17.270 -12.010  1.00  0.00    -0.550 OA
ENDBRANCH   4   5
ENDBRANCH   3   4
ENDBRANCH   2   3
ENDBRANCH   1   2
BRANCH   1   8
ATOM      8  C   UNL     1      -5.946  16.718  -9.709  1.00  0.00     0.000 C 
BRANCH   8   9
ATOM      9  C   UNL     1      -7.090  16.653  -8.682  1.00  0.00    -0.000 C 
BRANCH   9  10
ATOM     10  C   UNL     1      -6.595  16.745  -7.226  1.00  0.00    -0.000 C 
BRANCH  10  11
ATOM     11  C   UNL     1      -5.077  16.562  -7.041  1.00  0.00    -0.000 C 
BRANCH  11  12
ATOM     12  C   UNL     1      -4.439  17.675  -6.198  1.00  0.00    -0.003 C 
ATOM     13  C   UNL     1      -4.276  17.239  -4.744  1.00  0.00     0.004 C 
ENDBRANCH  11  12
ENDBRANCH  10  11
ENDBRANCH   9  10
ENDBRANCH   8   9
ENDBRANCH   1   8
TORSDOF 9
ENDMDL
MODEL 2
REMARK VINA RESULT:    -3.876      3.247      6.226
REMARK INTER + INTRA:          -6.514
REMARK INTER:                  -5.616
REMARK INTRA:                  -0.898
REMARK UNBOUND:                -0.598
REMARK SMILES CCCCCCCCCCC(=O)[O-]
REMARK SMILES IDX 7 1 8 2 9 3 10 4 11 5 12 6 13 7 6 8 5 9 4 10 3 11 2 12 1 13
REMARK H PARENT
REMARK Flexibility Score: inf
ROOT
ATOM      1  C   UNL     1      -7.107  16.592  -8.714  1.00  0.00     0.000 C 
ENDROOT
BRANCH   1   2
ATOM      2  C   UNL     1      -6.690  16.815  -7.250  1.00  0.00     0.000 C 
BRANCH   2   3
ATOM      3  C   UNL     1      -5.204  16.501  -7.006  1.00  0.00     0.006 C 
BRANCH   3   4
ATOM      4  C   UNL     1      -4.558  17.447  -5.986  1.00  0.00     0.053 C 
BRANCH   4   5
ATOM      5  C   UNL     1      -4.414  18.819  -6.565  1.00  0.00     0.041 C 
ATOM      6  O   UNL     1      -4.761  19.829  -5.897  1.00  0.00    -0.550 OA
ATOM      7  O   UNL     1      -3.944  18.981  -7.862  1.00  0.00    -0.550 OA
ENDBRANCH   4   5
ENDBRANCH   3   4
ENDBRANCH   2   3
ENDBRANCH   1   2
BRANCH   1   8
ATOM      8  C   UNL     1      -5.918  16.686  -9.685  1.00  0.00     0.000 C 
BRANCH   8   9
ATOM      9  C   UNL     1      -6.037  17.880 -10.648  1.00  0.00    -0.000 C 
BRANCH   9  10
ATOM     10  C   UNL     1      -7.363  18.648 -10.491  1.00  0.00    -0.000 C 
BRANCH  10  11
ATOM     11  C   UNL     1      -8.374  18.443 -11.633  1.00  0.00    -0.000 C 
BRANCH  11  12
ATOM     12  C   UNL     1      -9.806  18.211 -11.131  1.00  0.00    -0.003 C 
ATOM     13  C   UNL     1     -10.132  16.720 -11.070  1.00  0.00     0.004 C 
ENDBRANCH  11  12
ENDBRANCH  10  11
ENDBRANCH   9  10
ENDBRANCH   8   9
ENDBRANCH   1   8
TORSDOF 9
ENDMDL
MODEL 3
REMARK VINA RESULT:    -3.844      3.227      6.214
REMARK INTER + INTRA:          -6.465
REMARK INTER:                  -5.583
REMARK INTRA:                  -0.882
REMARK UNBOUND:                -0.598
REMARK SMILES CCCCCCCCCCC(=O)[O-]
REMARK SMILES IDX 7 1 8 2 9 3 10 4 11 5 12 6 13 7 6 8 5 9 4 10 3 11 2 12 1 13
REMARK H PARENT
REMARK Flexibility Score: inf
ROOT
ATOM      1  C   UNL     1      -7.510  18.784 -11.664  1.00  0.00     0.000 C 
ENDROOT
BRANCH   1   2
ATOM      2  C   UNL     1      -7.661  18.123 -10.283  1.00  0.00     0.000 C 
BRANCH   2   3
ATOM      3  C   UNL     1      -6.460  17.234  -9.920  1.00  0.00     0.006 C 
BRANCH   3   4
ATOM      4  C   UNL     1      -6.637  16.519  -8.574  1.00  0.00     0.053 C 
BRANCH   4   5
ATOM      5  C   UNL     1      -5.336  16.464  -7.838  1.00  0.00     0.041 C 
ATOM      6  O   UNL     1      -5.321  16.413  -6.580  1.00  0.00    -0.550 OA
ATOM      7  O   UNL     1      -4.138  16.519  -8.539  1.00  0.00    -0.550 OA
ENDBRANCH   4   5
ENDBRANCH   3   4
ENDBRANCH   2   3
ENDBRANCH   1   2
BRANCH   1   8
ATOM      8  C   UNL     1      -8.536  19.907 -11.893  1.00  0.00     0.000 C 
BRANCH   8   9
ATOM      9  C   UNL     1      -9.320  20.258 -10.617  1.00  0.00    -0.000 C 
BRANCH   9  10
ATOM     10  C   UNL     1     -10.840  20.063 -10.775  1.00  0.00    -0.000 C 
BRANCH  10  11
ATOM     11  C   UNL     1     -11.257  18.992 -11.799  1.00  0.00    -0.000 C 
BRANCH  11  12
ATOM     12  C   UNL     1     -11.247  17.571 -11.218  1.00  0.00    -0.003 C 
ATOM     13  C   UNL     1     -10.519  16.602 -12.146  1.00  0.00     0.004 C 
ENDBRANCH  11  12
ENDBRANCH  10  11
ENDBRANCH   9  10
ENDBRANCH   8   9
ENDBRANCH   1   8
TORSDOF 9
ENDMDL
MODEL 4
REMARK VINA RESULT:    -3.844      1.116      2.058
REMARK INTER + INTRA:          -6.464
REMARK INTER:                  -5.666
REMARK INTRA:                  -0.799
REMARK UNBOUND:                -0.598
REMARK SMILES CCCCCCCCCCC(=O)[O-]
REMARK SMILES IDX 7 1 8 2 9 3 10 4 11 5 12 6 13 7 6 8 5 9 4 10 3 11 2 12 1 13
REMARK H PARENT
REMARK Flexibility Score: inf
ROOT
ATOM      1  C   UNL     1      -8.282  19.828 -10.209  1.00  0.00     0.000 C 
ENDROOT
BRANCH   1   2
ATOM      2  C   UNL     1      -8.265  19.809 -11.748  1.00  0.00     0.000 C 
BRANCH   2   3
ATOM      3  C   UNL     1      -9.574  19.265 -12.346  1.00  0.00     0.006 C 
BRANCH   3   4
ATOM      4  C   UNL     1     -10.601  18.882 -11.273  1.00  0.00     0.053 C 
BRANCH   4   5
ATOM      5  C   UNL     1     -10.991  17.445 -11.413  1.00  0.00     0.041 C 
ATOM      6  O   UNL     1     -11.935  17.116 -12.179  1.00  0.00    -0.550 OA
ATOM      7  O   UNL     1     -10.345  16.472 -10.661  1.00  0.00    -0.550 OA
ENDBRANCH   4   5
ENDBRANCH   3   4
ENDBRANCH   2   3
ENDBRANCH   1   2
BRANCH   1   8
ATOM      8  C   UNL     1      -7.090  19.072  -9.600  1.00  0.00     0.000 C 
BRANCH   8   9
ATOM      9  C   UNL     1      -6.959  17.640 -10.145  1.00  0.00    -0.000 C 
BRANCH   9  10
ATOM     10  C   UNL     1      -6.915  16.576  -9.032  1.00  0.00    -0.000 C 
BRANCH  10  11
ATOM     11  C   UNL     1      -6.753  17.131  -7.605  1.00  0.00    -0.000 C 
BRANCH  11  12
ATOM     12  C   UNL     1      -5.463  16.657  -6.922  1.00  0.00    -0.003 C 
ATOM     13  C   UNL     1      -4.237  16.990  -7.770  1.00  0.00     0.004 C 
ENDBRANCH  11  12
ENDBRANCH  10  11
ENDBRANCH   9  10
ENDBRANCH   8   9
ENDBRANCH   1   8
TORSDOF 9
ENDMDL
MODEL 5
REMARK VINA RESULT:    -3.842      3.485      6.886
REMARK INTER + INTRA:          -6.461
REMARK INTER:                  -6.065
REMARK INTRA:                  -0.396
REMARK UNBOUND:                -0.598
REMARK SMILES CCCCCCCCCCC(=O)[O-]
REMARK SMILES IDX 7 1 8 2 9 3 10 4 11 5 12 6 13 7 6 8 5 9 4 10 3 11 2 12 1 13
REMARK H PARENT
REMARK Flexibility Score: inf
ROOT
ATOM      1  C   UNL     1      -7.070  17.016  -9.387  1.00  0.00     0.000 C 
ENDROOT
BRANCH   1   2
ATOM      2  C   UNL     1      -5.750  16.230  -9.479  1.00  0.00     0.000 C 
BRANCH   2   3
ATOM      3  C   UNL     1      -4.761  16.606  -8.362  1.00  0.00     0.006 C 
BRANCH   3   4
ATOM      4  C   UNL     1      -5.382  16.506  -6.963  1.00  0.00     0.053 C 
BRANCH   4   5
ATOM      5  C   UNL     1      -4.639  17.377  -5.999  1.00  0.00     0.041 C 
ATOM      6  O   UNL     1      -4.222  18.509  -6.360  1.00  0.00    -0.550 OA
ATOM      7  O   UNL     1      -4.364  16.919  -4.717  1.00  0.00    -0.550 OA
ENDBRANCH   4   5
ENDBRANCH   3   4
ENDBRANCH   2   3
ENDBRANCH   1   2
BRANCH   1   8
ATOM      8  C   UNL     1      -7.216  18.054 -10.512  1.00  0.00     0.000 C 
BRANCH   8   9
ATOM      9  C   UNL     1      -8.668  18.198 -10.996  1.00  0.00    -0.000 C 
BRANCH   9  10
ATOM     10  C   UNL     1      -9.474  16.891 -10.872  1.00  0.00    -0.000 C 
BRANCH  10  11
ATOM     11  C   UNL     1     -10.457  16.618 -12.025  1.00  0.00    -0.000 C 
BRANCH  11  12
ATOM     12  C   UNL     1     -11.716  17.494 -11.958  1.00  0.00    -0.003 C 
ATOM     13  C   UNL     1     -11.807  18.419 -13.169  1.00  0.00     0.004 C 
ENDBRANCH  11  12
ENDBRANCH  10  11
ENDBRANCH   9  10
ENDBRANCH   8   9
ENDBRANCH   1   8
TORSDOF 9
ENDMDL
MODEL 6
REMARK VINA RESULT:    -3.816      1.445      2.273
REMARK INTER + INTRA:          -6.423
REMARK INTER:                  -5.371
REMARK INTRA:                  -1.052
REMARK UNBOUND:                -0.598
REMARK SMILES CCCCCCCCCCC(=O)[O-]
REMARK SMILES IDX 7 1 8 2 9 3 10 4 11 5 12 6 13 7 6 8 5 9 4 10 3 11 2 12 1 13
REMARK H PARENT
REMARK Flexibility Score: inf
ROOT
ATOM      1  C   UNL     1      -6.100  16.515  -9.527  1.00  0.00     0.000 C 
ENDROOT
BRANCH   1   2
ATOM      2  C   UNL     1      -6.194  17.796 -10.375  1.00  0.00     0.000 C 
BRANCH   2   3
ATOM      3  C   UNL     1      -7.561  18.488 -10.249  1.00  0.00     0.006 C 
BRANCH   3   4
ATOM      4  C   UNL     1      -8.414  18.351 -11.517  1.00  0.00     0.053 C 
BRANCH   4   5
ATOM      5  C   UNL     1      -9.792  17.885 -11.171  1.00  0.00     0.041 C 
ATOM      6  O   UNL     1     -10.728  18.717 -11.038  1.00  0.00    -0.550 OA
ATOM      7  O   UNL     1     -10.034  16.536 -10.946  1.00  0.00    -0.550 OA
ENDBRANCH   4   5
ENDBRANCH   3   4
ENDBRANCH   2   3
ENDBRANCH   1   2
BRANCH   1   8
ATOM      8  C   UNL     1      -6.747  16.678  -8.142  1.00  0.00     0.000 C 
BRANCH   8   9
ATOM      9  C   UNL     1      -5.754  16.426  -6.994  1.00  0.00    -0.000 C 
BRANCH   9  10
ATOM     10  C   UNL     1      -4.494  17.307  -7.086  1.00  0.00    -0.000 C 
BRANCH  10  11
ATOM     11  C   UNL     1      -4.641  18.719  -6.491  1.00  0.00    -0.000 C 
BRANCH  11  12
ATOM     12  C   UNL     1      -4.859  19.799  -7.560  1.00  0.00    -0.003 C 
ATOM     13  C   UNL     1      -6.249  20.419  -7.439  1.00  0.00     0.004 C 
ENDBRANCH  11  12
ENDBRANCH  10  11
ENDBRANCH   9  10
ENDBRANCH   8   9
ENDBRANCH   1   8
TORSDOF 9
ENDMDL
MODEL 7
REMARK VINA RESULT:    -3.793      1.621      2.456
REMARK INTER + INTRA:          -6.386
REMARK INTER:                  -5.837
REMARK INTRA:                  -0.549
REMARK UNBOUND:                -0.598
REMARK SMILES CCCCCCCCCCC(=O)[O-]
REMARK SMILES IDX 7 1 8 2 9 3 10 4 11 5 12 6 13 7 6 8 5 9 4 10 3 11 2 12 1 13
REMARK H PARENT
REMARK Flexibility Score: inf
ROOT
ATOM      1  C   UNL     1      -8.532  18.159 -11.261  1.00  0.00     0.000 C 
ENDROOT
BRANCH   1   2
ATOM      2  C   UNL     1      -9.500  16.995 -10.983  1.00  0.00     0.000 C 
BRANCH   2   3
ATOM      3  C   UNL     1     -10.972  17.440 -10.984  1.00  0.00     0.006 C 
BRANCH   3   4
ATOM      4  C   UNL     1     -11.694  17.098 -12.294  1.00  0.00     0.053 C 
BRANCH   4   5
ATOM      5  C   UNL     1     -12.160  18.346 -12.973  1.00  0.00     0.041 C 
ATOM      6  O   UNL     1     -13.005  18.283 -13.905  1.00  0.00    -0.550 OA
ATOM      7  O   UNL     1     -11.624  19.576 -12.613  1.00  0.00    -0.550 OA
ENDBRANCH   4   5
ENDBRANCH   3   4
ENDBRANCH   2   3
ENDBRANCH   1   2
BRANCH   1   8
ATOM      8  C   UNL     1      -7.295  18.126 -10.348  1.00  0.00     0.000 C 
BRANCH   8   9
ATOM      9  C   UNL     1      -7.219  16.840  -9.506  1.00  0.00    -0.000 C 
BRANCH   9  10
ATOM     10  C   UNL     1      -6.946  17.114  -8.016  1.00  0.00    -0.000 C 
BRANCH  10  11
ATOM     11  C   UNL     1      -6.096  18.364  -7.727  1.00  0.00    -0.000 C 
BRANCH  11  12
ATOM     12  C   UNL     1      -4.945  18.093  -6.747  1.00  0.00    -0.003 C 
ATOM     13  C   UNL     1      -4.946  16.637  -6.288  1.00  0.00     0.004 C 
ENDBRANCH  11  12
ENDBRANCH  10  11
ENDBRANCH   9  10
ENDBRANCH   8   9
ENDBRANCH   1   8
TORSDOF 9
ENDMDL
MODEL 8
REMARK VINA RESULT:    -3.780      3.174      6.554
REMARK INTER + INTRA:          -6.367
REMARK INTER:                  -5.662
REMARK INTRA:                  -0.705
REMARK UNBOUND:                -0.598
REMARK SMILES CCCCCCCCCCC(=O)[O-]
REMARK SMILES IDX 7 1 8 2 9 3 10 4 11 5 12 6 13 7 6 8 5 9 4 10 3 11 2 12 1 13
REMARK H PARENT
REMARK Flexibility Score: inf
ROOT
ATOM      1  C   UNL     1      -8.539  18.081 -11.010  1.00  0.00     0.000 C 
ENDROOT
BRANCH   1   2
ATOM      2  C   UNL     1      -7.250  18.087 -10.169  1.00  0.00     0.000 C 
BRANCH   2   3
ATOM      3  C   UNL     1      -6.988  16.736  -9.482  1.00  0.00     0.006 C 
BRANCH   3   4
ATOM      4  C   UNL     1      -6.868  16.860  -7.957  1.00  0.00     0.053 C 
BRANCH   4   5
ATOM      5  C   UNL     1      -5.462  17.191  -7.570  1.00  0.00     0.041 C 
ATOM      6  O   UNL     1      -5.221  18.203  -6.860  1.00  0.00    -0.550 OA
ATOM      7  O   UNL     1      -4.410  16.411  -8.035  1.00  0.00    -0.550 OA
ENDBRANCH   4   5
ENDBRANCH   3   4
ENDBRANCH   2   3
ENDBRANCH   1   2
BRANCH   1   8
ATOM      8  C   UNL     1      -9.419  16.851 -10.729  1.00  0.00     0.000 C 
BRANCH   8   9
ATOM      9  C   UNL     1     -10.681  16.816 -11.608  1.00  0.00    -0.000 C 
BRANCH   9  10
ATOM     10  C   UNL     1     -10.688  17.912 -12.690  1.00  0.00    -0.000 C 
BRANCH  10  11
ATOM     11  C   UNL     1     -11.987  18.735 -12.776  1.00  0.00    -0.000 C 
BRANCH  11  12
ATOM     12  C   UNL     1     -11.774  20.223 -12.464  1.00  0.00    -0.003 C 
ATOM     13  C   UNL     1     -11.398  20.429 -10.999  1.00  0.00     0.004 C 
ENDBRANCH  11  12
ENDBRANCH  10  11
ENDBRANCH   9  10
ENDBRANCH   8   9
ENDBRANCH   1   8
TORSDOF 9
ENDMDL
MODEL 9
REMARK VINA RESULT:    -3.433      1.655      2.248
REMARK INTER + INTRA:          -5.837
REMARK INTER:                  -4.848
REMARK INTRA:                  -0.989
REMARK UNBOUND:                -0.598
REMARK SMILES CCCCCCCCCCC(=O)[O-]
REMARK SMILES IDX 7 1 8 2 9 3 10 4 11 5 12 6 13 7 6 8 5 9 4 10 3 11 2 12 1 13
REMARK H PARENT
REMARK Flexibility Score: inf
ROOT
ATOM      1  C   UNL     1      -7.190  19.737  -8.533  1.00  0.00     0.000 C 
ENDROOT
BRANCH   1   2
ATOM      2  C   UNL     1      -7.028  19.463 -10.039  1.00  0.00     0.000 C 
BRANCH   2   3
ATOM      3  C   UNL     1      -7.668  18.132 -10.469  1.00  0.00     0.006 C 
BRANCH   3   4
ATOM      4  C   UNL     1      -8.743  18.313 -11.548  1.00  0.00     0.053 C 
BRANCH   4   5
ATOM      5  C   UNL     1      -9.968  17.528 -11.201  1.00  0.00     0.041 C 
ATOM      6  O   UNL     1      -9.865  16.418 -10.615  1.00  0.00    -0.550 OA
ATOM      7  O   UNL     1     -11.222  17.999 -11.568  1.00  0.00    -0.550 OA
ENDBRANCH   4   5
ENDBRANCH   3   4
ENDBRANCH   2   3
ENDBRANCH   1   2
BRANCH   1   8
ATOM      8  C   UNL     1      -5.850  20.041  -7.843  1.00  0.00     0.000 C 
BRANCH   8   9
ATOM      9  C   UNL     1      -4.641  19.595  -8.683  1.00  0.00    -0.000 C 
BRANCH   9  10
ATOM     10  C   UNL     1      -3.960  18.329  -8.130  1.00  0.00    -0.000 C 
BRANCH  10  11
ATOM     11  C   UNL     1      -4.539  16.999  -8.646  1.00  0.00    -0.000 C 
BRANCH  11  12
ATOM     12  C   UNL     1      -5.536  16.360  -7.668  1.00  0.00    -0.003 C 
ATOM     13  C   UNL     1      -5.133  16.629  -6.220  1.00  0.00     0.004 C 
ENDBRANCH  11  12
ENDBRANCH  10  11
ENDBRANCH   9  10
ENDBRANCH   8   9
ENDBRANCH   1   8
TORSDOF 9
ENDMDL
