MODEL 1
REMARK VINA RESULT:    -4.817      0.000      0.000
REMARK INTER + INTRA:         -10.801
REMARK INTER:                  -8.759
REMARK INTRA:                  -2.041
REMARK UNBOUND:                -2.041
REMARK SMILES CCCCCCCCCCCCCCCC(=O)[O-]
REMARK SMILES IDX 9 1 10 2 11 3 12 4 13 5 14 6 15 7 16 8 17 9 18 10 8 11 7 12
REMARK SMILES IDX 6 13 5 14 4 15 3 16 2 17 1 18
REMARK H PARENT
REMARK Flexibility Score: inf
ROOT
ATOM      1  C   UNL     1      -2.767   8.863  25.043  1.00  0.00     0.000 C 
ENDROOT
BRANCH   1   2
ATOM      2  C   UNL     1      -3.343   9.622  26.245  1.00  0.00     0.000 C 
BRANCH   2   3
ATOM      3  C   UNL     1      -2.407   9.524  27.458  1.00  0.00     0.000 C 
BRANCH   3   4
ATOM      4  C   UNL     1      -2.293  10.850  28.233  1.00  0.00     0.000 C 
BRANCH   4   5
ATOM      5  C   UNL     1      -2.921  12.073  27.535  1.00  0.00     0.000 C 
BRANCH   5   6
ATOM      6  C   UNL     1      -1.975  13.270  27.338  1.00  0.00     0.006 C 
BRANCH   6   7
ATOM      7  C   UNL     1      -1.292  13.268  25.963  1.00  0.00     0.053 C 
BRANCH   7   8
ATOM      8  C   UNL     1       0.186  13.100  26.115  1.00  0.00     0.041 C 
ATOM      9  O   UNL     1       0.648  12.151  26.803  1.00  0.00    -0.550 OA
ATOM     10  O   UNL     1       1.055  14.019  25.540  1.00  0.00    -0.550 OA
ENDBRANCH   7   8
ENDBRANCH   6   7
ENDBRANCH   5   6
ENDBRANCH   4   5
ENDBRANCH   3   4
ENDBRANCH   2   3
ENDBRANCH   1   2
BRANCH   1  11
ATOM     11  C   UNL     1      -1.276   9.169  24.862  1.00  0.00     0.000 C 
BRANCH  11  12
ATOM     12  C   UNL     1      -0.857   9.017  23.396  1.00  0.00    -0.000 C 
BRANCH  12  13
ATOM     13  C   UNL     1      -1.909   8.232  22.601  1.00  0.00    -0.000 C 
BRANCH  13  14
ATOM     14  C   UNL     1      -1.789   8.515  21.099  1.00  0.00    -0.000 C 
BRANCH  14  15
ATOM     15  C   UNL     1      -3.102   9.081  20.540  1.00  0.00    -0.000 C 
BRANCH  15  16
ATOM     16  C   UNL     1      -3.867   9.943  21.560  1.00  0.00    -0.000 C 
BRANCH  16  17
ATOM     17  C   UNL     1      -3.386  11.401  21.666  1.00  0.00    -0.003 C 
ATOM     18  C   UNL     1      -3.335  11.912  23.106  1.00  0.00     0.004 C 
ENDBRANCH  16  17
ENDBRANCH  15  16
ENDBRANCH  14  15
ENDBRANCH  13  14
ENDBRANCH  12  13
ENDBRANCH  11  12
ENDBRANCH   1  11
TORSDOF 14
ENDMDL
MODEL 2
REMARK VINA RESULT:    -4.812      3.302      4.687
REMARK INTER + INTRA:         -10.791
REMARK INTER:                  -9.370
REMARK INTRA:                  -1.421
REMARK UNBOUND:                -2.041
REMARK SMILES CCCCCCCCCCCCCCCC(=O)[O-]
REMARK SMILES IDX 9 1 10 2 11 3 12 4 13 5 14 6 15 7 16 8 17 9 18 10 8 11 7 12
REMARK SMILES IDX 6 13 5 14 4 15 3 16 2 17 1 18
REMARK H PARENT
REMARK Flexibility Score: inf
ROOT
ATOM      1  C   UNL     1      -2.482   7.965  23.031  1.00  0.00     0.000 C 
ENDROOT
BRANCH   1   2
ATOM      2  C   UNL     1      -1.721   8.306  24.318  1.00  0.00     0.000 C 
BRANCH   2   3
ATOM      3  C   UNL     1      -0.592   9.308  24.040  1.00  0.00     0.000 C 
BRANCH   3   4
ATOM      4  C   UNL     1       0.299   9.562  25.270  1.00  0.00     0.000 C 
BRANCH   4   5
ATOM      5  C   UNL     1       1.806   9.691  24.971  1.00  0.00     0.000 C 
BRANCH   5   6
ATOM      6  C   UNL     1       2.736   9.365  26.153  1.00  0.00     0.006 C 
BRANCH   6   7
ATOM      7  C   UNL     1       3.551   8.083  25.931  1.00  0.00     0.053 C 
BRANCH   7   8
ATOM      8  C   UNL     1       3.764   7.370  27.229  1.00  0.00     0.041 C 
ATOM      9  O   UNL     1       2.799   6.800  27.804  1.00  0.00    -0.550 OA
ATOM     10  O   UNL     1       5.016   7.376  27.830  1.00  0.00    -0.550 OA
ENDBRANCH   7   8
ENDBRANCH   6   7
ENDBRANCH   5   6
ENDBRANCH   4   5
ENDBRANCH   3   4
ENDBRANCH   2   3
ENDBRANCH   1   2
BRANCH   1  11
ATOM     11  C   UNL     1      -1.828   8.626  21.812  1.00  0.00     0.000 C 
BRANCH  11  12
ATOM     12  C   UNL     1      -2.852   8.855  20.695  1.00  0.00    -0.000 C 
BRANCH  12  13
ATOM     13  C   UNL     1      -3.880   9.919  21.100  1.00  0.00    -0.000 C 
BRANCH  13  14
ATOM     14  C   UNL     1      -3.188  11.194  21.593  1.00  0.00    -0.000 C 
BRANCH  14  15
ATOM     15  C   UNL     1      -4.211  12.195  22.151  1.00  0.00    -0.000 C 
BRANCH  15  16
ATOM     16  C   UNL     1      -5.074  11.604  23.281  1.00  0.00    -0.000 C 
BRANCH  16  17
ATOM     17  C   UNL     1      -4.281  10.961  24.432  1.00  0.00    -0.003 C 
ATOM     18  C   UNL     1      -5.053   9.849  25.143  1.00  0.00     0.004 C 
ENDBRANCH  16  17
ENDBRANCH  15  16
ENDBRANCH  14  15
ENDBRANCH  13  14
ENDBRANCH  12  13
ENDBRANCH  11  12
ENDBRANCH   1  11
TORSDOF 14
ENDMDL
MODEL 3
REMARK VINA RESULT:    -4.639      1.763      3.079
REMARK INTER + INTRA:         -10.478
REMARK INTER:                  -8.784
REMARK INTRA:                  -1.693
REMARK UNBOUND:                -2.041
REMARK SMILES CCCCCCCCCCCCCCCC(=O)[O-]
REMARK SMILES IDX 9 1 10 2 11 3 12 4 13 5 14 6 15 7 16 8 17 9 18 10 8 11 7 12
REMARK SMILES IDX 6 13 5 14 4 15 3 16 2 17 1 18
REMARK H PARENT
REMARK Flexibility Score: inf
ROOT
ATOM      1  C   UNL     1      -2.662   8.073  22.905  1.00  0.00     0.000 C 
ENDROOT
BRANCH   1   2
ATOM      2  C   UNL     1      -1.863   8.258  24.201  1.00  0.00     0.000 C 
BRANCH   2   3
ATOM      3  C   UNL     1      -0.672   9.203  23.982  1.00  0.00     0.000 C 
BRANCH   3   4
ATOM      4  C   UNL     1       0.013   9.615  25.298  1.00  0.00     0.000 C 
BRANCH   4   5
ATOM      5  C   UNL     1      -0.346  11.024  25.810  1.00  0.00     0.000 C 
BRANCH   5   6
ATOM      6  C   UNL     1       0.856  11.934  26.116  1.00  0.00     0.006 C 
BRANCH   6   7
ATOM      7  C   UNL     1       0.496  13.425  26.084  1.00  0.00     0.053 C 
BRANCH   7   8
ATOM      8  C   UNL     1       1.595  14.213  25.443  1.00  0.00     0.041 C 
ATOM      9  O   UNL     1       1.519  15.469  25.380  1.00  0.00    -0.550 OA
ATOM     10  O   UNL     1       2.678  13.560  24.872  1.00  0.00    -0.550 OA
ENDBRANCH   7   8
ENDBRANCH   6   7
ENDBRANCH   5   6
ENDBRANCH   4   5
ENDBRANCH   3   4
ENDBRANCH   2   3
ENDBRANCH   1   2
BRANCH   1  11
ATOM     11  C   UNL     1      -1.791   8.356  21.675  1.00  0.00     0.000 C 
BRANCH  11  12
ATOM     12  C   UNL     1      -2.599   9.060  20.579  1.00  0.00    -0.000 C 
BRANCH  12  13
ATOM     13  C   UNL     1      -3.764   9.857  21.180  1.00  0.00    -0.000 C 
BRANCH  13  14
ATOM     14  C   UNL     1      -3.329  11.282  21.541  1.00  0.00    -0.000 C 
BRANCH  14  15
ATOM     15  C   UNL     1      -4.460  12.039  22.251  1.00  0.00    -0.000 C 
BRANCH  15  16
ATOM     16  C   UNL     1      -4.915  11.356  23.553  1.00  0.00    -0.000 C 
BRANCH  16  17
ATOM     17  C   UNL     1      -3.813  11.189  24.615  1.00  0.00    -0.003 C 
ATOM     18  C   UNL     1      -4.310  10.508  25.891  1.00  0.00     0.004 C 
ENDBRANCH  16  17
ENDBRANCH  15  16
ENDBRANCH  14  15
ENDBRANCH  13  14
ENDBRANCH  12  13
ENDBRANCH  11  12
ENDBRANCH   1  11
TORSDOF 14
ENDMDL
MODEL 4
REMARK VINA RESULT:    -4.589      1.811      2.781
REMARK INTER + INTRA:         -10.385
REMARK INTER:                  -8.773
REMARK INTRA:                  -1.612
REMARK UNBOUND:                -2.041
REMARK SMILES CCCCCCCCCCCCCCCC(=O)[O-]
REMARK SMILES IDX 9 1 10 2 11 3 12 4 13 5 14 6 15 7 16 8 17 9 18 10 8 11 7 12
REMARK SMILES IDX 6 13 5 14 4 15 3 16 2 17 1 18
REMARK H PARENT
REMARK Flexibility Score: inf
ROOT
ATOM      1  C   UNL     1      -2.339  10.389  25.985  1.00  0.00     0.000 C 
ENDROOT
BRANCH   1   2
ATOM      2  C   UNL     1      -2.327  11.757  25.291  1.00  0.00     0.000 C 
BRANCH   2   3
ATOM      3  C   UNL     1      -1.695  12.826  26.194  1.00  0.00     0.000 C 
BRANCH   3   4
ATOM      4  C   UNL     1      -0.358  12.375  26.811  1.00  0.00     0.000 C 
BRANCH   4   5
ATOM      5  C   UNL     1       0.900  12.986  26.163  1.00  0.00     0.000 C 
BRANCH   5   6
ATOM      6  C   UNL     1       0.690  14.355  25.493  1.00  0.00     0.006 C 
BRANCH   6   7
ATOM      7  C   UNL     1       1.892  14.793  24.646  1.00  0.00     0.053 C 
BRANCH   7   8
ATOM      8  C   UNL     1       2.446  16.086  25.156  1.00  0.00     0.041 C 
ATOM      9  O   UNL     1       3.240  16.759  24.447  1.00  0.00    -0.550 OA
ATOM     10  O   UNL     1       2.124  16.526  26.434  1.00  0.00    -0.550 OA
ENDBRANCH   7   8
ENDBRANCH   6   7
ENDBRANCH   5   6
ENDBRANCH   4   5
ENDBRANCH   3   4
ENDBRANCH   2   3
ENDBRANCH   1   2
BRANCH   1  11
ATOM     11  C   UNL     1      -2.041   9.263  24.989  1.00  0.00     0.000 C 
BRANCH  11  12
ATOM     12  C   UNL     1      -0.711   9.504  24.267  1.00  0.00    -0.000 C 
BRANCH  12  13
ATOM     13  C   UNL     1      -0.701   8.829  22.890  1.00  0.00    -0.000 C 
BRANCH  13  14
ATOM     14  C   UNL     1      -2.099   8.326  22.513  1.00  0.00    -0.000 C 
BRANCH  14  15
ATOM     15  C   UNL     1      -2.576   8.960  21.198  1.00  0.00    -0.000 C 
BRANCH  15  16
ATOM     16  C   UNL     1      -3.706   9.986  21.401  1.00  0.00    -0.000 C 
BRANCH  16  17
ATOM     17  C   UNL     1      -3.232  11.430  21.642  1.00  0.00    -0.003 C 
ATOM     18  C   UNL     1      -4.322  12.328  22.226  1.00  0.00     0.004 C 
ENDBRANCH  16  17
ENDBRANCH  15  16
ENDBRANCH  14  15
ENDBRANCH  13  14
ENDBRANCH  12  13
ENDBRANCH  11  12
ENDBRANCH   1  11
TORSDOF 14
ENDMDL
MODEL 5
REMARK VINA RESULT:    -4.588      0.824      2.214
REMARK INTER + INTRA:         -10.385
REMARK INTER:                  -8.146
REMARK INTRA:                  -2.239
REMARK UNBOUND:                -2.041
REMARK SMILES CCCCCCCCCCCCCCCC(=O)[O-]
REMARK SMILES IDX 9 1 10 2 11 3 12 4 13 5 14 6 15 7 16 8 17 9 18 10 8 11 7 12
REMARK SMILES IDX 6 13 5 14 4 15 3 16 2 17 1 18
REMARK H PARENT
REMARK Flexibility Score: inf
ROOT
ATOM      1  C   UNL     1      -1.264   9.458  26.253  1.00  0.00     0.000 C 
ENDROOT
BRANCH   1   2
ATOM      2  C   UNL     1      -2.266   9.213  27.388  1.00  0.00     0.000 C 
BRANCH   2   3
ATOM      3  C   UNL     1      -2.313  10.410  28.348  1.00  0.00     0.000 C 
BRANCH   3   4
ATOM      4  C   UNL     1      -3.519  11.334  28.093  1.00  0.00     0.000 C 
BRANCH   4   5
ATOM      5  C   UNL     1      -3.170  12.728  27.535  1.00  0.00     0.000 C 
BRANCH   5   6
ATOM      6  C   UNL     1      -1.668  13.059  27.499  1.00  0.00     0.006 C 
BRANCH   6   7
ATOM      7  C   UNL     1      -1.101  13.098  26.074  1.00  0.00     0.053 C 
BRANCH   7   8
ATOM      8  C   UNL     1       0.373  13.348  26.105  1.00  0.00     0.041 C 
ATOM      9  O   UNL     1       0.814  14.513  26.298  1.00  0.00    -0.550 OA
ATOM     10  O   UNL     1       1.262  12.307  25.873  1.00  0.00    -0.550 OA
ENDBRANCH   7   8
ENDBRANCH   6   7
ENDBRANCH   5   6
ENDBRANCH   4   5
ENDBRANCH   3   4
ENDBRANCH   2   3
ENDBRANCH   1   2
BRANCH   1  11
ATOM     11  C   UNL     1      -1.926   9.270  24.883  1.00  0.00     0.000 C 
BRANCH  11  12
ATOM     12  C   UNL     1      -3.447   9.433  24.980  1.00  0.00    -0.000 C 
BRANCH  12  13
ATOM     13  C   UNL     1      -3.900  10.761  24.360  1.00  0.00    -0.000 C 
BRANCH  13  14
ATOM     14  C   UNL     1      -2.860  11.287  23.364  1.00  0.00    -0.000 C 
BRANCH  14  15
ATOM     15  C   UNL     1      -3.453  11.390  21.951  1.00  0.00    -0.000 C 
BRANCH  15  16
ATOM     16  C   UNL     1      -3.893  10.028  21.385  1.00  0.00    -0.000 C 
BRANCH  16  17
ATOM     17  C   UNL     1      -2.830   9.305  20.539  1.00  0.00    -0.003 C 
ATOM     18  C   UNL     1      -1.970   8.340  21.356  1.00  0.00     0.004 C 
ENDBRANCH  16  17
ENDBRANCH  15  16
ENDBRANCH  14  15
ENDBRANCH  13  14
ENDBRANCH  12  13
ENDBRANCH  11  12
ENDBRANCH   1  11
TORSDOF 14
ENDMDL
MODEL 6
REMARK VINA RESULT:    -4.588      1.648      5.507
REMARK INTER + INTRA:         -10.385
REMARK INTER:                  -8.406
REMARK INTRA:                  -1.978
REMARK UNBOUND:                -2.041
REMARK SMILES CCCCCCCCCCCCCCCC(=O)[O-]
REMARK SMILES IDX 9 1 10 2 11 3 12 4 13 5 14 6 15 7 16 8 17 9 18 10 8 11 7 12
REMARK SMILES IDX 6 13 5 14 4 15 3 16 2 17 1 18
REMARK H PARENT
REMARK Flexibility Score: inf
ROOT
ATOM      1  C   UNL     1      -3.556  11.890  22.787  1.00  0.00     0.000 C 
ENDROOT
BRANCH   1   2
ATOM      2  C   UNL     1      -3.289  11.293  21.400  1.00  0.00     0.000 C 
BRANCH   2   3
ATOM      3  C   UNL     1      -3.754   9.832  21.331  1.00  0.00     0.000 C 
BRANCH   3   4
ATOM      4  C   UNL     1      -2.603   8.828  21.528  1.00  0.00     0.000 C 
BRANCH   4   5
ATOM      5  C   UNL     1      -2.715   7.944  22.786  1.00  0.00     0.000 C 
BRANCH   5   6
ATOM      6  C   UNL     1      -1.784   8.338  23.946  1.00  0.00     0.006 C 
BRANCH   6   7
ATOM      7  C   UNL     1      -0.691   9.329  23.522  1.00  0.00     0.053 C 
BRANCH   7   8
ATOM      8  C   UNL     1       0.314   9.496  24.617  1.00  0.00     0.041 C 
ATOM      9  O   UNL     1      -0.064   9.755  25.790  1.00  0.00    -0.550 OA
ATOM     10  O   UNL     1       1.671   9.416  24.334  1.00  0.00    -0.550 OA
ENDBRANCH   7   8
ENDBRANCH   6   7
ENDBRANCH   5   6
ENDBRANCH   4   5
ENDBRANCH   3   4
ENDBRANCH   2   3
ENDBRANCH   1   2
BRANCH   1  11
ATOM     11  C   UNL     1      -4.698  11.153  23.494  1.00  0.00     0.000 C 
BRANCH  11  12
ATOM     12  C   UNL     1      -4.324  10.819  24.943  1.00  0.00    -0.000 C 
BRANCH  12  13
ATOM     13  C   UNL     1      -2.993  11.474  25.333  1.00  0.00    -0.000 C 
BRANCH  13  14
ATOM     14  C   UNL     1      -2.949  11.780  26.834  1.00  0.00    -0.000 C 
BRANCH  14  15
ATOM     15  C   UNL     1      -2.127  13.046  27.114  1.00  0.00    -0.000 C 
BRANCH  15  16
ATOM     16  C   UNL     1      -1.087  13.341  26.018  1.00  0.00    -0.000 C 
BRANCH  16  17
ATOM     17  C   UNL     1       0.312  13.717  26.539  1.00  0.00    -0.003 C 
ATOM     18  C   UNL     1       1.180  14.400  25.482  1.00  0.00     0.004 C 
ENDBRANCH  16  17
ENDBRANCH  15  16
ENDBRANCH  14  15
ENDBRANCH  13  14
ENDBRANCH  12  13
ENDBRANCH  11  12
ENDBRANCH   1  11
TORSDOF 14
ENDMDL
MODEL 7
REMARK VINA RESULT:    -4.492      1.770      3.183
REMARK INTER + INTRA:         -10.210
REMARK INTER:                  -8.652
REMARK INTRA:                  -1.558
REMARK UNBOUND:                -2.041
REMARK SMILES CCCCCCCCCCCCCCCC(=O)[O-]
REMARK SMILES IDX 9 1 10 2 11 3 12 4 13 5 14 6 15 7 16 8 17 9 18 10 8 11 7 12
REMARK SMILES IDX 6 13 5 14 4 15 3 16 2 17 1 18
REMARK H PARENT
REMARK Flexibility Score: inf
ROOT
ATOM      1  C   UNL     1      -2.634  10.292  27.882  1.00  0.00     0.000 C 
ENDROOT
BRANCH   1   2
ATOM      2  C   UNL     1      -3.170  11.596  27.277  1.00  0.00     0.000 C 
BRANCH   2   3
ATOM      3  C   UNL     1      -2.152  12.734  27.432  1.00  0.00     0.000 C 
BRANCH   3   4
ATOM      4  C   UNL     1      -1.253  12.907  26.194  1.00  0.00     0.000 C 
BRANCH   4   5
ATOM      5  C   UNL     1       0.236  13.165  26.497  1.00  0.00     0.000 C 
BRANCH   5   6
ATOM      6  C   UNL     1       1.211  12.129  25.912  1.00  0.00     0.006 C 
BRANCH   6   7
ATOM      7  C   UNL     1       0.577  10.741  25.749  1.00  0.00     0.053 C 
BRANCH   7   8
ATOM      8  C   UNL     1       1.553   9.791  25.132  1.00  0.00     0.041 C 
ATOM      9  O   UNL     1       1.362   9.356  23.965  1.00  0.00    -0.550 OA
ATOM     10  O   UNL     1       2.648   9.346  25.860  1.00  0.00    -0.550 OA
ENDBRANCH   7   8
ENDBRANCH   6   7
ENDBRANCH   5   6
ENDBRANCH   4   5
ENDBRANCH   3   4
ENDBRANCH   2   3
ENDBRANCH   1   2
BRANCH   1  11
ATOM     11  C   UNL     1      -2.415   9.231  26.798  1.00  0.00     0.000 C 
BRANCH  11  12
ATOM     12  C   UNL     1      -2.997   9.686  25.455  1.00  0.00    -0.000 C 
BRANCH  12  13
ATOM     13  C   UNL     1      -4.182   8.804  25.041  1.00  0.00    -0.000 C 
BRANCH  13  14
ATOM     14  C   UNL     1      -3.954   8.190  23.655  1.00  0.00    -0.000 C 
BRANCH  14  15
ATOM     15  C   UNL     1      -2.455   8.091  23.337  1.00  0.00    -0.000 C 
BRANCH  15  16
ATOM     16  C   UNL     1      -2.064   8.838  22.049  1.00  0.00    -0.000 C 
BRANCH  16  17
ATOM     17  C   UNL     1      -3.213   9.604  21.371  1.00  0.00    -0.003 C 
ATOM     18  C   UNL     1      -3.178  11.107  21.652  1.00  0.00     0.004 C 
ENDBRANCH  16  17
ENDBRANCH  15  16
ENDBRANCH  14  15
ENDBRANCH  13  14
ENDBRANCH  12  13
ENDBRANCH  11  12
ENDBRANCH   1  11
TORSDOF 14
ENDMDL
MODEL 8
REMARK VINA RESULT:    -4.462      1.846      3.308
REMARK INTER + INTRA:         -10.155
REMARK INTER:                  -8.400
REMARK INTRA:                  -1.754
REMARK UNBOUND:                -2.041
REMARK SMILES CCCCCCCCCCCCCCCC(=O)[O-]
REMARK SMILES IDX 9 1 10 2 11 3 12 4 13 5 14 6 15 7 16 8 17 9 18 10 8 11 7 12
REMARK SMILES IDX 6 13 5 14 4 15 3 16 2 17 1 18
REMARK H PARENT
REMARK Flexibility Score: inf
ROOT
ATOM      1  C   UNL     1      -1.282   8.700  25.332  1.00  0.00     0.000 C 
ENDROOT
BRANCH   1   2
ATOM      2  C   UNL     1      -0.351   9.744  24.702  1.00  0.00     0.000 C 
BRANCH   2   3
ATOM      3  C   UNL     1       1.005   9.777  25.422  1.00  0.00     0.000 C 
BRANCH   3   4
ATOM      4  C   UNL     1       1.437  11.202  25.817  1.00  0.00     0.000 C 
BRANCH   4   5
ATOM      5  C   UNL     1       0.328  12.071  26.443  1.00  0.00     0.000 C 
BRANCH   5   6
ATOM      6  C   UNL     1       0.397  13.568  26.094  1.00  0.00     0.006 C 
BRANCH   6   7
ATOM      7  C   UNL     1       1.723  13.964  25.430  1.00  0.00     0.053 C 
BRANCH   7   8
ATOM      8  C   UNL     1       1.724  15.421  25.094  1.00  0.00     0.041 C 
ATOM      9  O   UNL     1       2.095  16.268  25.949  1.00  0.00    -0.550 OA
ATOM     10  O   UNL     1       1.268  15.850  23.854  1.00  0.00    -0.550 OA
ENDBRANCH   7   8
ENDBRANCH   6   7
ENDBRANCH   5   6
ENDBRANCH   4   5
ENDBRANCH   3   4
ENDBRANCH   2   3
ENDBRANCH   1   2
BRANCH   1  11
ATOM     11  C   UNL     1      -2.442   9.373  26.074  1.00  0.00     0.000 C 
BRANCH  11  12
ATOM     12  C   UNL     1      -2.845  10.685  25.391  1.00  0.00    -0.000 C 
BRANCH  12  13
ATOM     13  C   UNL     1      -4.338  10.687  25.040  1.00  0.00    -0.000 C 
BRANCH  13  14
ATOM     14  C   UNL     1      -4.555  11.001  23.555  1.00  0.00    -0.000 C 
BRANCH  14  15
ATOM     15  C   UNL     1      -3.217  11.245  22.843  1.00  0.00    -0.000 C 
BRANCH  15  16
ATOM     16  C   UNL     1      -3.191  10.690  21.407  1.00  0.00    -0.000 C 
BRANCH  16  17
ATOM     17  C   UNL     1      -3.264   9.156  21.306  1.00  0.00    -0.003 C 
ATOM     18  C   UNL     1      -1.911   8.477  21.517  1.00  0.00     0.004 C 
ENDBRANCH  16  17
ENDBRANCH  15  16
ENDBRANCH  14  15
ENDBRANCH  13  14
ENDBRANCH  12  13
ENDBRANCH  11  12
ENDBRANCH   1  11
TORSDOF 14
ENDMDL
MODEL 9
REMARK VINA RESULT:    -4.439      2.709      4.221
REMARK INTER + INTRA:         -10.114
REMARK INTER:                  -9.101
REMARK INTRA:                  -1.012
REMARK UNBOUND:                -2.041
REMARK SMILES CCCCCCCCCCCCCCCC(=O)[O-]
REMARK SMILES IDX 9 1 10 2 11 3 12 4 13 5 14 6 15 7 16 8 17 9 18 10 8 11 7 12
REMARK SMILES IDX 6 13 5 14 4 15 3 16 2 17 1 18
REMARK H PARENT
REMARK Flexibility Score: inf
ROOT
ATOM      1  C   UNL     1      -0.894  11.467  26.704  1.00  0.00     0.000 C 
ENDROOT
BRANCH   1   2
ATOM      2  C   UNL     1       0.430  12.231  26.578  1.00  0.00     0.000 C 
BRANCH   2   3
ATOM      3  C   UNL     1       0.189  13.747  26.540  1.00  0.00     0.000 C 
BRANCH   3   4
ATOM      4  C   UNL     1       1.108  14.474  25.542  1.00  0.00     0.000 C 
BRANCH   4   5
ATOM      5  C   UNL     1       2.340  13.671  25.082  1.00  0.00     0.000 C 
BRANCH   5   6
ATOM      6  C   UNL     1       3.127  14.292  23.915  1.00  0.00     0.006 C 
BRANCH   6   7
ATOM      7  C   UNL     1       3.892  15.558  24.321  1.00  0.00     0.053 C 
BRANCH   7   8
ATOM      8  C   UNL     1       3.352  16.750  23.596  1.00  0.00     0.041 C 
ATOM      9  O   UNL     1       2.115  16.992  23.609  1.00  0.00    -0.550 OA
ATOM     10  O   UNL     1       4.204  17.566  22.864  1.00  0.00    -0.550 OA
ENDBRANCH   7   8
ENDBRANCH   6   7
ENDBRANCH   5   6
ENDBRANCH   4   5
ENDBRANCH   3   4
ENDBRANCH   2   3
ENDBRANCH   1   2
BRANCH   1  11
ATOM     11  C   UNL     1      -1.246  10.754  25.394  1.00  0.00     0.000 C 
BRANCH  11  12
ATOM     12  C   UNL     1      -0.253   9.625  25.097  1.00  0.00    -0.000 C 
BRANCH  12  13
ATOM     13  C   UNL     1      -0.323   9.202  23.624  1.00  0.00    -0.000 C 
BRANCH  13  14
ATOM     14  C   UNL     1      -1.737   8.742  23.250  1.00  0.00    -0.000 C 
BRANCH  14  15
ATOM     15  C   UNL     1      -1.836   8.432  21.750  1.00  0.00    -0.000 C 
BRANCH  15  16
ATOM     16  C   UNL     1      -2.828   9.350  21.012  1.00  0.00    -0.000 C 
BRANCH  16  17
ATOM     17  C   UNL     1      -3.619  10.309  21.919  1.00  0.00    -0.003 C 
ATOM     18  C   UNL     1      -3.249  11.776  21.704  1.00  0.00     0.004 C 
ENDBRANCH  16  17
ENDBRANCH  15  16
ENDBRANCH  14  15
ENDBRANCH  13  14
ENDBRANCH  12  13
ENDBRANCH  11  12
ENDBRANCH   1  11
TORSDOF 14
ENDMDL
