MODEL 1
REMARK VINA RESULT:     0.003      0.000      0.000
REMARK INTER + INTRA:          -0.571
REMARK INTER:                   0.006
REMARK INTRA:                  -0.577
REMARK UNBOUND:                -0.577
REMARK SMILES CCCCCCC=CCCCCCCCC(=O)[O-]
REMARK SMILES IDX 10 1 11 2 12 3 13 4 14 5 15 6 16 7 17 8 18 9 9 10 8 11 7 12
REMARK SMILES IDX 6 13 5 14 4 15 3 16 2 17 1 18
REMARK H PARENT
REMARK Flexibility Score: inf
ROOT
ATOM      1  C   UNL     1     136.271 127.352 128.952  1.00  0.00     0.004 C 
ENDROOT
BRANCH   1   2
ATOM      2  C   UNL     1     135.132 128.183 129.581  1.00  0.00     0.000 C 
BRANCH   2   3
ATOM      3  C   UNL     1     133.999 128.586 128.614  1.00  0.00     0.000 C 
BRANCH   3   4
ATOM      4  C   UNL     1     133.860 130.099 128.369  1.00  0.00     0.000 C 
BRANCH   4   5
ATOM      5  C   UNL     1     133.507 130.434 126.909  1.00  0.00     0.006 C 
BRANCH   5   6
ATOM      6  C   UNL     1     132.256 129.686 126.429  1.00  0.00     0.053 C 
BRANCH   6   7
ATOM      7  C   UNL     1     131.458 130.506 125.461  1.00  0.00     0.041 C 
ATOM      8  O   UNL     1     131.849 131.656 125.131  1.00  0.00    -0.550 OA
ATOM      9  O   UNL     1     130.265 130.012 124.950  1.00  0.00    -0.550 OA
ENDBRANCH   6   7
ENDBRANCH   5   6
ENDBRANCH   4   5
ENDBRANCH   3   4
ENDBRANCH   2   3
ENDBRANCH   1   2
BRANCH   1  10
ATOM     10  C   UNL     1     137.197 126.673 129.977  1.00  0.00     0.027 C 
BRANCH  10  11
ATOM     11  C   UNL     1     137.548 127.591 131.123  1.00  0.00    -0.031 C 
ATOM     12  C   UNL     1     138.725 128.234 131.242  1.00  0.00    -0.031 C 
BRANCH  12  13
ATOM     13  C   UNL     1     139.874 128.122 130.269  1.00  0.00     0.027 C 
BRANCH  13  14
ATOM     14  C   UNL     1     141.233 128.501 130.883  1.00  0.00     0.004 C 
BRANCH  14  15
ATOM     15  C   UNL     1     142.453 128.025 130.072  1.00  0.00     0.000 C 
BRANCH  15  16
ATOM     16  C   UNL     1     142.415 128.500 128.608  1.00  0.00    -0.000 C 
BRANCH  16  17
ATOM     17  C   UNL     1     143.799 128.452 127.942  1.00  0.00    -0.003 C 
ATOM     18  C   UNL     1     143.756 128.841 126.464  1.00  0.00     0.004 C 
ENDBRANCH  16  17
ENDBRANCH  15  16
ENDBRANCH  14  15
ENDBRANCH  13  14
ENDBRANCH  12  13
ENDBRANCH  10  11
ENDBRANCH   1  10
TORSDOF 13
ENDMDL
MODEL 2
REMARK VINA RESULT:     0.242      2.322      4.128
REMARK INTER + INTRA:          -0.151
REMARK INTER:                   0.644
REMARK INTRA:                  -0.795
REMARK UNBOUND:                -0.577
REMARK SMILES CCCCCCC=CCCCCCCCC(=O)[O-]
REMARK SMILES IDX 10 1 11 2 12 3 13 4 14 5 15 6 16 7 17 8 18 9 9 10 8 11 7 12
REMARK SMILES IDX 6 13 5 14 4 15 3 16 2 17 1 18
REMARK H PARENT
REMARK Flexibility Score: inf
ROOT
ATOM      1  C   UNL     1     138.887 128.642 131.227  1.00  0.00     0.004 C 
ENDROOT
BRANCH   1   2
ATOM      2  C   UNL     1     138.272 127.337 131.775  1.00  0.00     0.000 C 
BRANCH   2   3
ATOM      3  C   UNL     1     136.971 126.880 131.083  1.00  0.00     0.000 C 
BRANCH   3   4
ATOM      4  C   UNL     1     137.110 126.548 129.587  1.00  0.00     0.000 C 
BRANCH   4   5
ATOM      5  C   UNL     1     136.517 127.640 128.679  1.00  0.00     0.006 C 
BRANCH   5   6
ATOM      6  C   UNL     1     134.985 127.578 128.623  1.00  0.00     0.053 C 
BRANCH   6   7
ATOM      7  C   UNL     1     134.360 128.834 129.149  1.00  0.00     0.041 C 
ATOM      8  O   UNL     1     134.032 128.921 130.362  1.00  0.00    -0.550 OA
ATOM      9  O   UNL     1     134.108 129.898 128.292  1.00  0.00    -0.550 OA
ENDBRANCH   6   7
ENDBRANCH   5   6
ENDBRANCH   4   5
ENDBRANCH   3   4
ENDBRANCH   2   3
ENDBRANCH   1   2
BRANCH   1  10
ATOM     10  C   UNL     1     140.014 128.428 130.201  1.00  0.00     0.027 C 
BRANCH  10  11
ATOM     11  C   UNL     1     141.371 128.340 130.857  1.00  0.00    -0.031 C 
ATOM     12  C   UNL     1     142.538 128.399 130.189  1.00  0.00    -0.031 C 
BRANCH  12  13
ATOM     13  C   UNL     1     142.671 128.540 128.691  1.00  0.00     0.027 C 
BRANCH  13  14
ATOM     14  C   UNL     1     144.080 128.203 128.169  1.00  0.00     0.004 C 
BRANCH  14  15
ATOM     15  C   UNL     1     144.124 127.775 126.690  1.00  0.00     0.000 C 
BRANCH  15  16
ATOM     16  C   UNL     1     143.023 128.440 125.846  1.00  0.00    -0.000 C 
BRANCH  16  17
ATOM     17  C   UNL     1     143.584 129.492 124.876  1.00  0.00    -0.003 C 
ATOM     18  C   UNL     1     142.789 130.797 124.899  1.00  0.00     0.004 C 
ENDBRANCH  16  17
ENDBRANCH  15  16
ENDBRANCH  14  15
ENDBRANCH  13  14
ENDBRANCH  12  13
ENDBRANCH  10  11
ENDBRANCH   1  10
TORSDOF 13
ENDMDL
MODEL 3
REMARK VINA RESULT:     0.263      3.886      8.512
REMARK INTER + INTRA:          -0.114
REMARK INTER:                   0.389
REMARK INTRA:                  -0.503
REMARK UNBOUND:                -0.577
REMARK SMILES CCCCCCC=CCCCCCCCC(=O)[O-]
REMARK SMILES IDX 10 1 11 2 12 3 13 4 14 5 15 6 16 7 17 8 18 9 9 10 8 11 7 12
REMARK SMILES IDX 6 13 5 14 4 15 3 16 2 17 1 18
REMARK H PARENT
REMARK Flexibility Score: inf
ROOT
ATOM      1  C   UNL     1     141.076 128.184 130.208  1.00  0.00     0.004 C 
ENDROOT
BRANCH   1   2
ATOM      2  C   UNL     1     141.811 128.852 129.026  1.00  0.00     0.000 C 
BRANCH   2   3
ATOM      3  C   UNL     1     143.135 128.178 128.608  1.00  0.00     0.000 C 
BRANCH   3   4
ATOM      4  C   UNL     1     143.818 128.794 127.374  1.00  0.00     0.000 C 
BRANCH   4   5
ATOM      5  C   UNL     1     144.125 127.752 126.284  1.00  0.00     0.006 C 
BRANCH   5   6
ATOM      6  C   UNL     1     143.833 128.286 124.875  1.00  0.00     0.053 C 
BRANCH   6   7
ATOM      7  C   UNL     1     142.967 129.508 124.914  1.00  0.00     0.041 C 
ATOM      8  O   UNL     1     143.485 130.655 124.877  1.00  0.00    -0.550 OA
ATOM      9  O   UNL     1     141.588 129.381 125.027  1.00  0.00    -0.550 OA
ENDBRANCH   6   7
ENDBRANCH   5   6
ENDBRANCH   4   5
ENDBRANCH   3   4
ENDBRANCH   2   3
ENDBRANCH   1   2
BRANCH   1  10
ATOM     10  C   UNL     1     139.892 129.000 130.757  1.00  0.00     0.027 C 
BRANCH  10  11
ATOM     11  C   UNL     1     138.959 128.158 131.594  1.00  0.00    -0.031 C 
ATOM     12  C   UNL     1     138.066 127.289 131.085  1.00  0.00    -0.031 C 
BRANCH  12  13
ATOM     13  C   UNL     1     137.845 127.039 129.613  1.00  0.00     0.027 C 
BRANCH  13  14
ATOM     14  C   UNL     1     136.408 127.346 129.151  1.00  0.00     0.004 C 
BRANCH  14  15
ATOM     15  C   UNL     1     135.466 127.817 130.275  1.00  0.00     0.000 C 
BRANCH  15  16
ATOM     16  C   UNL     1     134.384 128.789 129.775  1.00  0.00    -0.000 C 
BRANCH  16  17
ATOM     17  C   UNL     1     133.892 128.441 128.361  1.00  0.00    -0.003 C 
ATOM     18  C   UNL     1     132.756 127.418 128.368  1.00  0.00     0.004 C 
ENDBRANCH  16  17
ENDBRANCH  15  16
ENDBRANCH  14  15
ENDBRANCH  13  14
ENDBRANCH  12  13
ENDBRANCH  10  11
ENDBRANCH   1  10
TORSDOF 13
ENDMDL
MODEL 4
REMARK VINA RESULT:     0.449      4.433      9.151
REMARK INTER + INTRA:           0.213
REMARK INTER:                   0.788
REMARK INTRA:                  -0.574
REMARK UNBOUND:                -0.577
REMARK SMILES CCCCCCC=CCCCCCCCC(=O)[O-]
REMARK SMILES IDX 10 1 11 2 12 3 13 4 14 5 15 6 16 7 17 8 18 9 9 10 8 11 7 12
REMARK SMILES IDX 6 13 5 14 4 15 3 16 2 17 1 18
REMARK H PARENT
REMARK Flexibility Score: inf
ROOT
ATOM      1  C   UNL     1     138.500 128.453 131.241  1.00  0.00     0.004 C 
ENDROOT
BRANCH   1   2
ATOM      2  C   UNL     1     139.780 128.487 130.379  1.00  0.00     0.000 C 
BRANCH   2   3
ATOM      3  C   UNL     1     141.003 127.767 130.984  1.00  0.00     0.000 C 
BRANCH   3   4
ATOM      4  C   UNL     1     142.369 128.267 130.481  1.00  0.00     0.000 C 
BRANCH   4   5
ATOM      5  C   UNL     1     142.443 128.347 128.946  1.00  0.00     0.006 C 
BRANCH   5   6
ATOM      6  C   UNL     1     143.890 128.343 128.436  1.00  0.00     0.053 C 
BRANCH   6   7
ATOM      7  C   UNL     1     143.956 128.567 126.956  1.00  0.00     0.041 C 
ATOM      8  O   UNL     1     143.906 127.590 126.163  1.00  0.00    -0.550 OA
ATOM      9  O   UNL     1     144.107 129.853 126.452  1.00  0.00    -0.550 OA
ENDBRANCH   6   7
ENDBRANCH   5   6
ENDBRANCH   4   5
ENDBRANCH   3   4
ENDBRANCH   2   3
ENDBRANCH   1   2
BRANCH   1  10
ATOM     10  C   UNL     1     137.615 127.215 131.009  1.00  0.00     0.027 C 
BRANCH  10  11
ATOM     11  C   UNL     1     137.303 127.006 129.546  1.00  0.00    -0.031 C 
ATOM     12  C   UNL     1     136.267 127.579 128.906  1.00  0.00    -0.031 C 
BRANCH  12  13
ATOM     13  C   UNL     1     135.254 128.497 129.548  1.00  0.00     0.027 C 
BRANCH  13  14
ATOM     14  C   UNL     1     133.906 128.534 128.804  1.00  0.00     0.004 C 
BRANCH  14  15
ATOM     15  C   UNL     1     133.717 129.761 127.894  1.00  0.00     0.000 C 
BRANCH  15  16
ATOM     16  C   UNL     1     132.561 129.586 126.893  1.00  0.00    -0.000 C 
BRANCH  16  17
ATOM     17  C   UNL     1     132.373 130.820 125.995  1.00  0.00    -0.003 C 
ATOM     18  C   UNL     1     131.014 130.837 125.295  1.00  0.00     0.004 C 
ENDBRANCH  16  17
ENDBRANCH  15  16
ENDBRANCH  14  15
ENDBRANCH  13  14
ENDBRANCH  12  13
ENDBRANCH  10  11
ENDBRANCH   1  10
TORSDOF 13
ENDMDL
MODEL 5
REMARK VINA RESULT:     0.601      4.446      9.196
REMARK INTER + INTRA:           0.481
REMARK INTER:                   1.295
REMARK INTRA:                  -0.814
REMARK UNBOUND:                -0.577
REMARK SMILES CCCCCCC=CCCCCCCCC(=O)[O-]
REMARK SMILES IDX 10 1 11 2 12 3 13 4 14 5 15 6 16 7 17 8 18 9 9 10 8 11 7 12
REMARK SMILES IDX 6 13 5 14 4 15 3 16 2 17 1 18
REMARK H PARENT
REMARK Flexibility Score: inf
ROOT
ATOM      1  C   UNL     1     136.456 126.662 129.761  1.00  0.00     0.004 C 
ENDROOT
BRANCH   1   2
ATOM      2  C   UNL     1     136.410 127.465 131.079  1.00  0.00     0.000 C 
BRANCH   2   3
ATOM      3  C   UNL     1     137.725 127.483 131.886  1.00  0.00     0.000 C 
BRANCH   3   4
ATOM      4  C   UNL     1     138.736 128.563 131.460  1.00  0.00     0.000 C 
BRANCH   4   5
ATOM      5  C   UNL     1     140.145 127.994 131.221  1.00  0.00     0.006 C 
BRANCH   5   6
ATOM      6  C   UNL     1     140.760 128.503 129.910  1.00  0.00     0.053 C 
BRANCH   6   7
ATOM      7  C   UNL     1     142.237 128.253 129.857  1.00  0.00     0.041 C 
ATOM      8  O   UNL     1     142.865 127.937 130.901  1.00  0.00    -0.550 OA
ATOM      9  O   UNL     1     142.925 128.402 128.660  1.00  0.00    -0.550 OA
ENDBRANCH   6   7
ENDBRANCH   5   6
ENDBRANCH   4   5
ENDBRANCH   3   4
ENDBRANCH   2   3
ENDBRANCH   1   2
BRANCH   1  10
ATOM     10  C   UNL     1     135.967 127.443 128.528  1.00  0.00     0.027 C 
BRANCH  10  11
ATOM     11  C   UNL     1     135.066 128.594 128.904  1.00  0.00    -0.031 C 
ATOM     12  C   UNL     1     133.755 128.655 128.607  1.00  0.00    -0.031 C 
BRANCH  12  13
ATOM     13  C   UNL     1     132.992 127.600 127.841  1.00  0.00     0.027 C 
BRANCH  13  14
ATOM     14  C   UNL     1     131.734 128.146 127.140  1.00  0.00     0.004 C 
BRANCH  14  15
ATOM     15  C   UNL     1     131.947 129.479 126.399  1.00  0.00     0.000 C 
BRANCH  15  16
ATOM     16  C   UNL     1     130.916 129.709 125.281  1.00  0.00    -0.000 C 
BRANCH  16  17
ATOM     17  C   UNL     1     130.704 131.202 124.980  1.00  0.00    -0.003 C 
ATOM     18  C   UNL     1     131.989 132.018 125.115  1.00  0.00     0.004 C 
ENDBRANCH  16  17
ENDBRANCH  15  16
ENDBRANCH  14  15
ENDBRANCH  13  14
ENDBRANCH  12  13
ENDBRANCH  10  11
ENDBRANCH   1  10
TORSDOF 13
ENDMDL
MODEL 6
REMARK VINA RESULT:     0.868      4.331      8.894
REMARK INTER + INTRA:           0.950
REMARK INTER:                   1.792
REMARK INTRA:                  -0.842
REMARK UNBOUND:                -0.577
REMARK SMILES CCCCCCC=CCCCCCCCC(=O)[O-]
REMARK SMILES IDX 10 1 11 2 12 3 13 4 14 5 15 6 16 7 17 8 18 9 9 10 8 11 7 12
REMARK SMILES IDX 6 13 5 14 4 15 3 16 2 17 1 18
REMARK H PARENT
REMARK Flexibility Score: inf
ROOT
ATOM      1  C   UNL     1     137.208 127.037 129.346  1.00  0.00     0.004 C 
ENDROOT
BRANCH   1   2
ATOM      2  C   UNL     1     136.736 126.927 130.811  1.00  0.00     0.000 C 
BRANCH   2   3
ATOM      3  C   UNL     1     137.295 128.003 131.766  1.00  0.00     0.000 C 
BRANCH   3   4
ATOM      4  C   UNL     1     138.781 127.838 132.134  1.00  0.00     0.000 C 
BRANCH   4   5
ATOM      5  C   UNL     1     139.690 128.831 131.389  1.00  0.00     0.006 C 
BRANCH   5   6
ATOM      6  C   UNL     1     140.240 128.243 130.082  1.00  0.00     0.053 C 
BRANCH   6   7
ATOM      7  C   UNL     1     141.739 128.229 130.069  1.00  0.00     0.041 C 
ATOM      8  O   UNL     1     142.380 127.908 131.105  1.00  0.00    -0.550 OA
ATOM      9  O   UNL     1     142.428 128.603 128.923  1.00  0.00    -0.550 OA
ENDBRANCH   6   7
ENDBRANCH   5   6
ENDBRANCH   4   5
ENDBRANCH   3   4
ENDBRANCH   2   3
ENDBRANCH   1   2
BRANCH   1  10
ATOM     10  C   UNL     1     136.208 127.738 128.411  1.00  0.00     0.027 C 
BRANCH  10  11
ATOM     11  C   UNL     1     134.782 127.586 128.885  1.00  0.00    -0.031 C 
ATOM     12  C   UNL     1     133.910 128.605 128.992  1.00  0.00    -0.031 C 
BRANCH  12  13
ATOM     13  C   UNL     1     134.223 130.049 128.678  1.00  0.00     0.027 C 
BRANCH  13  14
ATOM     14  C   UNL     1     134.014 130.410 127.196  1.00  0.00     0.004 C 
BRANCH  14  15
ATOM     15  C   UNL     1     132.553 130.309 126.717  1.00  0.00     0.000 C 
BRANCH  15  16
ATOM     16  C   UNL     1     132.267 131.194 125.491  1.00  0.00    -0.000 C 
BRANCH  16  17
ATOM     17  C   UNL     1     130.852 130.978 124.932  1.00  0.00    -0.003 C 
ATOM     18  C   UNL     1     130.295 129.592 125.258  1.00  0.00     0.004 C 
ENDBRANCH  16  17
ENDBRANCH  15  16
ENDBRANCH  14  15
ENDBRANCH  13  14
ENDBRANCH  12  13
ENDBRANCH  10  11
ENDBRANCH   1  10
TORSDOF 13
ENDMDL
MODEL 7
REMARK VINA RESULT:     0.924      4.097      9.232
REMARK INTER + INTRA:           1.049
REMARK INTER:                   0.928
REMARK INTRA:                   0.121
REMARK UNBOUND:                -0.577
REMARK SMILES CCCCCCC=CCCCCCCCC(=O)[O-]
REMARK SMILES IDX 10 1 11 2 12 3 13 4 14 5 15 6 16 7 17 8 18 9 9 10 8 11 7 12
REMARK SMILES IDX 6 13 5 14 4 15 3 16 2 17 1 18
REMARK H PARENT
REMARK Flexibility Score: inf
ROOT
ATOM      1  C   UNL     1     134.696 128.425 130.082  1.00  0.00     0.004 C 
ENDROOT
BRANCH   1   2
ATOM      2  C   UNL     1     135.728 127.409 130.618  1.00  0.00     0.000 C 
BRANCH   2   3
ATOM      3  C   UNL     1     136.740 126.887 129.578  1.00  0.00     0.000 C 
BRANCH   3   4
ATOM      4  C   UNL     1     138.184 127.386 129.765  1.00  0.00     0.000 C 
BRANCH   4   5
ATOM      5  C   UNL     1     138.387 128.129 131.097  1.00  0.00     0.006 C 
BRANCH   5   6
ATOM      6  C   UNL     1     139.735 127.794 131.748  1.00  0.00     0.053 C 
BRANCH   6   7
ATOM      7  C   UNL     1     140.886 128.179 130.868  1.00  0.00     0.041 C 
ATOM      8  O   UNL     1     142.066 127.912 131.215  1.00  0.00    -0.550 OA
ATOM      9  O   UNL     1     140.655 128.864 129.682  1.00  0.00    -0.550 OA
ENDBRANCH   6   7
ENDBRANCH   5   6
ENDBRANCH   4   5
ENDBRANCH   3   4
ENDBRANCH   2   3
ENDBRANCH   1   2
BRANCH   1  10
ATOM     10  C   UNL     1     134.553 128.430 128.550  1.00  0.00     0.027 C 
BRANCH  10  11
ATOM     11  C   UNL     1     133.980 129.729 128.036  1.00  0.00    -0.031 C 
ATOM     12  C   UNL     1     132.858 129.820 127.298  1.00  0.00    -0.031 C 
BRANCH  12  13
ATOM     13  C   UNL     1     132.016 128.647 126.856  1.00  0.00     0.027 C 
BRANCH  13  14
ATOM     14  C   UNL     1     130.604 129.049 126.392  1.00  0.00     0.004 C 
BRANCH  14  15
ATOM     15  C   UNL     1     130.557 129.718 125.006  1.00  0.00     0.000 C 
BRANCH  15  16
ATOM     16  C   UNL     1     130.608 131.254 125.085  1.00  0.00    -0.000 C 
BRANCH  16  17
ATOM     17  C   UNL     1     132.048 131.790 125.129  1.00  0.00    -0.003 C 
ATOM     18  C   UNL     1     132.124 133.296 124.876  1.00  0.00     0.004 C 
ENDBRANCH  16  17
ENDBRANCH  15  16
ENDBRANCH  14  15
ENDBRANCH  13  14
ENDBRANCH  12  13
ENDBRANCH  10  11
ENDBRANCH   1  10
TORSDOF 13
ENDMDL
MODEL 8
REMARK VINA RESULT:     0.962      1.351      2.645
REMARK INTER + INTRA:           1.116
REMARK INTER:                   1.758
REMARK INTRA:                  -0.641
REMARK UNBOUND:                -0.577
REMARK SMILES CCCCCCC=CCCCCCCCC(=O)[O-]
REMARK SMILES IDX 10 1 11 2 12 3 13 4 14 5 15 6 16 7 17 8 18 9 9 10 8 11 7 12
REMARK SMILES IDX 6 13 5 14 4 15 3 16 2 17 1 18
REMARK H PARENT
REMARK Flexibility Score: inf
ROOT
ATOM      1  C   UNL     1     134.425 128.732 129.743  1.00  0.00     0.004 C 
ENDROOT
BRANCH   1   2
ATOM      2  C   UNL     1     134.624 129.606 128.486  1.00  0.00     0.000 C 
BRANCH   2   3
ATOM      3  C   UNL     1     133.326 130.035 127.769  1.00  0.00     0.000 C 
BRANCH   3   4
ATOM      4  C   UNL     1     132.545 128.892 127.097  1.00  0.00     0.000 C 
BRANCH   4   5
ATOM      5  C   UNL     1     131.319 129.392 126.313  1.00  0.00     0.006 C 
BRANCH   5   6
ATOM      6  C   UNL     1     131.711 130.048 124.982  1.00  0.00     0.053 C 
BRANCH   6   7
ATOM      7  C   UNL     1     131.236 131.467 124.904  1.00  0.00     0.041 C 
ATOM      8  O   UNL     1     132.065 132.415 124.895  1.00  0.00    -0.550 OA
ATOM      9  O   UNL     1     129.875 131.745 124.875  1.00  0.00    -0.550 OA
ENDBRANCH   6   7
ENDBRANCH   5   6
ENDBRANCH   4   5
ENDBRANCH   3   4
ENDBRANCH   2   3
ENDBRANCH   1   2
BRANCH   1  10
ATOM     10  C   UNL     1     135.172 127.387 129.702  1.00  0.00     0.027 C 
BRANCH  10  11
ATOM     11  C   UNL     1     136.347 127.418 128.754  1.00  0.00    -0.031 C 
ATOM     12  C   UNL     1     137.599 127.058 129.092  1.00  0.00    -0.031 C 
BRANCH  12  13
ATOM     13  C   UNL     1     138.025 126.592 130.464  1.00  0.00     0.027 C 
BRANCH  13  14
ATOM     14  C   UNL     1     137.745 127.623 131.573  1.00  0.00     0.004 C 
BRANCH  14  15
ATOM     15  C   UNL     1     138.987 128.402 132.044  1.00  0.00     0.000 C 
BRANCH  15  16
ATOM     16  C   UNL     1     139.910 128.809 130.882  1.00  0.00    -0.000 C 
BRANCH  16  17
ATOM     17  C   UNL     1     141.263 128.080 130.928  1.00  0.00    -0.003 C 
ATOM     18  C   UNL     1     142.050 128.219 129.624  1.00  0.00     0.004 C 
ENDBRANCH  16  17
ENDBRANCH  15  16
ENDBRANCH  14  15
ENDBRANCH  13  14
ENDBRANCH  12  13
ENDBRANCH  10  11
ENDBRANCH   1  10
TORSDOF 13
ENDMDL
