MODEL 1
REMARK VINA RESULT:    -4.102      0.000      0.000
REMARK INTER + INTRA:         -15.460
REMARK INTER:                 -10.817
REMARK INTRA:                  -4.643
REMARK UNBOUND:                -4.643
REMARK SMILES CCCCCCCCCCCCCCCCCCCCCCCCCCCCCC(=O)[O-]
REMARK SMILES IDX 16 1 17 2 18 3 19 4 20 5 21 6 22 7 23 8 24 9 25 10 26 11
REMARK SMILES IDX 27 12 28 13 29 14 30 15 31 16 32 17 15 18 14 19 13 20 12 21
REMARK SMILES IDX 11 22 10 23 9 24 8 25 7 26 6 27 5 28 4 29 3 30 2 31 1 32
REMARK H PARENT
REMARK Flexibility Score: inf
ROOT
ATOM      1  C   UNL     1      17.300  39.675  26.491  1.00  0.00     0.000 C 
ENDROOT
BRANCH   1   2
ATOM      2  C   UNL     1      18.726  39.676  25.912  1.00  0.00     0.000 C 
BRANCH   2   3
ATOM      3  C   UNL     1      19.689  40.576  26.708  1.00  0.00     0.000 C 
BRANCH   3   4
ATOM      4  C   UNL     1      19.982  41.913  26.001  1.00  0.00     0.000 C 
BRANCH   4   5
ATOM      5  C   UNL     1      20.369  41.810  24.507  1.00  0.00     0.000 C 
BRANCH   5   6
ATOM      6  C   UNL     1      19.746  42.880  23.586  1.00  0.00     0.000 C 
BRANCH   6   7
ATOM      7  C   UNL     1      18.644  42.339  22.649  1.00  0.00     0.000 C 
BRANCH   7   8
ATOM      8  C   UNL     1      18.691  40.813  22.446  1.00  0.00     0.000 C 
BRANCH   8   9
ATOM      9  C   UNL     1      19.512  40.366  21.218  1.00  0.00     0.000 C 
BRANCH   9  10
ATOM     10  C   UNL     1      19.597  41.416  20.089  1.00  0.00     0.000 C 
BRANCH  10  11
ATOM     11  C   UNL     1      18.434  41.364  19.077  1.00  0.00     0.000 C 
BRANCH  11  12
ATOM     12  C   UNL     1      17.523  42.617  19.088  1.00  0.00     0.000 C 
BRANCH  12  13
ATOM     13  C   UNL     1      16.209  42.429  19.877  1.00  0.00     0.006 C 
BRANCH  13  14
ATOM     14  C   UNL     1      15.502  43.740  20.262  1.00  0.00     0.053 C 
BRANCH  14  15
ATOM     15  C   UNL     1      14.356  44.064  19.346  1.00  0.00     0.041 C 
ATOM     16  O   UNL     1      13.166  43.968  19.757  1.00  0.00    -0.550 OA
ATOM     17  O   UNL     1      14.600  44.513  18.056  1.00  0.00    -0.550 OA
ENDBRANCH  14  15
ENDBRANCH  13  14
ENDBRANCH  12  13
ENDBRANCH  11  12
ENDBRANCH  10  11
ENDBRANCH   9  10
ENDBRANCH   8   9
ENDBRANCH   7   8
ENDBRANCH   6   7
ENDBRANCH   5   6
ENDBRANCH   4   5
ENDBRANCH   3   4
ENDBRANCH   2   3
ENDBRANCH   1   2
BRANCH   1  18
ATOM     18  C   UNL     1      16.263  39.103  25.511  1.00  0.00     0.000 C 
BRANCH  18  19
ATOM     19  C   UNL     1      15.537  37.868  26.073  1.00  0.00     0.000 C 
BRANCH  19  20
ATOM     20  C   UNL     1      13.997  37.945  26.037  1.00  0.00     0.000 C 
BRANCH  20  21
ATOM     21  C   UNL     1      13.333  38.359  27.365  1.00  0.00     0.000 C 
BRANCH  21  22
ATOM     22  C   UNL     1      12.834  39.816  27.416  1.00  0.00     0.000 C 
BRANCH  22  23
ATOM     23  C   UNL     1      13.296  40.626  28.643  1.00  0.00     0.000 C 
BRANCH  23  24
ATOM     24  C   UNL     1      14.711  41.222  28.537  1.00  0.00    -0.000 C 
BRANCH  24  25
ATOM     25  C   UNL     1      15.560  40.964  29.790  1.00  0.00    -0.000 C 
BRANCH  25  26
ATOM     26  C   UNL     1      15.300  39.559  30.345  1.00  0.00    -0.000 C 
BRANCH  26  27
ATOM     27  C   UNL     1      16.222  38.528  29.675  1.00  0.00    -0.000 C 
BRANCH  27  28
ATOM     28  C   UNL     1      17.709  38.802  29.935  1.00  0.00    -0.000 C 
BRANCH  28  29
ATOM     29  C   UNL     1      18.548  37.513  29.991  1.00  0.00    -0.000 C 
BRANCH  29  30
ATOM     30  C   UNL     1      19.231  37.197  28.650  1.00  0.00    -0.000 C 
BRANCH  30  31
ATOM     31  C   UNL     1      18.416  36.220  27.788  1.00  0.00    -0.003 C 
ATOM     32  C   UNL     1      19.082  36.000  26.434  1.00  0.00     0.004 C 
ENDBRANCH  30  31
ENDBRANCH  29  30
ENDBRANCH  28  29
ENDBRANCH  27  28
ENDBRANCH  26  27
ENDBRANCH  25  26
ENDBRANCH  24  25
ENDBRANCH  23  24
ENDBRANCH  22  23
ENDBRANCH  21  22
ENDBRANCH  20  21
ENDBRANCH  19  20
ENDBRANCH  18  19
ENDBRANCH   1  18
TORSDOF 28
ENDMDL
MODEL 2
REMARK VINA RESULT:    -4.100      1.659      3.714
REMARK INTER + INTRA:         -15.455
REMARK INTER:                 -11.295
REMARK INTRA:                  -4.160
REMARK UNBOUND:                -4.643
REMARK SMILES CCCCCCCCCCCCCCCCCCCCCCCCCCCCCC(=O)[O-]
REMARK SMILES IDX 16 1 17 2 18 3 19 4 20 5 21 6 22 7 23 8 24 9 25 10 26 11
REMARK SMILES IDX 27 12 28 13 29 14 30 15 31 16 32 17 15 18 14 19 13 20 12 21
REMARK SMILES IDX 11 22 10 23 9 24 8 25 7 26 6 27 5 28 4 29 3 30 2 31 1 32
REMARK H PARENT
REMARK Flexibility Score: inf
ROOT
ATOM      1  C   UNL     1      16.004  39.064  25.617  1.00  0.00     0.000 C 
ENDROOT
BRANCH   1   2
ATOM      2  C   UNL     1      16.497  38.751  24.194  1.00  0.00     0.000 C 
BRANCH   2   3
ATOM      3  C   UNL     1      17.402  39.858  23.623  1.00  0.00     0.000 C 
BRANCH   3   4
ATOM      4  C   UNL     1      18.704  39.310  23.007  1.00  0.00     0.000 C 
BRANCH   4   5
ATOM      5  C   UNL     1      19.025  39.799  21.575  1.00  0.00     0.000 C 
BRANCH   5   6
ATOM      6  C   UNL     1      18.065  39.303  20.474  1.00  0.00     0.000 C 
BRANCH   6   7
ATOM      7  C   UNL     1      17.317  40.435  19.735  1.00  0.00     0.000 C 
BRANCH   7   8
ATOM      8  C   UNL     1      18.247  41.472  19.078  1.00  0.00     0.000 C 
BRANCH   8   9
ATOM      9  C   UNL     1      17.700  42.916  19.110  1.00  0.00     0.000 C 
BRANCH   9  10
ATOM     10  C   UNL     1      17.236  43.394  20.503  1.00  0.00     0.000 C 
BRANCH  10  11
ATOM     11  C   UNL     1      17.186  44.927  20.671  1.00  0.00     0.000 C 
BRANCH  11  12
ATOM     12  C   UNL     1      15.785  45.548  20.447  1.00  0.00     0.000 C 
BRANCH  12  13
ATOM     13  C   UNL     1      14.631  44.522  20.489  1.00  0.00     0.006 C 
BRANCH  13  14
ATOM     14  C   UNL     1      13.667  44.595  19.293  1.00  0.00     0.053 C 
BRANCH  14  15
ATOM     15  C   UNL     1      13.109  45.975  19.090  1.00  0.00     0.041 C 
ATOM     16  O   UNL     1      12.448  46.535  20.008  1.00  0.00    -0.550 OA
ATOM     17  O   UNL     1      13.354  46.660  17.908  1.00  0.00    -0.550 OA
ENDBRANCH  14  15
ENDBRANCH  13  14
ENDBRANCH  12  13
ENDBRANCH  11  12
ENDBRANCH  10  11
ENDBRANCH   9  10
ENDBRANCH   8   9
ENDBRANCH   7   8
ENDBRANCH   6   7
ENDBRANCH   5   6
ENDBRANCH   4   5
ENDBRANCH   3   4
ENDBRANCH   2   3
ENDBRANCH   1   2
BRANCH   1  18
ATOM     18  C   UNL     1      15.775  37.798  26.457  1.00  0.00     0.000 C 
BRANCH  18  19
ATOM     19  C   UNL     1      14.642  37.965  27.485  1.00  0.00     0.000 C 
BRANCH  19  20
ATOM     20  C   UNL     1      13.391  38.699  26.961  1.00  0.00     0.000 C 
BRANCH  20  21
ATOM     21  C   UNL     1      12.878  39.840  27.863  1.00  0.00     0.000 C 
BRANCH  21  22
ATOM     22  C   UNL     1      13.692  41.146  27.784  1.00  0.00     0.000 C 
BRANCH  22  23
ATOM     23  C   UNL     1      14.348  41.592  29.107  1.00  0.00     0.000 C 
BRANCH  23  24
ATOM     24  C   UNL     1      15.521  40.715  29.580  1.00  0.00    -0.000 C 
BRANCH  24  25
ATOM     25  C   UNL     1      16.780  40.892  28.720  1.00  0.00    -0.000 C 
BRANCH  25  26
ATOM     26  C   UNL     1      17.733  39.703  28.896  1.00  0.00    -0.000 C 
BRANCH  26  27
ATOM     27  C   UNL     1      18.820  39.709  27.812  1.00  0.00    -0.000 C 
BRANCH  27  28
ATOM     28  C   UNL     1      19.098  41.111  27.254  1.00  0.00    -0.000 C 
BRANCH  28  29
ATOM     29  C   UNL     1      20.035  41.088  26.033  1.00  0.00    -0.000 C 
BRANCH  29  30
ATOM     30  C   UNL     1      19.817  42.293  25.102  1.00  0.00    -0.000 C 
BRANCH  30  31
ATOM     31  C   UNL     1      20.759  42.278  23.888  1.00  0.00    -0.003 C 
ATOM     32  C   UNL     1      20.211  43.146  22.760  1.00  0.00     0.004 C 
ENDBRANCH  30  31
ENDBRANCH  29  30
ENDBRANCH  28  29
ENDBRANCH  27  28
ENDBRANCH  26  27
ENDBRANCH  25  26
ENDBRANCH  24  25
ENDBRANCH  23  24
ENDBRANCH  22  23
ENDBRANCH  21  22
ENDBRANCH  20  21
ENDBRANCH  19  20
ENDBRANCH  18  19
ENDBRANCH   1  18
TORSDOF 28
ENDMDL
MODEL 3
REMARK VINA RESULT:    -4.058      2.130      5.577
REMARK INTER + INTRA:         -15.344
REMARK INTER:                 -10.853
REMARK INTRA:                  -4.491
REMARK UNBOUND:                -4.643
REMARK SMILES CCCCCCCCCCCCCCCCCCCCCCCCCCCCCC(=O)[O-]
REMARK SMILES IDX 16 1 17 2 18 3 19 4 20 5 21 6 22 7 23 8 24 9 25 10 26 11
REMARK SMILES IDX 27 12 28 13 29 14 30 15 31 16 32 17 15 18 14 19 13 20 12 21
REMARK SMILES IDX 11 22 10 23 9 24 8 25 7 26 6 27 5 28 4 29 3 30 2 31 1 32
REMARK H PARENT
REMARK Flexibility Score: inf
ROOT
ATOM      1  C   UNL     1      16.829  41.405  19.823  1.00  0.00     0.000 C 
ENDROOT
BRANCH   1   2
ATOM      2  C   UNL     1      16.831  41.875  21.288  1.00  0.00     0.000 C 
BRANCH   2   3
ATOM      3  C   UNL     1      17.972  42.862  21.594  1.00  0.00     0.000 C 
BRANCH   3   4
ATOM      4  C   UNL     1      18.908  42.368  22.713  1.00  0.00     0.000 C 
BRANCH   4   5
ATOM      5  C   UNL     1      20.422  42.525  22.437  1.00  0.00     0.000 C 
BRANCH   5   6
ATOM      6  C   UNL     1      20.785  43.288  21.146  1.00  0.00     0.000 C 
BRANCH   6   7
ATOM      7  C   UNL     1      20.805  44.825  21.307  1.00  0.00     0.000 C 
BRANCH   7   8
ATOM      8  C   UNL     1      20.047  45.578  20.198  1.00  0.00     0.000 C 
BRANCH   8   9
ATOM      9  C   UNL     1      19.688  47.036  20.559  1.00  0.00     0.000 C 
BRANCH   9  10
ATOM     10  C   UNL     1      18.173  47.331  20.597  1.00  0.00     0.000 C 
BRANCH  10  11
ATOM     11  C   UNL     1      17.300  46.144  21.051  1.00  0.00     0.000 C 
BRANCH  11  12
ATOM     12  C   UNL     1      16.193  45.744  20.044  1.00  0.00     0.000 C 
BRANCH  12  13
ATOM     13  C   UNL     1      14.946  45.112  20.701  1.00  0.00     0.006 C 
BRANCH  13  14
ATOM     14  C   UNL     1      13.961  44.465  19.713  1.00  0.00     0.053 C 
BRANCH  14  15
ATOM     15  C   UNL     1      12.852  45.397  19.317  1.00  0.00     0.041 C 
ATOM     16  O   UNL     1      11.719  45.307  19.866  1.00  0.00    -0.550 OA
ATOM     17  O   UNL     1      13.078  46.392  18.375  1.00  0.00    -0.550 OA
ENDBRANCH  14  15
ENDBRANCH  13  14
ENDBRANCH  12  13
ENDBRANCH  11  12
ENDBRANCH  10  11
ENDBRANCH   9  10
ENDBRANCH   8   9
ENDBRANCH   7   8
ENDBRANCH   6   7
ENDBRANCH   5   6
ENDBRANCH   4   5
ENDBRANCH   3   4
ENDBRANCH   2   3
ENDBRANCH   1   2
BRANCH   1  18
ATOM     18  C   UNL     1      18.089  41.841  19.059  1.00  0.00     0.000 C 
BRANCH  18  19
ATOM     19  C   UNL     1      19.111  40.701  18.902  1.00  0.00     0.000 C 
BRANCH  19  20
ATOM     20  C   UNL     1      18.831  39.453  19.763  1.00  0.00     0.000 C 
BRANCH  20  21
ATOM     21  C   UNL     1      19.888  39.157  20.846  1.00  0.00     0.000 C 
BRANCH  21  22
ATOM     22  C   UNL     1      19.317  38.766  22.222  1.00  0.00     0.000 C 
BRANCH  22  23
ATOM     23  C   UNL     1      17.784  38.602  22.275  1.00  0.00     0.000 C 
BRANCH  23  24
ATOM     24  C   UNL     1      17.124  39.053  23.590  1.00  0.00    -0.000 C 
BRANCH  24  25
ATOM     25  C   UNL     1      18.147  39.374  24.689  1.00  0.00    -0.000 C 
BRANCH  25  26
ATOM     26  C   UNL     1      17.456  39.520  26.050  1.00  0.00    -0.000 C 
BRANCH  26  27
ATOM     27  C   UNL     1      15.970  39.147  25.952  1.00  0.00    -0.000 C 
BRANCH  27  28
ATOM     28  C   UNL     1      15.506  38.240  27.100  1.00  0.00    -0.000 C 
BRANCH  28  29
ATOM     29  C   UNL     1      14.377  38.871  27.934  1.00  0.00    -0.000 C 
BRANCH  29  30
ATOM     30  C   UNL     1      14.433  40.408  27.931  1.00  0.00    -0.000 C 
BRANCH  30  31
ATOM     31  C   UNL     1      15.167  40.973  29.157  1.00  0.00    -0.003 C 
ATOM     32  C   UNL     1      15.325  39.910  30.238  1.00  0.00     0.004 C 
ENDBRANCH  30  31
ENDBRANCH  29  30
ENDBRANCH  28  29
ENDBRANCH  27  28
ENDBRANCH  26  27
ENDBRANCH  25  26
ENDBRANCH  24  25
ENDBRANCH  23  24
ENDBRANCH  22  23
ENDBRANCH  21  22
ENDBRANCH  20  21
ENDBRANCH  19  20
ENDBRANCH  18  19
ENDBRANCH   1  18
TORSDOF 28
ENDMDL
MODEL 4
REMARK VINA RESULT:    -4.051      2.373      3.554
REMARK INTER + INTRA:         -15.324
REMARK INTER:                 -10.840
REMARK INTRA:                  -4.484
REMARK UNBOUND:                -4.643
REMARK SMILES CCCCCCCCCCCCCCCCCCCCCCCCCCCCCC(=O)[O-]
REMARK SMILES IDX 16 1 17 2 18 3 19 4 20 5 21 6 22 7 23 8 24 9 25 10 26 11
REMARK SMILES IDX 27 12 28 13 29 14 30 15 31 16 32 17 15 18 14 19 13 20 12 21
REMARK SMILES IDX 11 22 10 23 9 24 8 25 7 26 6 27 5 28 4 29 3 30 2 31 1 32
REMARK H PARENT
REMARK Flexibility Score: inf
ROOT
ATOM      1  C   UNL     1      17.930  40.243  23.661  1.00  0.00     0.000 C 
ENDROOT
BRANCH   1   2
ATOM      2  C   UNL     1      19.345  40.816  23.470  1.00  0.00     0.000 C 
BRANCH   2   3
ATOM      3  C   UNL     1      19.431  42.314  23.817  1.00  0.00     0.000 C 
BRANCH   3   4
ATOM      4  C   UNL     1      20.663  43.002  23.201  1.00  0.00     0.000 C 
BRANCH   4   5
ATOM      5  C   UNL     1      20.963  42.644  21.726  1.00  0.00     0.000 C 
BRANCH   5   6
ATOM      6  C   UNL     1      20.787  43.797  20.715  1.00  0.00     0.000 C 
BRANCH   6   7
ATOM      7  C   UNL     1      19.647  44.777  21.071  1.00  0.00     0.000 C 
BRANCH   7   8
ATOM      8  C   UNL     1      18.605  44.955  19.951  1.00  0.00     0.000 C 
BRANCH   8   9
ATOM      9  C   UNL     1      17.144  44.980  20.448  1.00  0.00     0.000 C 
BRANCH   9  10
ATOM     10  C   UNL     1      16.346  43.691  20.156  1.00  0.00     0.000 C 
BRANCH  10  11
ATOM     11  C   UNL     1      16.737  42.483  21.033  1.00  0.00     0.000 C 
BRANCH  11  12
ATOM     12  C   UNL     1      17.116  41.211  20.234  1.00  0.00     0.000 C 
BRANCH  12  13
ATOM     13  C   UNL     1      18.152  41.460  19.116  1.00  0.00     0.006 C 
BRANCH  13  14
ATOM     14  C   UNL     1      19.367  40.517  19.151  1.00  0.00     0.053 C 
BRANCH  14  15
ATOM     15  C   UNL     1      19.163  39.288  18.311  1.00  0.00     0.041 C 
ATOM     16  O   UNL     1      20.101  38.847  17.590  1.00  0.00    -0.550 OA
ATOM     17  O   UNL     1      17.956  38.604  18.356  1.00  0.00    -0.550 OA
ENDBRANCH  14  15
ENDBRANCH  13  14
ENDBRANCH  12  13
ENDBRANCH  11  12
ENDBRANCH  10  11
ENDBRANCH   9  10
ENDBRANCH   8   9
ENDBRANCH   7   8
ENDBRANCH   6   7
ENDBRANCH   5   6
ENDBRANCH   4   5
ENDBRANCH   3   4
ENDBRANCH   2   3
ENDBRANCH   1   2
BRANCH   1  18
ATOM     18  C   UNL     1      17.785  39.443  24.965  1.00  0.00     0.000 C 
BRANCH  18  19
ATOM     19  C   UNL     1      16.330  39.377  25.460  1.00  0.00     0.000 C 
BRANCH  19  20
ATOM     20  C   UNL     1      15.768  37.953  25.645  1.00  0.00     0.000 C 
BRANCH  20  21
ATOM     21  C   UNL     1      14.267  37.883  25.991  1.00  0.00     0.000 C 
BRANCH  21  22
ATOM     22  C   UNL     1      13.896  38.420  27.387  1.00  0.00     0.000 C 
BRANCH  22  23
ATOM     23  C   UNL     1      12.878  39.578  27.396  1.00  0.00     0.000 C 
BRANCH  23  24
ATOM     24  C   UNL     1      13.042  40.581  28.551  1.00  0.00    -0.000 C 
BRANCH  24  25
ATOM     25  C   UNL     1      14.352  41.377  28.466  1.00  0.00    -0.000 C 
BRANCH  25  26
ATOM     26  C   UNL     1      15.343  40.914  29.540  1.00  0.00    -0.000 C 
BRANCH  26  27
ATOM     27  C   UNL     1      16.691  40.529  28.912  1.00  0.00    -0.000 C 
BRANCH  27  28
ATOM     28  C   UNL     1      17.296  39.262  29.531  1.00  0.00    -0.000 C 
BRANCH  28  29
ATOM     29  C   UNL     1      18.144  38.460  28.528  1.00  0.00    -0.000 C 
BRANCH  29  30
ATOM     30  C   UNL     1      17.945  36.942  28.672  1.00  0.00    -0.000 C 
BRANCH  30  31
ATOM     31  C   UNL     1      16.516  36.572  29.097  1.00  0.00    -0.003 C 
ATOM     32  C   UNL     1      15.993  35.389  28.288  1.00  0.00     0.004 C 
ENDBRANCH  30  31
ENDBRANCH  29  30
ENDBRANCH  28  29
ENDBRANCH  27  28
ENDBRANCH  26  27
ENDBRANCH  25  26
ENDBRANCH  24  25
ENDBRANCH  23  24
ENDBRANCH  22  23
ENDBRANCH  21  22
ENDBRANCH  20  21
ENDBRANCH  19  20
ENDBRANCH  18  19
ENDBRANCH   1  18
TORSDOF 28
ENDMDL
MODEL 5
REMARK VINA RESULT:    -4.021      2.909      5.102
REMARK INTER + INTRA:         -15.245
REMARK INTER:                 -10.596
REMARK INTRA:                  -4.650
REMARK UNBOUND:                -4.643
REMARK SMILES CCCCCCCCCCCCCCCCCCCCCCCCCCCCCC(=O)[O-]
REMARK SMILES IDX 16 1 17 2 18 3 19 4 20 5 21 6 22 7 23 8 24 9 25 10 26 11
REMARK SMILES IDX 27 12 28 13 29 14 30 15 31 16 32 17 15 18 14 19 13 20 12 21
REMARK SMILES IDX 11 22 10 23 9 24 8 25 7 26 6 27 5 28 4 29 3 30 2 31 1 32
REMARK H PARENT
REMARK Flexibility Score: inf
ROOT
ATOM      1  C   UNL     1      21.150  42.087  24.634  1.00  0.00     0.000 C 
ENDROOT
BRANCH   1   2
ATOM      2  C   UNL     1      19.680  42.537  24.589  1.00  0.00     0.000 C 
BRANCH   2   3
ATOM      3  C   UNL     1      19.215  42.901  23.167  1.00  0.00     0.000 C 
BRANCH   3   4
ATOM      4  C   UNL     1      20.348  43.472  22.294  1.00  0.00     0.000 C 
BRANCH   4   5
ATOM      5  C   UNL     1      20.585  42.748  20.947  1.00  0.00     0.000 C 
BRANCH   5   6
ATOM      6  C   UNL     1      19.680  41.527  20.683  1.00  0.00     0.000 C 
BRANCH   6   7
ATOM      7  C   UNL     1      18.796  41.660  19.424  1.00  0.00     0.000 C 
BRANCH   7   8
ATOM      8  C   UNL     1      17.299  41.855  19.730  1.00  0.00     0.000 C 
BRANCH   8   9
ATOM      9  C   UNL     1      16.960  43.218  20.371  1.00  0.00     0.000 C 
BRANCH   9  10
ATOM     10  C   UNL     1      17.013  44.414  19.396  1.00  0.00     0.000 C 
BRANCH  10  11
ATOM     11  C   UNL     1      16.574  45.760  20.008  1.00  0.00     0.000 C 
BRANCH  11  12
ATOM     12  C   UNL     1      17.527  46.305  21.101  1.00  0.00     0.000 C 
BRANCH  12  13
ATOM     13  C   UNL     1      18.976  46.525  20.615  1.00  0.00     0.006 C 
BRANCH  13  14
ATOM     14  C   UNL     1      19.581  47.885  21.004  1.00  0.00     0.053 C 
BRANCH  14  15
ATOM     15  C   UNL     1      19.558  48.868  19.869  1.00  0.00     0.041 C 
ATOM     16  O   UNL     1      18.490  49.080  19.231  1.00  0.00    -0.550 OA
ATOM     17  O   UNL     1      20.703  49.584  19.543  1.00  0.00    -0.550 OA
ENDBRANCH  14  15
ENDBRANCH  13  14
ENDBRANCH  12  13
ENDBRANCH  11  12
ENDBRANCH  10  11
ENDBRANCH   9  10
ENDBRANCH   8   9
ENDBRANCH   7   8
ENDBRANCH   6   7
ENDBRANCH   5   6
ENDBRANCH   4   5
ENDBRANCH   3   4
ENDBRANCH   2   3
ENDBRANCH   1   2
BRANCH   1  18
ATOM     18  C   UNL     1      21.300  40.571  24.841  1.00  0.00     0.000 C 
BRANCH  18  19
ATOM     19  C   UNL     1      21.174  39.779  23.527  1.00  0.00     0.000 C 
BRANCH  19  20
ATOM     20  C   UNL     1      20.027  38.749  23.495  1.00  0.00     0.000 C 
BRANCH  20  21
ATOM     21  C   UNL     1      18.632  39.336  23.203  1.00  0.00     0.000 C 
BRANCH  21  22
ATOM     22  C   UNL     1      17.658  39.323  24.398  1.00  0.00     0.000 C 
BRANCH  22  23
ATOM     23  C   UNL     1      17.794  38.112  25.342  1.00  0.00     0.000 C 
BRANCH  23  24
ATOM     24  C   UNL     1      17.824  38.454  26.842  1.00  0.00    -0.000 C 
BRANCH  24  25
ATOM     25  C   UNL     1      18.879  39.514  27.189  1.00  0.00    -0.000 C 
BRANCH  25  26
ATOM     26  C   UNL     1      18.228  40.737  27.846  1.00  0.00    -0.000 C 
BRANCH  26  27
ATOM     27  C   UNL     1      17.240  40.308  28.941  1.00  0.00    -0.000 C 
BRANCH  27  28
ATOM     28  C   UNL     1      16.097  41.314  29.138  1.00  0.00    -0.000 C 
BRANCH  28  29
ATOM     29  C   UNL     1      14.727  40.630  29.295  1.00  0.00    -0.000 C 
BRANCH  29  30
ATOM     30  C   UNL     1      14.685  39.240  28.638  1.00  0.00    -0.000 C 
BRANCH  30  31
ATOM     31  C   UNL     1      14.228  39.295  27.172  1.00  0.00    -0.003 C 
ATOM     32  C   UNL     1      13.278  38.145  26.853  1.00  0.00     0.004 C 
ENDBRANCH  30  31
ENDBRANCH  29  30
ENDBRANCH  28  29
ENDBRANCH  27  28
ENDBRANCH  26  27
ENDBRANCH  25  26
ENDBRANCH  24  25
ENDBRANCH  23  24
ENDBRANCH  22  23
ENDBRANCH  21  22
ENDBRANCH  20  21
ENDBRANCH  19  20
ENDBRANCH  18  19
ENDBRANCH   1  18
TORSDOF 28
ENDMDL
MODEL 6
REMARK VINA RESULT:    -4.010      4.293      8.684
REMARK INTER + INTRA:         -15.217
REMARK INTER:                 -11.402
REMARK INTRA:                  -3.815
REMARK UNBOUND:                -4.643
REMARK SMILES CCCCCCCCCCCCCCCCCCCCCCCCCCCCCC(=O)[O-]
REMARK SMILES IDX 16 1 17 2 18 3 19 4 20 5 21 6 22 7 23 8 24 9 25 10 26 11
REMARK SMILES IDX 27 12 28 13 29 14 30 15 31 16 32 17 15 18 14 19 13 20 12 21
REMARK SMILES IDX 11 22 10 23 9 24 8 25 7 26 6 27 5 28 4 29 3 30 2 31 1 32
REMARK H PARENT
REMARK Flexibility Score: inf
ROOT
ATOM      1  C   UNL     1      18.347  38.426  21.262  1.00  0.00     0.000 C 
ENDROOT
BRANCH   1   2
ATOM      2  C   UNL     1      17.665  37.946  19.970  1.00  0.00     0.000 C 
BRANCH   2   3
ATOM      3  C   UNL     1      17.693  39.007  18.854  1.00  0.00     0.000 C 
BRANCH   3   4
ATOM      4  C   UNL     1      19.047  39.734  18.753  1.00  0.00     0.000 C 
BRANCH   4   5
ATOM      5  C   UNL     1      19.115  41.121  19.435  1.00  0.00     0.000 C 
BRANCH   5   6
ATOM      6  C   UNL     1      18.083  42.155  18.937  1.00  0.00     0.000 C 
BRANCH   6   7
ATOM      7  C   UNL     1      17.004  42.520  19.980  1.00  0.00     0.000 C 
BRANCH   7   8
ATOM      8  C   UNL     1      15.863  43.389  19.420  1.00  0.00     0.000 C 
BRANCH   8   9
ATOM      9  C   UNL     1      14.979  44.043  20.504  1.00  0.00     0.000 C 
BRANCH   9  10
ATOM     10  C   UNL     1      14.887  45.582  20.410  1.00  0.00     0.000 C 
BRANCH  10  11
ATOM     11  C   UNL     1      15.207  46.160  19.016  1.00  0.00     0.000 C 
BRANCH  11  12
ATOM     12  C   UNL     1      14.022  46.114  18.019  1.00  0.00     0.000 C 
BRANCH  12  13
ATOM     13  C   UNL     1      12.648  46.393  18.667  1.00  0.00     0.006 C 
BRANCH  13  14
ATOM     14  C   UNL     1      11.662  45.214  18.606  1.00  0.00     0.053 C 
BRANCH  14  15
ATOM     15  C   UNL     1      10.467  45.420  19.493  1.00  0.00     0.041 C 
ATOM     16  O   UNL     1       9.634  46.334  19.238  1.00  0.00    -0.550 OA
ATOM     17  O   UNL     1      10.249  44.577  20.575  1.00  0.00    -0.550 OA
ENDBRANCH  14  15
ENDBRANCH  13  14
ENDBRANCH  12  13
ENDBRANCH  11  12
ENDBRANCH  10  11
ENDBRANCH   9  10
ENDBRANCH   8   9
ENDBRANCH   7   8
ENDBRANCH   6   7
ENDBRANCH   5   6
ENDBRANCH   4   5
ENDBRANCH   3   4
ENDBRANCH   2   3
ENDBRANCH   1   2
BRANCH   1  18
ATOM     18  C   UNL     1      17.469  38.225  22.507  1.00  0.00     0.000 C 
BRANCH  18  19
ATOM     19  C   UNL     1      17.422  39.473  23.407  1.00  0.00     0.000 C 
BRANCH  19  20
ATOM     20  C   UNL     1      18.346  40.627  22.968  1.00  0.00     0.000 C 
BRANCH  20  21
ATOM     21  C   UNL     1      19.326  41.125  24.049  1.00  0.00     0.000 C 
BRANCH  21  22
ATOM     22  C   UNL     1      19.685  42.621  23.963  1.00  0.00     0.000 C 
BRANCH  22  23
ATOM     23  C   UNL     1      19.266  43.322  22.655  1.00  0.00     0.000 C 
BRANCH  23  24
ATOM     24  C   UNL     1      20.414  43.607  21.671  1.00  0.00    -0.000 C 
BRANCH  24  25
ATOM     25  C   UNL     1      20.172  44.863  20.822  1.00  0.00    -0.000 C 
BRANCH  25  26
ATOM     26  C   UNL     1      18.829  45.512  21.180  1.00  0.00    -0.000 C 
BRANCH  26  27
ATOM     27  C   UNL     1      18.630  46.821  20.401  1.00  0.00    -0.000 C 
BRANCH  27  28
ATOM     28  C   UNL     1      17.801  47.854  21.176  1.00  0.00    -0.000 C 
BRANCH  28  29
ATOM     29  C   UNL     1      18.634  49.071  21.617  1.00  0.00    -0.000 C 
BRANCH  29  30
ATOM     30  C   UNL     1      19.684  49.475  20.569  1.00  0.00    -0.000 C 
BRANCH  30  31
ATOM     31  C   UNL     1      19.181  50.579  19.626  1.00  0.00    -0.003 C 
ATOM     32  C   UNL     1      20.052  50.671  18.377  1.00  0.00     0.004 C 
ENDBRANCH  30  31
ENDBRANCH  29  30
ENDBRANCH  28  29
ENDBRANCH  27  28
ENDBRANCH  26  27
ENDBRANCH  25  26
ENDBRANCH  24  25
ENDBRANCH  23  24
ENDBRANCH  22  23
ENDBRANCH  21  22
ENDBRANCH  20  21
ENDBRANCH  19  20
ENDBRANCH  18  19
ENDBRANCH   1  18
TORSDOF 28
ENDMDL
MODEL 7
REMARK VINA RESULT:    -3.980      4.652      8.178
REMARK INTER + INTRA:         -15.137
REMARK INTER:                 -10.889
REMARK INTRA:                  -4.248
REMARK UNBOUND:                -4.643
REMARK SMILES CCCCCCCCCCCCCCCCCCCCCCCCCCCCCC(=O)[O-]
REMARK SMILES IDX 16 1 17 2 18 3 19 4 20 5 21 6 22 7 23 8 24 9 25 10 26 11
REMARK SMILES IDX 27 12 28 13 29 14 30 15 31 16 32 17 15 18 14 19 13 20 12 21
REMARK SMILES IDX 11 22 10 23 9 24 8 25 7 26 6 27 5 28 4 29 3 30 2 31 1 32
REMARK H PARENT
REMARK Flexibility Score: inf
ROOT
ATOM      1  C   UNL     1      18.278  43.770  19.565  1.00  0.00     0.000 C 
ENDROOT
BRANCH   1   2
ATOM      2  C   UNL     1      17.300  42.595  19.393  1.00  0.00     0.000 C 
BRANCH   2   3
ATOM      3  C   UNL     1      16.058  42.719  20.293  1.00  0.00     0.000 C 
BRANCH   3   4
ATOM      4  C   UNL     1      14.944  43.576  19.662  1.00  0.00     0.000 C 
BRANCH   4   5
ATOM      5  C   UNL     1      14.444  44.762  20.520  1.00  0.00     0.000 C 
BRANCH   5   6
ATOM      6  C   UNL     1      14.893  46.160  20.043  1.00  0.00     0.000 C 
BRANCH   6   7
ATOM      7  C   UNL     1      15.698  46.147  18.725  1.00  0.00     0.000 C 
BRANCH   7   8
ATOM      8  C   UNL     1      15.150  47.105  17.650  1.00  0.00     0.000 C 
BRANCH   8   9
ATOM      9  C   UNL     1      14.115  46.462  16.702  1.00  0.00     0.000 C 
BRANCH   9  10
ATOM     10  C   UNL     1      12.649  46.842  17.004  1.00  0.00     0.000 C 
BRANCH  10  11
ATOM     11  C   UNL     1      11.951  45.933  18.036  1.00  0.00     0.000 C 
BRANCH  11  12
ATOM     12  C   UNL     1      11.089  46.692  19.075  1.00  0.00     0.000 C 
BRANCH  12  13
ATOM     13  C   UNL     1      10.090  45.793  19.836  1.00  0.00     0.006 C 
BRANCH  13  14
ATOM     14  C   UNL     1      10.606  44.375  20.134  1.00  0.00     0.053 C 
BRANCH  14  15
ATOM     15  C   UNL     1       9.577  43.319  19.850  1.00  0.00     0.041 C 
ATOM     16  O   UNL     1       9.849  42.099  20.030  1.00  0.00    -0.550 OA
ATOM     17  O   UNL     1       8.304  43.680  19.429  1.00  0.00    -0.550 OA
ENDBRANCH  14  15
ENDBRANCH  13  14
ENDBRANCH  12  13
ENDBRANCH  11  12
ENDBRANCH  10  11
ENDBRANCH   9  10
ENDBRANCH   8   9
ENDBRANCH   7   8
ENDBRANCH   6   7
ENDBRANCH   5   6
ENDBRANCH   4   5
ENDBRANCH   3   4
ENDBRANCH   2   3
ENDBRANCH   1   2
BRANCH   1  18
ATOM     18  C   UNL     1      18.134  44.465  20.928  1.00  0.00     0.000 C 
BRANCH  18  19
ATOM     19  C   UNL     1      19.094  43.896  21.988  1.00  0.00     0.000 C 
BRANCH  19  20
ATOM     20  C   UNL     1      20.475  43.466  21.452  1.00  0.00     0.000 C 
BRANCH  20  21
ATOM     21  C   UNL     1      21.668  43.831  22.358  1.00  0.00     0.000 C 
BRANCH  21  22
ATOM     22  C   UNL     1      21.845  42.928  23.594  1.00  0.00     0.000 C 
BRANCH  22  23
ATOM     23  C   UNL     1      21.326  41.485  23.433  1.00  0.00     0.000 C 
BRANCH  23  24
ATOM     24  C   UNL     1      20.136  41.115  24.336  1.00  0.00    -0.000 C 
BRANCH  24  25
ATOM     25  C   UNL     1      18.889  40.708  23.538  1.00  0.00    -0.000 C 
BRANCH  25  26
ATOM     26  C   UNL     1      19.283  40.058  22.206  1.00  0.00    -0.000 C 
BRANCH  26  27
ATOM     27  C   UNL     1      18.037  39.617  21.424  1.00  0.00    -0.000 C 
BRANCH  27  28
ATOM     28  C   UNL     1      18.370  39.092  20.020  1.00  0.00    -0.000 C 
BRANCH  28  29
ATOM     29  C   UNL     1      17.124  38.959  19.127  1.00  0.00    -0.000 C 
BRANCH  29  30
ATOM     30  C   UNL     1      15.814  39.065  19.925  1.00  0.00    -0.000 C 
BRANCH  30  31
ATOM     31  C   UNL     1      15.046  37.734  19.978  1.00  0.00    -0.003 C 
ATOM     32  C   UNL     1      14.377  37.543  21.335  1.00  0.00     0.004 C 
ENDBRANCH  30  31
ENDBRANCH  29  30
ENDBRANCH  28  29
ENDBRANCH  27  28
ENDBRANCH  26  27
ENDBRANCH  25  26
ENDBRANCH  24  25
ENDBRANCH  23  24
ENDBRANCH  22  23
ENDBRANCH  21  22
ENDBRANCH  20  21
ENDBRANCH  19  20
ENDBRANCH  18  19
ENDBRANCH   1  18
TORSDOF 28
ENDMDL
MODEL 8
REMARK VINA RESULT:    -3.950      3.171      3.734
REMARK INTER + INTRA:         -15.057
REMARK INTER:                 -11.105
REMARK INTRA:                  -3.952
REMARK UNBOUND:                -4.643
REMARK SMILES CCCCCCCCCCCCCCCCCCCCCCCCCCCCCC(=O)[O-]
REMARK SMILES IDX 16 1 17 2 18 3 19 4 20 5 21 6 22 7 23 8 24 9 25 10 26 11
REMARK SMILES IDX 27 12 28 13 29 14 30 15 31 16 32 17 15 18 14 19 13 20 12 21
REMARK SMILES IDX 11 22 10 23 9 24 8 25 7 26 6 27 5 28 4 29 3 30 2 31 1 32
REMARK H PARENT
REMARK Flexibility Score: inf
ROOT
ATOM      1  C   UNL     1      17.949  38.917  25.640  1.00  0.00     0.000 C 
ENDROOT
BRANCH   1   2
ATOM      2  C   UNL     1      18.094  40.201  26.474  1.00  0.00     0.000 C 
BRANCH   2   3
ATOM      3  C   UNL     1      19.503  40.814  26.381  1.00  0.00     0.000 C 
BRANCH   3   4
ATOM      4  C   UNL     1      19.984  40.993  24.928  1.00  0.00     0.000 C 
BRANCH   4   5
ATOM      5  C   UNL     1      19.856  42.423  24.352  1.00  0.00     0.000 C 
BRANCH   5   6
ATOM      6  C   UNL     1      21.093  42.943  23.590  1.00  0.00     0.000 C 
BRANCH   6   7
ATOM      7  C   UNL     1      20.761  43.638  22.251  1.00  0.00     0.000 C 
BRANCH   7   8
ATOM      8  C   UNL     1      20.291  42.673  21.146  1.00  0.00     0.000 C 
BRANCH   8   9
ATOM      9  C   UNL     1      18.886  42.990  20.589  1.00  0.00     0.000 C 
BRANCH   9  10
ATOM     10  C   UNL     1      18.753  44.387  19.947  1.00  0.00     0.000 C 
BRANCH  10  11
ATOM     11  C   UNL     1      17.771  45.333  20.669  1.00  0.00     0.000 C 
BRANCH  11  12
ATOM     12  C   UNL     1      18.265  46.797  20.786  1.00  0.00     0.000 C 
BRANCH  12  13
ATOM     13  C   UNL     1      19.801  46.945  20.735  1.00  0.00     0.006 C 
BRANCH  13  14
ATOM     14  C   UNL     1      20.294  48.319  20.249  1.00  0.00     0.053 C 
BRANCH  14  15
ATOM     15  C   UNL     1      19.716  49.451  21.048  1.00  0.00     0.041 C 
ATOM     16  O   UNL     1      20.127  49.678  22.220  1.00  0.00    -0.550 OA
ATOM     17  O   UNL     1      18.757  50.283  20.487  1.00  0.00    -0.550 OA
ENDBRANCH  14  15
ENDBRANCH  13  14
ENDBRANCH  12  13
ENDBRANCH  11  12
ENDBRANCH  10  11
ENDBRANCH   9  10
ENDBRANCH   8   9
ENDBRANCH   7   8
ENDBRANCH   6   7
ENDBRANCH   5   6
ENDBRANCH   4   5
ENDBRANCH   3   4
ENDBRANCH   2   3
ENDBRANCH   1   2
BRANCH   1  18
ATOM     18  C   UNL     1      16.612  38.199  25.884  1.00  0.00     0.000 C 
BRANCH  18  19
ATOM     19  C   UNL     1      15.478  39.170  26.258  1.00  0.00     0.000 C 
BRANCH  19  20
ATOM     20  C   UNL     1      14.256  38.516  26.933  1.00  0.00     0.000 C 
BRANCH  20  21
ATOM     21  C   UNL     1      13.264  39.501  27.582  1.00  0.00     0.000 C 
BRANCH  21  22
ATOM     22  C   UNL     1      13.690  40.981  27.530  1.00  0.00     0.000 C 
BRANCH  22  23
ATOM     23  C   UNL     1      14.071  41.603  28.888  1.00  0.00     0.000 C 
BRANCH  23  24
ATOM     24  C   UNL     1      15.549  41.447  29.285  1.00  0.00    -0.000 C 
BRANCH  24  25
ATOM     25  C   UNL     1      15.793  40.243  30.207  1.00  0.00    -0.000 C 
BRANCH  25  26
ATOM     26  C   UNL     1      17.049  39.474  29.778  1.00  0.00    -0.000 C 
BRANCH  26  27
ATOM     27  C   UNL     1      16.745  37.977  29.621  1.00  0.00    -0.000 C 
BRANCH  27  28
ATOM     28  C   UNL     1      17.974  37.162  29.196  1.00  0.00    -0.000 C 
BRANCH  28  29
ATOM     29  C   UNL     1      19.262  38.004  29.164  1.00  0.00    -0.000 C 
BRANCH  29  30
ATOM     30  C   UNL     1      20.384  37.396  30.023  1.00  0.00    -0.000 C 
BRANCH  30  31
ATOM     31  C   UNL     1      20.876  38.357  31.116  1.00  0.00    -0.003 C 
ATOM     32  C   UNL     1      19.941  38.340  32.321  1.00  0.00     0.004 C 
ENDBRANCH  30  31
ENDBRANCH  29  30
ENDBRANCH  28  29
ENDBRANCH  27  28
ENDBRANCH  26  27
ENDBRANCH  25  26
ENDBRANCH  24  25
ENDBRANCH  23  24
ENDBRANCH  22  23
ENDBRANCH  21  22
ENDBRANCH  20  21
ENDBRANCH  19  20
ENDBRANCH  18  19
ENDBRANCH   1  18
TORSDOF 28
ENDMDL
MODEL 9
REMARK VINA RESULT:    -3.915      4.160      7.621
REMARK INTER + INTRA:         -14.965
REMARK INTER:                 -10.304
REMARK INTRA:                  -4.661
REMARK UNBOUND:                -4.643
REMARK SMILES CCCCCCCCCCCCCCCCCCCCCCCCCCCCCC(=O)[O-]
REMARK SMILES IDX 16 1 17 2 18 3 19 4 20 5 21 6 22 7 23 8 24 9 25 10 26 11
REMARK SMILES IDX 27 12 28 13 29 14 30 15 31 16 32 17 15 18 14 19 13 20 12 21
REMARK SMILES IDX 11 22 10 23 9 24 8 25 7 26 6 27 5 28 4 29 3 30 2 31 1 32
REMARK H PARENT
REMARK Flexibility Score: inf
ROOT
ATOM      1  C   UNL     1      21.511  43.261  21.879  1.00  0.00     0.000 C 
ENDROOT
BRANCH   1   2
ATOM      2  C   UNL     1      20.275  43.285  20.964  1.00  0.00     0.000 C 
BRANCH   2   3
ATOM      3  C   UNL     1      18.978  43.616  21.726  1.00  0.00     0.000 C 
BRANCH   3   4
ATOM      4  C   UNL     1      18.012  42.419  21.812  1.00  0.00     0.000 C 
BRANCH   4   5
ATOM      5  C   UNL     1      16.744  42.518  20.932  1.00  0.00     0.000 C 
BRANCH   5   6
ATOM      6  C   UNL     1      16.986  42.447  19.410  1.00  0.00     0.000 C 
BRANCH   6   7
ATOM      7  C   UNL     1      17.035  43.826  18.715  1.00  0.00     0.000 C 
BRANCH   7   8
ATOM      8  C   UNL     1      15.691  44.577  18.724  1.00  0.00     0.000 C 
BRANCH   8   9
ATOM      9  C   UNL     1      15.782  46.024  19.255  1.00  0.00     0.000 C 
BRANCH   9  10
ATOM     10  C   UNL     1      16.618  46.182  20.543  1.00  0.00     0.000 C 
BRANCH  10  11
ATOM     11  C   UNL     1      17.669  47.310  20.491  1.00  0.00     0.000 C 
BRANCH  11  12
ATOM     12  C   UNL     1      19.136  46.819  20.576  1.00  0.00     0.000 C 
BRANCH  12  13
ATOM     13  C   UNL     1      20.182  47.952  20.478  1.00  0.00     0.006 C 
BRANCH  13  14
ATOM     14  C   UNL     1      19.951  49.120  21.452  1.00  0.00     0.053 C 
BRANCH  14  15
ATOM     15  C   UNL     1      19.628  50.403  20.742  1.00  0.00     0.041 C 
ATOM     16  O   UNL     1      20.475  50.935  19.971  1.00  0.00    -0.550 OA
ATOM     17  O   UNL     1      18.379  50.991  20.895  1.00  0.00    -0.550 OA
ENDBRANCH  14  15
ENDBRANCH  13  14
ENDBRANCH  12  13
ENDBRANCH  11  12
ENDBRANCH  10  11
ENDBRANCH   9  10
ENDBRANCH   8   9
ENDBRANCH   7   8
ENDBRANCH   6   7
ENDBRANCH   5   6
ENDBRANCH   4   5
ENDBRANCH   3   4
ENDBRANCH   2   3
ENDBRANCH   1   2
BRANCH   1  18
ATOM     18  C   UNL     1      21.785  41.869  22.469  1.00  0.00     0.000 C 
BRANCH  18  19
ATOM     19  C   UNL     1      21.756  41.862  24.008  1.00  0.00     0.000 C 
BRANCH  19  20
ATOM     20  C   UNL     1      20.463  42.417  24.638  1.00  0.00     0.000 C 
BRANCH  20  21
ATOM     21  C   UNL     1      19.621  41.385  25.415  1.00  0.00     0.000 C 
BRANCH  21  22
ATOM     22  C   UNL     1      19.240  40.123  24.616  1.00  0.00     0.000 C 
BRANCH  22  23
ATOM     23  C   UNL     1      17.744  39.754  24.646  1.00  0.00     0.000 C 
BRANCH  23  24
ATOM     24  C   UNL     1      17.335  38.611  23.700  1.00  0.00    -0.000 C 
BRANCH  24  25
ATOM     25  C   UNL     1      17.193  39.068  22.241  1.00  0.00    -0.000 C 
BRANCH  25  26
ATOM     26  C   UNL     1      18.190  38.331  21.340  1.00  0.00    -0.000 C 
BRANCH  26  27
ATOM     27  C   UNL     1      19.489  39.136  21.188  1.00  0.00    -0.000 C 
BRANCH  27  28
ATOM     28  C   UNL     1      19.627  39.788  19.805  1.00  0.00    -0.000 C 
BRANCH  28  29
ATOM     29  C   UNL     1      18.629  39.222  18.780  1.00  0.00    -0.000 C 
BRANCH  29  30
ATOM     30  C   UNL     1      19.320  38.413  17.670  1.00  0.00    -0.000 C 
BRANCH  30  31
ATOM     31  C   UNL     1      18.514  37.173  17.254  1.00  0.00    -0.003 C 
ATOM     32  C   UNL     1      17.245  37.041  18.090  1.00  0.00     0.004 C 
ENDBRANCH  30  31
ENDBRANCH  29  30
ENDBRANCH  28  29
ENDBRANCH  27  28
ENDBRANCH  26  27
ENDBRANCH  25  26
ENDBRANCH  24  25
ENDBRANCH  23  24
ENDBRANCH  22  23
ENDBRANCH  21  22
ENDBRANCH  20  21
ENDBRANCH  19  20
ENDBRANCH  18  19
ENDBRANCH   1  18
TORSDOF 28
ENDMDL
