MODEL 1
REMARK VINA RESULT:    -2.512      0.000      0.000
REMARK INTER + INTRA:          -3.639
REMARK INTER:                  -3.834
REMARK INTRA:                   0.195
REMARK UNBOUND:                 0.195
REMARK SMILES CC1=CCC[C@H](C)C(=O)C[C@H](C(C)C)C(=O)C1
REMARK SMILES IDX 8 1 9 2 6 3 7 4 5 5 4 6 3 7 2 8 1 9 10 11 11 12 15 13 16 14
REMARK SMILES IDX 17 15 12 17 13 18 14 19
REMARK H PARENT
REMARK Flexibility Score: 70.00
ROOT
ATOM      1  C   UNL     1      27.087  28.357  26.142  1.00  0.00     0.136 C 
ATOM      2  O   UNL     1      26.117  28.983  25.737  1.00  0.00    -0.299 OA
ENDROOT
BRANCH   1   3
ATOM      3  C   UNL     1      28.109  27.839  25.151  1.00  0.00     0.053 C 
ATOM      4  C   UNL     1      28.847  29.024  24.520  1.00  0.00     0.016 C 
BRANCH   3   5
ATOM      5  C   UNL     1      29.122  26.867  25.803  1.00  0.00     0.015 C 
BRANCH   5   6
ATOM      6  C   UNL     1      28.717  25.385  25.723  1.00  0.00     0.028 C 
BRANCH   6   7
ATOM      7  C   UNL     1      28.576  24.775  27.098  1.00  0.00    -0.028 C 
ATOM      8  C   UNL     1      27.437  24.757  27.829  1.00  0.00    -0.070 CG0
ATOM      9  C   UNL     1      27.474  24.090  29.181  1.00  0.00     0.039 C 
ATOM     10  G   UNL     1      26.134  25.365  27.343  1.00  0.00     0.000 G0
ENDBRANCH   6   7
ENDBRANCH   5   6
ENDBRANCH   3   5
ENDBRANCH   1   3
BRANCH   1  11
ATOM     11  C   UNL     1      27.211  28.074  27.623  1.00  0.00     0.087 C 
BRANCH  11  12
ATOM     12  C   UNL     1      25.844  27.821  28.310  1.00  0.00     0.066 C 
BRANCH  12  13
ATOM     13  C   UNL     1      25.475  26.344  28.291  1.00  0.00     0.140 C 
ATOM     14  O   UNL     1      24.587  25.939  29.028  1.00  0.00    -0.299 OA
BRANCH  13  15
ATOM     15  C   UNL     1      26.117  25.358  27.340  1.00  0.00     0.106 CG0
ATOM     16  G   UNL     1      27.416  24.763  27.855  1.00  0.00     0.000 G0
ENDBRANCH  13  15
ENDBRANCH  12  13
BRANCH  12  17
ATOM     17  C   UNL     1      25.747  28.396  29.756  1.00  0.00    -0.006 C 
ATOM     18  C   UNL     1      27.000  29.162  30.215  1.00  0.00     0.008 C 
ATOM     19  C   UNL     1      24.499  29.274  29.940  1.00  0.00     0.008 C 
ENDBRANCH  12  17
ENDBRANCH  11  12
ENDBRANCH   1  11
TORSDOF 1
ENDMDL
MODEL 2
REMARK VINA RESULT:    -2.290      1.623      3.569
REMARK INTER + INTRA:          -3.300
REMARK INTER:                  -3.427
REMARK INTRA:                   0.127
REMARK UNBOUND:                 0.195
REMARK SMILES CC1=CCC[C@H](C)C(=O)C[C@H](C(C)C)C(=O)C1
REMARK SMILES IDX 8 1 9 2 6 3 7 4 5 5 4 6 3 7 2 8 1 9 10 11 11 12 15 13 16 14
REMARK SMILES IDX 17 15 12 17 13 18 14 19
REMARK H PARENT
REMARK Flexibility Score: 70.00
ROOT
ATOM      1  C   UNL     1      27.567  28.229  25.544  1.00  0.00     0.136 C 
ATOM      2  O   UNL     1      26.536  28.763  25.158  1.00  0.00    -0.299 OA
ENDROOT
BRANCH   1   3
ATOM      3  C   UNL     1      28.763  29.088  25.903  1.00  0.00     0.053 C 
ATOM      4  C   UNL     1      28.474  30.543  25.522  1.00  0.00     0.016 C 
BRANCH   3   5
ATOM      5  C   UNL     1      29.125  28.994  27.406  1.00  0.00     0.015 C 
BRANCH   5   6
ATOM      6  C   UNL     1      28.110  29.669  28.344  1.00  0.00     0.028 C 
BRANCH   6   7
ATOM      7  C   UNL     1      27.749  28.773  29.505  1.00  0.00    -0.028 C 
ATOM      8  C   UNL     1      26.700  27.917  29.533  1.00  0.00    -0.070 CG0
ATOM      9  C   UNL     1      26.497  27.086  30.775  1.00  0.00     0.039 C 
ATOM     10  G   UNL     1      25.737  27.753  28.371  1.00  0.00     0.000 G0
ENDBRANCH   6   7
ENDBRANCH   5   6
ENDBRANCH   3   5
ENDBRANCH   1   3
BRANCH   1  11
ATOM     11  C   UNL     1      27.634  26.719  25.605  1.00  0.00     0.087 C 
BRANCH  11  12
ATOM     12  C   UNL     1      27.404  26.159  27.033  1.00  0.00     0.066 C 
BRANCH  12  13
ATOM     13  C   UNL     1      26.013  26.498  27.549  1.00  0.00     0.140 C 
ATOM     14  O   UNL     1      25.090  25.723  27.340  1.00  0.00    -0.299 OA
BRANCH  13  15
ATOM     15  C   UNL     1      25.733  27.733  28.378  1.00  0.00     0.106 CG0
ATOM     16  G   UNL     1      26.697  27.930  29.534  1.00  0.00     0.000 G0
ENDBRANCH  13  15
ENDBRANCH  12  13
BRANCH  12  17
ATOM     17  C   UNL     1      27.684  24.630  27.165  1.00  0.00    -0.006 C 
ATOM     18  C   UNL     1      28.723  24.092  26.167  1.00  0.00     0.008 C 
ATOM     19  C   UNL     1      28.085  24.244  28.598  1.00  0.00     0.008 C 
ENDBRANCH  12  17
ENDBRANCH  11  12
ENDBRANCH   1  11
TORSDOF 1
ENDMDL
MODEL 3
REMARK VINA RESULT:    -2.259      1.712      4.085
REMARK INTER + INTRA:          -3.253
REMARK INTER:                  -3.718
REMARK INTRA:                   0.465
REMARK UNBOUND:                 0.195
REMARK SMILES CC1=CCC[C@H](C)C(=O)C[C@H](C(C)C)C(=O)C1
REMARK SMILES IDX 8 1 9 2 6 3 7 4 5 5 4 6 3 7 2 8 1 9 10 11 11 12 15 13 16 14
REMARK SMILES IDX 17 15 12 17 13 18 14 19
REMARK H PARENT
REMARK Flexibility Score: 70.00
ROOT
ATOM      1  C   UNL     1      27.993  28.622  27.248  1.00  0.00     0.136 C 
ATOM      2  O   UNL     1      28.340  29.551  26.533  1.00  0.00    -0.299 OA
ENDROOT
BRANCH   1   3
ATOM      3  C   UNL     1      28.145  28.740  28.751  1.00  0.00     0.053 C 
ATOM      4  C   UNL     1      29.111  29.883  29.075  1.00  0.00     0.016 C 
BRANCH   3   5
ATOM      5  C   UNL     1      26.789  28.971  29.463  1.00  0.00     0.015 C 
BRANCH   5   6
ATOM      6  C   UNL     1      26.126  27.687  29.992  1.00  0.00     0.028 C 
BRANCH   6   7
ATOM      7  C   UNL     1      24.785  27.448  29.340  1.00  0.00    -0.028 C 
ATOM      8  C   UNL     1      24.417  26.307  28.711  1.00  0.00    -0.070 CG0
ATOM      9  C   UNL     1      23.029  26.236  28.127  1.00  0.00     0.039 C 
ATOM     10  G   UNL     1      25.333  25.103  28.581  1.00  0.00     0.000 G0
ENDBRANCH   6   7
ENDBRANCH   5   6
ENDBRANCH   3   5
ENDBRANCH   1   3
BRANCH   1  11
ATOM     11  C   UNL     1      27.466  27.358  26.606  1.00  0.00     0.087 C 
BRANCH  11  12
ATOM     12  C   UNL     1      27.580  26.115  27.527  1.00  0.00     0.066 C 
BRANCH  12  13
ATOM     13  C   UNL     1      26.340  25.237  27.437  1.00  0.00     0.140 C 
ATOM     14  O   UNL     1      26.157  24.560  26.435  1.00  0.00    -0.299 OA
BRANCH  13  15
ATOM     15  C   UNL     1      25.349  25.112  28.574  1.00  0.00     0.106 CG0
ATOM     16  G   UNL     1      24.420  26.304  28.715  1.00  0.00     0.000 G0
ENDBRANCH  13  15
ENDBRANCH  12  13
BRANCH  12  17
ATOM     17  C   UNL     1      28.871  25.272  27.294  1.00  0.00    -0.006 C 
ATOM     18  C   UNL     1      28.928  23.969  28.112  1.00  0.00     0.008 C 
ATOM     19  C   UNL     1      29.093  24.965  25.805  1.00  0.00     0.008 C 
ENDBRANCH  12  17
ENDBRANCH  11  12
ENDBRANCH   1  11
TORSDOF 1
ENDMDL
MODEL 4
REMARK VINA RESULT:    -2.189      2.442      4.273
REMARK INTER + INTRA:          -3.146
REMARK INTER:                  -3.917
REMARK INTRA:                   0.770
REMARK UNBOUND:                 0.195
REMARK SMILES CC1=CCC[C@H](C)C(=O)C[C@H](C(C)C)C(=O)C1
REMARK SMILES IDX 8 1 9 2 6 3 7 4 5 5 4 6 3 7 2 8 1 9 10 11 11 12 15 13 16 14
REMARK SMILES IDX 17 15 12 17 13 18 14 19
REMARK H PARENT
REMARK Flexibility Score: 70.00
ROOT
ATOM      1  C   UNL     1      26.244  24.697  27.582  1.00  0.00     0.136 C 
ATOM      2  O   UNL     1      26.847  24.796  26.522  1.00  0.00    -0.299 OA
ENDROOT
BRANCH   1   3
ATOM      3  C   UNL     1      26.895  23.982  28.748  1.00  0.00     0.053 C 
ATOM      4  C   UNL     1      28.417  24.131  28.648  1.00  0.00     0.016 C 
BRANCH   3   5
ATOM      5  C   UNL     1      26.398  24.512  30.115  1.00  0.00     0.015 C 
BRANCH   5   6
ATOM      6  C   UNL     1      27.392  25.440  30.833  1.00  0.00     0.028 C 
BRANCH   6   7
ATOM      7  C   UNL     1      26.740  26.740  31.241  1.00  0.00    -0.028 C 
ATOM      8  C   UNL     1      26.587  27.820  30.439  1.00  0.00    -0.070 CG0
ATOM      9  C   UNL     1      25.898  29.034  31.011  1.00  0.00     0.039 C 
ATOM     10  G   UNL     1      27.067  27.855  28.999  1.00  0.00     0.000 G0
ENDBRANCH   6   7
ENDBRANCH   5   6
ENDBRANCH   3   5
ENDBRANCH   1   3
BRANCH   1  11
ATOM     11  C   UNL     1      24.841  25.252  27.682  1.00  0.00     0.087 C 
BRANCH  11  12
ATOM     12  C   UNL     1      24.789  26.657  28.337  1.00  0.00     0.066 C 
BRANCH  12  13
ATOM     13  C   UNL     1      26.012  27.488  27.975  1.00  0.00     0.140 C 
ATOM     14  O   UNL     1      26.125  27.922  26.837  1.00  0.00    -0.299 OA
BRANCH  13  15
ATOM     15  C   UNL     1      27.070  27.862  28.990  1.00  0.00     0.106 CG0
ATOM     16  G   UNL     1      26.585  27.823  30.428  1.00  0.00     0.000 G0
ENDBRANCH  13  15
ENDBRANCH  12  13
BRANCH  12  17
ATOM     17  C   UNL     1      23.477  27.446  28.039  1.00  0.00    -0.006 C 
ATOM     18  C   UNL     1      22.191  26.619  28.213  1.00  0.00     0.008 C 
ATOM     19  C   UNL     1      23.386  28.737  28.869  1.00  0.00     0.008 C 
ENDBRANCH  12  17
ENDBRANCH  11  12
ENDBRANCH   1  11
TORSDOF 1
ENDMDL
MODEL 5
REMARK VINA RESULT:    -1.932      2.155      4.010
REMARK INTER + INTRA:          -2.754
REMARK INTER:                  -3.509
REMARK INTRA:                   0.754
REMARK UNBOUND:                 0.195
REMARK SMILES CC1=CCC[C@H](C)C(=O)C[C@H](C(C)C)C(=O)C1
REMARK SMILES IDX 8 1 9 2 6 3 7 4 5 5 4 6 3 7 2 8 1 9 10 11 11 12 15 13 16 14
REMARK SMILES IDX 17 15 12 17 13 18 14 19
REMARK H PARENT
REMARK Flexibility Score: 70.00
ROOT
ATOM      1  C   UNL     1      28.405  26.623  26.892  1.00  0.00     0.136 C 
ATOM      2  O   UNL     1      29.116  25.674  26.589  1.00  0.00    -0.299 OA
ENDROOT
BRANCH   1   3
ATOM      3  C   UNL     1      29.025  27.994  27.067  1.00  0.00     0.053 C 
ATOM      4  C   UNL     1      28.325  28.989  26.136  1.00  0.00     0.016 C 
BRANCH   3   5
ATOM      5  C   UNL     1      28.948  28.493  28.532  1.00  0.00     0.015 C 
BRANCH   5   6
ATOM      6  C   UNL     1      27.916  29.608  28.766  1.00  0.00     0.028 C 
BRANCH   6   7
ATOM      7  C   UNL     1      27.268  29.487  30.125  1.00  0.00    -0.028 C 
ATOM      8  C   UNL     1      26.012  29.036  30.352  1.00  0.00    -0.070 CG0
ATOM      9  C   UNL     1      25.531  28.968  31.780  1.00  0.00     0.039 C 
ATOM     10  G   UNL     1      25.080  28.590  29.239  1.00  0.00     0.000 G0
ENDBRANCH   6   7
ENDBRANCH   5   6
ENDBRANCH   3   5
ENDBRANCH   1   3
BRANCH   1  11
ATOM     11  C   UNL     1      26.931  26.388  27.133  1.00  0.00     0.087 C 
BRANCH  11  12
ATOM     12  C   UNL     1      26.541  26.462  28.632  1.00  0.00     0.066 C 
BRANCH  12  13
ATOM     13  C   UNL     1      25.189  27.135  28.825  1.00  0.00     0.140 C 
ATOM     14  O   UNL     1      24.168  26.473  28.704  1.00  0.00    -0.299 OA
BRANCH  13  15
ATOM     15  C   UNL     1      25.054  28.587  29.231  1.00  0.00     0.106 CG0
ATOM     16  G   UNL     1      26.012  29.009  30.331  1.00  0.00     0.000 G0
ENDBRANCH  13  15
ENDBRANCH  12  13
BRANCH  12  17
ATOM     17  C   UNL     1      26.581  25.086  29.366  1.00  0.00    -0.006 C 
ATOM     18  C   UNL     1      25.844  23.957  28.626  1.00  0.00     0.008 C 
ATOM     19  C   UNL     1      28.020  24.651  29.685  1.00  0.00     0.008 C 
ENDBRANCH  12  17
ENDBRANCH  11  12
ENDBRANCH   1  11
TORSDOF 1
ENDMDL
MODEL 6
REMARK VINA RESULT:    -0.671      2.184      3.812
REMARK INTER + INTRA:          -0.829
REMARK INTER:                  -2.143
REMARK INTRA:                   1.313
REMARK UNBOUND:                 0.195
REMARK SMILES CC1=CCC[C@H](C)C(=O)C[C@H](C(C)C)C(=O)C1
REMARK SMILES IDX 8 1 9 2 6 3 7 4 5 5 4 6 3 7 2 8 1 9 10 11 11 12 15 13 16 14
REMARK SMILES IDX 17 15 12 17 13 18 14 19
REMARK H PARENT
REMARK Flexibility Score: 70.00
ROOT
ATOM      1  C   UNL     1      25.209  27.782  29.486  1.00  0.00     0.136 C 
ATOM      2  O   UNL     1      24.573  28.665  30.044  1.00  0.00    -0.299 OA
ENDROOT
BRANCH   1   3
ATOM      3  C   UNL     1      24.794  27.323  28.103  1.00  0.00     0.053 C 
ATOM      4  C   UNL     1      23.378  26.742  28.166  1.00  0.00     0.016 C 
BRANCH   3   5
ATOM      5  C   UNL     1      24.854  28.467  27.061  1.00  0.00     0.015 C 
BRANCH   5   6
ATOM      6  C   UNL     1      26.244  28.683  26.439  1.00  0.00     0.028 C 
BRANCH   6   7
ATOM      7  C   UNL     1      26.830  27.387  25.931  1.00  0.00    -0.028 C 
ATOM      8  C   UNL     1      27.974  26.820  26.382  1.00  0.00    -0.070 CG0
ATOM      9  C   UNL     1      28.405  25.512  25.767  1.00  0.00     0.039 C 
ATOM     10  G   UNL     1      28.825  27.435  27.478  1.00  0.00     0.000 G0
ENDBRANCH   6   7
ENDBRANCH   5   6
ENDBRANCH   3   5
ENDBRANCH   1   3
BRANCH   1  11
ATOM     11  C   UNL     1      26.366  27.136  30.217  1.00  0.00     0.087 C 
BRANCH  11  12
ATOM     12  C   UNL     1      27.735  27.776  29.870  1.00  0.00     0.066 C 
BRANCH  12  13
ATOM     13  C   UNL     1      28.502  26.938  28.856  1.00  0.00     0.140 C 
ATOM     14  O   UNL     1      28.816  25.791  29.142  1.00  0.00    -0.299 OA
BRANCH  13  15
ATOM     15  C   UNL     1      28.836  27.444  27.469  1.00  0.00     0.106 CG0
ATOM     16  G   UNL     1      27.986  26.833  26.370  1.00  0.00     0.000 G0
ENDBRANCH  13  15
ENDBRANCH  12  13
BRANCH  12  17
ATOM     17  C   UNL     1      27.640  29.260  29.398  1.00  0.00    -0.006 C 
ATOM     18  C   UNL     1      27.093  30.225  30.465  1.00  0.00     0.008 C 
ATOM     19  C   UNL     1      28.984  29.778  28.864  1.00  0.00     0.008 C 
ENDBRANCH  12  17
ENDBRANCH  11  12
ENDBRANCH   1  11
TORSDOF 1
ENDMDL
MODEL 7
REMARK VINA RESULT:    -0.669     11.978     14.849
REMARK INTER + INTRA:          -0.827
REMARK INTER:                  -2.984
REMARK INTRA:                   2.157
REMARK UNBOUND:                 0.195
REMARK SMILES CC1=CCC[C@H](C)C(=O)C[C@H](C(C)C)C(=O)C1
REMARK SMILES IDX 8 1 9 2 6 3 7 4 5 5 4 6 3 7 2 8 1 9 10 11 11 12 15 13 16 14
REMARK SMILES IDX 17 15 12 17 13 18 14 19
REMARK H PARENT
REMARK Flexibility Score: 70.00
ROOT
ATOM      1  C   UNL     1      26.962  37.009  20.637  1.00  0.00     0.136 C 
ATOM      2  O   UNL     1      27.445  35.989  20.164  1.00  0.00    -0.299 OA
ENDROOT
BRANCH   1   3
ATOM      3  C   UNL     1      27.499  37.553  21.945  1.00  0.00     0.053 C 
ATOM      4  C   UNL     1      27.402  36.468  23.023  1.00  0.00     0.016 C 
BRANCH   3   5
ATOM      5  C   UNL     1      28.961  38.049  21.821  1.00  0.00     0.015 C 
BRANCH   5   6
ATOM      6  C   UNL     1      29.102  39.445  21.188  1.00  0.00     0.028 C 
BRANCH   6   7
ATOM      7  C   UNL     1      28.732  40.535  22.166  1.00  0.00    -0.028 C 
ATOM      8  C   UNL     1      27.700  41.398  22.016  1.00  0.00    -0.070 CG0
ATOM      9  C   UNL     1      27.468  42.419  23.102  1.00  0.00     0.039 C 
ATOM     10  G   UNL     1      26.769  41.374  20.817  1.00  0.00     0.000 G0
ENDBRANCH   6   7
ENDBRANCH   5   6
ENDBRANCH   3   5
ENDBRANCH   1   3
BRANCH   1  11
ATOM     11  C   UNL     1      25.805  37.673  19.923  1.00  0.00     0.087 C 
BRANCH  11  12
ATOM     12  C   UNL     1      26.099  39.142  19.526  1.00  0.00     0.066 C 
BRANCH  12  13
ATOM     13  C   UNL     1      25.956  40.082  20.715  1.00  0.00     0.140 C 
ATOM     14  O   UNL     1      25.222  39.768  21.641  1.00  0.00    -0.299 OA
BRANCH  13  15
ATOM     15  C   UNL     1      26.744  41.369  20.834  1.00  0.00     0.106 CG0
ATOM     16  G   UNL     1      27.701  41.398  22.011  1.00  0.00     0.000 G0
ENDBRANCH  13  15
ENDBRANCH  12  13
BRANCH  12  17
ATOM     17  C   UNL     1      27.479  39.345  18.827  1.00  0.00    -0.006 C 
ATOM     18  C   UNL     1      27.772  38.331  17.707  1.00  0.00     0.008 C 
ATOM     19  C   UNL     1      27.645  40.776  18.293  1.00  0.00     0.008 C 
ENDBRANCH  12  17
ENDBRANCH  11  12
ENDBRANCH   1  11
TORSDOF 1
ENDMDL
MODEL 8
REMARK VINA RESULT:    -0.564      2.056      4.376
REMARK INTER + INTRA:          -0.667
REMARK INTER:                  -1.466
REMARK INTRA:                   0.799
REMARK UNBOUND:                 0.195
REMARK SMILES CC1=CCC[C@H](C)C(=O)C[C@H](C(C)C)C(=O)C1
REMARK SMILES IDX 8 1 9 2 6 3 7 4 5 5 4 6 3 7 2 8 1 9 10 11 11 12 15 13 16 14
REMARK SMILES IDX 17 15 12 17 13 18 14 19
REMARK H PARENT
REMARK Flexibility Score: 70.00
ROOT
ATOM      1  C   UNL     1      24.884  28.258  27.096  1.00  0.00     0.136 C 
ATOM      2  O   UNL     1      24.731  29.225  26.362  1.00  0.00    -0.299 OA
ENDROOT
BRANCH   1   3
ATOM      3  C   UNL     1      23.831  27.937  28.137  1.00  0.00     0.053 C 
ATOM      4  C   UNL     1      23.745  26.419  28.319  1.00  0.00     0.016 C 
BRANCH   3   5
ATOM      5  C   UNL     1      24.120  28.620  29.497  1.00  0.00     0.015 C 
BRANCH   5   6
ATOM      6  C   UNL     1      25.615  28.770  29.824  1.00  0.00     0.028 C 
BRANCH   6   7
ATOM      7  C   UNL     1      26.053  27.778  30.875  1.00  0.00    -0.028 C 
ATOM      8  C   UNL     1      26.891  26.736  30.663  1.00  0.00    -0.070 CG0
ATOM      9  C   UNL     1      27.233  25.852  31.835  1.00  0.00     0.039 C 
ATOM     10  G   UNL     1      27.503  26.432  29.307  1.00  0.00     0.000 G0
ENDBRANCH   6   7
ENDBRANCH   5   6
ENDBRANCH   3   5
ENDBRANCH   1   3
BRANCH   1  11
ATOM     11  C   UNL     1      26.150  27.438  26.977  1.00  0.00     0.087 C 
BRANCH  11  12
ATOM     12  C   UNL     1      27.423  28.225  27.383  1.00  0.00     0.066 C 
BRANCH  12  13
ATOM     13  C   UNL     1      28.105  27.597  28.591  1.00  0.00     0.140 C 
ATOM     14  O   UNL     1      29.125  28.105  29.034  1.00  0.00    -0.299 OA
BRANCH  13  15
ATOM     15  C   UNL     1      27.531  26.400  29.317  1.00  0.00     0.106 CG0
ATOM     16  G   UNL     1      26.891  26.738  30.652  1.00  0.00     0.000 G0
ENDBRANCH  13  15
ENDBRANCH  12  13
BRANCH  12  17
ATOM     17  C   UNL     1      28.441  28.427  26.219  1.00  0.00    -0.006 C 
ATOM     18  C   UNL     1      28.576  27.212  25.283  1.00  0.00     0.008 C 
ATOM     19  C   UNL     1      28.128  29.688  25.398  1.00  0.00     0.008 C 
ENDBRANCH  12  17
ENDBRANCH  11  12
ENDBRANCH   1  11
TORSDOF 1
ENDMDL
MODEL 9
REMARK VINA RESULT:    -0.393      1.965      4.366
REMARK INTER + INTRA:          -0.405
REMARK INTER:                  -1.580
REMARK INTRA:                   1.175
REMARK UNBOUND:                 0.195
REMARK SMILES CC1=CCC[C@H](C)C(=O)C[C@H](C(C)C)C(=O)C1
REMARK SMILES IDX 8 1 9 2 6 3 7 4 5 5 4 6 3 7 2 8 1 9 10 11 11 12 15 13 16 14
REMARK SMILES IDX 17 15 12 17 13 18 14 19
REMARK H PARENT
REMARK Flexibility Score: 70.00
ROOT
ATOM      1  C   UNL     1      25.079  26.185  28.741  1.00  0.00     0.136 C 
ATOM      2  O   UNL     1      25.430  26.352  29.901  1.00  0.00    -0.299 OA
ENDROOT
BRANCH   1   3
ATOM      3  C   UNL     1      24.387  27.312  28.001  1.00  0.00     0.053 C 
ATOM      4  C   UNL     1      23.188  27.796  28.823  1.00  0.00     0.016 C 
BRANCH   3   5
ATOM      5  C   UNL     1      25.342  28.495  27.705  1.00  0.00     0.015 C 
BRANCH   5   6
ATOM      6  C   UNL     1      25.676  28.679  26.215  1.00  0.00     0.028 C 
BRANCH   6   7
ATOM      7  C   UNL     1      27.126  28.369  25.931  1.00  0.00    -0.028 C 
ATOM      8  C   UNL     1      27.630  27.131  25.710  1.00  0.00    -0.070 CG0
ATOM      9  C   UNL     1      29.106  27.008  25.427  1.00  0.00     0.039 C 
ATOM     10  G   UNL     1      26.775  25.877  25.725  1.00  0.00     0.000 G0
ENDBRANCH   6   7
ENDBRANCH   5   6
ENDBRANCH   3   5
ENDBRANCH   1   3
BRANCH   1  11
ATOM     11  C   UNL     1      25.302  24.837  28.093  1.00  0.00     0.087 C 
BRANCH  11  12
ATOM     12  C   UNL     1      26.803  24.465  27.969  1.00  0.00     0.066 C 
BRANCH  12  13
ATOM     13  C   UNL     1      27.332  24.741  26.568  1.00  0.00     0.140 C 
ATOM     14  O   UNL     1      28.187  24.006  26.095  1.00  0.00    -0.299 OA
BRANCH  13  15
ATOM     15  C   UNL     1      26.791  25.857  25.701  1.00  0.00     0.106 CG0
ATOM     16  G   UNL     1      27.641  27.115  25.715  1.00  0.00     0.000 G0
ENDBRANCH  13  15
ENDBRANCH  12  13
BRANCH  12  17
ATOM     17  C   UNL     1      27.712  25.134  29.044  1.00  0.00    -0.006 C 
ATOM     18  C   UNL     1      27.816  24.345  30.361  1.00  0.00     0.008 C 
ATOM     19  C   UNL     1      29.118  25.431  28.500  1.00  0.00     0.008 C 
ENDBRANCH  12  17
ENDBRANCH  11  12
ENDBRANCH   1  11
TORSDOF 1
ENDMDL
