MODEL 1
REMARK VINA RESULT:    -6.800      0.000      0.000
REMARK INTER + INTRA:          -8.228
REMARK INTER:                  -7.993
REMARK INTRA:                  -0.236
REMARK UNBOUND:                -0.236
REMARK SMILES O=c1c(O)c(-c2ccc(O)cc2)oc2cc(O)cc(O)c12
REMARK SMILES IDX 5 1 3 2 2 3 1 4 21 5 19 6 18 7 16 8 15 9 14 10 13 11 6 12
REMARK SMILES IDX 7 13 8 14 9 15 12 16 11 17 10 18 4 20 20 22 17 24
REMARK H PARENT 10 19 4 21 20 23 17 25
REMARK Flexibility Score: inf
ROOT
ATOM      1  C   UNL     1      20.814  49.624  46.056  1.00  0.00     0.180 A 
ATOM      2  C   UNL     1      19.781  50.394  45.494  1.00  0.00     0.208 A 
ATOM      3  C   UNL     1      19.009  49.844  44.457  1.00  0.00     0.238 A 
ATOM      4  O   UNL     1      18.051  50.517  43.995  1.00  0.00    -0.285 OA
ATOM      5  C   UNL     1      19.291  48.540  43.984  1.00  0.00     0.111 A 
ATOM      6  C   UNL     1      18.600  47.901  42.912  1.00  0.00     0.134 A 
ATOM      7  C   UNL     1      18.874  46.560  42.615  1.00  0.00     0.093 A 
ATOM      8  C   UNL     1      19.862  45.857  43.310  1.00  0.00     0.123 A 
ATOM      9  C   UNL     1      20.584  46.492  44.318  1.00  0.00     0.094 A 
ATOM     10  C   UNL     1      20.307  47.816  44.661  1.00  0.00     0.146 A 
ATOM     11  O   UNL     1      21.011  48.381  45.635  1.00  0.00    -0.452 OA
ENDROOT
BRANCH   1  12
ATOM     12  C   UNL     1      21.686  50.144  47.134  1.00  0.00     0.021 A 
ATOM     13  C   UNL     1      21.231  50.240  48.462  1.00  0.00     0.016 A 
ATOM     14  C   UNL     1      22.065  50.758  49.459  1.00  0.00     0.047 A 
ATOM     15  C   UNL     1      23.356  51.196  49.139  1.00  0.00     0.115 A 
ATOM     16  C   UNL     1      22.974  50.606  46.819  1.00  0.00     0.016 A 
ATOM     17  C   UNL     1      23.806  51.122  47.818  1.00  0.00     0.047 A 
BRANCH  15  18
ATOM     18  O   UNL     1      24.195  51.713  50.125  1.00  0.00    -0.508 OA
ATOM     19  H   UNL     1      25.163  51.424  50.199  1.00  0.00     0.293 HD
ENDBRANCH  15  18
ENDBRANCH   1  12
BRANCH   2  20
ATOM     20  O   UNL     1      19.506  51.671  45.991  1.00  0.00    -0.502 OA
ATOM     21  H   UNL     1      18.682  52.195  45.719  1.00  0.00     0.293 HD
ENDBRANCH   2  20
BRANCH   6  22
ATOM     22  O   UNL     1      17.661  48.540  42.097  1.00  0.00    -0.507 OA
ATOM     23  H   UNL     1      16.829  48.104  41.728  1.00  0.00     0.293 HD
ENDBRANCH   6  22
BRANCH   8  24
ATOM     24  O   UNL     1      20.142  44.528  42.997  1.00  0.00    -0.508 OA
ATOM     25  H   UNL     1      20.928  44.041  43.410  1.00  0.00     0.293 HD
ENDBRANCH   8  24
TORSDOF 5
ENDMDL
MODEL 2
REMARK VINA RESULT:    -6.549      2.136      4.117
REMARK INTER + INTRA:          -7.934
REMARK INTER:                  -7.786
REMARK INTRA:                  -0.148
REMARK UNBOUND:                -0.236
REMARK SMILES O=c1c(O)c(-c2ccc(O)cc2)oc2cc(O)cc(O)c12
REMARK SMILES IDX 5 1 3 2 2 3 1 4 21 5 19 6 18 7 16 8 15 9 14 10 13 11 6 12
REMARK SMILES IDX 7 13 8 14 9 15 12 16 11 17 10 18 4 20 20 22 17 24
REMARK H PARENT 10 19 4 21 20 23 17 25
REMARK Flexibility Score: inf
ROOT
ATOM      1  C   UNL     1      19.831  48.253  43.758  1.00  0.00     0.180 A 
ATOM      2  C   UNL     1      20.010  46.956  43.246  1.00  0.00     0.208 A 
ATOM      3  C   UNL     1      19.017  46.407  42.418  1.00  0.00     0.238 A 
ATOM      4  O   UNL     1      19.208  45.267  41.919  1.00  0.00    -0.285 OA
ATOM      5  C   UNL     1      17.850  47.154  42.127  1.00  0.00     0.111 A 
ATOM      6  C   UNL     1      16.763  46.681  41.333  1.00  0.00     0.134 A 
ATOM      7  C   UNL     1      15.719  47.554  41.002  1.00  0.00     0.093 A 
ATOM      8  C   UNL     1      15.692  48.863  41.490  1.00  0.00     0.123 A 
ATOM      9  C   UNL     1      16.720  49.315  42.315  1.00  0.00     0.094 A 
ATOM     10  C   UNL     1      17.792  48.479  42.632  1.00  0.00     0.146 A 
ATOM     11  O   UNL     1      18.757  48.953  43.413  1.00  0.00    -0.452 OA
ENDROOT
BRANCH   1  12
ATOM     12  C   UNL     1      20.820  48.889  44.656  1.00  0.00     0.021 A 
ATOM     13  C   UNL     1      20.509  49.190  45.996  1.00  0.00     0.016 A 
ATOM     14  C   UNL     1      21.453  49.814  46.818  1.00  0.00     0.047 A 
ATOM     15  C   UNL     1      22.712  50.155  46.310  1.00  0.00     0.115 A 
ATOM     16  C   UNL     1      22.079  49.254  44.151  1.00  0.00     0.016 A 
ATOM     17  C   UNL     1      23.021  49.876  44.975  1.00  0.00     0.047 A 
BRANCH  15  18
ATOM     18  O   UNL     1      23.661  50.776  47.121  1.00  0.00    -0.508 OA
ATOM     19  H   UNL     1      24.168  50.261  47.831  1.00  0.00     0.293 HD
ENDBRANCH  15  18
ENDBRANCH   1  12
BRANCH   2  20
ATOM     20  O   UNL     1      21.179  46.245  43.529  1.00  0.00    -0.502 OA
ATOM     21  H   UNL     1      21.501  46.080  44.476  1.00  0.00     0.293 HD
ENDBRANCH   2  20
BRANCH   6  22
ATOM     22  O   UNL     1      16.647  45.367  40.872  1.00  0.00    -0.507 OA
ATOM     23  H   UNL     1      17.366  44.664  40.954  1.00  0.00     0.293 HD
ENDBRANCH   6  22
BRANCH   8  24
ATOM     24  O   UNL     1      14.641  49.719  41.170  1.00  0.00    -0.508 OA
ATOM     25  H   UNL     1      13.806  49.383  40.704  1.00  0.00     0.293 HD
ENDBRANCH   8  24
TORSDOF 5
ENDMDL
MODEL 3
REMARK VINA RESULT:    -6.262      1.444      2.208
REMARK INTER + INTRA:          -7.596
REMARK INTER:                  -7.538
REMARK INTRA:                  -0.058
REMARK UNBOUND:                -0.236
REMARK SMILES O=c1c(O)c(-c2ccc(O)cc2)oc2cc(O)cc(O)c12
REMARK SMILES IDX 5 1 3 2 2 3 1 4 21 5 19 6 18 7 16 8 15 9 14 10 13 11 6 12
REMARK SMILES IDX 7 13 8 14 9 15 12 16 11 17 10 18 4 20 20 22 17 24
REMARK H PARENT 10 19 4 21 20 23 17 25
REMARK Flexibility Score: inf
ROOT
ATOM      1  C   UNL     1      20.021  49.167  44.405  1.00  0.00     0.180 A 
ATOM      2  C   UNL     1      18.926  49.963  44.025  1.00  0.00     0.208 A 
ATOM      3  C   UNL     1      17.977  49.434  43.134  1.00  0.00     0.238 A 
ATOM      4  O   UNL     1      16.971  50.131  42.840  1.00  0.00    -0.285 OA
ATOM      5  C   UNL     1      18.144  48.125  42.622  1.00  0.00     0.111 A 
ATOM      6  C   UNL     1      17.267  47.505  41.683  1.00  0.00     0.134 A 
ATOM      7  C   UNL     1      17.455  46.159  41.346  1.00  0.00     0.093 A 
ATOM      8  C   UNL     1      18.530  45.431  41.864  1.00  0.00     0.123 A 
ATOM      9  C   UNL     1      19.426  46.045  42.736  1.00  0.00     0.094 A 
ATOM     10  C   UNL     1      19.242  47.376  43.118  1.00  0.00     0.146 A 
ATOM     11  O   UNL     1      20.114  47.920  43.959  1.00  0.00    -0.452 OA
ENDROOT
BRANCH   1  12
ATOM     12  C   UNL     1      21.074  49.663  45.319  1.00  0.00     0.021 A 
ATOM     13  C   UNL     1      22.426  49.701  44.929  1.00  0.00     0.016 A 
ATOM     14  C   UNL     1      23.407  50.150  45.820  1.00  0.00     0.047 A 
ATOM     15  C   UNL     1      23.051  50.554  47.113  1.00  0.00     0.115 A 
ATOM     16  C   UNL     1      20.731  50.050  46.625  1.00  0.00     0.016 A 
ATOM     17  C   UNL     1      21.712  50.500  47.513  1.00  0.00     0.047 A 
BRANCH  15  18
ATOM     18  O   UNL     1      24.019  51.005  48.008  1.00  0.00    -0.508 OA
ATOM     19  H   UNL     1      24.510  50.366  48.622  1.00  0.00     0.293 HD
ENDBRANCH  15  18
ENDBRANCH   1  12
BRANCH   2  20
ATOM     20  O   UNL     1      18.769  51.244  44.559  1.00  0.00    -0.502 OA
ATOM     21  H   UNL     1      18.117  51.918  44.175  1.00  0.00     0.293 HD
ENDBRANCH   2  20
BRANCH   6  22
ATOM     22  O   UNL     1      16.219  48.168  41.038  1.00  0.00    -0.507 OA
ATOM     23  H   UNL     1      15.252  48.128  41.322  1.00  0.00     0.293 HD
ENDBRANCH   6  22
BRANCH   8  24
ATOM     24  O   UNL     1      18.721  44.097  41.511  1.00  0.00    -0.508 OA
ATOM     25  H   UNL     1      19.084  43.836  40.601  1.00  0.00     0.293 HD
ENDBRANCH   8  24
TORSDOF 5
ENDMDL
MODEL 4
REMARK VINA RESULT:    -6.162      4.394      7.238
REMARK INTER + INTRA:          -7.478
REMARK INTER:                  -7.230
REMARK INTRA:                  -0.248
REMARK UNBOUND:                -0.236
REMARK SMILES O=c1c(O)c(-c2ccc(O)cc2)oc2cc(O)cc(O)c12
REMARK SMILES IDX 5 1 3 2 2 3 1 4 21 5 19 6 18 7 16 8 15 9 14 10 13 11 6 12
REMARK SMILES IDX 7 13 8 14 9 15 12 16 11 17 10 18 4 20 20 22 17 24
REMARK H PARENT 10 19 4 21 20 23 17 25
REMARK Flexibility Score: inf
ROOT
ATOM      1  C   UNL     1      18.043  45.834  40.918  1.00  0.00     0.180 A 
ATOM      2  C   UNL     1      16.796  45.189  40.999  1.00  0.00     0.208 A 
ATOM      3  C   UNL     1      16.185  44.737  39.818  1.00  0.00     0.238 A 
ATOM      4  O   UNL     1      15.096  44.111  39.902  1.00  0.00    -0.285 OA
ATOM      5  C   UNL     1      16.819  44.950  38.570  1.00  0.00     0.111 A 
ATOM      6  C   UNL     1      16.272  44.570  37.308  1.00  0.00     0.134 A 
ATOM      7  C   UNL     1      17.045  44.712  36.150  1.00  0.00     0.093 A 
ATOM      8  C   UNL     1      18.321  45.281  36.200  1.00  0.00     0.123 A 
ATOM      9  C   UNL     1      18.839  45.710  37.420  1.00  0.00     0.094 A 
ATOM     10  C   UNL     1      18.106  45.547  38.597  1.00  0.00     0.146 A 
ATOM     11  O   UNL     1      18.642  45.960  39.740  1.00  0.00    -0.452 OA
ENDROOT
BRANCH   1  12
ATOM     12  C   UNL     1      18.736  46.359  42.115  1.00  0.00     0.021 A 
ATOM     13  C   UNL     1      18.313  47.544  42.747  1.00  0.00     0.016 A 
ATOM     14  C   UNL     1      19.000  48.034  43.863  1.00  0.00     0.047 A 
ATOM     15  C   UNL     1      20.124  47.356  44.351  1.00  0.00     0.115 A 
ATOM     16  C   UNL     1      19.877  45.698  42.600  1.00  0.00     0.016 A 
ATOM     17  C   UNL     1      20.561  46.190  43.716  1.00  0.00     0.047 A 
BRANCH  15  18
ATOM     18  O   UNL     1      20.815  47.835  45.463  1.00  0.00    -0.508 OA
ATOM     19  H   UNL     1      20.395  47.842  46.384  1.00  0.00     0.293 HD
ENDBRANCH  15  18
ENDBRANCH   1  12
BRANCH   2  20
ATOM     20  O   UNL     1      16.198  44.969  42.243  1.00  0.00    -0.502 OA
ATOM     21  H   UNL     1      16.631  45.256  43.113  1.00  0.00     0.293 HD
ENDBRANCH   2  20
BRANCH   6  22
ATOM     22  O   UNL     1      14.975  44.078  37.136  1.00  0.00    -0.507 OA
ATOM     23  H   UNL     1      14.279  44.489  36.533  1.00  0.00     0.293 HD
ENDBRANCH   6  22
BRANCH   8  24
ATOM     24  O   UNL     1      19.077  45.434  35.040  1.00  0.00    -0.508 OA
ATOM     25  H   UNL     1      18.743  45.987  34.259  1.00  0.00     0.293 HD
ENDBRANCH   8  24
TORSDOF 5
ENDMDL
MODEL 5
REMARK VINA RESULT:    -6.060      1.587      2.003
REMARK INTER + INTRA:          -7.359
REMARK INTER:                  -7.072
REMARK INTRA:                  -0.287
REMARK UNBOUND:                -0.236
REMARK SMILES O=c1c(O)c(-c2ccc(O)cc2)oc2cc(O)cc(O)c12
REMARK SMILES IDX 5 1 3 2 2 3 1 4 21 5 19 6 18 7 16 8 15 9 14 10 13 11 6 12
REMARK SMILES IDX 7 13 8 14 9 15 12 16 11 17 10 18 4 20 20 22 17 24
REMARK H PARENT 10 19 4 21 20 23 17 25
REMARK Flexibility Score: inf
ROOT
ATOM      1  C   UNL     1      19.117  48.997  45.475  1.00  0.00     0.180 A 
ATOM      2  C   UNL     1      18.003  49.758  45.082  1.00  0.00     0.208 A 
ATOM      3  C   UNL     1      17.318  49.407  43.907  1.00  0.00     0.238 A 
ATOM      4  O   UNL     1      16.289  50.059  43.590  1.00  0.00    -0.285 OA
ATOM      5  C   UNL     1      17.766  48.311  43.131  1.00  0.00     0.111 A 
ATOM      6  C   UNL     1      17.173  47.893  41.902  1.00  0.00     0.134 A 
ATOM      7  C   UNL     1      17.616  46.716  41.288  1.00  0.00     0.093 A 
ATOM      8  C   UNL     1      18.676  45.978  41.823  1.00  0.00     0.123 A 
ATOM      9  C   UNL     1      19.301  46.412  42.990  1.00  0.00     0.094 A 
ATOM     10  C   UNL     1      18.856  47.562  43.646  1.00  0.00     0.146 A 
ATOM     11  O   UNL     1      19.473  47.935  44.761  1.00  0.00    -0.452 OA
ENDROOT
BRANCH   1  12
ATOM     12  C   UNL     1      19.904  49.320  46.686  1.00  0.00     0.021 A 
ATOM     13  C   UNL     1      19.541  48.820  47.951  1.00  0.00     0.016 A 
ATOM     14  C   UNL     1      20.286  49.160  49.086  1.00  0.00     0.047 A 
ATOM     15  C   UNL     1      21.392  50.011  48.972  1.00  0.00     0.115 A 
ATOM     16  C   UNL     1      21.002  50.190  46.586  1.00  0.00     0.016 A 
ATOM     17  C   UNL     1      21.746  50.527  47.722  1.00  0.00     0.047 A 
BRANCH  15  18
ATOM     18  O   UNL     1      22.142  50.355  50.095  1.00  0.00    -0.508 OA
ATOM     19  H   UNL     1      22.179  49.755  50.911  1.00  0.00     0.293 HD
ENDBRANCH  15  18
ENDBRANCH   1  12
BRANCH   2  20
ATOM     20  O   UNL     1      17.565  50.823  45.875  1.00  0.00    -0.502 OA
ATOM     21  H   UNL     1      16.913  50.699  46.641  1.00  0.00     0.293 HD
ENDBRANCH   2  20
BRANCH   6  22
ATOM     22  O   UNL     1      16.172  48.605  41.237  1.00  0.00    -0.507 OA
ATOM     23  H   UNL     1      16.193  48.849  40.258  1.00  0.00     0.293 HD
ENDBRANCH   6  22
BRANCH   8  24
ATOM     24  O   UNL     1      19.123  44.818  41.195  1.00  0.00    -0.508 OA
ATOM     25  H   UNL     1      18.916  43.899  41.570  1.00  0.00     0.293 HD
ENDBRANCH   8  24
TORSDOF 5
ENDMDL
MODEL 6
REMARK VINA RESULT:    -6.047      4.104      8.545
REMARK INTER + INTRA:          -7.343
REMARK INTER:                  -7.097
REMARK INTRA:                  -0.246
REMARK UNBOUND:                -0.236
REMARK SMILES O=c1c(O)c(-c2ccc(O)cc2)oc2cc(O)cc(O)c12
REMARK SMILES IDX 5 1 3 2 2 3 1 4 21 5 19 6 18 7 16 8 15 9 14 10 13 11 6 12
REMARK SMILES IDX 7 13 8 14 9 15 12 16 11 17 10 18 4 20 20 22 17 24
REMARK H PARENT 10 19 4 21 20 23 17 25
REMARK Flexibility Score: inf
ROOT
ATOM      1  C   UNL     1      18.018  46.141  40.657  1.00  0.00     0.180 A 
ATOM      2  C   UNL     1      17.220  47.096  41.311  1.00  0.00     0.208 A 
ATOM      3  C   UNL     1      17.524  47.443  42.638  1.00  0.00     0.238 A 
ATOM      4  O   UNL     1      16.839  48.338  43.200  1.00  0.00    -0.285 OA
ATOM      5  C   UNL     1      18.609  46.819  43.299  1.00  0.00     0.111 A 
ATOM      6  C   UNL     1      18.980  47.064  44.655  1.00  0.00     0.134 A 
ATOM      7  C   UNL     1      20.150  46.490  45.165  1.00  0.00     0.093 A 
ATOM      8  C   UNL     1      20.926  45.626  44.388  1.00  0.00     0.123 A 
ATOM      9  C   UNL     1      20.539  45.333  43.082  1.00  0.00     0.094 A 
ATOM     10  C   UNL     1      19.397  45.920  42.534  1.00  0.00     0.146 A 
ATOM     11  O   UNL     1      19.069  45.622  41.282  1.00  0.00    -0.452 OA
ENDROOT
BRANCH   1  12
ATOM     12  C   UNL     1      17.747  45.706  39.269  1.00  0.00     0.021 A 
ATOM     13  C   UNL     1      16.681  44.837  38.967  1.00  0.00     0.016 A 
ATOM     14  C   UNL     1      16.459  44.420  37.651  1.00  0.00     0.047 A 
ATOM     15  C   UNL     1      17.306  44.854  36.623  1.00  0.00     0.115 A 
ATOM     16  C   UNL     1      18.603  46.118  38.234  1.00  0.00     0.016 A 
ATOM     17  C   UNL     1      18.378  45.701  36.919  1.00  0.00     0.047 A 
BRANCH  15  18
ATOM     18  O   UNL     1      17.094  44.446  35.307  1.00  0.00    -0.508 OA
ATOM     19  H   UNL     1      17.832  44.487  34.615  1.00  0.00     0.293 HD
ENDBRANCH  15  18
ENDBRANCH   1  12
BRANCH   2  20
ATOM     20  O   UNL     1      16.167  47.715  40.632  1.00  0.00    -0.502 OA
ATOM     21  H   UNL     1      16.158  48.708  40.432  1.00  0.00     0.293 HD
ENDBRANCH   2  20
BRANCH   6  22
ATOM     22  O   UNL     1      18.227  47.837  45.543  1.00  0.00    -0.507 OA
ATOM     23  H   UNL     1      18.254  47.750  46.547  1.00  0.00     0.293 HD
ENDBRANCH   6  22
BRANCH   8  24
ATOM     24  O   UNL     1      22.080  45.044  44.909  1.00  0.00    -0.508 OA
ATOM     25  H   UNL     1      22.061  44.134  45.353  1.00  0.00     0.293 HD
ENDBRANCH   8  24
TORSDOF 5
ENDMDL
MODEL 7
REMARK VINA RESULT:    -5.993      2.730      8.116
REMARK INTER + INTRA:          -7.280
REMARK INTER:                  -7.051
REMARK INTRA:                  -0.229
REMARK UNBOUND:                -0.236
REMARK SMILES O=c1c(O)c(-c2ccc(O)cc2)oc2cc(O)cc(O)c12
REMARK SMILES IDX 5 1 3 2 2 3 1 4 21 5 19 6 18 7 16 8 15 9 14 10 13 11 6 12
REMARK SMILES IDX 7 13 8 14 9 15 12 16 11 17 10 18 4 20 20 22 17 24
REMARK H PARENT 10 19 4 21 20 23 17 25
REMARK Flexibility Score: inf
ROOT
ATOM      1  C   UNL     1      18.515  46.675  42.358  1.00  0.00     0.180 A 
ATOM      2  C   UNL     1      19.589  46.211  43.139  1.00  0.00     0.208 A 
ATOM      3  C   UNL     1      20.128  47.055  44.125  1.00  0.00     0.238 A 
ATOM      4  O   UNL     1      21.052  46.615  44.857  1.00  0.00    -0.285 OA
ATOM      5  C   UNL     1      19.599  48.355  44.305  1.00  0.00     0.111 A 
ATOM      6  C   UNL     1      20.094  49.308  45.245  1.00  0.00     0.134 A 
ATOM      7  C   UNL     1      19.411  50.515  45.430  1.00  0.00     0.093 A 
ATOM      8  C   UNL     1      18.288  50.832  44.661  1.00  0.00     0.123 A 
ATOM      9  C   UNL     1      17.832  49.934  43.699  1.00  0.00     0.094 A 
ATOM     10  C   UNL     1      18.472  48.706  43.518  1.00  0.00     0.146 A 
ATOM     11  O   UNL     1      17.999  47.874  42.597  1.00  0.00    -0.452 OA
ENDROOT
BRANCH   1  12
ATOM     12  C   UNL     1      17.911  45.854  41.285  1.00  0.00     0.021 A 
ATOM     13  C   UNL     1      18.584  45.622  40.071  1.00  0.00     0.016 A 
ATOM     14  C   UNL     1      17.982  44.864  39.062  1.00  0.00     0.047 A 
ATOM     15  C   UNL     1      16.696  44.340  39.248  1.00  0.00     0.115 A 
ATOM     16  C   UNL     1      16.613  45.342  41.453  1.00  0.00     0.016 A 
ATOM     17  C   UNL     1      16.014  44.583  40.443  1.00  0.00     0.047 A 
BRANCH  15  18
ATOM     18  O   UNL     1      16.087  43.582  38.249  1.00  0.00    -0.508 OA
ATOM     19  H   UNL     1      16.258  43.765  37.268  1.00  0.00     0.293 HD
ENDBRANCH  15  18
ENDBRANCH   1  12
BRANCH   2  20
ATOM     20  O   UNL     1      20.081  44.916  42.959  1.00  0.00    -0.502 OA
ATOM     21  H   UNL     1      20.233  44.515  42.041  1.00  0.00     0.293 HD
ENDBRANCH   2  20
BRANCH   6  22
ATOM     22  O   UNL     1      21.258  49.129  45.998  1.00  0.00    -0.507 OA
ATOM     23  H   UNL     1      21.611  48.236  46.308  1.00  0.00     0.293 HD
ENDBRANCH   6  22
BRANCH   8  24
ATOM     24  O   UNL     1      17.623  52.044  44.839  1.00  0.00    -0.508 OA
ATOM     25  H   UNL     1      18.042  52.807  45.358  1.00  0.00     0.293 HD
ENDBRANCH   8  24
TORSDOF 5
ENDMDL
MODEL 8
REMARK VINA RESULT:    -5.989      2.095      3.328
REMARK INTER + INTRA:          -7.275
REMARK INTER:                  -7.027
REMARK INTRA:                  -0.248
REMARK UNBOUND:                -0.236
REMARK SMILES O=c1c(O)c(-c2ccc(O)cc2)oc2cc(O)cc(O)c12
REMARK SMILES IDX 5 1 3 2 2 3 1 4 21 5 19 6 18 7 16 8 15 9 14 10 13 11 6 12
REMARK SMILES IDX 7 13 8 14 9 15 12 16 11 17 10 18 4 20 20 22 17 24
REMARK H PARENT 10 19 4 21 20 23 17 25
REMARK Flexibility Score: inf
ROOT
ATOM      1  C   UNL     1      19.677  49.376  45.417  1.00  0.00     0.180 A 
ATOM      2  C   UNL     1      18.956  48.236  45.812  1.00  0.00     0.208 A 
ATOM      3  C   UNL     1      17.821  47.859  45.075  1.00  0.00     0.238 A 
ATOM      4  O   UNL     1      17.211  46.807  45.400  1.00  0.00    -0.285 OA
ATOM      5  C   UNL     1      17.413  48.635  43.964  1.00  0.00     0.111 A 
ATOM      6  C   UNL     1      16.256  48.369  43.171  1.00  0.00     0.134 A 
ATOM      7  C   UNL     1      16.022  49.126  42.016  1.00  0.00     0.093 A 
ATOM      8  C   UNL     1      16.867  50.182  41.663  1.00  0.00     0.123 A 
ATOM      9  C   UNL     1      17.965  50.487  42.465  1.00  0.00     0.094 A 
ATOM     10  C   UNL     1      18.245  49.727  43.602  1.00  0.00     0.146 A 
ATOM     11  O   UNL     1      19.307  50.045  44.332  1.00  0.00    -0.452 OA
ENDROOT
BRANCH   1  12
ATOM     12  C   UNL     1      20.868  49.849  46.158  1.00  0.00     0.021 A 
ATOM     13  C   UNL     1      20.747  50.517  47.392  1.00  0.00     0.016 A 
ATOM     14  C   UNL     1      21.886  50.977  48.061  1.00  0.00     0.047 A 
ATOM     15  C   UNL     1      23.156  50.788  47.501  1.00  0.00     0.115 A 
ATOM     16  C   UNL     1      22.144  49.684  45.595  1.00  0.00     0.016 A 
ATOM     17  C   UNL     1      23.281  50.144  46.267  1.00  0.00     0.047 A 
BRANCH  15  18
ATOM     18  O   UNL     1      24.297  51.241  48.160  1.00  0.00    -0.508 OA
ATOM     19  H   UNL     1      24.248  51.966  48.866  1.00  0.00     0.293 HD
ENDBRANCH  15  18
ENDBRANCH   1  12
BRANCH   2  20
ATOM     20  O   UNL     1      19.389  47.471  46.899  1.00  0.00    -0.502 OA
ATOM     21  H   UNL     1      20.174  47.745  47.478  1.00  0.00     0.293 HD
ENDBRANCH   2  20
BRANCH   6  22
ATOM     22  O   UNL     1      15.301  47.399  43.485  1.00  0.00    -0.507 OA
ATOM     23  H   UNL     1      15.278  46.872  44.345  1.00  0.00     0.293 HD
ENDBRANCH   6  22
BRANCH   8  24
ATOM     24  O   UNL     1      16.617  50.941  40.522  1.00  0.00    -0.508 OA
ATOM     25  H   UNL     1      15.672  51.160  40.228  1.00  0.00     0.293 HD
ENDBRANCH   8  24
TORSDOF 5
ENDMDL
MODEL 9
REMARK VINA RESULT:    -5.956      3.285      6.445
REMARK INTER + INTRA:          -7.236
REMARK INTER:                  -6.975
REMARK INTRA:                  -0.261
REMARK UNBOUND:                -0.236
REMARK SMILES O=c1c(O)c(-c2ccc(O)cc2)oc2cc(O)cc(O)c12
REMARK SMILES IDX 5 1 3 2 2 3 1 4 21 5 19 6 18 7 16 8 15 9 14 10 13 11 6 12
REMARK SMILES IDX 7 13 8 14 9 15 12 16 11 17 10 18 4 20 20 22 17 24
REMARK H PARENT 10 19 4 21 20 23 17 25
REMARK Flexibility Score: inf
ROOT
ATOM      1  C   UNL     1      16.988  48.798  44.728  1.00  0.00     0.180 A 
ATOM      2  C   UNL     1      17.694  49.903  45.234  1.00  0.00     0.208 A 
ATOM      3  C   UNL     1      19.094  49.833  45.324  1.00  0.00     0.238 A 
ATOM      4  O   UNL     1      19.725  50.846  45.727  1.00  0.00    -0.285 OA
ATOM      5  C   UNL     1      19.769  48.655  44.921  1.00  0.00     0.111 A 
ATOM      6  C   UNL     1      21.180  48.461  45.007  1.00  0.00     0.134 A 
ATOM      7  C   UNL     1      21.752  47.307  44.458  1.00  0.00     0.093 A 
ATOM      8  C   UNL     1      20.956  46.310  43.886  1.00  0.00     0.123 A 
ATOM      9  C   UNL     1      19.572  46.464  43.853  1.00  0.00     0.094 A 
ATOM     10  C   UNL     1      18.976  47.621  44.359  1.00  0.00     0.146 A 
ATOM     11  O   UNL     1      17.654  47.733  44.298  1.00  0.00    -0.452 OA
ENDROOT
BRANCH   1  12
ATOM     12  C   UNL     1      15.512  48.786  44.626  1.00  0.00     0.021 A 
ATOM     13  C   UNL     1      14.716  48.115  45.574  1.00  0.00     0.016 A 
ATOM     14  C   UNL     1      13.324  48.097  45.443  1.00  0.00     0.047 A 
ATOM     15  C   UNL     1      12.711  48.738  44.359  1.00  0.00     0.115 A 
ATOM     16  C   UNL     1      14.888  49.407  43.531  1.00  0.00     0.016 A 
ATOM     17  C   UNL     1      13.496  49.389  43.403  1.00  0.00     0.047 A 
BRANCH  15  18
ATOM     18  O   UNL     1      11.324  48.728  44.219  1.00  0.00    -0.508 OA
ATOM     19  H   UNL     1      10.730  49.309  44.798  1.00  0.00     0.293 HD
ENDBRANCH  15  18
ENDBRANCH   1  12
BRANCH   2  20
ATOM     20  O   UNL     1      17.010  51.064  45.605  1.00  0.00    -0.502 OA
ATOM     21  H   UNL     1      17.091  51.471  46.530  1.00  0.00     0.293 HD
ENDBRANCH   2  20
BRANCH   6  22
ATOM     22  O   UNL     1      22.054  49.351  45.638  1.00  0.00    -0.507 OA
ATOM     23  H   UNL     1      22.904  49.084  46.110  1.00  0.00     0.293 HD
ENDBRANCH   6  22
BRANCH   8  24
ATOM     24  O   UNL     1      21.532  45.157  43.358  1.00  0.00    -0.508 OA
ATOM     25  H   UNL     1      20.987  44.487  42.828  1.00  0.00     0.293 HD
ENDBRANCH   8  24
TORSDOF 5
ENDMDL
