MODEL 1
REMARK VINA RESULT:    -4.234      0.000      0.000
REMARK INTER + INTRA:          -4.900
REMARK INTER:                  -4.853
REMARK INTRA:                  -0.047
REMARK UNBOUND:                -0.047
REMARK SMILES O=C([O-])c1cc(O)c(O)c(O)c1
REMARK SMILES IDX 4 1 5 2 12 3 6 4 10 5 8 6 2 7 1 8 3 9 7 10 11 12 9 14
REMARK H PARENT 7 11 11 13 9 15
REMARK Flexibility Score: inf
ROOT
ATOM      1  C   UNL     1      42.876  20.465  -3.664  1.00  0.00     0.005 A 
ATOM      2  C   UNL     1      43.158  19.109  -3.425  1.00  0.00     0.060 A 
ATOM      3  C   UNL     1      42.227  21.213  -2.667  1.00  0.00     0.060 A 
ATOM      4  C   UNL     1      42.798  18.510  -2.211  1.00  0.00     0.162 A 
ATOM      5  C   UNL     1      41.865  20.617  -1.449  1.00  0.00     0.162 A 
ATOM      6  C   UNL     1      42.151  19.262  -1.222  1.00  0.00     0.200 A 
ENDROOT
BRANCH   1   7
ATOM      7  C   UNL     1      43.259  21.093  -4.948  1.00  0.00     0.072 C 
ATOM      8  O   UNL     1      44.459  21.089  -5.330  1.00  0.00    -0.545 OA
ATOM      9  O   UNL     1      42.298  21.695  -5.752  1.00  0.00    -0.545 OA
ENDBRANCH   1   7
BRANCH   4  10
ATOM     10  O   UNL     1      43.079  17.164  -1.980  1.00  0.00    -0.504 OA
ATOM     11  H   UNL     1      42.814  16.706  -1.115  1.00  0.00     0.293 HD
ENDBRANCH   4  10
BRANCH   5  12
ATOM     12  O   UNL     1      41.221  21.368  -0.467  1.00  0.00    -0.504 OA
ATOM     13  H   UNL     1      41.654  22.187  -0.056  1.00  0.00     0.293 HD
ENDBRANCH   5  12
BRANCH   6  14
ATOM     14  O   UNL     1      41.800  18.647  -0.019  1.00  0.00    -0.502 OA
ATOM     15  H   UNL     1      42.035  19.048   0.881  1.00  0.00     0.293 HD
ENDBRANCH   6  14
TORSDOF 4
ENDMDL
MODEL 2
REMARK VINA RESULT:    -4.230      0.038      2.421
REMARK INTER + INTRA:          -4.896
REMARK INTER:                  -4.849
REMARK INTRA:                  -0.046
REMARK UNBOUND:                -0.047
REMARK SMILES O=C([O-])c1cc(O)c(O)c(O)c1
REMARK SMILES IDX 4 1 5 2 12 3 6 4 10 5 8 6 2 7 1 8 3 9 7 10 11 12 9 14
REMARK H PARENT 7 11 11 13 9 15
REMARK Flexibility Score: inf
ROOT
ATOM      1  C   UNL     1      42.889  20.438  -3.662  1.00  0.00     0.005 A 
ATOM      2  C   UNL     1      42.257  21.189  -2.655  1.00  0.00     0.060 A 
ATOM      3  C   UNL     1      43.159  19.079  -3.431  1.00  0.00     0.060 A 
ATOM      4  C   UNL     1      41.902  20.592  -1.439  1.00  0.00     0.162 A 
ATOM      5  C   UNL     1      42.805  18.477  -2.214  1.00  0.00     0.162 A 
ATOM      6  C   UNL     1      42.175  19.236  -1.216  1.00  0.00     0.200 A 
ENDROOT
BRANCH   1   7
ATOM      7  C   UNL     1      43.261  21.075  -4.945  1.00  0.00     0.072 C 
ATOM      8  O   UNL     1      44.462  21.103  -5.321  1.00  0.00    -0.545 OA
ATOM      9  O   UNL     1      42.288  21.650  -5.755  1.00  0.00    -0.545 OA
ENDBRANCH   1   7
BRANCH   4  10
ATOM     10  O   UNL     1      41.276  21.341  -0.443  1.00  0.00    -0.504 OA
ATOM     11  H   UNL     1      41.801  21.762   0.315  1.00  0.00     0.293 HD
ENDBRANCH   4  10
BRANCH   5  12
ATOM     12  O   UNL     1      43.079  17.127  -1.996  1.00  0.00    -0.504 OA
ATOM     13  H   UNL     1      43.634  16.819  -1.206  1.00  0.00     0.293 HD
ENDBRANCH   5  12
BRANCH   6  14
ATOM     14  O   UNL     1      41.814  18.660   0.003  1.00  0.00    -0.502 OA
ATOM     15  H   UNL     1      40.861  18.385   0.207  1.00  0.00     0.293 HD
ENDBRANCH   6  14
TORSDOF 4
ENDMDL
MODEL 3
REMARK VINA RESULT:    -4.049      2.019      3.765
REMARK INTER + INTRA:          -4.688
REMARK INTER:                  -4.639
REMARK INTRA:                  -0.049
REMARK UNBOUND:                -0.047
REMARK SMILES O=C([O-])c1cc(O)c(O)c(O)c1
REMARK SMILES IDX 4 1 5 2 12 3 6 4 10 5 8 6 2 7 1 8 3 9 7 10 11 12 9 14
REMARK H PARENT 7 11 11 13 9 15
REMARK Flexibility Score: inf
ROOT
ATOM      1  C   UNL     1      42.412  19.181  -2.016  1.00  0.00     0.005 A 
ATOM      2  C   UNL     1      41.600  18.198  -1.424  1.00  0.00     0.060 A 
ATOM      3  C   UNL     1      43.526  18.782  -2.773  1.00  0.00     0.060 A 
ATOM      4  C   UNL     1      41.897  16.838  -1.587  1.00  0.00     0.162 A 
ATOM      5  C   UNL     1      43.827  17.422  -2.938  1.00  0.00     0.162 A 
ATOM      6  C   UNL     1      43.010  16.448  -2.342  1.00  0.00     0.200 A 
ENDROOT
BRANCH   1   7
ATOM      7  C   UNL     1      42.093  20.616  -1.841  1.00  0.00     0.072 C 
ATOM      8  O   UNL     1      42.228  21.424  -2.798  1.00  0.00    -0.545 OA
ATOM      9  O   UNL     1      41.640  21.094  -0.616  1.00  0.00    -0.545 OA
ENDBRANCH   1   7
BRANCH   4  10
ATOM     10  O   UNL     1      41.089  15.867  -0.997  1.00  0.00    -0.504 OA
ATOM     11  H   UNL     1      41.394  14.905  -0.908  1.00  0.00     0.293 HD
ENDBRANCH   4  10
BRANCH   5  12
ATOM     12  O   UNL     1      44.935  17.037  -3.691  1.00  0.00    -0.504 OA
ATOM     13  H   UNL     1      44.885  16.940  -4.699  1.00  0.00     0.293 HD
ENDBRANCH   5  12
BRANCH   6  14
ATOM     14  O   UNL     1      43.289  15.089  -2.492  1.00  0.00    -0.502 OA
ATOM     15  H   UNL     1      42.806  14.511  -3.170  1.00  0.00     0.293 HD
ENDBRANCH   6  14
TORSDOF 4
ENDMDL
MODEL 4
REMARK VINA RESULT:    -4.039      2.005      3.544
REMARK INTER + INTRA:          -4.676
REMARK INTER:                  -4.627
REMARK INTRA:                  -0.049
REMARK UNBOUND:                -0.047
REMARK SMILES O=C([O-])c1cc(O)c(O)c(O)c1
REMARK SMILES IDX 4 1 5 2 12 3 6 4 10 5 8 6 2 7 1 8 3 9 7 10 11 12 9 14
REMARK H PARENT 7 11 11 13 9 15
REMARK Flexibility Score: inf
ROOT
ATOM      1  C   UNL     1      42.444  19.169  -2.039  1.00  0.00     0.005 A 
ATOM      2  C   UNL     1      43.566  18.768  -2.787  1.00  0.00     0.060 A 
ATOM      3  C   UNL     1      41.632  18.187  -1.448  1.00  0.00     0.060 A 
ATOM      4  C   UNL     1      43.870  17.410  -2.941  1.00  0.00     0.162 A 
ATOM      5  C   UNL     1      41.933  16.825  -1.600  1.00  0.00     0.162 A 
ATOM      6  C   UNL     1      43.055  16.436  -2.349  1.00  0.00     0.200 A 
ENDROOT
BRANCH   1   7
ATOM      7  C   UNL     1      42.128  20.606  -1.880  1.00  0.00     0.072 C 
ATOM      8  O   UNL     1      42.285  21.407  -2.838  1.00  0.00    -0.545 OA
ATOM      9  O   UNL     1      41.652  21.092  -0.667  1.00  0.00    -0.545 OA
ENDBRANCH   1   7
BRANCH   4  10
ATOM     10  O   UNL     1      44.983  17.018  -3.684  1.00  0.00    -0.504 OA
ATOM     11  H   UNL     1      45.169  17.400  -4.604  1.00  0.00     0.293 HD
ENDBRANCH   4  10
BRANCH   5  12
ATOM     12  O   UNL     1      41.120  15.859  -1.010  1.00  0.00    -0.504 OA
ATOM     13  H   UNL     1      41.358  15.437  -0.119  1.00  0.00     0.293 HD
ENDBRANCH   5  12
BRANCH   6  14
ATOM     14  O   UNL     1      43.375  15.088  -2.514  1.00  0.00    -0.502 OA
ATOM     15  H   UNL     1      44.215  14.788  -2.995  1.00  0.00     0.293 HD
ENDBRANCH   6  14
TORSDOF 4
ENDMDL
MODEL 5
REMARK VINA RESULT:    -3.869      7.969      9.401
REMARK INTER + INTRA:          -4.481
REMARK INTER:                  -4.429
REMARK INTRA:                  -0.052
REMARK UNBOUND:                -0.047
REMARK SMILES O=C([O-])c1cc(O)c(O)c(O)c1
REMARK SMILES IDX 4 1 5 2 12 3 6 4 10 5 8 6 2 7 1 8 3 9 7 10 11 12 9 14
REMARK H PARENT 7 11 11 13 9 15
REMARK Flexibility Score: inf
ROOT
ATOM      1  C   UNL     1      50.639  15.076  -4.888  1.00  0.00     0.005 A 
ATOM      2  C   UNL     1      49.647  16.067  -4.784  1.00  0.00     0.060 A 
ATOM      3  C   UNL     1      50.452  13.851  -4.226  1.00  0.00     0.060 A 
ATOM      4  C   UNL     1      48.489  15.838  -4.030  1.00  0.00     0.162 A 
ATOM      5  C   UNL     1      49.293  13.617  -3.470  1.00  0.00     0.162 A 
ATOM      6  C   UNL     1      48.309  14.614  -3.372  1.00  0.00     0.200 A 
ENDROOT
BRANCH   1   7
ATOM      7  C   UNL     1      51.861  15.323  -5.686  1.00  0.00     0.072 C 
ATOM      8  O   UNL     1      52.202  16.497  -5.988  1.00  0.00    -0.545 OA
ATOM      9  O   UNL     1      52.650  14.262  -6.113  1.00  0.00    -0.545 OA
ENDBRANCH   1   7
BRANCH   4  10
ATOM     10  O   UNL     1      47.509  16.824  -3.929  1.00  0.00    -0.504 OA
ATOM     11  H   UNL     1      47.352  17.332  -3.066  1.00  0.00     0.293 HD
ENDBRANCH   4  10
BRANCH   5  12
ATOM     12  O   UNL     1      49.118  12.398  -2.817  1.00  0.00    -0.504 OA
ATOM     13  H   UNL     1      49.900  11.892  -2.419  1.00  0.00     0.293 HD
ENDBRANCH   5  12
BRANCH   6  14
ATOM     14  O   UNL     1      47.148  14.405  -2.627  1.00  0.00    -0.502 OA
ATOM     15  H   UNL     1      46.229  14.392  -3.053  1.00  0.00     0.293 HD
ENDBRANCH   6  14
TORSDOF 4
ENDMDL
MODEL 6
REMARK VINA RESULT:    -3.846      7.959      9.120
REMARK INTER + INTRA:          -4.455
REMARK INTER:                  -4.403
REMARK INTRA:                  -0.052
REMARK UNBOUND:                -0.047
REMARK SMILES O=C([O-])c1cc(O)c(O)c(O)c1
REMARK SMILES IDX 4 1 5 2 12 3 6 4 10 5 8 6 2 7 1 8 3 9 7 10 11 12 9 14
REMARK H PARENT 7 11 11 13 9 15
REMARK Flexibility Score: inf
ROOT
ATOM      1  C   UNL     1      50.625  15.093  -4.900  1.00  0.00     0.005 A 
ATOM      2  C   UNL     1      50.450  13.867  -4.234  1.00  0.00     0.060 A 
ATOM      3  C   UNL     1      49.634  16.081  -4.782  1.00  0.00     0.060 A 
ATOM      4  C   UNL     1      49.304  13.634  -3.464  1.00  0.00     0.162 A 
ATOM      5  C   UNL     1      48.484  15.851  -4.012  1.00  0.00     0.162 A 
ATOM      6  C   UNL     1      48.319  14.624  -3.351  1.00  0.00     0.200 A 
ENDROOT
BRANCH   1   7
ATOM      7  C   UNL     1      51.839  15.334  -5.713  1.00  0.00     0.072 C 
ATOM      8  O   UNL     1      52.164  16.504  -6.047  1.00  0.00    -0.545 OA
ATOM      9  O   UNL     1      52.637  14.271  -6.120  1.00  0.00    -0.545 OA
ENDBRANCH   1   7
BRANCH   4  10
ATOM     10  O   UNL     1      49.135  12.416  -2.806  1.00  0.00    -0.504 OA
ATOM     11  H   UNL     1      48.630  11.647  -3.232  1.00  0.00     0.293 HD
ENDBRANCH   4  10
BRANCH   5  12
ATOM     12  O   UNL     1      47.507  16.839  -3.902  1.00  0.00    -0.504 OA
ATOM     13  H   UNL     1      46.839  16.843  -3.139  1.00  0.00     0.293 HD
ENDBRANCH   5  12
BRANCH   6  14
ATOM     14  O   UNL     1      47.185  14.372  -2.579  1.00  0.00    -0.502 OA
ATOM     15  H   UNL     1      47.016  13.471  -2.146  1.00  0.00     0.293 HD
ENDBRANCH   6  14
TORSDOF 4
ENDMDL
MODEL 7
REMARK VINA RESULT:    -3.840      1.755      2.342
REMARK INTER + INTRA:          -4.449
REMARK INTER:                  -4.398
REMARK INTRA:                  -0.051
REMARK UNBOUND:                -0.047
REMARK SMILES O=C([O-])c1cc(O)c(O)c(O)c1
REMARK SMILES IDX 4 1 5 2 12 3 6 4 10 5 8 6 2 7 1 8 3 9 7 10 11 12 9 14
REMARK H PARENT 7 11 11 13 9 15
REMARK Flexibility Score: inf
ROOT
ATOM      1  C   UNL     1      43.210  18.638  -3.528  1.00  0.00     0.005 A 
ATOM      2  C   UNL     1      42.916  17.328  -3.944  1.00  0.00     0.060 A 
ATOM      3  C   UNL     1      42.829  19.046  -2.238  1.00  0.00     0.060 A 
ATOM      4  C   UNL     1      42.252  16.441  -3.087  1.00  0.00     0.162 A 
ATOM      5  C   UNL     1      42.163  18.161  -1.377  1.00  0.00     0.162 A 
ATOM      6  C   UNL     1      41.874  16.855  -1.803  1.00  0.00     0.200 A 
ENDROOT
BRANCH   1   7
ATOM      7  C   UNL     1      43.913  19.571  -4.437  1.00  0.00     0.072 C 
ATOM      8  O   UNL     1      44.686  19.134  -5.330  1.00  0.00    -0.545 OA
ATOM      9  O   UNL     1      43.728  20.944  -4.318  1.00  0.00    -0.545 OA
ENDBRANCH   1   7
BRANCH   4  10
ATOM     10  O   UNL     1      41.962  15.143  -3.505  1.00  0.00    -0.504 OA
ATOM     11  H   UNL     1      42.688  14.445  -3.615  1.00  0.00     0.293 HD
ENDBRANCH   4  10
BRANCH   5  12
ATOM     12  O   UNL     1      41.789  18.577  -0.100  1.00  0.00    -0.504 OA
ATOM     13  H   UNL     1      41.771  19.558   0.156  1.00  0.00     0.293 HD
ENDBRANCH   5  12
BRANCH   6  14
ATOM     14  O   UNL     1      41.213  15.957  -0.965  1.00  0.00    -0.502 OA
ATOM     15  H   UNL     1      41.542  15.009  -0.824  1.00  0.00     0.293 HD
ENDBRANCH   6  14
TORSDOF 4
ENDMDL
MODEL 8
REMARK VINA RESULT:    -3.816      7.850     10.023
REMARK INTER + INTRA:          -4.420
REMARK INTER:                  -4.368
REMARK INTRA:                  -0.052
REMARK UNBOUND:                -0.047
REMARK SMILES O=C([O-])c1cc(O)c(O)c(O)c1
REMARK SMILES IDX 4 1 5 2 12 3 6 4 10 5 8 6 2 7 1 8 3 9 7 10 11 12 9 14
REMARK H PARENT 7 11 11 13 9 15
REMARK Flexibility Score: inf
ROOT
ATOM      1  C   UNL     1      49.131  14.193  -3.803  1.00  0.00     0.005 A 
ATOM      2  C   UNL     1      48.604  15.449  -4.150  1.00  0.00     0.060 A 
ATOM      3  C   UNL     1      50.421  13.850  -4.241  1.00  0.00     0.060 A 
ATOM      4  C   UNL     1      49.353  16.346  -4.922  1.00  0.00     0.162 A 
ATOM      5  C   UNL     1      51.174  14.745  -5.015  1.00  0.00     0.162 A 
ATOM      6  C   UNL     1      50.638  15.997  -5.356  1.00  0.00     0.200 A 
ENDROOT
BRANCH   1   7
ATOM      7  C   UNL     1      48.335  13.249  -2.986  1.00  0.00     0.072 C 
ATOM      8  O   UNL     1      48.890  12.279  -2.405  1.00  0.00    -0.545 OA
ATOM      9  O   UNL     1      46.963  13.420  -2.849  1.00  0.00    -0.545 OA
ENDBRANCH   1   7
BRANCH   4  10
ATOM     10  O   UNL     1      48.824  17.590  -5.265  1.00  0.00    -0.504 OA
ATOM     11  H   UNL     1      47.922  17.678  -5.718  1.00  0.00     0.293 HD
ENDBRANCH   4  10
BRANCH   5  12
ATOM     12  O   UNL     1      52.453  14.394  -5.444  1.00  0.00    -0.504 OA
ATOM     13  H   UNL     1      52.791  13.440  -5.383  1.00  0.00     0.293 HD
ENDBRANCH   5  12
BRANCH   6  14
ATOM     14  O   UNL     1      51.368  16.905  -6.125  1.00  0.00    -0.502 OA
ATOM     15  H   UNL     1      52.100  16.608  -6.759  1.00  0.00     0.293 HD
ENDBRANCH   6  14
TORSDOF 4
ENDMDL
MODEL 9
REMARK VINA RESULT:    -3.794      7.864      9.775
REMARK INTER + INTRA:          -4.395
REMARK INTER:                  -4.343
REMARK INTRA:                  -0.052
REMARK UNBOUND:                -0.047
REMARK SMILES O=C([O-])c1cc(O)c(O)c(O)c1
REMARK SMILES IDX 4 1 5 2 12 3 6 4 10 5 8 6 2 7 1 8 3 9 7 10 11 12 9 14
REMARK H PARENT 7 11 11 13 9 15
REMARK Flexibility Score: inf
ROOT
ATOM      1  C   UNL     1      49.109  14.196  -3.852  1.00  0.00     0.005 A 
ATOM      2  C   UNL     1      50.401  13.831  -4.271  1.00  0.00     0.060 A 
ATOM      3  C   UNL     1      48.611  15.462  -4.203  1.00  0.00     0.060 A 
ATOM      4  C   UNL     1      51.181  14.716  -5.027  1.00  0.00     0.162 A 
ATOM      5  C   UNL     1      49.389  16.351  -4.959  1.00  0.00     0.162 A 
ATOM      6  C   UNL     1      50.677  15.976  -5.372  1.00  0.00     0.200 A 
ENDROOT
BRANCH   1   7
ATOM      7  C   UNL     1      48.289  13.257  -3.054  1.00  0.00     0.072 C 
ATOM      8  O   UNL     1      48.832  12.316  -2.416  1.00  0.00    -0.545 OA
ATOM      9  O   UNL     1      46.908  13.400  -2.998  1.00  0.00    -0.545 OA
ENDBRANCH   1   7
BRANCH   4  10
ATOM     10  O   UNL     1      52.461  14.348  -5.438  1.00  0.00    -0.504 OA
ATOM     11  H   UNL     1      53.234  15.004  -5.421  1.00  0.00     0.293 HD
ENDBRANCH   4  10
BRANCH   5  12
ATOM     12  O   UNL     1      48.885  17.605  -5.301  1.00  0.00    -0.504 OA
ATOM     13  H   UNL     1      49.149  18.441  -4.792  1.00  0.00     0.293 HD
ENDBRANCH   5  12
BRANCH   6  14
ATOM     14  O   UNL     1      51.470  16.843  -6.125  1.00  0.00    -0.502 OA
ATOM     15  H   UNL     1      52.451  16.660  -6.302  1.00  0.00     0.293 HD
ENDBRANCH   6  14
TORSDOF 4
ENDMDL
