MODEL 1
REMARK VINA RESULT:    -5.569      0.000      0.000
REMARK INTER + INTRA:          -6.506
REMARK INTER:                  -6.383
REMARK INTRA:                  -0.123
REMARK UNBOUND:                -0.123
REMARK SMILES COc1cc(C(C)=O)ccc1O
REMARK SMILES IDX 5 1 4 2 3 3 11 4 10 5 9 6 6 7 7 8 8 9 2 10 1 11 12 12
REMARK H PARENT 12 13
REMARK Flexibility Score: inf
ROOT
ATOM      1  C   UNL     1       8.220  -2.688  31.818  1.00  0.00     0.021 A 
ATOM      2  C   UNL     1       7.545  -3.528  30.911  1.00  0.00     0.062 A 
ATOM      3  C   UNL     1       6.425  -3.067  30.191  1.00  0.00     0.161 A 
ATOM      4  C   UNL     1       5.980  -1.748  30.384  1.00  0.00     0.157 A 
ATOM      5  C   UNL     1       6.645  -0.911  31.282  1.00  0.00     0.051 A 
ATOM      6  C   UNL     1       7.753  -1.371  31.993  1.00  0.00     0.016 A 
ENDROOT
BRANCH   1   7
ATOM      7  C   UNL     1       9.401  -3.194  32.568  1.00  0.00     0.159 C 
ATOM      8  C   UNL     1      10.282  -2.283  33.370  1.00  0.00     0.093 C 
ATOM      9  O   UNL     1       9.682  -4.423  32.539  1.00  0.00    -0.295 OA
ENDBRANCH   1   7
BRANCH   3  10
ATOM     10  O   UNL     1       5.737  -3.887  29.282  1.00  0.00    -0.493 OA
ATOM     11  C   UNL     1       6.043  -3.993  27.895  1.00  0.00     0.278 C 
ENDBRANCH   3  10
BRANCH   4  12
ATOM     12  O   UNL     1       4.875  -1.252  29.692  1.00  0.00    -0.504 OA
ATOM     13  H   UNL     1       4.931  -0.429  29.103  1.00  0.00     0.293 HD
ENDBRANCH   4  12
TORSDOF 3
ENDMDL
MODEL 2
REMARK VINA RESULT:    -5.496      6.049      9.536
REMARK INTER + INTRA:          -6.423
REMARK INTER:                  -6.333
REMARK INTRA:                  -0.090
REMARK UNBOUND:                -0.123
REMARK SMILES COc1cc(C(C)=O)ccc1O
REMARK SMILES IDX 5 1 4 2 3 3 11 4 10 5 9 6 6 7 7 8 8 9 2 10 1 11 12 12
REMARK H PARENT 12 13
REMARK Flexibility Score: inf
ROOT
ATOM      1  C   UNL     1       7.099  -7.078  22.556  1.00  0.00     0.021 A 
ATOM      2  C   UNL     1       7.150  -6.165  23.627  1.00  0.00     0.062 A 
ATOM      3  C   UNL     1       6.999  -6.600  24.959  1.00  0.00     0.161 A 
ATOM      4  C   UNL     1       6.795  -7.966  25.216  1.00  0.00     0.157 A 
ATOM      5  C   UNL     1       6.742  -8.876  24.158  1.00  0.00     0.051 A 
ATOM      6  C   UNL     1       6.893  -8.441  22.841  1.00  0.00     0.016 A 
ENDROOT
BRANCH   1   7
ATOM      7  C   UNL     1       7.262  -6.598  21.157  1.00  0.00     0.159 C 
ATOM      8  C   UNL     1       7.742  -5.211  20.845  1.00  0.00     0.093 C 
ATOM      9  O   UNL     1       6.993  -7.367  20.195  1.00  0.00    -0.295 OA
ENDBRANCH   1   7
BRANCH   3  10
ATOM     10  O   UNL     1       7.047  -5.708  26.042  1.00  0.00    -0.493 OA
ATOM     11  C   UNL     1       5.909  -5.082  26.627  1.00  0.00     0.278 C 
ENDBRANCH   3  10
BRANCH   4  12
ATOM     12  O   UNL     1       6.640  -8.439  26.519  1.00  0.00    -0.504 OA
ATOM     13  H   UNL     1       6.107  -7.935  27.218  1.00  0.00     0.293 HD
ENDBRANCH   4  12
TORSDOF 3
ENDMDL
MODEL 3
REMARK VINA RESULT:    -5.412      1.906      5.285
REMARK INTER + INTRA:          -6.326
REMARK INTER:                  -6.275
REMARK INTRA:                  -0.052
REMARK UNBOUND:                -0.123
REMARK SMILES COc1cc(C(C)=O)ccc1O
REMARK SMILES IDX 5 1 4 2 3 3 11 4 10 5 9 6 6 7 7 8 8 9 2 10 1 11 12 12
REMARK H PARENT 12 13
REMARK Flexibility Score: inf
ROOT
ATOM      1  C   UNL     1       7.432  -2.105  31.709  1.00  0.00     0.021 A 
ATOM      2  C   UNL     1       7.985  -1.078  32.498  1.00  0.00     0.062 A 
ATOM      3  C   UNL     1       9.208  -1.262  33.175  1.00  0.00     0.161 A 
ATOM      4  C   UNL     1       9.881  -2.490  33.055  1.00  0.00     0.157 A 
ATOM      5  C   UNL     1       9.337  -3.512  32.274  1.00  0.00     0.051 A 
ATOM      6  C   UNL     1       8.126  -3.326  31.606  1.00  0.00     0.016 A 
ENDROOT
BRANCH   1   7
ATOM      7  C   UNL     1       6.140  -1.890  31.001  1.00  0.00     0.159 C 
ATOM      8  C   UNL     1       4.953  -2.777  31.232  1.00  0.00     0.093 C 
ATOM      9  O   UNL     1       6.025  -0.938  30.183  1.00  0.00    -0.295 OA
ENDBRANCH   1   7
BRANCH   3  10
ATOM     10  O   UNL     1       9.778  -0.253  33.968  1.00  0.00    -0.493 OA
ATOM     11  C   UNL     1      10.841   0.599  33.553  1.00  0.00     0.278 C 
ENDBRANCH   3  10
BRANCH   4  12
ATOM     12  O   UNL     1      11.092  -2.714  33.708  1.00  0.00    -0.504 OA
ATOM     13  H   UNL     1      11.471  -3.645  33.841  1.00  0.00     0.293 HD
ENDBRANCH   4  12
TORSDOF 3
ENDMDL
MODEL 4
REMARK VINA RESULT:    -5.161     18.611     19.777
REMARK INTER + INTRA:          -6.038
REMARK INTER:                  -5.934
REMARK INTRA:                  -0.105
REMARK UNBOUND:                -0.123
REMARK SMILES COc1cc(C(C)=O)ccc1O
REMARK SMILES IDX 5 1 4 2 3 3 11 4 10 5 9 6 6 7 7 8 8 9 2 10 1 11 12 12
REMARK H PARENT 12 13
REMARK Flexibility Score: inf
ROOT
ATOM      1  C   UNL     1      20.476 -14.281  20.477  1.00  0.00     0.021 A 
ATOM      2  C   UNL     1      19.579 -14.031  19.421  1.00  0.00     0.062 A 
ATOM      3  C   UNL     1      18.460 -13.194  19.603  1.00  0.00     0.161 A 
ATOM      4  C   UNL     1      18.241 -12.604  20.859  1.00  0.00     0.157 A 
ATOM      5  C   UNL     1      19.127 -12.849  21.910  1.00  0.00     0.051 A 
ATOM      6  C   UNL     1      20.234 -13.678  21.726  1.00  0.00     0.016 A 
ENDROOT
BRANCH   1   7
ATOM      7  C   UNL     1      21.653 -15.167  20.263  1.00  0.00     0.159 C 
ATOM      8  C   UNL     1      23.053 -14.707  20.542  1.00  0.00     0.093 C 
ATOM      9  O   UNL     1      21.484 -16.342  19.837  1.00  0.00    -0.295 OA
ENDBRANCH   1   7
BRANCH   3  10
ATOM     10  O   UNL     1      17.552 -12.930  18.565  1.00  0.00    -0.493 OA
ATOM     11  C   UNL     1      17.887 -12.914  17.181  1.00  0.00     0.278 C 
ENDBRANCH   3  10
BRANCH   4  12
ATOM     12  O   UNL     1      17.146 -11.770  21.083  1.00  0.00    -0.504 OA
ATOM     13  H   UNL     1      17.153 -10.788  20.832  1.00  0.00     0.293 HD
ENDBRANCH   4  12
TORSDOF 3
ENDMDL
MODEL 5
REMARK VINA RESULT:    -5.127      1.608      4.269
REMARK INTER + INTRA:          -6.000
REMARK INTER:                  -5.887
REMARK INTRA:                  -0.113
REMARK UNBOUND:                -0.123
REMARK SMILES COc1cc(C(C)=O)ccc1O
REMARK SMILES IDX 5 1 4 2 3 3 11 4 10 5 9 6 6 7 7 8 8 9 2 10 1 11 12 12
REMARK H PARENT 12 13
REMARK Flexibility Score: inf
ROOT
ATOM      1  C   UNL     1       6.169  -2.698  29.788  1.00  0.00     0.021 A 
ATOM      2  C   UNL     1       7.260  -3.074  30.594  1.00  0.00     0.062 A 
ATOM      3  C   UNL     1       7.588  -2.347  31.756  1.00  0.00     0.161 A 
ATOM      4  C   UNL     1       6.811  -1.230  32.109  1.00  0.00     0.157 A 
ATOM      5  C   UNL     1       5.728  -0.852  31.313  1.00  0.00     0.051 A 
ATOM      6  C   UNL     1       5.406  -1.575  30.164  1.00  0.00     0.016 A 
ENDROOT
BRANCH   1   7
ATOM      7  C   UNL     1       5.838  -3.481  28.566  1.00  0.00     0.159 C 
ATOM      8  C   UNL     1       4.882  -2.968  27.529  1.00  0.00     0.093 C 
ATOM      9  O   UNL     1       6.371  -4.609  28.381  1.00  0.00    -0.295 OA
ENDBRANCH   1   7
BRANCH   3  10
ATOM     10  O   UNL     1       8.671  -2.703  32.575  1.00  0.00    -0.493 OA
ATOM     11  C   UNL     1       9.470  -3.869  32.401  1.00  0.00     0.278 C 
ENDBRANCH   3  10
BRANCH   4  12
ATOM     12  O   UNL     1       7.102  -0.482  33.250  1.00  0.00    -0.504 OA
ATOM     13  H   UNL     1       7.562  -0.884  34.058  1.00  0.00     0.293 HD
ENDBRANCH   4  12
TORSDOF 3
ENDMDL
MODEL 6
REMARK VINA RESULT:    -5.068      1.780      4.669
REMARK INTER + INTRA:          -5.932
REMARK INTER:                  -5.826
REMARK INTRA:                  -0.106
REMARK UNBOUND:                -0.123
REMARK SMILES COc1cc(C(C)=O)ccc1O
REMARK SMILES IDX 5 1 4 2 3 3 11 4 10 5 9 6 6 7 7 8 8 9 2 10 1 11 12 12
REMARK H PARENT 12 13
REMARK Flexibility Score: inf
ROOT
ATOM      1  C   UNL     1       5.994  -3.885  27.916  1.00  0.00     0.021 A 
ATOM      2  C   UNL     1       6.547  -4.016  29.205  1.00  0.00     0.062 A 
ATOM      3  C   UNL     1       6.324  -3.036  30.192  1.00  0.00     0.161 A 
ATOM      4  C   UNL     1       5.536  -1.914  29.881  1.00  0.00     0.157 A 
ATOM      5  C   UNL     1       4.986  -1.779  28.604  1.00  0.00     0.051 A 
ATOM      6  C   UNL     1       5.209  -2.752  27.629  1.00  0.00     0.016 A 
ENDROOT
BRANCH   1   7
ATOM      7  C   UNL     1       6.241  -4.933  26.888  1.00  0.00     0.159 C 
ATOM      8  C   UNL     1       7.628  -5.357  26.506  1.00  0.00     0.093 C 
ATOM      9  O   UNL     1       5.267  -5.489  26.313  1.00  0.00    -0.295 OA
ENDBRANCH   1   7
BRANCH   3  10
ATOM     10  O   UNL     1       6.864  -3.144  31.484  1.00  0.00    -0.493 OA
ATOM     11  C   UNL     1       8.257  -3.147  31.780  1.00  0.00     0.278 C 
ENDBRANCH   3  10
BRANCH   4  12
ATOM     12  O   UNL     1       5.291  -0.920  30.828  1.00  0.00    -0.504 OA
ATOM     13  H   UNL     1       4.370  -0.518  30.964  1.00  0.00     0.293 HD
ENDBRANCH   4  12
TORSDOF 3
ENDMDL
MODEL 7
REMARK VINA RESULT:    -5.008      6.174      8.961
REMARK INTER + INTRA:          -5.863
REMARK INTER:                  -5.753
REMARK INTRA:                  -0.110
REMARK UNBOUND:                -0.123
REMARK SMILES COc1cc(C(C)=O)ccc1O
REMARK SMILES IDX 5 1 4 2 3 3 11 4 10 5 9 6 6 7 7 8 8 9 2 10 1 11 12 12
REMARK H PARENT 12 13
REMARK Flexibility Score: inf
ROOT
ATOM      1  C   UNL     1       7.034  -6.729  24.704  1.00  0.00     0.021 A 
ATOM      2  C   UNL     1       6.988  -6.008  23.495  1.00  0.00     0.062 A 
ATOM      3  C   UNL     1       6.690  -6.652  22.277  1.00  0.00     0.161 A 
ATOM      4  C   UNL     1       6.437  -8.034  22.276  1.00  0.00     0.157 A 
ATOM      5  C   UNL     1       6.482  -8.754  23.471  1.00  0.00     0.051 A 
ATOM      6  C   UNL     1       6.776  -8.113  24.675  1.00  0.00     0.016 A 
ENDROOT
BRANCH   1   7
ATOM      7  C   UNL     1       7.349  -6.029  25.979  1.00  0.00     0.159 C 
ATOM      8  C   UNL     1       6.313  -5.249  26.732  1.00  0.00     0.093 C 
ATOM      9  O   UNL     1       8.516  -6.086  26.453  1.00  0.00    -0.295 OA
ENDBRANCH   1   7
BRANCH   3  10
ATOM     10  O   UNL     1       6.639  -5.954  21.060  1.00  0.00    -0.493 OA
ATOM     11  C   UNL     1       7.765  -5.369  20.414  1.00  0.00     0.278 C 
ENDBRANCH   3  10
BRANCH   4  12
ATOM     12  O   UNL     1       6.139  -8.711  21.093  1.00  0.00    -0.504 OA
ATOM     13  H   UNL     1       5.279  -9.232  20.969  1.00  0.00     0.293 HD
ENDBRANCH   4  12
TORSDOF 3
ENDMDL
MODEL 8
REMARK VINA RESULT:    -4.878     12.966     15.587
REMARK INTER + INTRA:          -5.714
REMARK INTER:                  -5.624
REMARK INTRA:                  -0.090
REMARK UNBOUND:                -0.123
REMARK SMILES COc1cc(C(C)=O)ccc1O
REMARK SMILES IDX 5 1 4 2 3 3 11 4 10 5 9 6 6 7 7 8 8 9 2 10 1 11 12 12
REMARK H PARENT 12 13
REMARK Flexibility Score: inf
ROOT
ATOM      1  C   UNL     1      18.695 -10.991  34.022  1.00  0.00     0.021 A 
ATOM      2  C   UNL     1      19.057 -11.309  32.698  1.00  0.00     0.062 A 
ATOM      3  C   UNL     1      20.265 -11.979  32.418  1.00  0.00     0.161 A 
ATOM      4  C   UNL     1      21.116 -12.333  33.479  1.00  0.00     0.157 A 
ATOM      5  C   UNL     1      20.762 -12.019  34.793  1.00  0.00     0.051 A 
ATOM      6  C   UNL     1      19.565 -11.356  35.066  1.00  0.00     0.016 A 
ENDROOT
BRANCH   1   7
ATOM      7  C   UNL     1      17.414 -10.284  34.296  1.00  0.00     0.159 C 
ATOM      8  C   UNL     1      16.135 -10.667  33.613  1.00  0.00     0.093 C 
ATOM      9  O   UNL     1      17.388  -9.334  35.125  1.00  0.00    -0.295 OA
ENDBRANCH   1   7
BRANCH   3  10
ATOM     10  O   UNL     1      20.647 -12.306  31.107  1.00  0.00    -0.493 OA
ATOM     11  C   UNL     1      20.133 -11.683  29.934  1.00  0.00     0.278 C 
ENDBRANCH   3  10
BRANCH   4  12
ATOM     12  O   UNL     1      22.321 -12.996  33.246  1.00  0.00    -0.504 OA
ATOM     13  H   UNL     1      22.501 -13.506  32.389  1.00  0.00     0.293 HD
ENDBRANCH   4  12
TORSDOF 3
ENDMDL
MODEL 9
REMARK VINA RESULT:    -4.858     18.106     19.452
REMARK INTER + INTRA:          -5.692
REMARK INTER:                  -5.599
REMARK INTRA:                  -0.092
REMARK UNBOUND:                -0.123
REMARK SMILES COc1cc(C(C)=O)ccc1O
REMARK SMILES IDX 5 1 4 2 3 3 11 4 10 5 9 6 6 7 7 8 8 9 2 10 1 11 12 12
REMARK H PARENT 12 13
REMARK Flexibility Score: inf
ROOT
ATOM      1  C   UNL     1      20.253 -14.270  20.377  1.00  0.00     0.021 A 
ATOM      2  C   UNL     1      20.118 -13.687  21.652  1.00  0.00     0.062 A 
ATOM      3  C   UNL     1      19.065 -12.793  21.932  1.00  0.00     0.161 A 
ATOM      4  C   UNL     1      18.140 -12.483  20.920  1.00  0.00     0.157 A 
ATOM      5  C   UNL     1      18.270 -13.058  19.654  1.00  0.00     0.051 A 
ATOM      6  C   UNL     1      19.314 -13.943  19.381  1.00  0.00     0.016 A 
ENDROOT
BRANCH   1   7
ATOM      7  C   UNL     1      21.372 -15.213  20.102  1.00  0.00     0.159 C 
ATOM      8  C   UNL     1      22.796 -14.870  20.426  1.00  0.00     0.093 C 
ATOM      9  O   UNL     1      21.131 -16.337  19.583  1.00  0.00    -0.295 OA
ENDBRANCH   1   7
BRANCH   3  10
ATOM     10  O   UNL     1      18.909 -12.200  23.195  1.00  0.00    -0.493 OA
ATOM     11  C   UNL     1      19.263 -12.816  24.429  1.00  0.00     0.278 C 
ENDBRANCH   3  10
BRANCH   4  12
ATOM     12  O   UNL     1      17.084 -11.603  21.154  1.00  0.00    -0.504 OA
ATOM     13  H   UNL     1      16.894 -11.217  22.072  1.00  0.00     0.293 HD
ENDBRANCH   4  12
TORSDOF 3
ENDMDL
