MODEL 1
REMARK VINA RESULT:    -6.391      0.000      0.000
REMARK INTER + INTRA:          -7.472
REMARK INTER:                  -7.325
REMARK INTRA:                  -0.146
REMARK UNBOUND:                -0.146
REMARK SMILES O=C([O-])C=Cc1ccc(O)cc1
REMARK SMILES IDX 6 1 7 2 12 3 8 4 11 5 9 6 5 7 4 8 2 9 1 10 3 11 10 12
REMARK H PARENT 10 13
REMARK Flexibility Score: inf
ROOT
ATOM      1  C   UNL     1     -12.795   0.929  -9.597  1.00  0.00    -0.025 A 
ATOM      2  C   UNL     1     -11.951   1.966  -9.163  1.00  0.00     0.012 A 
ATOM      3  C   UNL     1     -14.189   1.144  -9.599  1.00  0.00     0.012 A 
ATOM      4  C   UNL     1     -12.484   3.179  -8.719  1.00  0.00     0.047 A 
ATOM      5  C   UNL     1     -14.718   2.360  -9.154  1.00  0.00     0.047 A 
ATOM      6  C   UNL     1     -13.867   3.379  -8.710  1.00  0.00     0.115 A 
ENDROOT
BRANCH   1   7
ATOM      7  C   UNL     1     -12.180  -0.336 -10.069  1.00  0.00     0.010 C 
ATOM      8  C   UNL     1     -11.042  -0.840  -9.574  1.00  0.00     0.025 C 
BRANCH   8   9
ATOM      9  C   UNL     1     -10.460  -2.093 -10.082  1.00  0.00     0.064 C 
ATOM     10  O   UNL     1      -9.435  -2.052 -10.811  1.00  0.00    -0.545 OA
ATOM     11  O   UNL     1     -11.024  -3.325  -9.767  1.00  0.00    -0.545 OA
ENDBRANCH   8   9
ENDBRANCH   1   7
BRANCH   6  12
ATOM     12  O   UNL     1     -14.385   4.593  -8.264  1.00  0.00    -0.508 OA
ATOM     13  H   UNL     1     -15.228   4.636  -7.703  1.00  0.00     0.293 HD
ENDBRANCH   6  12
TORSDOF 3
ENDMDL
MODEL 2
REMARK VINA RESULT:    -5.761      1.405      1.824
REMARK INTER + INTRA:          -6.750
REMARK INTER:                  -6.617
REMARK INTRA:                  -0.133
REMARK UNBOUND:                -0.146
REMARK SMILES O=C([O-])C=Cc1ccc(O)cc1
REMARK SMILES IDX 6 1 7 2 12 3 8 4 11 5 9 6 5 7 4 8 2 9 1 10 3 11 10 12
REMARK H PARENT 10 13
REMARK Flexibility Score: inf
ROOT
ATOM      1  C   UNL     1     -12.239  -0.363  -9.951  1.00  0.00    -0.025 A 
ATOM      2  C   UNL     1     -11.890   0.886  -9.408  1.00  0.00     0.012 A 
ATOM      3  C   UNL     1     -13.571  -0.579 -10.358  1.00  0.00     0.012 A 
ATOM      4  C   UNL     1     -12.854   1.887  -9.251  1.00  0.00     0.047 A 
ATOM      5  C   UNL     1     -14.532   0.425 -10.199  1.00  0.00     0.047 A 
ATOM      6  C   UNL     1     -14.176   1.660  -9.642  1.00  0.00     0.115 A 
ENDROOT
BRANCH   1   7
ATOM      7  C   UNL     1     -11.178  -1.389 -10.108  1.00  0.00     0.010 C 
ATOM      8  C   UNL     1     -10.860  -2.280  -9.160  1.00  0.00     0.025 C 
BRANCH   8   9
ATOM      9  C   UNL     1      -9.791  -3.274  -9.354  1.00  0.00     0.064 C 
ATOM     10  O   UNL     1      -8.787  -3.262  -8.596  1.00  0.00    -0.545 OA
ATOM     11  O   UNL     1      -9.874  -4.229 -10.362  1.00  0.00    -0.545 OA
ENDBRANCH   8   9
ENDBRANCH   1   7
BRANCH   6  12
ATOM     12  O   UNL     1     -15.125   2.666  -9.479  1.00  0.00    -0.508 OA
ATOM     13  H   UNL     1     -15.365   3.026  -8.563  1.00  0.00     0.293 HD
ENDBRANCH   6  12
TORSDOF 3
ENDMDL
MODEL 3
REMARK VINA RESULT:    -5.298     15.964     17.766
REMARK INTER + INTRA:          -6.218
REMARK INTER:                  -6.078
REMARK INTRA:                  -0.140
REMARK UNBOUND:                -0.146
REMARK SMILES O=C([O-])C=Cc1ccc(O)cc1
REMARK SMILES IDX 6 1 7 2 12 3 8 4 11 5 9 6 5 7 4 8 2 9 1 10 3 11 10 12
REMARK H PARENT 10 13
REMARK Flexibility Score: inf
ROOT
ATOM      1  C   UNL     1      -9.563   6.089   6.629  1.00  0.00    -0.025 A 
ATOM      2  C   UNL     1      -9.898   5.356   7.781  1.00  0.00     0.012 A 
ATOM      3  C   UNL     1     -10.102   5.689   5.389  1.00  0.00     0.012 A 
ATOM      4  C   UNL     1     -10.730   4.236   7.695  1.00  0.00     0.047 A 
ATOM      5  C   UNL     1     -10.934   4.567   5.307  1.00  0.00     0.047 A 
ATOM      6  C   UNL     1     -11.248   3.836   6.460  1.00  0.00     0.115 A 
ENDROOT
BRANCH   1   7
ATOM      7  C   UNL     1      -8.686   7.277   6.774  1.00  0.00     0.010 C 
ATOM      8  C   UNL     1      -8.593   8.250   5.858  1.00  0.00     0.025 C 
BRANCH   8   9
ATOM      9  C   UNL     1      -7.700   9.405   6.038  1.00  0.00     0.064 C 
ATOM     10  O   UNL     1      -7.080   9.873   5.047  1.00  0.00    -0.545 OA
ATOM     11  O   UNL     1      -7.530   9.993   7.287  1.00  0.00    -0.545 OA
ENDBRANCH   8   9
ENDBRANCH   1   7
BRANCH   6  12
ATOM     12  O   UNL     1     -12.075   2.718   6.389  1.00  0.00    -0.508 OA
ATOM     13  H   UNL     1     -12.905   2.708   5.807  1.00  0.00     0.293 HD
ENDBRANCH   6  12
TORSDOF 3
ENDMDL
MODEL 4
REMARK VINA RESULT:    -5.144      3.992      7.505
REMARK INTER + INTRA:          -6.043
REMARK INTER:                  -5.890
REMARK INTRA:                  -0.153
REMARK UNBOUND:                -0.146
REMARK SMILES O=C([O-])C=Cc1ccc(O)cc1
REMARK SMILES IDX 6 1 7 2 12 3 8 4 11 5 9 6 5 7 4 8 2 9 1 10 3 11 10 12
REMARK H PARENT 10 13
REMARK Flexibility Score: inf
ROOT
ATOM      1  C   UNL     1     -10.843  -4.735  -8.417  1.00  0.00    -0.025 A 
ATOM      2  C   UNL     1     -10.968  -4.585  -7.024  1.00  0.00     0.012 A 
ATOM      3  C   UNL     1     -10.707  -6.033  -8.950  1.00  0.00     0.012 A 
ATOM      4  C   UNL     1     -10.933  -5.700  -6.183  1.00  0.00     0.047 A 
ATOM      5  C   UNL     1     -10.673  -7.146  -8.104  1.00  0.00     0.047 A 
ATOM      6  C   UNL     1     -10.782  -6.982  -6.718  1.00  0.00     0.115 A 
ENDROOT
BRANCH   1   7
ATOM      7  C   UNL     1     -10.897  -3.521  -9.269  1.00  0.00     0.010 C 
ATOM      8  C   UNL     1     -10.768  -2.274  -8.796  1.00  0.00     0.025 C 
BRANCH   8   9
ATOM      9  C   UNL     1     -10.841  -1.097  -9.676  1.00  0.00     0.064 C 
ATOM     10  O   UNL     1     -10.299  -1.136 -10.811  1.00  0.00    -0.545 OA
ATOM     11  O   UNL     1     -11.503   0.059  -9.275  1.00  0.00    -0.545 OA
ENDBRANCH   8   9
ENDBRANCH   1   7
BRANCH   6  12
ATOM     12  O   UNL     1     -10.748  -8.085  -5.867  1.00  0.00    -0.508 OA
ATOM     13  H   UNL     1     -11.290  -8.920  -6.059  1.00  0.00     0.293 HD
ENDBRANCH   6  12
TORSDOF 3
ENDMDL
MODEL 5
REMARK VINA RESULT:    -5.142      1.982      6.188
REMARK INTER + INTRA:          -6.040
REMARK INTER:                  -5.901
REMARK INTRA:                  -0.139
REMARK UNBOUND:                -0.146
REMARK SMILES O=C([O-])C=Cc1ccc(O)cc1
REMARK SMILES IDX 6 1 7 2 12 3 8 4 11 5 9 6 5 7 4 8 2 9 1 10 3 11 10 12
REMARK H PARENT 10 13
REMARK Flexibility Score: inf
ROOT
ATOM      1  C   UNL     1     -10.781  -1.403  -9.179  1.00  0.00    -0.025 A 
ATOM      2  C   UNL     1     -10.361  -1.958 -10.400  1.00  0.00     0.012 A 
ATOM      3  C   UNL     1     -10.589  -2.143  -7.995  1.00  0.00     0.012 A 
ATOM      4  C   UNL     1      -9.788  -3.233 -10.443  1.00  0.00     0.047 A 
ATOM      5  C   UNL     1     -10.016  -3.418  -8.042  1.00  0.00     0.047 A 
ATOM      6  C   UNL     1      -9.616  -3.967  -9.267  1.00  0.00     0.115 A 
ENDROOT
BRANCH   1   7
ATOM      7  C   UNL     1     -11.373  -0.042  -9.185  1.00  0.00     0.010 C 
ATOM      8  C   UNL     1     -12.621   0.224  -9.592  1.00  0.00     0.025 C 
BRANCH   8   9
ATOM      9  C   UNL     1     -13.164   1.592  -9.593  1.00  0.00     0.064 C 
ATOM     10  O   UNL     1     -12.416   2.558  -9.289  1.00  0.00    -0.545 OA
ATOM     11  O   UNL     1     -14.492   1.837  -9.927  1.00  0.00    -0.545 OA
ENDBRANCH   8   9
ENDBRANCH   1   7
BRANCH   6  12
ATOM     12  O   UNL     1      -9.045  -5.236  -9.324  1.00  0.00    -0.508 OA
ATOM     13  H   UNL     1      -9.177  -5.911  -8.580  1.00  0.00     0.293 HD
ENDBRANCH   6  12
TORSDOF 3
ENDMDL
MODEL 6
REMARK VINA RESULT:    -5.047      4.027      7.556
REMARK INTER + INTRA:          -5.932
REMARK INTER:                  -5.791
REMARK INTRA:                  -0.141
REMARK UNBOUND:                -0.146
REMARK SMILES O=C([O-])C=Cc1ccc(O)cc1
REMARK SMILES IDX 6 1 7 2 12 3 8 4 11 5 9 6 5 7 4 8 2 9 1 10 3 11 10 12
REMARK H PARENT 10 13
REMARK Flexibility Score: inf
ROOT
ATOM      1  C   UNL     1     -10.881  -4.806  -8.359  1.00  0.00    -0.025 A 
ATOM      2  C   UNL     1     -10.732  -6.111  -8.860  1.00  0.00     0.012 A 
ATOM      3  C   UNL     1     -10.999  -4.624  -6.966  1.00  0.00     0.012 A 
ATOM      4  C   UNL     1     -10.726  -7.209  -7.996  1.00  0.00     0.047 A 
ATOM      5  C   UNL     1     -10.993  -5.725  -6.104  1.00  0.00     0.047 A 
ATOM      6  C   UNL     1     -10.859  -7.022  -6.618  1.00  0.00     0.115 A 
ENDROOT
BRANCH   1   7
ATOM      7  C   UNL     1     -10.870  -3.672  -9.316  1.00  0.00     0.010 C 
ATOM      8  C   UNL     1     -10.637  -2.401  -8.961  1.00  0.00     0.025 C 
BRANCH   8   9
ATOM      9  C   UNL     1     -10.648  -1.305  -9.943  1.00  0.00     0.064 C 
ATOM     10  O   UNL     1      -9.890  -1.363 -10.947  1.00  0.00    -0.545 OA
ATOM     11  O   UNL     1     -11.485  -0.206  -9.782  1.00  0.00    -0.545 OA
ENDBRANCH   8   9
ENDBRANCH   1   7
BRANCH   6  12
ATOM     12  O   UNL     1     -10.853  -8.125  -5.768  1.00  0.00    -0.508 OA
ATOM     13  H   UNL     1     -11.619  -8.788  -5.753  1.00  0.00     0.293 HD
ENDBRANCH   6  12
TORSDOF 3
ENDMDL
MODEL 7
REMARK VINA RESULT:    -4.990      4.923      7.095
REMARK INTER + INTRA:          -5.866
REMARK INTER:                  -5.729
REMARK INTRA:                  -0.137
REMARK UNBOUND:                -0.146
REMARK SMILES O=C([O-])C=Cc1ccc(O)cc1
REMARK SMILES IDX 6 1 7 2 12 3 8 4 11 5 9 6 5 7 4 8 2 9 1 10 3 11 10 12
REMARK H PARENT 10 13
REMARK Flexibility Score: inf
ROOT
ATOM      1  C   UNL     1     -10.810  -4.775  -7.733  1.00  0.00    -0.025 A 
ATOM      2  C   UNL     1     -10.630  -3.443  -7.319  1.00  0.00     0.012 A 
ATOM      3  C   UNL     1     -10.581  -5.101  -9.086  1.00  0.00     0.012 A 
ATOM      4  C   UNL     1     -10.256  -2.457  -8.236  1.00  0.00     0.047 A 
ATOM      5  C   UNL     1     -10.208  -4.111 -10.000  1.00  0.00     0.047 A 
ATOM      6  C   UNL     1     -10.047  -2.785  -9.578  1.00  0.00     0.115 A 
ENDROOT
BRANCH   1   7
ATOM      7  C   UNL     1     -11.196  -5.787  -6.720  1.00  0.00     0.010 C 
ATOM      8  C   UNL     1     -12.458  -6.182  -6.506  1.00  0.00     0.025 C 
BRANCH   8   9
ATOM      9  C   UNL     1     -12.797  -7.182  -5.480  1.00  0.00     0.064 C 
ATOM     10  O   UNL     1     -11.905  -7.593  -4.694  1.00  0.00    -0.545 OA
ATOM     11  O   UNL     1     -14.091  -7.678  -5.363  1.00  0.00    -0.545 OA
ENDBRANCH   8   9
ENDBRANCH   1   7
BRANCH   6  12
ATOM     12  O   UNL     1      -9.676  -1.792 -10.481  1.00  0.00    -0.508 OA
ATOM     13  H   UNL     1      -9.141  -2.006 -11.314  1.00  0.00     0.293 HD
ENDBRANCH   6  12
TORSDOF 3
ENDMDL
MODEL 8
REMARK VINA RESULT:    -4.587      5.808      8.034
REMARK INTER + INTRA:          -5.404
REMARK INTER:                  -5.251
REMARK INTRA:                  -0.153
REMARK UNBOUND:                -0.146
REMARK SMILES O=C([O-])C=Cc1ccc(O)cc1
REMARK SMILES IDX 6 1 7 2 12 3 8 4 11 5 9 6 5 7 4 8 2 9 1 10 3 11 10 12
REMARK H PARENT 10 13
REMARK Flexibility Score: inf
ROOT
ATOM      1  C   UNL     1     -11.772  -5.853  -6.825  1.00  0.00    -0.025 A 
ATOM      2  C   UNL     1     -13.017  -5.938  -7.473  1.00  0.00     0.012 A 
ATOM      3  C   UNL     1     -11.583  -6.562  -5.621  1.00  0.00     0.012 A 
ATOM      4  C   UNL     1     -14.056  -6.691  -6.920  1.00  0.00     0.047 A 
ATOM      5  C   UNL     1     -12.626  -7.315  -5.072  1.00  0.00     0.047 A 
ATOM      6  C   UNL     1     -13.867  -7.379  -5.719  1.00  0.00     0.115 A 
ENDROOT
BRANCH   1   7
ATOM      7  C   UNL     1     -10.697  -5.049  -7.457  1.00  0.00     0.010 C 
ATOM      8  C   UNL     1     -10.847  -4.380  -8.608  1.00  0.00     0.025 C 
BRANCH   8   9
ATOM      9  C   UNL     1      -9.749  -3.604  -9.206  1.00  0.00     0.064 C 
ATOM     10  O   UNL     1      -9.907  -3.071 -10.335  1.00  0.00    -0.545 OA
ATOM     11  O   UNL     1      -8.536  -3.448  -8.542  1.00  0.00    -0.545 OA
ENDBRANCH   8   9
ENDBRANCH   1   7
BRANCH   6  12
ATOM     12  O   UNL     1     -14.912  -8.125  -5.179  1.00  0.00    -0.508 OA
ATOM     13  H   UNL     1     -15.791  -8.238  -5.670  1.00  0.00     0.293 HD
ENDBRANCH   6  12
TORSDOF 3
ENDMDL
