MODEL 1
REMARK VINA RESULT:    -0.100      0.000      0.000
REMARK INTER + INTRA:           0.913
REMARK INTER:                  -0.217
REMARK INTRA:                   1.130
REMARK UNBOUND:                 1.130
REMARK SMILES CCCCCCCCCCCCCCCCCCCCCC(=O)[O-]
REMARK SMILES IDX 12 1 11 2 10 3 9 4 8 5 7 6 6 7 5 8 4 9 3 10 2 11 1 12 13 13
REMARK SMILES IDX 14 14 15 15 16 16 17 17 18 18 19 19 20 20 21 21 22 22 23 23
REMARK SMILES IDX 24 24
REMARK H PARENT
REMARK Flexibility Score: inf
ROOT
ATOM      1  C   UNL     1     -32.008 -23.173 -37.354  1.00  0.00     0.000 C 
ENDROOT
BRANCH   1   2
ATOM      2  C   UNL     1     -31.714 -23.923 -38.662  1.00  0.00     0.000 C 
BRANCH   2   3
ATOM      3  C   UNL     1     -31.799 -25.442 -38.453  1.00  0.00     0.000 C 
BRANCH   3   4
ATOM      4  C   UNL     1     -32.969 -25.857 -37.545  1.00  0.00    -0.000 C 
BRANCH   4   5
ATOM      5  C   UNL     1     -33.334 -27.355 -37.594  1.00  0.00    -0.000 C 
BRANCH   5   6
ATOM      6  C   UNL     1     -34.084 -27.805 -38.863  1.00  0.00    -0.000 C 
BRANCH   6   7
ATOM      7  C   UNL     1     -34.064 -29.324 -39.125  1.00  0.00    -0.000 C 
BRANCH   7   8
ATOM      8  C   UNL     1     -32.721 -30.018 -38.823  1.00  0.00    -0.000 C 
BRANCH   8   9
ATOM      9  C   UNL     1     -31.473 -29.138 -39.034  1.00  0.00    -0.000 C 
BRANCH   9  10
ATOM     10  C   UNL     1     -30.155 -29.736 -38.500  1.00  0.00    -0.000 C 
BRANCH  10  11
ATOM     11  C   UNL     1     -29.288 -28.763 -37.680  1.00  0.00    -0.003 C 
ATOM     12  C   UNL     1     -27.909 -29.329 -37.347  1.00  0.00     0.004 C 
ENDBRANCH  10  11
ENDBRANCH   9  10
ENDBRANCH   8   9
ENDBRANCH   7   8
ENDBRANCH   6   7
ENDBRANCH   5   6
ENDBRANCH   4   5
ENDBRANCH   3   4
ENDBRANCH   2   3
ENDBRANCH   1   2
BRANCH   1  13
ATOM     13  C   UNL     1     -31.713 -24.021 -36.107  1.00  0.00     0.000 C 
BRANCH  13  14
ATOM     14  C   UNL     1     -31.419 -23.163 -34.864  1.00  0.00     0.000 C 
BRANCH  14  15
ATOM     15  C   UNL     1     -32.505 -22.106 -34.610  1.00  0.00     0.000 C 
BRANCH  15  16
ATOM     16  C   UNL     1     -31.954 -20.848 -33.921  1.00  0.00     0.000 C 
BRANCH  16  17
ATOM     17  C   UNL     1     -30.641 -21.151 -33.190  1.00  0.00     0.000 C 
BRANCH  17  18
ATOM     18  C   UNL     1     -29.789 -19.881 -33.040  1.00  0.00     0.000 C 
BRANCH  18  19
ATOM     19  C   UNL     1     -28.489 -20.131 -32.261  1.00  0.00     0.000 C 
BRANCH  19  20
ATOM     20  C   UNL     1     -28.746 -20.505 -30.791  1.00  0.00     0.006 C 
BRANCH  20  21
ATOM     21  C   UNL     1     -29.925 -21.475 -30.637  1.00  0.00     0.053 C 
BRANCH  21  22
ATOM     22  C   UNL     1     -31.005 -20.908 -29.767  1.00  0.00     0.041 C 
ATOM     23  O   UNL     1     -31.170 -21.343 -28.597  1.00  0.00    -0.550 OA
ATOM     24  O   UNL     1     -31.809 -19.878 -30.239  1.00  0.00    -0.550 OA
ENDBRANCH  21  22
ENDBRANCH  20  21
ENDBRANCH  19  20
ENDBRANCH  18  19
ENDBRANCH  17  18
ENDBRANCH  16  17
ENDBRANCH  15  16
ENDBRANCH  14  15
ENDBRANCH  13  14
ENDBRANCH   1  13
TORSDOF 20
ENDMDL
MODEL 2
REMARK VINA RESULT:     0.035      2.167      4.603
REMARK INTER + INTRA:           1.206
REMARK INTER:                   2.507
REMARK INTRA:                  -1.301
REMARK UNBOUND:                 1.130
REMARK SMILES CCCCCCCCCCCCCCCCCCCCCC(=O)[O-]
REMARK SMILES IDX 12 1 11 2 10 3 9 4 8 5 7 6 6 7 5 8 4 9 3 10 2 11 1 12 13 13
REMARK SMILES IDX 14 14 15 15 16 16 17 17 18 18 19 19 20 20 21 21 22 22 23 23
REMARK SMILES IDX 24 24
REMARK H PARENT
REMARK Flexibility Score: inf
ROOT
ATOM      1  C   UNL     1     -31.776 -21.095 -33.503  1.00  0.00     0.000 C 
ENDROOT
BRANCH   1   2
ATOM      2  C   UNL     1     -31.484 -22.585 -33.737  1.00  0.00     0.000 C 
BRANCH   2   3
ATOM      3  C   UNL     1     -31.587 -22.936 -35.228  1.00  0.00     0.000 C 
BRANCH   3   4
ATOM      4  C   UNL     1     -32.898 -22.447 -35.868  1.00  0.00    -0.000 C 
BRANCH   4   5
ATOM      5  C   UNL     1     -32.975 -22.607 -37.400  1.00  0.00    -0.000 C 
BRANCH   5   6
ATOM      6  C   UNL     1     -31.621 -22.823 -38.105  1.00  0.00    -0.000 C 
BRANCH   6   7
ATOM      7  C   UNL     1     -31.596 -23.981 -39.122  1.00  0.00    -0.000 C 
BRANCH   7   8
ATOM      8  C   UNL     1     -31.257 -25.361 -38.526  1.00  0.00    -0.000 C 
BRANCH   8   9
ATOM      9  C   UNL     1     -32.441 -26.091 -37.860  1.00  0.00    -0.000 C 
BRANCH   9  10
ATOM     10  C   UNL     1     -33.223 -27.045 -38.785  1.00  0.00    -0.000 C 
BRANCH  10  11
ATOM     11  C   UNL     1     -32.834 -28.530 -38.662  1.00  0.00    -0.003 C 
ATOM     12  C   UNL     1     -34.036 -29.470 -38.747  1.00  0.00     0.004 C 
ENDBRANCH  10  11
ENDBRANCH   9  10
ENDBRANCH   8   9
ENDBRANCH   7   8
ENDBRANCH   6   7
ENDBRANCH   5   6
ENDBRANCH   4   5
ENDBRANCH   3   4
ENDBRANCH   2   3
ENDBRANCH   1   2
BRANCH   1  13
ATOM     13  C   UNL     1     -30.558 -20.202 -33.784  1.00  0.00     0.000 C 
BRANCH  13  14
ATOM     14  C   UNL     1     -29.280 -20.710 -33.090  1.00  0.00     0.000 C 
BRANCH  14  15
ATOM     15  C   UNL     1     -29.202 -20.277 -31.617  1.00  0.00     0.000 C 
BRANCH  15  16
ATOM     16  C   UNL     1     -30.581 -19.949 -31.024  1.00  0.00     0.000 C 
BRANCH  16  17
ATOM     17  C   UNL     1     -30.787 -20.663 -29.683  1.00  0.00     0.000 C 
BRANCH  17  18
ATOM     18  C   UNL     1     -30.172 -22.071 -29.710  1.00  0.00     0.000 C 
BRANCH  18  19
ATOM     19  C   UNL     1     -30.012 -22.672 -28.305  1.00  0.00     0.000 C 
BRANCH  19  20
ATOM     20  C   UNL     1     -28.549 -23.007 -27.970  1.00  0.00     0.006 C 
BRANCH  20  21
ATOM     21  C   UNL     1     -27.886 -21.918 -27.117  1.00  0.00     0.053 C 
BRANCH  21  22
ATOM     22  C   UNL     1     -26.893 -21.117 -27.904  1.00  0.00     0.041 C 
ATOM     23  O   UNL     1     -27.277 -20.398 -28.863  1.00  0.00    -0.550 OA
ATOM     24  O   UNL     1     -25.548 -21.143 -27.558  1.00  0.00    -0.550 OA
ENDBRANCH  21  22
ENDBRANCH  20  21
ENDBRANCH  19  20
ENDBRANCH  18  19
ENDBRANCH  17  18
ENDBRANCH  16  17
ENDBRANCH  15  16
ENDBRANCH  14  15
ENDBRANCH  13  14
ENDBRANCH   1  13
TORSDOF 20
ENDMDL
MODEL 3
REMARK VINA RESULT:     0.115      1.939      4.171
REMARK INTER + INTRA:           1.380
REMARK INTER:                   0.102
REMARK INTRA:                   1.278
REMARK UNBOUND:                 1.130
REMARK SMILES CCCCCCCCCCCCCCCCCCCCCC(=O)[O-]
REMARK SMILES IDX 12 1 11 2 10 3 9 4 8 5 7 6 6 7 5 8 4 9 3 10 2 11 1 12 13 13
REMARK SMILES IDX 14 14 15 15 16 16 17 17 18 18 19 19 20 20 21 21 22 22 23 23
REMARK SMILES IDX 24 24
REMARK H PARENT
REMARK Flexibility Score: inf
ROOT
ATOM      1  C   UNL     1     -31.281 -22.401 -33.603  1.00  0.00     0.000 C 
ENDROOT
BRANCH   1   2
ATOM      2  C   UNL     1     -31.489 -22.430 -35.125  1.00  0.00     0.000 C 
BRANCH   2   3
ATOM      3  C   UNL     1     -32.711 -23.283 -35.494  1.00  0.00     0.000 C 
BRANCH   3   4
ATOM      4  C   UNL     1     -33.759 -22.506 -36.310  1.00  0.00    -0.000 C 
BRANCH   4   5
ATOM      5  C   UNL     1     -33.183 -21.445 -37.269  1.00  0.00    -0.000 C 
BRANCH   5   6
ATOM      6  C   UNL     1     -32.260 -21.993 -38.375  1.00  0.00    -0.000 C 
BRANCH   6   7
ATOM      7  C   UNL     1     -32.792 -23.242 -39.105  1.00  0.00    -0.000 C 
BRANCH   7   8
ATOM      8  C   UNL     1     -31.827 -24.444 -39.122  1.00  0.00    -0.000 C 
BRANCH   8   9
ATOM      9  C   UNL     1     -32.507 -25.826 -39.039  1.00  0.00    -0.000 C 
BRANCH   9  10
ATOM     10  C   UNL     1     -31.603 -26.969 -38.535  1.00  0.00    -0.000 C 
BRANCH  10  11
ATOM     11  C   UNL     1     -32.336 -28.288 -38.233  1.00  0.00    -0.003 C 
ATOM     12  C   UNL     1     -33.811 -28.255 -38.629  1.00  0.00     0.004 C 
ENDBRANCH  10  11
ENDBRANCH   9  10
ENDBRANCH   8   9
ENDBRANCH   7   8
ENDBRANCH   6   7
ENDBRANCH   5   6
ENDBRANCH   4   5
ENDBRANCH   3   4
ENDBRANCH   2   3
ENDBRANCH   1   2
BRANCH   1  13
ATOM     13  C   UNL     1     -31.738 -21.077 -32.969  1.00  0.00     0.000 C 
BRANCH  13  14
ATOM     14  C   UNL     1     -30.900 -19.875 -33.441  1.00  0.00     0.000 C 
BRANCH  14  15
ATOM     15  C   UNL     1     -29.390 -20.150 -33.374  1.00  0.00     0.000 C 
BRANCH  15  16
ATOM     16  C   UNL     1     -28.979 -20.881 -32.086  1.00  0.00     0.000 C 
BRANCH  16  17
ATOM     17  C   UNL     1     -28.982 -19.926 -30.887  1.00  0.00     0.000 C 
BRANCH  17  18
ATOM     18  C   UNL     1     -30.338 -19.954 -30.165  1.00  0.00     0.000 C 
BRANCH  18  19
ATOM     19  C   UNL     1     -30.755 -21.372 -29.745  1.00  0.00     0.000 C 
BRANCH  19  20
ATOM     20  C   UNL     1     -29.583 -22.182 -29.166  1.00  0.00     0.006 C 
BRANCH  20  21
ATOM     21  C   UNL     1     -29.916 -23.675 -29.040  1.00  0.00     0.053 C 
BRANCH  21  22
ATOM     22  C   UNL     1     -30.678 -24.180 -30.227  1.00  0.00     0.041 C 
ATOM     23  O   UNL     1     -31.329 -25.255 -30.153  1.00  0.00    -0.550 OA
ATOM     24  O   UNL     1     -30.692 -23.447 -31.407  1.00  0.00    -0.550 OA
ENDBRANCH  21  22
ENDBRANCH  20  21
ENDBRANCH  19  20
ENDBRANCH  18  19
ENDBRANCH  17  18
ENDBRANCH  16  17
ENDBRANCH  15  16
ENDBRANCH  14  15
ENDBRANCH  13  14
ENDBRANCH   1  13
TORSDOF 20
ENDMDL
MODEL 4
REMARK VINA RESULT:     0.280      1.393      3.886
REMARK INTER + INTRA:           1.738
REMARK INTER:                   1.740
REMARK INTRA:                  -0.002
REMARK UNBOUND:                 1.130
REMARK SMILES CCCCCCCCCCCCCCCCCCCCCC(=O)[O-]
REMARK SMILES IDX 12 1 11 2 10 3 9 4 8 5 7 6 6 7 5 8 4 9 3 10 2 11 1 12 13 13
REMARK SMILES IDX 14 14 15 15 16 16 17 17 18 18 19 19 20 20 21 21 22 22 23 23
REMARK SMILES IDX 24 24
REMARK H PARENT
REMARK Flexibility Score: inf
ROOT
ATOM      1  C   UNL     1     -31.002 -22.252 -33.697  1.00  0.00     0.000 C 
ENDROOT
BRANCH   1   2
ATOM      2  C   UNL     1     -31.302 -22.434 -35.192  1.00  0.00     0.000 C 
BRANCH   2   3
ATOM      3  C   UNL     1     -32.814 -22.382 -35.458  1.00  0.00     0.000 C 
BRANCH   3   4
ATOM      4  C   UNL     1     -33.191 -21.395 -36.577  1.00  0.00    -0.000 C 
BRANCH   4   5
ATOM      5  C   UNL     1     -33.185 -21.989 -38.000  1.00  0.00    -0.000 C 
BRANCH   5   6
ATOM      6  C   UNL     1     -31.834 -22.570 -38.462  1.00  0.00    -0.000 C 
BRANCH   6   7
ATOM      7  C   UNL     1     -31.909 -23.981 -39.078  1.00  0.00    -0.000 C 
BRANCH   7   8
ATOM      8  C   UNL     1     -32.626 -25.032 -38.208  1.00  0.00    -0.000 C 
BRANCH   8   9
ATOM      9  C   UNL     1     -31.989 -26.436 -38.225  1.00  0.00    -0.000 C 
BRANCH   9  10
ATOM     10  C   UNL     1     -32.910 -27.565 -38.731  1.00  0.00    -0.000 C 
BRANCH  10  11
ATOM     11  C   UNL     1     -32.202 -28.903 -39.009  1.00  0.00    -0.003 C 
ATOM     12  C   UNL     1     -30.737 -28.903 -38.576  1.00  0.00     0.004 C 
ENDBRANCH  10  11
ENDBRANCH   9  10
ENDBRANCH   8   9
ENDBRANCH   7   8
ENDBRANCH   6   7
ENDBRANCH   5   6
ENDBRANCH   4   5
ENDBRANCH   3   4
ENDBRANCH   2   3
ENDBRANCH   1   2
BRANCH   1  13
ATOM     13  C   UNL     1     -31.701 -21.020 -33.100  1.00  0.00     0.000 C 
BRANCH  13  14
ATOM     14  C   UNL     1     -30.716 -19.885 -32.765  1.00  0.00     0.000 C 
BRANCH  14  15
ATOM     15  C   UNL     1     -29.378 -20.032 -33.506  1.00  0.00     0.000 C 
BRANCH  15  16
ATOM     16  C   UNL     1     -28.171 -20.006 -32.555  1.00  0.00     0.000 C 
BRANCH  16  17
ATOM     17  C   UNL     1     -28.625 -19.984 -31.091  1.00  0.00     0.000 C 
BRANCH  17  18
ATOM     18  C   UNL     1     -28.855 -21.408 -30.565  1.00  0.00     0.000 C 
BRANCH  18  19
ATOM     19  C   UNL     1     -29.215 -21.435 -29.071  1.00  0.00     0.000 C 
BRANCH  19  20
ATOM     20  C   UNL     1     -30.729 -21.317 -28.828  1.00  0.00     0.006 C 
BRANCH  20  21
ATOM     21  C   UNL     1     -31.250 -19.898 -29.092  1.00  0.00     0.053 C 
BRANCH  21  22
ATOM     22  C   UNL     1     -32.622 -19.909 -29.694  1.00  0.00     0.041 C 
ATOM     23  O   UNL     1     -32.766 -19.876 -30.944  1.00  0.00    -0.550 OA
ATOM     24  O   UNL     1     -33.741 -19.986 -28.874  1.00  0.00    -0.550 OA
ENDBRANCH  21  22
ENDBRANCH  20  21
ENDBRANCH  19  20
ENDBRANCH  18  19
ENDBRANCH  17  18
ENDBRANCH  16  17
ENDBRANCH  15  16
ENDBRANCH  14  15
ENDBRANCH  13  14
ENDBRANCH   1  13
TORSDOF 20
ENDMDL
MODEL 5
REMARK VINA RESULT:     0.380      4.010      8.992
REMARK INTER + INTRA:           1.954
REMARK INTER:                   2.595
REMARK INTRA:                  -0.642
REMARK UNBOUND:                 1.130
REMARK SMILES CCCCCCCCCCCCCCCCCCCCCC(=O)[O-]
REMARK SMILES IDX 12 1 11 2 10 3 9 4 8 5 7 6 6 7 5 8 4 9 3 10 2 11 1 12 13 13
REMARK SMILES IDX 14 14 15 15 16 16 17 17 18 18 19 19 20 20 21 21 22 22 23 23
REMARK SMILES IDX 24 24
REMARK H PARENT
REMARK Flexibility Score: inf
ROOT
ATOM      1  C   UNL     1     -31.015 -22.014 -33.735  1.00  0.00     0.000 C 
ENDROOT
BRANCH   1   2
ATOM      2  C   UNL     1     -29.884 -21.044 -34.108  1.00  0.00     0.000 C 
BRANCH   2   3
ATOM      3  C   UNL     1     -28.890 -20.890 -32.948  1.00  0.00     0.000 C 
BRANCH   3   4
ATOM      4  C   UNL     1     -29.357 -19.875 -31.891  1.00  0.00    -0.000 C 
BRANCH   4   5
ATOM      5  C   UNL     1     -30.874 -19.875 -31.613  1.00  0.00    -0.000 C 
BRANCH   5   6
ATOM      6  C   UNL     1     -31.270 -20.106 -30.141  1.00  0.00    -0.000 C 
BRANCH   6   7
ATOM      7  C   UNL     1     -30.194 -20.795 -29.279  1.00  0.00    -0.000 C 
BRANCH   7   8
ATOM      8  C   UNL     1     -30.245 -22.336 -29.285  1.00  0.00    -0.000 C 
BRANCH   8   9
ATOM      9  C   UNL     1     -30.016 -22.988 -30.663  1.00  0.00    -0.000 C 
BRANCH   9  10
ATOM     10  C   UNL     1     -31.094 -24.004 -31.092  1.00  0.00    -0.000 C 
BRANCH  10  11
ATOM     11  C   UNL     1     -31.434 -25.072 -30.038  1.00  0.00    -0.003 C 
ATOM     12  C   UNL     1     -30.691 -26.388 -30.261  1.00  0.00     0.004 C 
ENDBRANCH  10  11
ENDBRANCH   9  10
ENDBRANCH   8   9
ENDBRANCH   7   8
ENDBRANCH   6   7
ENDBRANCH   5   6
ENDBRANCH   4   5
ENDBRANCH   3   4
ENDBRANCH   2   3
ENDBRANCH   1   2
BRANCH   1  13
ATOM     13  C   UNL     1     -32.410 -21.404 -33.944  1.00  0.00     0.000 C 
BRANCH  13  14
ATOM     14  C   UNL     1     -33.191 -22.089 -35.081  1.00  0.00     0.000 C 
BRANCH  14  15
ATOM     15  C   UNL     1     -32.614 -21.764 -36.467  1.00  0.00     0.000 C 
BRANCH  15  16
ATOM     16  C   UNL     1     -33.509 -22.265 -37.611  1.00  0.00     0.000 C 
BRANCH  16  17
ATOM     17  C   UNL     1     -32.667 -22.720 -38.810  1.00  0.00     0.000 C 
BRANCH  17  18
ATOM     18  C   UNL     1     -31.346 -23.351 -38.345  1.00  0.00     0.000 C 
BRANCH  18  19
ATOM     19  C   UNL     1     -31.130 -24.760 -38.919  1.00  0.00     0.000 C 
BRANCH  19  20
ATOM     20  C   UNL     1     -31.679 -25.862 -37.997  1.00  0.00     0.006 C 
BRANCH  20  21
ATOM     21  C   UNL     1     -32.833 -26.639 -38.644  1.00  0.00     0.053 C 
BRANCH  21  22
ATOM     22  C   UNL     1     -32.538 -28.105 -38.734  1.00  0.00     0.041 C 
ATOM     23  O   UNL     1     -31.348 -28.511 -38.781  1.00  0.00    -0.550 OA
ATOM     24  O   UNL     1     -33.580 -29.025 -38.736  1.00  0.00    -0.550 OA
ENDBRANCH  21  22
ENDBRANCH  20  21
ENDBRANCH  19  20
ENDBRANCH  18  19
ENDBRANCH  17  18
ENDBRANCH  16  17
ENDBRANCH  15  16
ENDBRANCH  14  15
ENDBRANCH  13  14
ENDBRANCH   1  13
TORSDOF 20
ENDMDL
MODEL 6
REMARK VINA RESULT:     0.588      2.051      4.180
REMARK INTER + INTRA:           2.405
REMARK INTER:                   0.945
REMARK INTRA:                   1.460
REMARK UNBOUND:                 1.130
REMARK SMILES CCCCCCCCCCCCCCCCCCCCCC(=O)[O-]
REMARK SMILES IDX 12 1 11 2 10 3 9 4 8 5 7 6 6 7 5 8 4 9 3 10 2 11 1 12 13 13
REMARK SMILES IDX 14 14 15 15 16 16 17 17 18 18 19 19 20 20 21 21 22 22 23 23
REMARK SMILES IDX 24 24
REMARK H PARENT
REMARK Flexibility Score: inf
ROOT
ATOM      1  C   UNL     1     -31.040 -21.680 -34.165  1.00  0.00     0.000 C 
ENDROOT
BRANCH   1   2
ATOM      2  C   UNL     1     -32.565 -21.667 -34.348  1.00  0.00     0.000 C 
BRANCH   2   3
ATOM      3  C   UNL     1     -33.035 -22.912 -35.115  1.00  0.00     0.000 C 
BRANCH   3   4
ATOM      4  C   UNL     1     -33.136 -22.677 -36.632  1.00  0.00    -0.000 C 
BRANCH   4   5
ATOM      5  C   UNL     1     -31.816 -22.858 -37.410  1.00  0.00    -0.000 C 
BRANCH   5   6
ATOM      6  C   UNL     1     -30.948 -24.049 -36.959  1.00  0.00    -0.000 C 
BRANCH   6   7
ATOM      7  C   UNL     1     -30.758 -25.153 -38.018  1.00  0.00    -0.000 C 
BRANCH   7   8
ATOM      8  C   UNL     1     -32.055 -25.626 -38.703  1.00  0.00    -0.000 C 
BRANCH   8   9
ATOM      9  C   UNL     1     -33.150 -26.134 -37.743  1.00  0.00    -0.000 C 
BRANCH   9  10
ATOM     10  C   UNL     1     -33.511 -27.626 -37.896  1.00  0.00    -0.000 C 
BRANCH  10  11
ATOM     11  C   UNL     1     -32.758 -28.363 -39.018  1.00  0.00    -0.003 C 
ATOM     12  C   UNL     1     -33.141 -29.838 -39.125  1.00  0.00     0.004 C 
ENDBRANCH  10  11
ENDBRANCH   9  10
ENDBRANCH   8   9
ENDBRANCH   7   8
ENDBRANCH   6   7
ENDBRANCH   5   6
ENDBRANCH   4   5
ENDBRANCH   3   4
ENDBRANCH   2   3
ENDBRANCH   1   2
BRANCH   1  13
ATOM     13  C   UNL     1     -30.495 -20.337 -33.652  1.00  0.00     0.000 C 
BRANCH  13  14
ATOM     14  C   UNL     1     -28.957 -20.278 -33.670  1.00  0.00     0.000 C 
BRANCH  14  15
ATOM     15  C   UNL     1     -28.346 -20.464 -32.273  1.00  0.00     0.000 C 
BRANCH  15  16
ATOM     16  C   UNL     1     -29.227 -19.875 -31.160  1.00  0.00     0.000 C 
BRANCH  16  17
ATOM     17  C   UNL     1     -30.713 -20.117 -31.449  1.00  0.00     0.000 C 
BRANCH  17  18
ATOM     18  C   UNL     1     -31.478 -20.447 -30.158  1.00  0.00     0.000 C 
BRANCH  18  19
ATOM     19  C   UNL     1     -30.663 -21.326 -29.197  1.00  0.00     0.000 C 
BRANCH  19  20
ATOM     20  C   UNL     1     -30.070 -22.564 -29.891  1.00  0.00     0.006 C 
BRANCH  20  21
ATOM     21  C   UNL     1     -29.758 -23.692 -28.898  1.00  0.00     0.053 C 
BRANCH  21  22
ATOM     22  C   UNL     1     -28.851 -23.232 -27.797  1.00  0.00     0.041 C 
ATOM     23  O   UNL     1     -28.664 -23.957 -26.785  1.00  0.00    -0.550 OA
ATOM     24  O   UNL     1     -28.189 -22.015 -27.904  1.00  0.00    -0.550 OA
ENDBRANCH  21  22
ENDBRANCH  20  21
ENDBRANCH  19  20
ENDBRANCH  18  19
ENDBRANCH  17  18
ENDBRANCH  16  17
ENDBRANCH  15  16
ENDBRANCH  14  15
ENDBRANCH  13  14
ENDBRANCH   1  13
TORSDOF 20
ENDMDL
MODEL 7
REMARK VINA RESULT:     0.614      2.357      4.942
REMARK INTER + INTRA:           2.463
REMARK INTER:                   1.198
REMARK INTRA:                   1.265
REMARK UNBOUND:                 1.130
REMARK SMILES CCCCCCCCCCCCCCCCCCCCCC(=O)[O-]
REMARK SMILES IDX 12 1 11 2 10 3 9 4 8 5 7 6 6 7 5 8 4 9 3 10 2 11 1 12 13 13
REMARK SMILES IDX 14 14 15 15 16 16 17 17 18 18 19 19 20 20 21 21 22 22 23 23
REMARK SMILES IDX 24 24
REMARK H PARENT
REMARK Flexibility Score: inf
ROOT
ATOM      1  C   UNL     1     -32.318 -20.855 -33.535  1.00  0.00     0.000 C 
ENDROOT
BRANCH   1   2
ATOM      2  C   UNL     1     -31.893 -22.077 -34.364  1.00  0.00     0.000 C 
BRANCH   2   3
ATOM      3  C   UNL     1     -32.441 -21.985 -35.796  1.00  0.00     0.000 C 
BRANCH   3   4
ATOM      4  C   UNL     1     -33.892 -21.478 -35.850  1.00  0.00    -0.000 C 
BRANCH   4   5
ATOM      5  C   UNL     1     -34.086 -20.130 -36.573  1.00  0.00    -0.000 C 
BRANCH   5   6
ATOM      6  C   UNL     1     -34.110 -20.209 -38.112  1.00  0.00    -0.000 C 
BRANCH   6   7
ATOM      7  C   UNL     1     -34.012 -21.635 -38.691  1.00  0.00    -0.000 C 
BRANCH   7   8
ATOM      8  C   UNL     1     -32.713 -22.388 -38.344  1.00  0.00    -0.000 C 
BRANCH   8   9
ATOM      9  C   UNL     1     -32.718 -23.889 -38.695  1.00  0.00    -0.000 C 
BRANCH   9  10
ATOM     10  C   UNL     1     -31.444 -24.659 -38.290  1.00  0.00    -0.000 C 
BRANCH  10  11
ATOM     11  C   UNL     1     -31.431 -26.146 -38.689  1.00  0.00    -0.003 C 
ATOM     12  C   UNL     1     -32.692 -26.891 -38.254  1.00  0.00     0.004 C 
ENDBRANCH  10  11
ENDBRANCH   9  10
ENDBRANCH   8   9
ENDBRANCH   7   8
ENDBRANCH   6   7
ENDBRANCH   5   6
ENDBRANCH   4   5
ENDBRANCH   3   4
ENDBRANCH   2   3
ENDBRANCH   1   2
BRANCH   1  13
ATOM     13  C   UNL     1     -31.151 -19.893 -33.261  1.00  0.00     0.000 C 
BRANCH  13  14
ATOM     14  C   UNL     1     -29.804 -20.437 -33.770  1.00  0.00     0.000 C 
BRANCH  14  15
ATOM     15  C   UNL     1     -28.928 -20.989 -32.635  1.00  0.00     0.000 C 
BRANCH  15  16
ATOM     16  C   UNL     1     -28.369 -19.882 -31.728  1.00  0.00     0.000 C 
BRANCH  16  17
ATOM     17  C   UNL     1     -28.919 -20.009 -30.303  1.00  0.00     0.000 C 
BRANCH  17  18
ATOM     18  C   UNL     1     -30.454 -20.049 -30.307  1.00  0.00     0.000 C 
BRANCH  18  19
ATOM     19  C   UNL     1     -31.009 -21.476 -30.175  1.00  0.00     0.000 C 
BRANCH  19  20
ATOM     20  C   UNL     1     -29.904 -22.515 -29.921  1.00  0.00     0.006 C 
BRANCH  20  21
ATOM     21  C   UNL     1     -30.025 -23.164 -28.536  1.00  0.00     0.053 C 
BRANCH  21  22
ATOM     22  C   UNL     1     -28.793 -22.950 -27.709  1.00  0.00     0.041 C 
ATOM     23  O   UNL     1     -28.464 -23.790 -26.831  1.00  0.00    -0.550 OA
ATOM     24  O   UNL     1     -27.991 -21.837 -27.931  1.00  0.00    -0.550 OA
ENDBRANCH  21  22
ENDBRANCH  20  21
ENDBRANCH  19  20
ENDBRANCH  18  19
ENDBRANCH  17  18
ENDBRANCH  16  17
ENDBRANCH  15  16
ENDBRANCH  14  15
ENDBRANCH  13  14
ENDBRANCH   1  13
TORSDOF 20
ENDMDL
MODEL 8
REMARK VINA RESULT:     0.918      4.001      9.687
REMARK INTER + INTRA:           3.122
REMARK INTER:                   1.790
REMARK INTRA:                   1.332
REMARK UNBOUND:                 1.130
REMARK SMILES CCCCCCCCCCCCCCCCCCCCCC(=O)[O-]
REMARK SMILES IDX 12 1 11 2 10 3 9 4 8 5 7 6 6 7 5 8 4 9 3 10 2 11 1 12 13 13
REMARK SMILES IDX 14 14 15 15 16 16 17 17 18 18 19 19 20 20 21 21 22 22 23 23
REMARK SMILES IDX 24 24
REMARK H PARENT
REMARK Flexibility Score: inf
ROOT
ATOM      1  C   UNL     1     -31.397 -20.028 -34.478  1.00  0.00     0.000 C 
ENDROOT
BRANCH   1   2
ATOM      2  C   UNL     1     -30.786 -19.912 -33.073  1.00  0.00     0.000 C 
BRANCH   2   3
ATOM      3  C   UNL     1     -29.389 -20.550 -33.029  1.00  0.00     0.000 C 
BRANCH   3   4
ATOM      4  C   UNL     1     -29.399 -21.972 -32.442  1.00  0.00    -0.000 C 
BRANCH   4   5
ATOM      5  C   UNL     1     -30.346 -22.176 -31.243  1.00  0.00    -0.000 C 
BRANCH   5   6
ATOM      6  C   UNL     1     -30.961 -20.885 -30.666  1.00  0.00    -0.000 C 
BRANCH   6   7
ATOM      7  C   UNL     1     -30.028 -20.076 -29.744  1.00  0.00    -0.000 C 
BRANCH   7   8
ATOM      8  C   UNL     1     -28.530 -20.167 -30.095  1.00  0.00    -0.000 C 
BRANCH   8   9
ATOM      9  C   UNL     1     -27.574 -20.113 -28.886  1.00  0.00    -0.000 C 
BRANCH   9  10
ATOM     10  C   UNL     1     -27.609 -21.354 -27.970  1.00  0.00    -0.000 C 
BRANCH  10  11
ATOM     11  C   UNL     1     -28.880 -22.213 -28.091  1.00  0.00    -0.003 C 
ATOM     12  C   UNL     1     -28.715 -23.609 -27.494  1.00  0.00     0.004 C 
ENDBRANCH  10  11
ENDBRANCH   9  10
ENDBRANCH   8   9
ENDBRANCH   7   8
ENDBRANCH   6   7
ENDBRANCH   5   6
ENDBRANCH   4   5
ENDBRANCH   3   4
ENDBRANCH   2   3
ENDBRANCH   1   2
BRANCH   1  13
ATOM     13  C   UNL     1     -32.870 -20.464 -34.447  1.00  0.00     0.000 C 
BRANCH  13  14
ATOM     14  C   UNL     1     -33.661 -19.962 -35.669  1.00  0.00     0.000 C 
BRANCH  14  15
ATOM     15  C   UNL     1     -34.123 -21.110 -36.580  1.00  0.00     0.000 C 
BRANCH  15  16
ATOM     16  C   UNL     1     -32.984 -22.077 -36.935  1.00  0.00     0.000 C 
BRANCH  16  17
ATOM     17  C   UNL     1     -33.145 -23.411 -36.197  1.00  0.00     0.000 C 
BRANCH  17  18
ATOM     18  C   UNL     1     -32.187 -24.472 -36.762  1.00  0.00     0.000 C 
BRANCH  18  19
ATOM     19  C   UNL     1     -32.078 -24.413 -38.293  1.00  0.00     0.000 C 
BRANCH  19  20
ATOM     20  C   UNL     1     -31.839 -25.797 -38.920  1.00  0.00     0.006 C 
BRANCH  20  21
ATOM     21  C   UNL     1     -32.896 -26.821 -38.485  1.00  0.00     0.053 C 
BRANCH  21  22
ATOM     22  C   UNL     1     -32.434 -28.229 -38.707  1.00  0.00     0.041 C 
ATOM     23  O   UNL     1     -33.239 -29.103 -39.123  1.00  0.00    -0.550 OA
ATOM     24  O   UNL     1     -31.105 -28.569 -38.483  1.00  0.00    -0.550 OA
ENDBRANCH  21  22
ENDBRANCH  20  21
ENDBRANCH  19  20
ENDBRANCH  18  19
ENDBRANCH  17  18
ENDBRANCH  16  17
ENDBRANCH  15  16
ENDBRANCH  14  15
ENDBRANCH  13  14
ENDBRANCH   1  13
TORSDOF 20
ENDMDL
MODEL 9
REMARK VINA RESULT:     0.939      2.317      5.291
REMARK INTER + INTRA:           3.167
REMARK INTER:                   3.691
REMARK INTRA:                  -0.524
REMARK UNBOUND:                 1.130
REMARK SMILES CCCCCCCCCCCCCCCCCCCCCC(=O)[O-]
REMARK SMILES IDX 12 1 11 2 10 3 9 4 8 5 7 6 6 7 5 8 4 9 3 10 2 11 1 12 13 13
REMARK SMILES IDX 14 14 15 15 16 16 17 17 18 18 19 19 20 20 21 21 22 22 23 23
REMARK SMILES IDX 24 24
REMARK H PARENT
REMARK Flexibility Score: inf
ROOT
ATOM      1  C   UNL     1     -28.954 -21.275 -33.170  1.00  0.00     0.000 C 
ENDROOT
BRANCH   1   2
ATOM      2  C   UNL     1     -30.327 -21.041 -33.820  1.00  0.00     0.000 C 
BRANCH   2   3
ATOM      3  C   UNL     1     -30.780 -22.280 -34.606  1.00  0.00     0.000 C 
BRANCH   3   4
ATOM      4  C   UNL     1     -32.197 -22.744 -34.227  1.00  0.00    -0.000 C 
BRANCH   4   5
ATOM      5  C   UNL     1     -33.195 -22.818 -35.400  1.00  0.00    -0.000 C 
BRANCH   5   6
ATOM      6  C   UNL     1     -33.000 -21.749 -36.494  1.00  0.00    -0.000 C 
BRANCH   6   7
ATOM      7  C   UNL     1     -33.617 -22.099 -37.863  1.00  0.00    -0.000 C 
BRANCH   7   8
ATOM      8  C   UNL     1     -32.650 -22.772 -38.857  1.00  0.00    -0.000 C 
BRANCH   8   9
ATOM      9  C   UNL     1     -31.356 -23.329 -38.231  1.00  0.00    -0.000 C 
BRANCH   9  10
ATOM     10  C   UNL     1     -31.114 -24.835 -38.460  1.00  0.00    -0.000 C 
BRANCH  10  11
ATOM     11  C   UNL     1     -32.273 -25.750 -38.026  1.00  0.00    -0.003 C 
ATOM     12  C   UNL     1     -32.129 -27.181 -38.542  1.00  0.00     0.004 C 
ENDBRANCH  10  11
ENDBRANCH   9  10
ENDBRANCH   8   9
ENDBRANCH   7   8
ENDBRANCH   6   7
ENDBRANCH   5   6
ENDBRANCH   4   5
ENDBRANCH   3   4
ENDBRANCH   2   3
ENDBRANCH   1   2
BRANCH   1  13
ATOM     13  C   UNL     1     -28.456 -20.052 -32.384  1.00  0.00     0.000 C 
BRANCH  13  14
ATOM     14  C   UNL     1     -28.916 -20.068 -30.914  1.00  0.00     0.000 C 
BRANCH  14  15
ATOM     15  C   UNL     1     -30.434 -19.875 -30.772  1.00  0.00     0.000 C 
BRANCH  15  16
ATOM     16  C   UNL     1     -31.115 -21.058 -30.067  1.00  0.00     0.000 C 
BRANCH  16  17
ATOM     17  C   UNL     1     -30.690 -22.391 -30.694  1.00  0.00     0.000 C 
BRANCH  17  18
ATOM     18  C   UNL     1     -29.798 -23.192 -29.733  1.00  0.00     0.000 C 
BRANCH  18  19
ATOM     19  C   UNL     1     -29.717 -22.558 -28.336  1.00  0.00     0.000 C 
BRANCH  19  20
ATOM     20  C   UNL     1     -28.537 -23.099 -27.511  1.00  0.00     0.006 C 
BRANCH  20  21
ATOM     21  C   UNL     1     -27.767 -21.981 -26.797  1.00  0.00     0.053 C 
BRANCH  21  22
ATOM     22  C   UNL     1     -26.920 -21.190 -27.747  1.00  0.00     0.041 C 
ATOM     23  O   UNL     1     -27.435 -20.663 -28.768  1.00  0.00    -0.550 OA
ATOM     24  O   UNL     1     -25.567 -21.009 -27.487  1.00  0.00    -0.550 OA
ENDBRANCH  21  22
ENDBRANCH  20  21
ENDBRANCH  19  20
ENDBRANCH  18  19
ENDBRANCH  17  18
ENDBRANCH  16  17
ENDBRANCH  15  16
ENDBRANCH  14  15
ENDBRANCH  13  14
ENDBRANCH   1  13
TORSDOF 20
ENDMDL
