MODEL 1
REMARK VINA RESULT:    -4.614      0.000      0.000
REMARK INTER + INTRA:          -9.060
REMARK INTER:                  -7.851
REMARK INTRA:                  -1.209
REMARK UNBOUND:                -1.209
REMARK SMILES CCCCCCCCCCCCCC(=O)[O-]
REMARK SMILES IDX 8 1 9 2 10 3 11 4 12 5 13 6 14 7 15 8 16 9 7 10 6 11 5 12
REMARK SMILES IDX 4 13 3 14 2 15 1 16
REMARK H PARENT
REMARK Flexibility Score: inf
ROOT
ATOM      1  C   UNL     1     192.567 194.590 191.106  1.00  0.00     0.000 C 
ENDROOT
BRANCH   1   2
ATOM      2  C   UNL     1     191.231 195.285 191.435  1.00  0.00     0.000 C 
BRANCH   2   3
ATOM      3  C   UNL     1     190.964 195.520 192.935  1.00  0.00     0.000 C 
BRANCH   3   4
ATOM      4  C   UNL     1     190.772 196.992 193.338  1.00  0.00     0.000 C 
BRANCH   4   5
ATOM      5  C   UNL     1     191.980 197.871 192.978  1.00  0.00     0.006 C 
BRANCH   5   6
ATOM      6  C   UNL     1     191.636 198.836 191.840  1.00  0.00     0.053 C 
BRANCH   6   7
ATOM      7  C   UNL     1     192.745 199.819 191.634  1.00  0.00     0.041 C 
ATOM      8  O   UNL     1     193.121 200.117 190.471  1.00  0.00    -0.550 OA
ATOM      9  O   UNL     1     193.398 200.369 192.731  1.00  0.00    -0.550 OA
ENDBRANCH   6   7
ENDBRANCH   5   6
ENDBRANCH   4   5
ENDBRANCH   3   4
ENDBRANCH   2   3
ENDBRANCH   1   2
BRANCH   1  10
ATOM     10  C   UNL     1     192.458 193.097 190.741  1.00  0.00     0.000 C 
BRANCH  10  11
ATOM     11  C   UNL     1     192.191 192.202 191.961  1.00  0.00    -0.000 C 
BRANCH  11  12
ATOM     12  C   UNL     1     190.998 191.249 191.756  1.00  0.00    -0.000 C 
BRANCH  12  13
ATOM     13  C   UNL     1     189.689 191.679 192.442  1.00  0.00    -0.000 C 
BRANCH  13  14
ATOM     14  C   UNL     1     188.768 192.495 191.522  1.00  0.00    -0.000 C 
BRANCH  14  15
ATOM     15  C   UNL     1     188.931 192.065 190.060  1.00  0.00    -0.003 C 
ATOM     16  C   UNL     1     187.697 192.426 189.239  1.00  0.00     0.004 C 
ENDBRANCH  14  15
ENDBRANCH  13  14
ENDBRANCH  12  13
ENDBRANCH  11  12
ENDBRANCH  10  11
ENDBRANCH   1  10
TORSDOF 12
ENDMDL
MODEL 2
REMARK VINA RESULT:    -4.584      4.004      7.332
REMARK INTER + INTRA:          -9.009
REMARK INTER:                  -8.116
REMARK INTRA:                  -0.893
REMARK UNBOUND:                -1.209
REMARK SMILES CCCCCCCCCCCCCC(=O)[O-]
REMARK SMILES IDX 8 1 9 2 10 3 11 4 12 5 13 6 14 7 15 8 16 9 7 10 6 11 5 12
REMARK SMILES IDX 4 13 3 14 2 15 1 16
REMARK H PARENT
REMARK Flexibility Score: inf
ROOT
ATOM      1  C   UNL     1     192.668 194.659 191.700  1.00  0.00     0.000 C 
ENDROOT
BRANCH   1   2
ATOM      2  C   UNL     1     192.656 193.464 190.725  1.00  0.00     0.000 C 
BRANCH   2   3
ATOM      3  C   UNL     1     191.529 192.438 190.959  1.00  0.00     0.000 C 
BRANCH   3   4
ATOM      4  C   UNL     1     191.808 191.410 192.069  1.00  0.00     0.000 C 
BRANCH   4   5
ATOM      5  C   UNL     1     190.589 191.161 192.970  1.00  0.00     0.006 C 
BRANCH   5   6
ATOM      6  C   UNL     1     189.378 191.964 192.488  1.00  0.00     0.053 C 
BRANCH   6   7
ATOM      7  C   UNL     1     188.290 191.045 192.028  1.00  0.00     0.041 C 
ATOM      8  O   UNL     1     187.477 191.416 191.143  1.00  0.00    -0.550 OA
ATOM      9  O   UNL     1     188.145 189.793 192.614  1.00  0.00    -0.550 OA
ENDBRANCH   6   7
ENDBRANCH   5   6
ENDBRANCH   4   5
ENDBRANCH   3   4
ENDBRANCH   2   3
ENDBRANCH   1   2
BRANCH   1  10
ATOM     10  C   UNL     1     191.470 195.618 191.577  1.00  0.00     0.000 C 
BRANCH  10  11
ATOM     11  C   UNL     1     190.865 195.997 192.938  1.00  0.00    -0.000 C 
BRANCH  11  12
ATOM     12  C   UNL     1     191.141 197.460 193.331  1.00  0.00    -0.000 C 
BRANCH  12  13
ATOM     13  C   UNL     1     191.966 198.269 192.314  1.00  0.00    -0.000 C 
BRANCH  13  14
ATOM     14  C   UNL     1     193.057 199.127 192.973  1.00  0.00    -0.000 C 
BRANCH  14  15
ATOM     15  C   UNL     1     193.339 200.386 192.146  1.00  0.00    -0.003 C 
ATOM     16  C   UNL     1     192.954 200.184 190.684  1.00  0.00     0.004 C 
ENDBRANCH  14  15
ENDBRANCH  13  14
ENDBRANCH  12  13
ENDBRANCH  11  12
ENDBRANCH  10  11
ENDBRANCH   1  10
TORSDOF 12
ENDMDL
MODEL 3
REMARK VINA RESULT:    -4.540      4.394      6.570
REMARK INTER + INTRA:          -8.935
REMARK INTER:                  -7.531
REMARK INTRA:                  -1.403
REMARK UNBOUND:                -1.209
REMARK SMILES CCCCCCCCCCCCCC(=O)[O-]
REMARK SMILES IDX 8 1 9 2 10 3 11 4 12 5 13 6 14 7 15 8 16 9 7 10 6 11 5 12
REMARK SMILES IDX 4 13 3 14 2 15 1 16
REMARK H PARENT
REMARK Flexibility Score: inf
ROOT
ATOM      1  C   UNL     1     190.573 196.017 193.426  1.00  0.00     0.000 C 
ENDROOT
BRANCH   1   2
ATOM      2  C   UNL     1     191.725 195.926 192.406  1.00  0.00     0.000 C 
BRANCH   2   3
ATOM      3  C   UNL     1     191.464 195.001 191.201  1.00  0.00     0.000 C 
BRANCH   3   4
ATOM      4  C   UNL     1     192.322 193.725 191.164  1.00  0.00     0.000 C 
BRANCH   4   5
ATOM      5  C   UNL     1     191.480 192.443 191.079  1.00  0.00     0.006 C 
BRANCH   5   6
ATOM      6  C   UNL     1     191.879 191.453 192.177  1.00  0.00     0.053 C 
BRANCH   6   7
ATOM      7  C   UNL     1     190.664 190.924 192.872  1.00  0.00     0.041 C 
ATOM      8  O   UNL     1     190.774 190.030 193.750  1.00  0.00    -0.550 OA
ATOM      9  O   UNL     1     189.403 191.387 192.515  1.00  0.00    -0.550 OA
ENDBRANCH   6   7
ENDBRANCH   5   6
ENDBRANCH   4   5
ENDBRANCH   3   4
ENDBRANCH   2   3
ENDBRANCH   1   2
BRANCH   1  10
ATOM     10  C   UNL     1     189.673 194.769 193.513  1.00  0.00     0.000 C 
BRANCH  10  11
ATOM     11  C   UNL     1     189.484 194.268 194.953  1.00  0.00    -0.000 C 
BRANCH  11  12
ATOM     12  C   UNL     1     188.004 194.186 195.371  1.00  0.00    -0.000 C 
BRANCH  12  13
ATOM     13  C   UNL     1     187.070 195.196 194.681  1.00  0.00    -0.000 C 
BRANCH  13  14
ATOM     14  C   UNL     1     186.755 196.419 195.556  1.00  0.00    -0.000 C 
BRANCH  14  15
ATOM     15  C   UNL     1     187.726 197.568 195.265  1.00  0.00    -0.003 C 
ATOM     16  C   UNL     1     188.746 197.726 196.389  1.00  0.00     0.004 C 
ENDBRANCH  14  15
ENDBRANCH  13  14
ENDBRANCH  12  13
ENDBRANCH  11  12
ENDBRANCH  10  11
ENDBRANCH   1  10
TORSDOF 12
ENDMDL
MODEL 4
REMARK VINA RESULT:    -4.491      1.276      2.380
REMARK INTER + INTRA:          -8.850
REMARK INTER:                  -7.558
REMARK INTRA:                  -1.293
REMARK UNBOUND:                -1.209
REMARK SMILES CCCCCCCCCCCCCC(=O)[O-]
REMARK SMILES IDX 8 1 9 2 10 3 11 4 12 5 13 6 14 7 15 8 16 9 7 10 6 11 5 12
REMARK SMILES IDX 4 13 3 14 2 15 1 16
REMARK H PARENT
REMARK Flexibility Score: inf
ROOT
ATOM      1  C   UNL     1     192.479 193.455 190.955  1.00  0.00     0.000 C 
ENDROOT
BRANCH   1   2
ATOM      2  C   UNL     1     191.760 194.799 191.190  1.00  0.00     0.000 C 
BRANCH   2   3
ATOM      3  C   UNL     1     192.266 195.611 192.399  1.00  0.00     0.000 C 
BRANCH   3   4
ATOM      4  C   UNL     1     191.351 196.771 192.829  1.00  0.00     0.000 C 
BRANCH   4   5
ATOM      5  C   UNL     1     192.109 198.097 192.998  1.00  0.00     0.006 C 
BRANCH   5   6
ATOM      6  C   UNL     1     191.861 199.025 191.805  1.00  0.00     0.053 C 
BRANCH   6   7
ATOM      7  C   UNL     1     192.965 200.027 191.682  1.00  0.00     0.041 C 
ATOM      8  O   UNL     1     193.401 200.619 192.703  1.00  0.00    -0.550 OA
ATOM      9  O   UNL     1     193.482 200.342 190.431  1.00  0.00    -0.550 OA
ENDBRANCH   6   7
ENDBRANCH   5   6
ENDBRANCH   4   5
ENDBRANCH   3   4
ENDBRANCH   2   3
ENDBRANCH   1   2
BRANCH   1  10
ATOM     10  C   UNL     1     191.553 192.239 190.773  1.00  0.00     0.000 C 
BRANCH  10  11
ATOM     11  C   UNL     1     191.436 191.381 192.043  1.00  0.00    -0.000 C 
BRANCH  11  12
ATOM     12  C   UNL     1     190.003 191.329 192.603  1.00  0.00    -0.000 C 
BRANCH  12  13
ATOM     13  C   UNL     1     189.092 192.496 192.184  1.00  0.00    -0.000 C 
BRANCH  13  14
ATOM     14  C   UNL     1     188.540 193.287 193.380  1.00  0.00    -0.000 C 
BRANCH  14  15
ATOM     15  C   UNL     1     189.673 193.755 194.300  1.00  0.00    -0.003 C 
ATOM     16  C   UNL     1     189.206 194.875 195.225  1.00  0.00     0.004 C 
ENDBRANCH  14  15
ENDBRANCH  13  14
ENDBRANCH  12  13
ENDBRANCH  11  12
ENDBRANCH  10  11
ENDBRANCH   1  10
TORSDOF 12
ENDMDL
MODEL 5
REMARK VINA RESULT:    -4.452      3.373      4.838
REMARK INTER + INTRA:          -8.785
REMARK INTER:                  -7.325
REMARK INTRA:                  -1.460
REMARK UNBOUND:                -1.209
REMARK SMILES CCCCCCCCCCCCCC(=O)[O-]
REMARK SMILES IDX 8 1 9 2 10 3 11 4 12 5 13 6 14 7 15 8 16 9 7 10 6 11 5 12
REMARK SMILES IDX 4 13 3 14 2 15 1 16
REMARK H PARENT
REMARK Flexibility Score: inf
ROOT
ATOM      1  C   UNL     1     190.000 194.417 193.908  1.00  0.00     0.000 C 
ENDROOT
BRANCH   1   2
ATOM      2  C   UNL     1     188.515 194.106 193.634  1.00  0.00     0.000 C 
BRANCH   2   3
ATOM      3  C   UNL     1     187.575 194.272 194.846  1.00  0.00     0.000 C 
BRANCH   3   4
ATOM      4  C   UNL     1     186.558 195.420 194.725  1.00  0.00     0.000 C 
BRANCH   4   5
ATOM      5  C   UNL     1     186.816 196.554 195.729  1.00  0.00     0.006 C 
BRANCH   5   6
ATOM      6  C   UNL     1     188.010 197.409 195.294  1.00  0.00     0.053 C 
BRANCH   6   7
ATOM      7  C   UNL     1     189.029 197.480 196.387  1.00  0.00     0.041 C 
ATOM      8  O   UNL     1     189.581 196.431 196.810  1.00  0.00    -0.550 OA
ATOM      9  O   UNL     1     189.334 198.703 196.974  1.00  0.00    -0.550 OA
ENDBRANCH   6   7
ENDBRANCH   5   6
ENDBRANCH   4   5
ENDBRANCH   3   4
ENDBRANCH   2   3
ENDBRANCH   1   2
BRANCH   1  10
ATOM     10  C   UNL     1     190.561 195.644 193.166  1.00  0.00     0.000 C 
BRANCH  10  11
ATOM     11  C   UNL     1     191.013 195.320 191.733  1.00  0.00    -0.000 C 
BRANCH  11  12
ATOM     12  C   UNL     1     192.465 194.810 191.663  1.00  0.00    -0.000 C 
BRANCH  12  13
ATOM     13  C   UNL     1     192.649 193.447 190.974  1.00  0.00    -0.000 C 
BRANCH  13  14
ATOM     14  C   UNL     1     191.376 192.586 190.994  1.00  0.00    -0.000 C 
BRANCH  14  15
ATOM     15  C   UNL     1     191.662 191.196 191.571  1.00  0.00    -0.003 C 
ATOM     16  C   UNL     1     190.889 190.967 192.866  1.00  0.00     0.004 C 
ENDBRANCH  14  15
ENDBRANCH  13  14
ENDBRANCH  12  13
ENDBRANCH  11  12
ENDBRANCH  10  11
ENDBRANCH   1  10
TORSDOF 12
ENDMDL
MODEL 6
REMARK VINA RESULT:    -4.419      3.279      4.787
REMARK INTER + INTRA:          -8.728
REMARK INTER:                  -7.308
REMARK INTRA:                  -1.421
REMARK UNBOUND:                -1.209
REMARK SMILES CCCCCCCCCCCCCC(=O)[O-]
REMARK SMILES IDX 8 1 9 2 10 3 11 4 12 5 13 6 14 7 15 8 16 9 7 10 6 11 5 12
REMARK SMILES IDX 4 13 3 14 2 15 1 16
REMARK H PARENT
REMARK Flexibility Score: inf
ROOT
ATOM      1  C   UNL     1     188.994 193.786 193.136  1.00  0.00     0.000 C 
ENDROOT
BRANCH   1   2
ATOM      2  C   UNL     1     189.607 193.873 194.548  1.00  0.00     0.000 C 
BRANCH   2   3
ATOM      3  C   UNL     1     188.711 194.539 195.612  1.00  0.00     0.000 C 
BRANCH   3   4
ATOM      4  C   UNL     1     187.637 195.488 195.055  1.00  0.00     0.000 C 
BRANCH   4   5
ATOM      5  C   UNL     1     187.632 196.858 195.750  1.00  0.00     0.006 C 
BRANCH   5   6
ATOM      6  C   UNL     1     188.996 197.542 195.623  1.00  0.00     0.053 C 
BRANCH   6   7
ATOM      7  C   UNL     1     189.516 197.927 196.972  1.00  0.00     0.041 C 
ATOM      8  O   UNL     1     189.989 197.052 197.743  1.00  0.00    -0.550 OA
ATOM      9  O   UNL     1     189.435 199.248 197.396  1.00  0.00    -0.550 OA
ENDBRANCH   6   7
ENDBRANCH   5   6
ENDBRANCH   4   5
ENDBRANCH   3   4
ENDBRANCH   2   3
ENDBRANCH   1   2
BRANCH   1  10
ATOM     10  C   UNL     1     189.273 192.475 192.379  1.00  0.00     0.000 C 
BRANCH  10  11
ATOM     11  C   UNL     1     190.391 191.639 193.023  1.00  0.00    -0.000 C 
BRANCH  11  12
ATOM     12  C   UNL     1     191.668 191.583 192.165  1.00  0.00    -0.000 C 
BRANCH  12  13
ATOM     13  C   UNL     1     191.739 192.613 191.024  1.00  0.00    -0.000 C 
BRANCH  13  14
ATOM     14  C   UNL     1     192.643 193.811 191.352  1.00  0.00    -0.000 C 
BRANCH  14  15
ATOM     15  C   UNL     1     191.895 195.134 191.151  1.00  0.00    -0.003 C 
ATOM     16  C   UNL     1     191.936 195.987 192.415  1.00  0.00     0.004 C 
ENDBRANCH  14  15
ENDBRANCH  13  14
ENDBRANCH  12  13
ENDBRANCH  11  12
ENDBRANCH  10  11
ENDBRANCH   1  10
TORSDOF 12
ENDMDL
MODEL 7
REMARK VINA RESULT:    -4.367      3.881      4.960
REMARK INTER + INTRA:          -8.639
REMARK INTER:                  -7.199
REMARK INTRA:                  -1.441
REMARK UNBOUND:                -1.209
REMARK SMILES CCCCCCCCCCCCCC(=O)[O-]
REMARK SMILES IDX 8 1 9 2 10 3 11 4 12 5 13 6 14 7 15 8 16 9 7 10 6 11 5 12
REMARK SMILES IDX 4 13 3 14 2 15 1 16
REMARK H PARENT
REMARK Flexibility Score: inf
ROOT
ATOM      1  C   UNL     1     191.599 196.165 192.652  1.00  0.00     0.000 C 
ENDROOT
BRANCH   1   2
ATOM      2  C   UNL     1     190.395 195.976 193.596  1.00  0.00     0.000 C 
BRANCH   2   3
ATOM      3  C   UNL     1     189.966 194.513 193.828  1.00  0.00     0.000 C 
BRANCH   3   4
ATOM      4  C   UNL     1     189.042 194.292 195.038  1.00  0.00     0.000 C 
BRANCH   4   5
ATOM      5  C   UNL     1     187.575 194.078 194.637  1.00  0.00     0.006 C 
BRANCH   5   6
ATOM      6  C   UNL     1     186.628 194.617 195.713  1.00  0.00     0.053 C 
BRANCH   6   7
ATOM      7  C   UNL     1     186.048 195.929 195.291  1.00  0.00     0.041 C 
ATOM      8  O   UNL     1     184.831 196.014 194.978  1.00  0.00    -0.550 OA
ATOM      9  O   UNL     1     186.863 197.051 195.195  1.00  0.00    -0.550 OA
ENDBRANCH   6   7
ENDBRANCH   5   6
ENDBRANCH   4   5
ENDBRANCH   3   4
ENDBRANCH   2   3
ENDBRANCH   1   2
BRANCH   1  10
ATOM     10  C   UNL     1     191.532 195.369 191.335  1.00  0.00     0.000 C 
BRANCH  10  11
ATOM     11  C   UNL     1     192.718 194.407 191.158  1.00  0.00    -0.000 C 
BRANCH  11  12
ATOM     12  C   UNL     1     192.281 192.978 190.787  1.00  0.00    -0.000 C 
BRANCH  12  13
ATOM     13  C   UNL     1     191.867 192.089 191.973  1.00  0.00    -0.000 C 
BRANCH  13  14
ATOM     14  C   UNL     1     190.504 191.410 191.768  1.00  0.00    -0.000 C 
BRANCH  14  15
ATOM     15  C   UNL     1     189.664 192.165 190.733  1.00  0.00    -0.003 C 
ATOM     16  C   UNL     1     188.271 192.474 191.273  1.00  0.00     0.004 C 
ENDBRANCH  14  15
ENDBRANCH  13  14
ENDBRANCH  12  13
ENDBRANCH  11  12
ENDBRANCH  10  11
ENDBRANCH   1  10
TORSDOF 12
ENDMDL
MODEL 8
REMARK VINA RESULT:    -4.357      2.066      4.268
REMARK INTER + INTRA:          -8.622
REMARK INTER:                  -7.097
REMARK INTRA:                  -1.525
REMARK UNBOUND:                -1.209
REMARK SMILES CCCCCCCCCCCCCC(=O)[O-]
REMARK SMILES IDX 8 1 9 2 10 3 11 4 12 5 13 6 14 7 15 8 16 9 7 10 6 11 5 12
REMARK SMILES IDX 4 13 3 14 2 15 1 16
REMARK H PARENT
REMARK Flexibility Score: inf
ROOT
ATOM      1  C   UNL     1     189.929 191.734 191.842  1.00  0.00     0.000 C 
ENDROOT
BRANCH   1   2
ATOM      2  C   UNL     1     191.148 191.922 190.916  1.00  0.00     0.000 C 
BRANCH   2   3
ATOM      3  C   UNL     1     192.370 192.598 191.570  1.00  0.00     0.000 C 
BRANCH   3   4
ATOM      4  C   UNL     1     192.720 193.987 191.010  1.00  0.00     0.000 C 
BRANCH   4   5
ATOM      5  C   UNL     1     192.295 195.130 191.944  1.00  0.00     0.006 C 
BRANCH   5   6
ATOM      6  C   UNL     1     191.220 196.002 191.289  1.00  0.00     0.053 C 
BRANCH   6   7
ATOM      7  C   UNL     1     191.544 197.452 191.462  1.00  0.00     0.041 C 
ATOM      8  O   UNL     1     191.652 198.203 190.458  1.00  0.00    -0.550 OA
ATOM      9  O   UNL     1     191.774 197.965 192.733  1.00  0.00    -0.550 OA
ENDBRANCH   6   7
ENDBRANCH   5   6
ENDBRANCH   4   5
ENDBRANCH   3   4
ENDBRANCH   2   3
ENDBRANCH   1   2
BRANCH   1  10
ATOM     10  C   UNL     1     188.864 192.844 191.758  1.00  0.00     0.000 C 
BRANCH  10  11
ATOM     11  C   UNL     1     188.452 193.382 193.138  1.00  0.00    -0.000 C 
BRANCH  11  12
ATOM     12  C   UNL     1     189.658 193.707 194.040  1.00  0.00    -0.000 C 
BRANCH  12  13
ATOM     13  C   UNL     1     189.395 194.756 195.135  1.00  0.00    -0.000 C 
BRANCH  13  14
ATOM     14  C   UNL     1     189.490 196.200 194.619  1.00  0.00    -0.000 C 
BRANCH  14  15
ATOM     15  C   UNL     1     188.599 197.137 195.442  1.00  0.00    -0.003 C 
ATOM     16  C   UNL     1     187.125 196.774 195.287  1.00  0.00     0.004 C 
ENDBRANCH  14  15
ENDBRANCH  13  14
ENDBRANCH  12  13
ENDBRANCH  11  12
ENDBRANCH  10  11
ENDBRANCH   1  10
TORSDOF 12
ENDMDL
MODEL 9
REMARK VINA RESULT:    -4.304      1.517      3.251
REMARK INTER + INTRA:          -8.532
REMARK INTER:                  -6.966
REMARK INTRA:                  -1.565
REMARK UNBOUND:                -1.209
REMARK SMILES CCCCCCCCCCCCCC(=O)[O-]
REMARK SMILES IDX 8 1 9 2 10 3 11 4 12 5 13 6 14 7 15 8 16 9 7 10 6 11 5 12
REMARK SMILES IDX 4 13 3 14 2 15 1 16
REMARK H PARENT
REMARK Flexibility Score: inf
ROOT
ATOM      1  C   UNL     1     188.138 194.082 193.845  1.00  0.00     0.000 C 
ENDROOT
BRANCH   1   2
ATOM      2  C   UNL     1     189.674 194.121 193.976  1.00  0.00     0.000 C 
BRANCH   2   3
ATOM      3  C   UNL     1     190.348 195.395 193.426  1.00  0.00     0.000 C 
BRANCH   3   4
ATOM      4  C   UNL     1     191.175 195.190 192.146  1.00  0.00     0.000 C 
BRANCH   4   5
ATOM      5  C   UNL     1     191.510 196.510 191.435  1.00  0.00     0.006 C 
BRANCH   5   6
ATOM      6  C   UNL     1     191.160 197.712 192.318  1.00  0.00     0.053 C 
BRANCH   6   7
ATOM      7  C   UNL     1     192.310 198.668 192.380  1.00  0.00     0.041 C 
ATOM      8  O   UNL     1     192.442 199.559 191.501  1.00  0.00    -0.550 OA
ATOM      9  O   UNL     1     193.263 198.544 193.383  1.00  0.00    -0.550 OA
ENDBRANCH   6   7
ENDBRANCH   5   6
ENDBRANCH   4   5
ENDBRANCH   3   4
ENDBRANCH   2   3
ENDBRANCH   1   2
BRANCH   1  10
ATOM     10  C   UNL     1     187.564 192.791 193.234  1.00  0.00     0.000 C 
BRANCH  10  11
ATOM     11  C   UNL     1     187.085 192.977 191.785  1.00  0.00    -0.000 C 
BRANCH  11  12
ATOM     12  C   UNL     1     188.199 192.738 190.749  1.00  0.00    -0.000 C 
BRANCH  12  13
ATOM     13  C   UNL     1     189.184 191.606 191.093  1.00  0.00    -0.000 C 
BRANCH  13  14
ATOM     14  C   UNL     1     190.653 192.006 190.893  1.00  0.00    -0.000 C 
BRANCH  14  15
ATOM     15  C   UNL     1     191.563 191.266 191.879  1.00  0.00    -0.003 C 
ATOM     16  C   UNL     1     190.776 190.766 193.087  1.00  0.00     0.004 C 
ENDBRANCH  14  15
ENDBRANCH  13  14
ENDBRANCH  12  13
ENDBRANCH  11  12
ENDBRANCH  10  11
ENDBRANCH   1  10
TORSDOF 12
ENDMDL
