MODEL 1
REMARK VINA RESULT:    -4.391      0.000      0.000
REMARK INTER + INTRA:          -5.147
REMARK INTER:                  -5.418
REMARK INTRA:                   0.270
REMARK UNBOUND:                 0.270
REMARK SMILES C=C1[C@@H]2CC[C@H]3[C@H]2C(C)(C)CCC[C@@]13C
REMARK SMILES IDX 14 1 6 2 7 3 3 4 2 5 1 6 4 7 5 8 15 9 8 10 9 11 10 12 11 13
REMARK SMILES IDX 13 15 12 16
REMARK H PARENT
REMARK Flexibility Score: 80.00
ROOT
ATOM      1  C   UNL     1       6.302   6.571  12.893  1.00  0.00    -0.008 C 
ATOM      2  C   UNL     1       6.719   6.597  14.362  1.00  0.00     0.003 C 
ATOM      3  C   UNL     1       6.426   8.082  14.633  1.00  0.00     0.006 C 
ATOM      4  C   UNL     1       7.534   8.579  13.717  1.00  0.00     0.019 C 
ATOM      5  C   UNL     1       7.089   7.818  12.445  1.00  0.00    -0.068 C 
ATOM      6  C   UNL     1       7.289   8.224  11.187  1.00  0.00     0.009 C 
ATOM      7  C   UNL     1       8.775   7.879  14.245  1.00  0.00     0.008 C 
ATOM      8  C   UNL     1       8.243   6.498  14.627  1.00  0.00     0.005 C 
ATOM      9  C   UNL     1       6.747   5.291  12.159  1.00  0.00     0.016 C 
ENDROOT
BRANCH   3  10
ATOM     10  C   UNL     1       5.469   8.268  15.830  1.00  0.00    -0.032 C 
ATOM     11  C   UNL     1       5.925   7.493  17.090  1.00  0.00     0.011 C 
ATOM     12  C   UNL     1       5.410   9.768  16.214  1.00  0.00     0.011 C 
BRANCH  10  13
ATOM     13  C   UNL     1       4.025   7.768  15.342  1.00  0.00     0.007 CG0
ATOM     14  G   UNL     1       3.919   6.631  14.231  1.00  0.00     0.000 G0
ENDBRANCH  10  13
ENDBRANCH   3  10
BRANCH   1  15
ATOM     15  C   UNL     1       4.710   6.754  12.851  1.00  0.00     0.011 C 
BRANCH  15  16
ATOM     16  C   UNL     1       3.913   6.632  14.231  1.00  0.00     0.001 CG0
ATOM     17  G   UNL     1       4.022   7.769  15.342  1.00  0.00     0.000 G0
ENDBRANCH  15  16
ENDBRANCH   1  15
TORSDOF 0
ENDMDL
MODEL 2
REMARK VINA RESULT:    -4.273     12.282     14.157
REMARK INTER + INTRA:          -5.002
REMARK INTER:                  -5.261
REMARK INTRA:                   0.260
REMARK UNBOUND:                 0.270
REMARK SMILES C=C1[C@@H]2CC[C@H]3[C@H]2C(C)(C)CCC[C@@]13C
REMARK SMILES IDX 14 1 6 2 7 3 3 4 2 5 1 6 4 7 5 8 15 9 8 10 9 11 10 12 11 13
REMARK SMILES IDX 13 15 12 16
REMARK H PARENT
REMARK Flexibility Score: 80.00
ROOT
ATOM      1  C   UNL     1      12.833   7.947  24.841  1.00  0.00    -0.008 C 
ATOM      2  C   UNL     1      14.209   7.900  24.181  1.00  0.00     0.003 C 
ATOM      3  C   UNL     1      14.857   9.049  24.971  1.00  0.00     0.006 C 
ATOM      4  C   UNL     1      13.966  10.117  24.357  1.00  0.00     0.019 C 
ATOM      5  C   UNL     1      12.608   9.466  24.715  1.00  0.00    -0.068 C 
ATOM      6  C   UNL     1      11.469  10.125  24.948  1.00  0.00     0.009 C 
ATOM      7  C   UNL     1      14.169   9.936  22.861  1.00  0.00     0.008 C 
ATOM      8  C   UNL     1      14.269   8.417  22.721  1.00  0.00     0.005 C 
ATOM      9  C   UNL     1      11.770   7.123  24.089  1.00  0.00     0.016 C 
ENDROOT
BRANCH   3  10
ATOM     10  C   UNL     1      16.164   8.604  25.662  1.00  0.00    -0.032 C 
ATOM     11  C   UNL     1      17.148   7.904  24.692  1.00  0.00     0.011 C 
ATOM     12  C   UNL     1      16.893   9.846  26.233  1.00  0.00     0.011 C 
BRANCH  10  13
ATOM     13  C   UNL     1      15.740   7.620  26.854  1.00  0.00     0.007 CG0
ATOM     14  G   UNL     1      14.405   6.757  26.726  1.00  0.00     0.000 G0
ENDBRANCH  10  13
ENDBRANCH   3  10
BRANCH   1  15
ATOM     15  C   UNL     1      13.017   7.438  26.351  1.00  0.00     0.011 C 
BRANCH  15  16
ATOM     16  C   UNL     1      14.407   6.751  26.738  1.00  0.00     0.001 CG0
ATOM     17  G   UNL     1      15.741   7.615  26.857  1.00  0.00     0.000 G0
ENDBRANCH  15  16
ENDBRANCH   1  15
TORSDOF 0
ENDMDL
MODEL 3
REMARK VINA RESULT:    -4.251     11.354     13.281
REMARK INTER + INTRA:          -4.975
REMARK INTER:                  -5.246
REMARK INTRA:                   0.271
REMARK UNBOUND:                 0.270
REMARK SMILES C=C1[C@@H]2CC[C@H]3[C@H]2C(C)(C)CCC[C@@]13C
REMARK SMILES IDX 14 1 6 2 7 3 3 4 2 5 1 6 4 7 5 8 15 9 8 10 9 11 10 12 11 13
REMARK SMILES IDX 13 15 12 16
REMARK H PARENT
REMARK Flexibility Score: 80.00
ROOT
ATOM      1  C   UNL     1      14.990   7.939  25.412  1.00  0.00    -0.008 C 
ATOM      2  C   UNL     1      13.898   8.917  24.986  1.00  0.00     0.003 C 
ATOM      3  C   UNL     1      13.216   8.022  23.939  1.00  0.00     0.006 C 
ATOM      4  C   UNL     1      14.402   8.043  22.989  1.00  0.00     0.019 C 
ATOM      5  C   UNL     1      15.467   7.552  23.999  1.00  0.00    -0.068 C 
ATOM      6  C   UNL     1      16.562   6.848  23.693  1.00  0.00     0.009 C 
ATOM      7  C   UNL     1      14.652   9.525  22.761  1.00  0.00     0.008 C 
ATOM      8  C   UNL     1      14.375  10.125  24.139  1.00  0.00     0.005 C 
ATOM      9  C   UNL     1      16.099   8.596  26.256  1.00  0.00     0.016 C 
ENDROOT
BRANCH   3  10
ATOM     10  C   UNL     1      11.707   7.856  24.224  1.00  0.00    -0.032 C 
ATOM     11  C   UNL     1      10.986   9.208  24.449  1.00  0.00     0.011 C 
ATOM     12  C   UNL     1      11.026   7.174  23.010  1.00  0.00     0.011 C 
BRANCH  10  13
ATOM     13  C   UNL     1      11.586   6.921  25.520  1.00  0.00     0.007 CG0
ATOM     14  G   UNL     1      12.737   6.948  26.622  1.00  0.00     0.000 G0
ENDBRANCH  10  13
ENDBRANCH   3  10
BRANCH   1  15
ATOM     15  C   UNL     1      14.271   6.747  26.208  1.00  0.00     0.011 C 
BRANCH  15  16
ATOM     16  C   UNL     1      12.740   6.948  26.620  1.00  0.00     0.001 CG0
ATOM     17  G   UNL     1      11.586   6.925  25.521  1.00  0.00     0.000 G0
ENDBRANCH  15  16
ENDBRANCH   1  15
TORSDOF 0
ENDMDL
MODEL 4
REMARK VINA RESULT:    -4.245      1.400      3.932
REMARK INTER + INTRA:          -4.967
REMARK INTER:                  -5.235
REMARK INTRA:                   0.268
REMARK UNBOUND:                 0.270
REMARK SMILES C=C1[C@@H]2CC[C@H]3[C@H]2C(C)(C)CCC[C@@]13C
REMARK SMILES IDX 14 1 6 2 7 3 3 4 2 5 1 6 4 7 5 8 15 9 8 10 9 11 10 12 11 13
REMARK SMILES IDX 13 15 12 16
REMARK H PARENT
REMARK Flexibility Score: 80.00
ROOT
ATOM      1  C   UNL     1       4.189   7.429  14.821  1.00  0.00    -0.008 C 
ATOM      2  C   UNL     1       5.528   8.128  14.601  1.00  0.00     0.003 C 
ATOM      3  C   UNL     1       6.433   6.897  14.763  1.00  0.00     0.006 C 
ATOM      4  C   UNL     1       6.117   6.725  16.240  1.00  0.00     0.019 C 
ATOM      5  C   UNL     1       4.576   6.666  16.102  1.00  0.00    -0.068 C 
ATOM      6  C   UNL     1       3.749   5.999  16.914  1.00  0.00     0.009 C 
ATOM      7  C   UNL     1       6.461   8.078  16.840  1.00  0.00     0.008 C 
ATOM      8  C   UNL     1       6.000   9.050  15.754  1.00  0.00     0.005 C 
ATOM      9  C   UNL     1       3.021   8.410  15.043  1.00  0.00     0.016 C 
ENDROOT
BRANCH   3  10
ATOM     10  C   UNL     1       7.354   6.697  13.540  1.00  0.00    -0.032 C 
ATOM     11  C   UNL     1       8.125   7.983  13.152  1.00  0.00     0.011 C 
ATOM     12  C   UNL     1       8.411   5.611  13.862  1.00  0.00     0.011 C 
BRANCH  10  13
ATOM     13  C   UNL     1       6.415   6.210  12.335  1.00  0.00     0.007 CG0
ATOM     14  G   UNL     1       4.892   6.677  12.284  1.00  0.00     0.000 G0
ENDBRANCH  10  13
ENDBRANCH   3  10
BRANCH   1  15
ATOM     15  C   UNL     1       3.934   6.486  13.550  1.00  0.00     0.011 C 
BRANCH  15  16
ATOM     16  C   UNL     1       4.889   6.675  12.283  1.00  0.00     0.001 CG0
ATOM     17  G   UNL     1       6.413   6.209  12.330  1.00  0.00     0.000 G0
ENDBRANCH  15  16
ENDBRANCH   1  15
TORSDOF 0
ENDMDL
MODEL 5
REMARK VINA RESULT:    -4.131     12.928     15.457
REMARK INTER + INTRA:          -4.827
REMARK INTER:                  -5.095
REMARK INTRA:                   0.268
REMARK UNBOUND:                 0.270
REMARK SMILES C=C1[C@@H]2CC[C@H]3[C@H]2C(C)(C)CCC[C@@]13C
REMARK SMILES IDX 14 1 6 2 7 3 3 4 2 5 1 6 4 7 5 8 15 9 8 10 9 11 10 12 11 13
REMARK SMILES IDX 13 15 12 16
REMARK H PARENT
REMARK Flexibility Score: 80.00
ROOT
ATOM      1  C   UNL     1      10.888   5.086  29.253  1.00  0.00    -0.008 C 
ATOM      2  C   UNL     1      10.588   5.247  27.765  1.00  0.00     0.003 C 
ATOM      3  C   UNL     1      10.903   6.747  27.651  1.00  0.00     0.006 C 
ATOM      4  C   UNL     1       9.728   7.170  28.518  1.00  0.00     0.019 C 
ATOM      5  C   UNL     1      10.071   6.295  29.748  1.00  0.00    -0.068 C 
ATOM      6  C   UNL     1       9.774   6.590  31.018  1.00  0.00     0.009 C 
ATOM      7  C   UNL     1       8.530   6.531  27.835  1.00  0.00     0.008 C 
ATOM      8  C   UNL     1       9.089   5.184  27.374  1.00  0.00     0.005 C 
ATOM      9  C   UNL     1      10.386   3.750  29.834  1.00  0.00     0.016 C 
ENDROOT
BRANCH   3  10
ATOM     10  C   UNL     1      11.951   7.030  26.553  1.00  0.00    -0.032 C 
ATOM     11  C   UNL     1      11.593   6.375  25.197  1.00  0.00     0.011 C 
ATOM     12  C   UNL     1      12.044   8.558  26.312  1.00  0.00     0.011 C 
BRANCH  10  13
ATOM     13  C   UNL     1      13.351   6.475  27.104  1.00  0.00     0.007 CG0
ATOM     14  G   UNL     1      13.368   5.241  28.113  1.00  0.00     0.000 G0
ENDBRANCH  10  13
ENDBRANCH   3  10
BRANCH   1  15
ATOM     15  C   UNL     1      12.473   5.251  29.435  1.00  0.00     0.011 C 
BRANCH  15  16
ATOM     16  C   UNL     1      13.375   5.244  28.116  1.00  0.00     0.001 CG0
ATOM     17  G   UNL     1      13.352   6.474  27.102  1.00  0.00     0.000 G0
ENDBRANCH  15  16
ENDBRANCH   1  15
TORSDOF 0
ENDMDL
MODEL 6
REMARK VINA RESULT:    -3.962      1.813      4.327
REMARK INTER + INTRA:          -4.618
REMARK INTER:                  -4.886
REMARK INTRA:                   0.268
REMARK UNBOUND:                 0.270
REMARK SMILES C=C1[C@@H]2CC[C@H]3[C@H]2C(C)(C)CCC[C@@]13C
REMARK SMILES IDX 14 1 6 2 7 3 3 4 2 5 1 6 4 7 5 8 15 9 8 10 9 11 10 12 11 13
REMARK SMILES IDX 13 15 12 16
REMARK H PARENT
REMARK Flexibility Score: 80.00
ROOT
ATOM      1  C   UNL     1       6.176   8.336  15.676  1.00  0.00    -0.008 C 
ATOM      2  C   UNL     1       6.435   6.921  15.165  1.00  0.00     0.003 C 
ATOM      3  C   UNL     1       5.535   6.982  13.920  1.00  0.00     0.006 C 
ATOM      4  C   UNL     1       4.247   7.072  14.723  1.00  0.00     0.019 C 
ATOM      5  C   UNL     1       4.639   8.299  15.581  1.00  0.00    -0.068 C 
ATOM      6  C   UNL     1       3.788   9.203  16.077  1.00  0.00     0.009 C 
ATOM      7  C   UNL     1       4.306   5.855  15.631  1.00  0.00     0.008 C 
ATOM      8  C   UNL     1       5.789   5.781  15.994  1.00  0.00     0.005 C 
ATOM      9  C   UNL     1       6.678   8.564  17.114  1.00  0.00     0.016 C 
ENDROOT
BRANCH   3  10
ATOM     10  C   UNL     1       6.311   6.624  12.634  1.00  0.00    -0.032 C 
ATOM     11  C   UNL     1       7.097   5.296  12.757  1.00  0.00     0.011 C 
ATOM     12  C   UNL     1       5.313   6.457  11.461  1.00  0.00     0.011 C 
BRANCH  10  13
ATOM     13  C   UNL     1       7.303   7.850  12.342  1.00  0.00     0.007 CG0
ATOM     14  G   UNL     1       7.860   8.719  13.557  1.00  0.00     0.000 G0
ENDBRANCH  10  13
ENDBRANCH   3  10
BRANCH   1  15
ATOM     15  C   UNL     1       6.871   9.345  14.641  1.00  0.00     0.011 C 
BRANCH  15  16
ATOM     16  C   UNL     1       7.863   8.725  13.553  1.00  0.00     0.001 CG0
ATOM     17  G   UNL     1       7.307   7.850  12.342  1.00  0.00     0.000 G0
ENDBRANCH  15  16
ENDBRANCH   1  15
TORSDOF 0
ENDMDL
MODEL 7
REMARK VINA RESULT:    -3.906     11.184     13.330
REMARK INTER + INTRA:          -4.549
REMARK INTER:                  -4.819
REMARK INTRA:                   0.270
REMARK UNBOUND:                 0.270
REMARK SMILES C=C1[C@@H]2CC[C@H]3[C@H]2C(C)(C)CCC[C@@]13C
REMARK SMILES IDX 14 1 6 2 7 3 3 4 2 5 1 6 4 7 5 8 15 9 8 10 9 11 10 12 11 13
REMARK SMILES IDX 13 15 12 16
REMARK H PARENT
REMARK Flexibility Score: 80.00
ROOT
ATOM      1  C   UNL     1      12.955   7.369  24.920  1.00  0.00    -0.008 C 
ATOM      2  C   UNL     1      12.194   8.264  25.895  1.00  0.00     0.003 C 
ATOM      3  C   UNL     1      10.875   7.475  25.915  1.00  0.00     0.006 C 
ATOM      4  C   UNL     1      10.538   7.792  24.467  1.00  0.00     0.019 C 
ATOM      5  C   UNL     1      11.857   7.276  23.843  1.00  0.00    -0.068 C 
ATOM      6  C   UNL     1      11.988   6.769  22.614  1.00  0.00     0.009 C 
ATOM      7  C   UNL     1      10.582   9.310  24.414  1.00  0.00     0.008 C 
ATOM      8  C   UNL     1      11.755   9.642  25.336  1.00  0.00     0.005 C 
ATOM      9  C   UNL     1      14.253   8.010  24.393  1.00  0.00     0.016 C 
ENDROOT
BRANCH   3  10
ATOM     10  C   UNL     1      10.463   7.084  27.351  1.00  0.00    -0.032 C 
ATOM     11  C   UNL     1      10.470   8.287  28.326  1.00  0.00     0.011 C 
ATOM     12  C   UNL     1       9.021   6.518  27.336  1.00  0.00     0.011 C 
BRANCH  10  13
ATOM     13  C   UNL     1      11.493   5.953  27.831  1.00  0.00     0.007 CG0
ATOM     14  G   UNL     1      12.979   5.944  27.255  1.00  0.00     0.000 G0
ENDBRANCH  10  13
ENDBRANCH   3  10
BRANCH   1  15
ATOM     15  C   UNL     1      13.244   5.986  25.678  1.00  0.00     0.011 C 
BRANCH  15  16
ATOM     16  C   UNL     1      12.973   5.931  27.252  1.00  0.00     0.001 CG0
ATOM     17  G   UNL     1      11.487   5.952  27.828  1.00  0.00     0.000 G0
ENDBRANCH  15  16
ENDBRANCH   1  15
TORSDOF 0
ENDMDL
MODEL 8
REMARK VINA RESULT:    -3.882      1.199      2.351
REMARK INTER + INTRA:          -4.519
REMARK INTER:                  -4.779
REMARK INTRA:                   0.260
REMARK UNBOUND:                 0.270
REMARK SMILES C=C1[C@@H]2CC[C@H]3[C@H]2C(C)(C)CCC[C@@]13C
REMARK SMILES IDX 14 1 6 2 7 3 3 4 2 5 1 6 4 7 5 8 15 9 8 10 9 11 10 12 11 13
REMARK SMILES IDX 13 15 12 16
REMARK H PARENT
REMARK Flexibility Score: 80.00
ROOT
ATOM      1  C   UNL     1       6.868   7.628  14.229  1.00  0.00    -0.008 C 
ATOM      2  C   UNL     1       6.141   7.251  15.518  1.00  0.00     0.003 C 
ATOM      3  C   UNL     1       4.983   8.255  15.403  1.00  0.00     0.006 C 
ATOM      4  C   UNL     1       5.876   9.472  15.588  1.00  0.00     0.019 C 
ATOM      5  C   UNL     1       6.874   9.153  14.448  1.00  0.00    -0.068 C 
ATOM      6  C   UNL     1       7.553  10.058  13.736  1.00  0.00     0.009 C 
ATOM      7  C   UNL     1       6.592   9.193  16.899  1.00  0.00     0.008 C 
ATOM      8  C   UNL     1       6.838   7.686  16.832  1.00  0.00     0.005 C 
ATOM      9  C   UNL     1       8.287   7.035  14.136  1.00  0.00     0.016 C 
ENDROOT
BRANCH   3  10
ATOM     10  C   UNL     1       3.608   7.556  15.481  1.00  0.00    -0.032 C 
ATOM     11  C   UNL     1       3.482   6.615  16.704  1.00  0.00     0.011 C 
ATOM     12  C   UNL     1       2.493   8.624  15.611  1.00  0.00     0.011 C 
BRANCH  10  13
ATOM     13  C   UNL     1       3.431   6.740  14.112  1.00  0.00     0.007 CG0
ATOM     14  G   UNL     1       4.720   6.199  13.345  1.00  0.00     0.000 G0
ENDBRANCH  10  13
ENDBRANCH   3  10
BRANCH   1  15
ATOM     15  C   UNL     1       5.945   7.148  13.009  1.00  0.00     0.011 C 
BRANCH  15  16
ATOM     16  C   UNL     1       4.716   6.183  13.344  1.00  0.00     0.001 CG0
ATOM     17  G   UNL     1       3.428   6.733  14.106  1.00  0.00     0.000 G0
ENDBRANCH  15  16
ENDBRANCH   1  15
TORSDOF 0
ENDMDL
MODEL 9
REMARK VINA RESULT:    -3.819     10.764     12.837
REMARK INTER + INTRA:          -4.442
REMARK INTER:                  -4.711
REMARK INTRA:                   0.269
REMARK UNBOUND:                 0.270
REMARK SMILES C=C1[C@@H]2CC[C@H]3[C@H]2C(C)(C)CCC[C@@]13C
REMARK SMILES IDX 14 1 6 2 7 3 3 4 2 5 1 6 4 7 5 8 15 9 8 10 9 11 10 12 11 13
REMARK SMILES IDX 13 15 12 16
REMARK H PARENT
REMARK Flexibility Score: 80.00
ROOT
ATOM      1  C   UNL     1      13.279   8.570  23.715  1.00  0.00    -0.008 C 
ATOM      2  C   UNL     1      12.293   8.999  24.799  1.00  0.00     0.003 C 
ATOM      3  C   UNL     1      11.563   7.656  24.958  1.00  0.00     0.006 C 
ATOM      4  C   UNL     1      10.942   7.705  23.571  1.00  0.00     0.019 C 
ATOM      5  C   UNL     1      12.258   7.897  22.778  1.00  0.00    -0.068 C 
ATOM      6  C   UNL     1      12.479   7.477  21.528  1.00  0.00     0.009 C 
ATOM      7  C   UNL     1      10.211   9.038  23.553  1.00  0.00     0.008 C 
ATOM      8  C   UNL     1      11.159   9.948  24.334  1.00  0.00     0.005 C 
ATOM      9  C   UNL     1      14.006   9.755  23.051  1.00  0.00     0.016 C 
ENDROOT
BRANCH   3  10
ATOM     10  C   UNL     1      11.576   7.167  26.423  1.00  0.00    -0.032 C 
ATOM     11  C   UNL     1      11.103   8.251  27.422  1.00  0.00     0.011 C 
ATOM     12  C   UNL     1      10.616   5.960  26.571  1.00  0.00     0.011 C 
BRANCH  10  13
ATOM     13  C   UNL     1      13.081   6.715  26.740  1.00  0.00     0.007 CG0
ATOM     14  G   UNL     1      14.294   7.429  25.991  1.00  0.00     0.000 G0
ENDBRANCH  10  13
ENDBRANCH   3  10
BRANCH   1  15
ATOM     15  C   UNL     1      14.312   7.549  24.395  1.00  0.00     0.011 C 
BRANCH  15  16
ATOM     16  C   UNL     1      14.294   7.427  25.988  1.00  0.00     0.001 CG0
ATOM     17  G   UNL     1      13.085   6.712  26.741  1.00  0.00     0.000 G0
ENDBRANCH  15  16
ENDBRANCH   1  15
TORSDOF 0
ENDMDL
