MODEL 1
REMARK VINA RESULT:    -8.745      0.000      0.000
REMARK INTER + INTRA:         -14.921
REMARK INTER:                 -13.858
REMARK INTRA:                  -1.063
REMARK UNBOUND:                -1.063
REMARK SMILES C[C@H]1O[C@@H](O[C@H]2[C@H](Oc3cc(O)c4c(c3)O[C@H](c3ccc(O)cc3)CC4=O)O[C@@H](CO)[C@H](O)[C@H]2O)[C@@H](O)[C@@H](O)[C@@H]1O
REMARK SMILES IDX 6 1 34 2 32 3 29 4 28 5 7 6 5 7 4 8 1 9 2 10 40 11 3 12
REMARK SMILES IDX 38 13 36 14 41 15 39 17 37 19 35 21 8 23 9 24 10 25 15 26
REMARK SMILES IDX 11 27 14 28 13 29 16 30 26 31 17 32 27 33 25 34 12 35 18 37
REMARK SMILES IDX 19 38 24 39 20 40 23 41 21 42 22 43 33 45 30 47 31 48
REMARK H PARENT 41 16 39 18 37 20 35 22 12 36 22 44 33 46 31 49
REMARK Flexibility Score: inf
ROOT
ATOM      1  C   UNL     1      -6.121  67.590  31.381  1.00  0.00     0.221 C 
ATOM      2  C   UNL     1      -6.094  66.285  32.197  1.00  0.00     0.181 C 
ATOM      3  C   UNL     1      -6.558  66.632  33.627  1.00  0.00     0.177 C 
ATOM      4  C   UNL     1      -5.639  67.760  34.168  1.00  0.00     0.179 C 
ATOM      5  O   UNL     1      -5.735  68.936  33.351  1.00  0.00    -0.332 OA
ATOM      6  C   UNL     1      -5.200  68.631  32.078  1.00  0.00     0.339 C 
ENDROOT
BRANCH   1   7
ATOM      7  O   UNL     1      -7.421  68.155  31.466  1.00  0.00    -0.337 OA
BRANCH   7   8
ATOM      8  C   UNL     1      -8.365  67.594  30.528  1.00  0.00     0.282 C 
ATOM      9  C   UNL     1      -9.560  69.290  27.478  1.00  0.00     0.041 C 
ATOM     10  C   UNL     1      -9.226  68.067  28.398  1.00  0.00     0.150 C 
ATOM     11  C   UNL     1     -10.563  67.206  28.719  1.00  0.00     0.174 C 
ATOM     12  O   UNL     1      -8.477  68.549  29.516  1.00  0.00    -0.344 OA
ATOM     13  C   UNL     1     -10.917  67.079  30.215  1.00  0.00     0.179 C 
ATOM     14  C   UNL     1      -9.722  67.451  31.191  1.00  0.00     0.202 C 
BRANCH  11  15
ATOM     15  O   UNL     1     -10.346  65.917  28.213  1.00  0.00    -0.388 OA
ATOM     16  H   UNL     1      -9.386  65.888  27.948  1.00  0.00     0.211 HD
ENDBRANCH  11  15
BRANCH  13  17
ATOM     17  O   UNL     1     -12.072  67.830  30.486  1.00  0.00    -0.387 OA
ATOM     18  H   UNL     1     -11.950  68.807  30.310  1.00  0.00     0.211 HD
ENDBRANCH  13  17
BRANCH  14  19
ATOM     19  O   UNL     1     -10.069  68.608  31.947  1.00  0.00    -0.385 OA
ATOM     20  H   UNL     1     -10.034  68.344  32.935  1.00  0.00     0.211 HD
ENDBRANCH  14  19
ENDBRANCH   7   8
ENDBRANCH   1   7
BRANCH   2  21
ATOM     21  O   UNL     1      -6.959  65.334  31.635  1.00  0.00    -0.387 OA
ATOM     22  H   UNL     1      -7.393  65.707  30.833  1.00  0.00     0.211 HD
ENDBRANCH   2  21
BRANCH   6  23
ATOM     23  O   UNL     1      -3.792  68.400  32.182  1.00  0.00    -0.462 OA
BRANCH  23  24
ATOM     24  C   UNL     1      -2.872  68.473  31.093  1.00  0.00     0.130 A 
ATOM     25  C   UNL     1      -1.439  68.373  31.262  1.00  0.00     0.093 A 
ATOM     26  C   UNL     1      -3.345  68.676  29.801  1.00  0.00     0.094 A 
ATOM     27  C   UNL     1      -0.562  68.746  30.229  1.00  0.00     0.133 A 
ATOM     28  C   UNL     1      -2.475  68.934  28.723  1.00  0.00     0.138 A 
ATOM     29  C   UNL     1      -1.080  69.006  28.975  1.00  0.00     0.102 A 
ATOM     30  O   UNL     1      -2.958  69.124  27.425  1.00  0.00    -0.484 OA
ATOM     31  C   UNL     1      -0.171  69.310  27.850  1.00  0.00     0.174 C 
ATOM     32  C   UNL     1      -2.174  69.585  26.341  1.00  0.00     0.211 C 
ATOM     33  O   UNL     1       0.921  69.906  28.045  1.00  0.00    -0.294 OA
ATOM     34  C   UNL     1      -0.694  69.037  26.472  1.00  0.00     0.131 C 
BRANCH  27  35
ATOM     35  O   UNL     1       0.790  68.722  30.479  1.00  0.00    -0.507 OA
ATOM     36  H   UNL     1       1.234  69.451  31.035  1.00  0.00     0.293 HD
ENDBRANCH  27  35
BRANCH  32  37
ATOM     37  C   UNL     1      -2.853  69.238  25.019  1.00  0.00    -0.007 A 
ATOM     38  C   UNL     1      -2.219  68.570  23.949  1.00  0.00     0.011 A 
ATOM     39  C   UNL     1      -4.196  69.586  24.826  1.00  0.00     0.011 A 
ATOM     40  C   UNL     1      -2.909  68.162  22.814  1.00  0.00     0.046 A 
ATOM     41  C   UNL     1      -4.903  69.250  23.677  1.00  0.00     0.046 A 
ATOM     42  C   UNL     1      -4.291  68.498  22.674  1.00  0.00     0.115 A 
BRANCH  42  43
ATOM     43  O   UNL     1      -5.002  68.110  21.520  1.00  0.00    -0.508 OA
ATOM     44  H   UNL     1      -5.647  68.786  21.115  1.00  0.00     0.293 HD
ENDBRANCH  42  43
ENDBRANCH  32  37
ENDBRANCH  23  24
ENDBRANCH   6  23
BRANCH   3  45
ATOM     45  O   UNL     1      -6.441  65.483  34.370  1.00  0.00    -0.387 OA
ATOM     46  H   UNL     1      -6.947  64.838  33.833  1.00  0.00     0.211 HD
ENDBRANCH   3  45
BRANCH   4  47
ATOM     47  C   UNL     1      -6.029  68.185  35.604  1.00  0.00     0.191 C 
BRANCH  47  48
ATOM     48  O   UNL     1      -5.198  67.556  36.511  1.00  0.00    -0.394 OA
ATOM     49  H   UNL     1      -5.167  68.103  37.355  1.00  0.00     0.210 HD
ENDBRANCH  47  48
ENDBRANCH   4  47
TORSDOF 14
ENDMDL
MODEL 2
REMARK VINA RESULT:    -8.679      2.842      7.729
REMARK INTER + INTRA:         -14.816
REMARK INTER:                 -13.040
REMARK INTRA:                  -1.777
REMARK UNBOUND:                -1.063
REMARK SMILES C[C@H]1O[C@@H](O[C@H]2[C@H](Oc3cc(O)c4c(c3)O[C@H](c3ccc(O)cc3)CC4=O)O[C@@H](CO)[C@H](O)[C@H]2O)[C@@H](O)[C@@H](O)[C@@H]1O
REMARK SMILES IDX 6 1 34 2 32 3 29 4 28 5 7 6 5 7 4 8 1 9 2 10 40 11 3 12
REMARK SMILES IDX 38 13 36 14 41 15 39 17 37 19 35 21 8 23 9 24 10 25 15 26
REMARK SMILES IDX 11 27 14 28 13 29 16 30 26 31 17 32 27 33 25 34 12 35 18 37
REMARK SMILES IDX 19 38 24 39 20 40 23 41 21 42 22 43 33 45 30 47 31 48
REMARK H PARENT 41 16 39 18 37 20 35 22 12 36 22 44 33 46 31 49
REMARK Flexibility Score: inf
ROOT
ATOM      1  C   UNL     1     -10.685  69.684  27.144  1.00  0.00     0.221 C 
ATOM      2  C   UNL     1     -11.242  70.995  26.562  1.00  0.00     0.181 C 
ATOM      3  C   UNL     1     -12.060  70.625  25.307  1.00  0.00     0.177 C 
ATOM      4  C   UNL     1     -11.136  69.827  24.350  1.00  0.00     0.179 C 
ATOM      5  O   UNL     1     -10.672  68.620  24.973  1.00  0.00    -0.332 OA
ATOM      6  C   UNL     1      -9.831  68.979  26.052  1.00  0.00     0.339 C 
ENDROOT
BRANCH   1   7
ATOM      7  O   UNL     1     -11.765  68.792  27.377  1.00  0.00    -0.337 OA
BRANCH   7   8
ATOM      8  C   UNL     1     -11.752  68.188  28.689  1.00  0.00     0.282 C 
ATOM      9  C   UNL     1      -8.886  66.372  30.138  1.00  0.00     0.041 C 
ATOM     10  C   UNL     1     -10.212  67.207  30.161  1.00  0.00     0.150 C 
ATOM     11  C   UNL     1     -11.400  66.379  30.894  1.00  0.00     0.174 C 
ATOM     12  O   UNL     1     -10.463  67.670  28.832  1.00  0.00    -0.344 OA
ATOM     13  C   UNL     1     -12.647  66.117  30.024  1.00  0.00     0.179 C 
ATOM     14  C   UNL     1     -12.730  67.029  28.729  1.00  0.00     0.202 C 
BRANCH  11  15
ATOM     15  O   UNL     1     -11.797  67.137  32.004  1.00  0.00    -0.388 OA
ATOM     16  H   UNL     1     -12.417  66.554  32.522  1.00  0.00     0.211 HD
ENDBRANCH  11  15
BRANCH  13  17
ATOM     17  O   UNL     1     -12.718  64.750  29.711  1.00  0.00    -0.387 OA
ATOM     18  H   UNL     1     -12.971  64.185  30.498  1.00  0.00     0.211 HD
ENDBRANCH  13  17
BRANCH  14  19
ATOM     19  O   UNL     1     -12.635  66.213  27.565  1.00  0.00    -0.385 OA
ATOM     20  H   UNL     1     -12.287  66.806  26.808  1.00  0.00     0.211 HD
ENDBRANCH  14  19
ENDBRANCH   7   8
ENDBRANCH   1   7
BRANCH   2  21
ATOM     21  O   UNL     1     -12.069  71.638  27.496  1.00  0.00    -0.387 OA
ATOM     22  H   UNL     1     -12.794  72.113  27.030  1.00  0.00     0.211 HD
ENDBRANCH   2  21
BRANCH   6  23
ATOM     23  O   UNL     1      -8.636  69.591  25.559  1.00  0.00    -0.462 OA
BRANCH  23  24
ATOM     24  C   UNL     1      -7.321  69.321  26.045  1.00  0.00     0.130 A 
ATOM     25  C   UNL     1      -6.125  69.571  25.269  1.00  0.00     0.093 A 
ATOM     26  C   UNL     1      -7.153  68.765  27.308  1.00  0.00     0.094 A 
ATOM     27  C   UNL     1      -4.889  69.022  25.651  1.00  0.00     0.133 A 
ATOM     28  C   UNL     1      -5.896  68.315  27.760  1.00  0.00     0.138 A 
ATOM     29  C   UNL     1      -4.780  68.417  26.888  1.00  0.00     0.102 A 
ATOM     30  O   UNL     1      -5.732  67.769  29.037  1.00  0.00    -0.484 OA
ATOM     31  C   UNL     1      -3.470  67.914  27.350  1.00  0.00     0.174 C 
ATOM     32  C   UNL     1      -4.559  67.114  29.481  1.00  0.00     0.211 C 
ATOM     33  O   UNL     1      -2.622  67.473  26.530  1.00  0.00    -0.294 OA
ATOM     34  C   UNL     1      -3.283  67.792  28.832  1.00  0.00     0.131 C 
BRANCH  27  35
ATOM     35  O   UNL     1      -3.807  69.214  24.824  1.00  0.00    -0.507 OA
ATOM     36  H   UNL     1      -3.888  69.769  23.974  1.00  0.00     0.293 HD
ENDBRANCH  27  35
BRANCH  32  37
ATOM     37  C   UNL     1      -4.533  67.066  31.006  1.00  0.00    -0.007 A 
ATOM     38  C   UNL     1      -3.417  67.423  31.796  1.00  0.00     0.011 A 
ATOM     39  C   UNL     1      -5.677  66.650  31.699  1.00  0.00     0.011 A 
ATOM     40  C   UNL     1      -3.477  67.485  33.181  1.00  0.00     0.046 A 
ATOM     41  C   UNL     1      -5.753  66.639  33.087  1.00  0.00     0.046 A 
ATOM     42  C   UNL     1      -4.679  67.095  33.851  1.00  0.00     0.115 A 
BRANCH  42  43
ATOM     43  O   UNL     1      -4.751  67.131  35.259  1.00  0.00    -0.508 OA
ATOM     44  H   UNL     1      -5.659  67.322  35.679  1.00  0.00     0.293 HD
ENDBRANCH  42  43
ENDBRANCH  32  37
ENDBRANCH  23  24
ENDBRANCH   6  23
BRANCH   3  45
ATOM     45  O   UNL     1     -12.475  71.807  24.743  1.00  0.00    -0.387 OA
ATOM     46  H   UNL     1     -12.663  71.539  23.818  1.00  0.00     0.211 HD
ENDBRANCH   3  45
BRANCH   4  47
ATOM     47  C   UNL     1     -11.870  69.403  23.056  1.00  0.00     0.191 C 
BRANCH  47  48
ATOM     48  O   UNL     1     -11.382  68.183  22.630  1.00  0.00    -0.394 OA
ATOM     49  H   UNL     1     -11.169  67.620  23.437  1.00  0.00     0.210 HD
ENDBRANCH  47  48
ENDBRANCH   4  47
TORSDOF 14
ENDMDL
MODEL 3
REMARK VINA RESULT:    -8.520      1.632      6.210
REMARK INTER + INTRA:         -14.564
REMARK INTER:                 -12.962
REMARK INTRA:                  -1.603
REMARK UNBOUND:                -1.063
REMARK SMILES C[C@H]1O[C@@H](O[C@H]2[C@H](Oc3cc(O)c4c(c3)O[C@H](c3ccc(O)cc3)CC4=O)O[C@@H](CO)[C@H](O)[C@H]2O)[C@@H](O)[C@@H](O)[C@@H]1O
REMARK SMILES IDX 6 1 34 2 32 3 29 4 28 5 7 6 5 7 4 8 1 9 2 10 40 11 3 12
REMARK SMILES IDX 38 13 36 14 41 15 39 17 37 19 35 21 8 23 9 24 10 25 15 26
REMARK SMILES IDX 11 27 14 28 13 29 16 30 26 31 17 32 27 33 25 34 12 35 18 37
REMARK SMILES IDX 19 38 24 39 20 40 23 41 21 42 22 43 33 45 30 47 31 48
REMARK H PARENT 41 16 39 18 37 20 35 22 12 36 22 44 33 46 31 49
REMARK Flexibility Score: inf
ROOT
ATOM      1  C   UNL     1      -8.737  68.803  30.662  1.00  0.00     0.221 C 
ATOM      2  C   UNL     1     -10.270  68.879  30.767  1.00  0.00     0.181 C 
ATOM      3  C   UNL     1     -10.810  67.445  30.591  1.00  0.00     0.177 C 
ATOM      4  C   UNL     1     -10.275  66.893  29.243  1.00  0.00     0.179 C 
ATOM      5  O   UNL     1      -8.840  66.852  29.239  1.00  0.00    -0.332 OA
ATOM      6  C   UNL     1      -8.363  68.182  29.287  1.00  0.00     0.339 C 
ENDROOT
BRANCH   1   7
ATOM      7  O   UNL     1      -8.260  67.864  31.615  1.00  0.00    -0.337 OA
BRANCH   7   8
ATOM      8  C   UNL     1      -6.874  68.052  31.978  1.00  0.00     0.282 C 
ATOM      9  C   UNL     1      -4.037  66.271  30.432  1.00  0.00     0.041 C 
ATOM     10  C   UNL     1      -4.750  67.440  31.195  1.00  0.00     0.150 C 
ATOM     11  C   UNL     1      -4.120  67.626  32.679  1.00  0.00     0.174 C 
ATOM     12  O   UNL     1      -6.160  67.226  31.107  1.00  0.00    -0.344 OA
ATOM     13  C   UNL     1      -5.123  67.466  33.840  1.00  0.00     0.179 C 
ATOM     14  C   UNL     1      -6.643  67.553  33.392  1.00  0.00     0.202 C 
BRANCH  11  15
ATOM     15  O   UNL     1      -3.594  68.924  32.735  1.00  0.00    -0.388 OA
ATOM     16  H   UNL     1      -2.808  68.872  33.346  1.00  0.00     0.211 HD
ENDBRANCH  11  15
BRANCH  13  17
ATOM     17  O   UNL     1      -4.846  66.279  34.536  1.00  0.00    -0.387 OA
ATOM     18  H   UNL     1      -5.522  66.078  35.245  1.00  0.00     0.211 HD
ENDBRANCH  13  17
BRANCH  14  19
ATOM     19  O   UNL     1      -7.279  66.299  33.624  1.00  0.00    -0.385 OA
ATOM     20  H   UNL     1      -6.677  65.768  34.257  1.00  0.00     0.211 HD
ENDBRANCH  14  19
ENDBRANCH   7   8
ENDBRANCH   1   7
BRANCH   2  21
ATOM     21  O   UNL     1     -10.655  69.381  32.020  1.00  0.00    -0.387 OA
ATOM     22  H   UNL     1     -10.686  70.364  31.992  1.00  0.00     0.211 HD
ENDBRANCH   2  21
BRANCH   6  23
ATOM     23  O   UNL     1      -8.688  68.863  28.071  1.00  0.00    -0.462 OA
BRANCH  23  24
ATOM     24  C   UNL     1      -7.779  69.088  26.995  1.00  0.00     0.130 A 
ATOM     25  C   UNL     1      -8.207  69.472  25.667  1.00  0.00     0.093 A 
ATOM     26  C   UNL     1      -6.415  68.911  27.194  1.00  0.00     0.094 A 
ATOM     27  C   UNL     1      -7.328  69.390  24.573  1.00  0.00     0.133 A 
ATOM     28  C   UNL     1      -5.496  68.944  26.125  1.00  0.00     0.138 A 
ATOM     29  C   UNL     1      -5.989  69.145  24.809  1.00  0.00     0.102 A 
ATOM     30  O   UNL     1      -4.124  68.778  26.336  1.00  0.00    -0.484 OA
ATOM     31  C   UNL     1      -5.030  69.146  23.685  1.00  0.00     0.174 C 
ATOM     32  C   UNL     1      -3.174  68.595  25.304  1.00  0.00     0.211 C 
ATOM     33  O   UNL     1      -5.383  68.778  22.534  1.00  0.00    -0.294 OA
ATOM     34  C   UNL     1      -3.598  69.429  24.026  1.00  0.00     0.131 C 
BRANCH  27  35
ATOM     35  O   UNL     1      -7.817  69.676  23.319  1.00  0.00    -0.507 OA
ATOM     36  H   UNL     1      -8.811  69.598  23.114  1.00  0.00     0.293 HD
ENDBRANCH  27  35
BRANCH  32  37
ATOM     37  C   UNL     1      -1.774  68.913  25.820  1.00  0.00    -0.007 A 
ATOM     38  C   UNL     1      -0.636  69.063  24.997  1.00  0.00     0.011 A 
ATOM     39  C   UNL     1      -1.571  69.078  27.196  1.00  0.00     0.011 A 
ATOM     40  C   UNL     1       0.593  69.476  25.496  1.00  0.00     0.046 A 
ATOM     41  C   UNL     1      -0.340  69.430  27.739  1.00  0.00     0.046 A 
ATOM     42  C   UNL     1       0.748  69.678  26.903  1.00  0.00     0.115 A 
BRANCH  42  43
ATOM     43  O   UNL     1       1.994  70.077  27.429  1.00  0.00    -0.508 OA
ATOM     44  H   UNL     1       2.016  70.924  27.995  1.00  0.00     0.293 HD
ENDBRANCH  42  43
ENDBRANCH  32  37
ENDBRANCH  23  24
ENDBRANCH   6  23
BRANCH   3  45
ATOM     45  O   UNL     1     -12.181  67.535  30.592  1.00  0.00    -0.387 OA
ATOM     46  H   UNL     1     -12.383  67.632  29.638  1.00  0.00     0.211 HD
ENDBRANCH   3  45
BRANCH   4  47
ATOM     47  C   UNL     1     -10.760  65.449  28.975  1.00  0.00     0.191 C 
BRANCH  47  48
ATOM     48  O   UNL     1     -12.088  65.473  28.596  1.00  0.00    -0.394 OA
ATOM     49  H   UNL     1     -12.138  65.532  27.592  1.00  0.00     0.210 HD
ENDBRANCH  47  48
ENDBRANCH   4  47
TORSDOF 14
ENDMDL
MODEL 4
REMARK VINA RESULT:    -8.451      2.876      5.707
REMARK INTER + INTRA:         -14.454
REMARK INTER:                 -12.618
REMARK INTRA:                  -1.836
REMARK UNBOUND:                -1.063
REMARK SMILES C[C@H]1O[C@@H](O[C@H]2[C@H](Oc3cc(O)c4c(c3)O[C@H](c3ccc(O)cc3)CC4=O)O[C@@H](CO)[C@H](O)[C@H]2O)[C@@H](O)[C@@H](O)[C@@H]1O
REMARK SMILES IDX 6 1 34 2 32 3 29 4 28 5 7 6 5 7 4 8 1 9 2 10 40 11 3 12
REMARK SMILES IDX 38 13 36 14 41 15 39 17 37 19 35 21 8 23 9 24 10 25 15 26
REMARK SMILES IDX 11 27 14 28 13 29 16 30 26 31 17 32 27 33 25 34 12 35 18 37
REMARK SMILES IDX 19 38 24 39 20 40 23 41 21 42 22 43 33 45 30 47 31 48
REMARK H PARENT 41 16 39 18 37 20 35 22 12 36 22 44 33 46 31 49
REMARK Flexibility Score: inf
ROOT
ATOM      1  C   UNL     1     -11.682  66.152  28.626  1.00  0.00     0.221 C 
ATOM      2  C   UNL     1     -12.284  64.783  28.989  1.00  0.00     0.181 C 
ATOM      3  C   UNL     1     -13.167  64.990  30.237  1.00  0.00     0.177 C 
ATOM      4  C   UNL     1     -12.289  65.631  31.344  1.00  0.00     0.179 C 
ATOM      5  O   UNL     1     -11.778  66.904  30.921  1.00  0.00    -0.332 OA
ATOM      6  C   UNL     1     -10.883  66.683  29.849  1.00  0.00     0.339 C 
ENDROOT
BRANCH   1   7
ATOM      7  O   UNL     1     -12.739  67.087  28.461  1.00  0.00    -0.337 OA
BRANCH   7   8
ATOM      8  C   UNL     1     -12.501  68.061  27.421  1.00  0.00     0.282 C 
ATOM      9  C   UNL     1     -14.967  70.551  26.269  1.00  0.00     0.041 C 
ATOM     10  C   UNL     1     -13.537  69.960  26.516  1.00  0.00     0.150 C 
ATOM     11  C   UNL     1     -12.749  69.753  25.113  1.00  0.00     0.174 C 
ATOM     12  O   UNL     1     -13.674  68.817  27.362  1.00  0.00    -0.344 OA
ATOM     13  C   UNL     1     -12.307  68.305  24.818  1.00  0.00     0.179 C 
ATOM     14  C   UNL     1     -12.330  67.355  26.089  1.00  0.00     0.202 C 
BRANCH  11  15
ATOM     15  O   UNL     1     -11.600  70.554  25.171  1.00  0.00    -0.388 OA
ATOM     16  H   UNL     1     -11.165  70.341  26.042  1.00  0.00     0.211 HD
ENDBRANCH  11  15
BRANCH  13  17
ATOM     17  O   UNL     1     -13.074  67.789  23.761  1.00  0.00    -0.387 OA
ATOM     18  H   UNL     1     -13.822  67.203  24.075  1.00  0.00     0.211 HD
ENDBRANCH  13  17
BRANCH  14  19
ATOM     19  O   UNL     1     -13.303  66.332  25.900  1.00  0.00    -0.385 OA
ATOM     20  H   UNL     1     -12.874  65.612  25.314  1.00  0.00     0.211 HD
ENDBRANCH  14  19
ENDBRANCH   7   8
ENDBRANCH   1   7
BRANCH   2  21
ATOM     21  O   UNL     1     -13.066  64.291  27.931  1.00  0.00    -0.387 OA
ATOM     22  H   UNL     1     -13.945  64.735  27.930  1.00  0.00     0.211 HD
ENDBRANCH   2  21
BRANCH   6  23
ATOM     23  O   UNL     1      -9.723  65.987  30.315  1.00  0.00    -0.462 OA
BRANCH  23  24
ATOM     24  C   UNL     1      -8.378  66.422  30.118  1.00  0.00     0.130 A 
ATOM     25  C   UNL     1      -7.365  66.348  31.149  1.00  0.00     0.093 A 
ATOM     26  C   UNL     1      -8.001  66.970  28.897  1.00  0.00     0.094 A 
ATOM     27  C   UNL     1      -6.154  67.050  31.023  1.00  0.00     0.133 A 
ATOM     28  C   UNL     1      -6.741  67.576  28.712  1.00  0.00     0.138 A 
ATOM     29  C   UNL     1      -5.847  67.640  29.812  1.00  0.00     0.102 A 
ATOM     30  O   UNL     1      -6.365  68.113  27.478  1.00  0.00    -0.484 OA
ATOM     31  C   UNL     1      -4.540  68.305  29.626  1.00  0.00     0.174 C 
ATOM     32  C   UNL     1      -5.215  68.911  27.271  1.00  0.00     0.211 C 
ATOM     33  O   UNL     1      -3.961  68.872  30.590  1.00  0.00    -0.294 OA
ATOM     34  C   UNL     1      -4.042  68.422  28.217  1.00  0.00     0.131 C 
BRANCH  27  35
ATOM     35  O   UNL     1      -5.270  67.021  32.076  1.00  0.00    -0.507 OA
ATOM     36  H   UNL     1      -5.422  66.403  32.872  1.00  0.00     0.293 HD
ENDBRANCH  27  35
BRANCH  32  37
ATOM     37  C   UNL     1      -4.853  68.933  25.789  1.00  0.00    -0.007 A 
ATOM     38  C   UNL     1      -5.743  69.301  24.756  1.00  0.00     0.011 A 
ATOM     39  C   UNL     1      -3.557  68.576  25.394  1.00  0.00     0.011 A 
ATOM     40  C   UNL     1      -5.337  69.428  23.435  1.00  0.00     0.046 A 
ATOM     41  C   UNL     1      -3.131  68.630  24.072  1.00  0.00     0.046 A 
ATOM     42  C   UNL     1      -3.992  69.097  23.078  1.00  0.00     0.115 A 
BRANCH  42  43
ATOM     43  O   UNL     1      -3.567  69.201  21.738  1.00  0.00    -0.508 OA
ATOM     44  H   UNL     1      -3.779  68.423  21.115  1.00  0.00     0.293 HD
ENDBRANCH  42  43
ENDBRANCH  32  37
ENDBRANCH  23  24
ENDBRANCH   6  23
BRANCH   3  45
ATOM     45  O   UNL     1     -13.625  63.750  30.609  1.00  0.00    -0.387 OA
ATOM     46  H   UNL     1     -13.406  63.726  31.564  1.00  0.00     0.211 HD
ENDBRANCH   3  45
BRANCH   4  47
ATOM     47  C   UNL     1     -13.089  65.885  32.644  1.00  0.00     0.191 C 
BRANCH  47  48
ATOM     48  O   UNL     1     -13.422  64.675  33.221  1.00  0.00    -0.394 OA
ATOM     49  H   UNL     1     -13.419  64.783  34.223  1.00  0.00     0.210 HD
ENDBRANCH  47  48
ENDBRANCH   4  47
TORSDOF 14
ENDMDL
MODEL 5
REMARK VINA RESULT:    -8.381      2.277      5.300
REMARK INTER + INTRA:         -14.344
REMARK INTER:                 -12.325
REMARK INTRA:                  -2.019
REMARK UNBOUND:                -1.063
REMARK SMILES C[C@H]1O[C@@H](O[C@H]2[C@H](Oc3cc(O)c4c(c3)O[C@H](c3ccc(O)cc3)CC4=O)O[C@@H](CO)[C@H](O)[C@H]2O)[C@@H](O)[C@@H](O)[C@@H]1O
REMARK SMILES IDX 6 1 34 2 32 3 29 4 28 5 7 6 5 7 4 8 1 9 2 10 40 11 3 12
REMARK SMILES IDX 38 13 36 14 41 15 39 17 37 19 35 21 8 23 9 24 10 25 15 26
REMARK SMILES IDX 11 27 14 28 13 29 16 30 26 31 17 32 27 33 25 34 12 35 18 37
REMARK SMILES IDX 19 38 24 39 20 40 23 41 21 42 22 43 33 45 30 47 31 48
REMARK H PARENT 41 16 39 18 37 20 35 22 12 36 22 44 33 46 31 49
REMARK Flexibility Score: inf
ROOT
ATOM      1  C   UNL     1      -9.823  67.247  29.668  1.00  0.00     0.221 C 
ATOM      2  C   UNL     1     -10.301  65.831  29.301  1.00  0.00     0.181 C 
ATOM      3  C   UNL     1     -11.740  65.682  29.841  1.00  0.00     0.177 C 
ATOM      4  C   UNL     1     -11.716  65.990  31.361  1.00  0.00     0.179 C 
ATOM      5  O   UNL     1     -11.265  67.330  31.607  1.00  0.00    -0.332 OA
ATOM      6  C   UNL     1      -9.910  67.416  31.211  1.00  0.00     0.339 C 
ENDROOT
BRANCH   1   7
ATOM      7  O   UNL     1     -10.753  68.191  29.156  1.00  0.00    -0.337 OA
BRANCH   7   8
ATOM      8  C   UNL     1     -10.209  69.049  28.130  1.00  0.00     0.282 C 
ATOM      9  C   UNL     1      -6.773  68.828  26.805  1.00  0.00     0.041 C 
ATOM     10  C   UNL     1      -8.299  69.186  26.777  1.00  0.00     0.150 C 
ATOM     11  C   UNL     1      -8.511  70.784  26.593  1.00  0.00     0.174 C 
ATOM     12  O   UNL     1      -8.916  68.572  27.910  1.00  0.00    -0.344 OA
ATOM     13  C   UNL     1      -9.298  71.474  27.727  1.00  0.00     0.179 C 
ATOM     14  C   UNL     1     -10.103  70.469  28.653  1.00  0.00     0.202 C 
BRANCH  11  15
ATOM     15  O   UNL     1      -9.223  70.963  25.399  1.00  0.00    -0.388 OA
ATOM     16  H   UNL     1      -9.453  71.933  25.364  1.00  0.00     0.211 HD
ENDBRANCH  11  15
BRANCH  13  17
ATOM     17  O   UNL     1      -8.429  72.292  28.466  1.00  0.00    -0.387 OA
ATOM     18  H   UNL     1      -7.890  72.907  27.889  1.00  0.00     0.211 HD
ENDBRANCH  13  17
BRANCH  14  19
ATOM     19  O   UNL     1      -9.571  70.510  29.974  1.00  0.00    -0.385 OA
ATOM     20  H   UNL     1      -8.572  70.303  29.904  1.00  0.00     0.211 HD
ENDBRANCH  14  19
ENDBRANCH   7   8
ENDBRANCH   1   7
BRANCH   2  21
ATOM     21  O   UNL     1     -10.296  65.653  27.909  1.00  0.00    -0.387 OA
ATOM     22  H   UNL     1      -9.451  65.992  27.532  1.00  0.00     0.211 HD
ENDBRANCH   2  21
BRANCH   6  23
ATOM     23  O   UNL     1      -9.096  66.618  32.076  1.00  0.00    -0.462 OA
BRANCH  23  24
ATOM     24  C   UNL     1      -7.671  66.676  32.137  1.00  0.00     0.130 A 
ATOM     25  C   UNL     1      -6.914  66.279  33.304  1.00  0.00     0.093 A 
ATOM     26  C   UNL     1      -6.952  67.158  31.049  1.00  0.00     0.094 A 
ATOM     27  C   UNL     1      -5.559  66.628  33.440  1.00  0.00     0.133 A 
ATOM     28  C   UNL     1      -5.566  67.403  31.124  1.00  0.00     0.138 A 
ATOM     29  C   UNL     1      -4.897  67.168  32.354  1.00  0.00     0.102 A 
ATOM     30  O   UNL     1      -4.848  67.876  30.022  1.00  0.00    -0.484 OA
ATOM     31  C   UNL     1      -3.451  67.457  32.442  1.00  0.00     0.174 C 
ATOM     32  C   UNL     1      -3.511  68.336  30.077  1.00  0.00     0.211 C 
ATOM     33  O   UNL     1      -2.925  67.797  33.535  1.00  0.00    -0.294 OA
ATOM     34  C   UNL     1      -2.696  67.500  31.148  1.00  0.00     0.131 C 
BRANCH  27  35
ATOM     35  O   UNL     1      -4.916  66.307  34.612  1.00  0.00    -0.507 OA
ATOM     36  H   UNL     1      -5.430  65.926  35.405  1.00  0.00     0.293 HD
ENDBRANCH  27  35
BRANCH  32  37
ATOM     37  C   UNL     1      -2.897  68.329  28.680  1.00  0.00    -0.007 A 
ATOM     38  C   UNL     1      -3.235  67.405  27.666  1.00  0.00     0.011 A 
ATOM     39  C   UNL     1      -1.936  69.292  28.348  1.00  0.00     0.011 A 
ATOM     40  C   UNL     1      -2.745  67.512  26.371  1.00  0.00     0.046 A 
ATOM     41  C   UNL     1      -1.376  69.391  27.079  1.00  0.00     0.046 A 
ATOM     42  C   UNL     1      -1.799  68.538  26.060  1.00  0.00     0.115 A 
BRANCH  42  43
ATOM     43  O   UNL     1      -1.275  68.648  24.755  1.00  0.00    -0.508 OA
ATOM     44  H   UNL     1      -1.869  68.352  23.983  1.00  0.00     0.293 HD
ENDBRANCH  42  43
ENDBRANCH  32  37
ENDBRANCH  23  24
ENDBRANCH   6  23
BRANCH   3  45
ATOM     45  O   UNL     1     -12.124  64.388  29.592  1.00  0.00    -0.387 OA
ATOM     46  H   UNL     1     -12.692  64.189  30.365  1.00  0.00     0.211 HD
ENDBRANCH   3  45
BRANCH   4  47
ATOM     47  C   UNL     1     -13.121  65.872  31.998  1.00  0.00     0.191 C 
BRANCH  47  48
ATOM     48  O   UNL     1     -13.366  64.553  32.328  1.00  0.00    -0.394 OA
ATOM     49  H   UNL     1     -14.011  64.527  33.101  1.00  0.00     0.210 HD
ENDBRANCH  47  48
ENDBRANCH   4  47
TORSDOF 14
ENDMDL
MODEL 6
REMARK VINA RESULT:    -8.271      4.190      9.565
REMARK INTER + INTRA:         -14.169
REMARK INTER:                 -12.428
REMARK INTRA:                  -1.741
REMARK UNBOUND:                -1.063
REMARK SMILES C[C@H]1O[C@@H](O[C@H]2[C@H](Oc3cc(O)c4c(c3)O[C@H](c3ccc(O)cc3)CC4=O)O[C@@H](CO)[C@H](O)[C@H]2O)[C@@H](O)[C@@H](O)[C@@H]1O
REMARK SMILES IDX 6 1 34 2 32 3 29 4 28 5 7 6 5 7 4 8 1 9 2 10 40 11 3 12
REMARK SMILES IDX 38 13 36 14 41 15 39 17 37 19 35 21 8 23 9 24 10 25 15 26
REMARK SMILES IDX 11 27 14 28 13 29 16 30 26 31 17 32 27 33 25 34 12 35 18 37
REMARK SMILES IDX 19 38 24 39 20 40 23 41 21 42 22 43 33 45 30 47 31 48
REMARK H PARENT 41 16 39 18 37 20 35 22 12 36 22 44 33 46 31 49
REMARK Flexibility Score: inf
ROOT
ATOM      1  C   UNL     1     -11.259  69.728  25.059  1.00  0.00     0.221 C 
ATOM      2  C   UNL     1     -10.936  68.717  23.945  1.00  0.00     0.181 C 
ATOM      3  C   UNL     1     -12.034  68.857  22.870  1.00  0.00     0.177 C 
ATOM      4  C   UNL     1     -13.409  68.653  23.559  1.00  0.00     0.179 C 
ATOM      5  O   UNL     1     -13.626  69.643  24.575  1.00  0.00    -0.332 OA
ATOM      6  C   UNL     1     -12.683  69.427  25.606  1.00  0.00     0.339 C 
ENDROOT
BRANCH   1   7
ATOM      7  O   UNL     1     -11.368  71.022  24.484  1.00  0.00    -0.337 OA
BRANCH   7   8
ATOM      8  C   UNL     1     -10.244  71.884  24.766  1.00  0.00     0.282 C 
ATOM      9  C   UNL     1      -7.506  71.073  27.100  1.00  0.00     0.041 C 
ATOM     10  C   UNL     1      -8.183  71.784  25.879  1.00  0.00     0.150 C 
ATOM     11  C   UNL     1      -8.182  73.394  26.078  1.00  0.00     0.174 C 
ATOM     12  O   UNL     1      -9.445  71.156  25.649  1.00  0.00    -0.344 OA
ATOM     13  C   UNL     1      -9.577  74.054  26.077  1.00  0.00     0.179 C 
ATOM     14  C   UNL     1     -10.723  73.131  25.486  1.00  0.00     0.202 C 
BRANCH  11  15
ATOM     15  O   UNL     1      -7.446  73.934  25.014  1.00  0.00    -0.388 OA
ATOM     16  H   UNL     1      -7.084  74.801  25.347  1.00  0.00     0.211 HD
ENDBRANCH  11  15
BRANCH  13  17
ATOM     17  O   UNL     1      -9.879  74.507  27.371  1.00  0.00    -0.387 OA
ATOM     18  H   UNL     1     -10.847  74.733  27.486  1.00  0.00     0.211 HD
ENDBRANCH  13  17
BRANCH  14  19
ATOM     19  O   UNL     1     -11.663  72.824  26.511  1.00  0.00    -0.385 OA
ATOM     20  H   UNL     1     -11.131  72.649  27.367  1.00  0.00     0.211 HD
ENDBRANCH  14  19
ENDBRANCH   7   8
ENDBRANCH   1   7
BRANCH   2  21
ATOM     21  O   UNL     1      -9.680  68.989  23.381  1.00  0.00    -0.387 OA
ATOM     22  H   UNL     1      -9.740  68.951  22.398  1.00  0.00     0.211 HD
ENDBRANCH   2  21
BRANCH   6  23
ATOM     23  O   UNL     1     -12.958  68.190  26.270  1.00  0.00    -0.462 OA
BRANCH  23  24
ATOM     24  C   UNL     1     -12.224  67.681  27.383  1.00  0.00     0.130 A 
ATOM     25  C   UNL     1     -12.857  67.181  28.585  1.00  0.00     0.093 A 
ATOM     26  C   UNL     1     -10.834  67.678  27.351  1.00  0.00     0.094 A 
ATOM     27  C   UNL     1     -12.114  66.975  29.760  1.00  0.00     0.133 A 
ATOM     28  C   UNL     1     -10.065  67.356  28.488  1.00  0.00     0.138 A 
ATOM     29  C   UNL     1     -10.736  67.047  29.700  1.00  0.00     0.102 A 
ATOM     30  O   UNL     1      -8.668  67.343  28.444  1.00  0.00    -0.484 OA
ATOM     31  C   UNL     1      -9.929  66.743  30.900  1.00  0.00     0.174 C 
ATOM     32  C   UNL     1      -7.834  67.233  29.581  1.00  0.00     0.211 C 
ATOM     33  O   UNL     1     -10.367  66.993  32.054  1.00  0.00    -0.294 OA
ATOM     34  C   UNL     1      -8.517  66.300  30.664  1.00  0.00     0.131 C 
BRANCH  27  35
ATOM     35  O   UNL     1     -12.785  66.591  30.898  1.00  0.00    -0.507 OA
ATOM     36  H   UNL     1     -12.588  67.029  31.796  1.00  0.00     0.293 HD
ENDBRANCH  27  35
BRANCH  32  37
ATOM     37  C   UNL     1      -6.436  66.786  29.164  1.00  0.00    -0.007 A 
ATOM     38  C   UNL     1      -5.656  67.426  28.176  1.00  0.00     0.011 A 
ATOM     39  C   UNL     1      -5.857  65.673  29.787  1.00  0.00     0.011 A 
ATOM     40  C   UNL     1      -4.341  67.063  27.916  1.00  0.00     0.046 A 
ATOM     41  C   UNL     1      -4.566  65.241  29.508  1.00  0.00     0.046 A 
ATOM     42  C   UNL     1      -3.771  65.948  28.607  1.00  0.00     0.115 A 
BRANCH  42  43
ATOM     43  O   UNL     1      -2.444  65.552  28.341  1.00  0.00    -0.508 OA
ATOM     44  H   UNL     1      -2.249  65.142  27.429  1.00  0.00     0.293 HD
ENDBRANCH  42  43
ENDBRANCH  32  37
ENDBRANCH  23  24
ENDBRANCH   6  23
BRANCH   3  45
ATOM     45  O   UNL     1     -11.790  67.889  21.927  1.00  0.00    -0.387 OA
ATOM     46  H   UNL     1     -10.878  67.607  22.151  1.00  0.00     0.211 HD
ENDBRANCH   3  45
BRANCH   4  47
ATOM     47  C   UNL     1     -14.582  68.781  22.558  1.00  0.00     0.191 C 
BRANCH  47  48
ATOM     48  O   UNL     1     -14.127  69.356  21.388  1.00  0.00    -0.394 OA
ATOM     49  H   UNL     1     -13.412  70.028  21.614  1.00  0.00     0.210 HD
ENDBRANCH  47  48
ENDBRANCH   4  47
TORSDOF 14
ENDMDL
MODEL 7
REMARK VINA RESULT:    -8.178      2.912      7.401
REMARK INTER + INTRA:         -14.021
REMARK INTER:                 -12.389
REMARK INTRA:                  -1.633
REMARK UNBOUND:                -1.063
REMARK SMILES C[C@H]1O[C@@H](O[C@H]2[C@H](Oc3cc(O)c4c(c3)O[C@H](c3ccc(O)cc3)CC4=O)O[C@@H](CO)[C@H](O)[C@H]2O)[C@@H](O)[C@@H](O)[C@@H]1O
REMARK SMILES IDX 6 1 34 2 32 3 29 4 28 5 7 6 5 7 4 8 1 9 2 10 40 11 3 12
REMARK SMILES IDX 38 13 36 14 41 15 39 17 37 19 35 21 8 23 9 24 10 25 15 26
REMARK SMILES IDX 11 27 14 28 13 29 16 30 26 31 17 32 27 33 25 34 12 35 18 37
REMARK SMILES IDX 19 38 24 39 20 40 23 41 21 42 22 43 33 45 30 47 31 48
REMARK H PARENT 41 16 39 18 37 20 35 22 12 36 22 44 33 46 31 49
REMARK Flexibility Score: inf
ROOT
ATOM      1  C   UNL     1     -10.007  67.592  29.912  1.00  0.00     0.221 C 
ATOM      2  C   UNL     1     -11.380  67.688  30.598  1.00  0.00     0.181 C 
ATOM      3  C   UNL     1     -11.922  66.250  30.737  1.00  0.00     0.177 C 
ATOM      4  C   UNL     1     -11.941  65.606  29.326  1.00  0.00     0.179 C 
ATOM      5  O   UNL     1     -10.620  65.553  28.768  1.00  0.00    -0.332 OA
ATOM      6  C   UNL     1     -10.185  66.879  28.542  1.00  0.00     0.339 C 
ENDROOT
BRANCH   1   7
ATOM      7  O   UNL     1      -9.181  66.713  30.662  1.00  0.00    -0.337 OA
BRANCH   7   8
ATOM      8  C   UNL     1      -7.794  67.114  30.713  1.00  0.00     0.282 C 
ATOM      9  C   UNL     1      -4.955  65.000  29.674  1.00  0.00     0.041 C 
ATOM     10  C   UNL     1      -5.709  66.342  29.968  1.00  0.00     0.150 C 
ATOM     11  C   UNL     1      -4.952  67.184  31.130  1.00  0.00     0.174 C 
ATOM     12  O   UNL     1      -7.088  66.035  30.177  1.00  0.00    -0.344 OA
ATOM     13  C   UNL     1      -5.805  67.485  32.380  1.00  0.00     0.179 C 
ATOM     14  C   UNL     1      -7.363  67.287  32.157  1.00  0.00     0.202 C 
BRANCH  11  15
ATOM     15  O   UNL     1      -4.569  68.407  30.561  1.00  0.00    -0.388 OA
ATOM     16  H   UNL     1      -3.709  68.229  30.090  1.00  0.00     0.211 HD
ENDBRANCH  11  15
BRANCH  13  17
ATOM     17  O   UNL     1      -5.327  66.731  33.463  1.00  0.00    -0.387 OA
ATOM     18  H   UNL     1      -4.347  66.541  33.401  1.00  0.00     0.211 HD
ENDBRANCH  13  17
BRANCH  14  19
ATOM     19  O   UNL     1      -7.830  66.223  32.982  1.00  0.00    -0.385 OA
ATOM     20  H   UNL     1      -8.777  65.993  32.672  1.00  0.00     0.211 HD
ENDBRANCH  14  19
ENDBRANCH   7   8
ENDBRANCH   1   7
BRANCH   2  21
ATOM     21  O   UNL     1     -11.258  68.274  31.868  1.00  0.00    -0.387 OA
ATOM     22  H   UNL     1     -10.578  68.985  31.844  1.00  0.00     0.211 HD
ENDBRANCH   2  21
BRANCH   6  23
ATOM     23  O   UNL     1     -10.968  67.481  27.507  1.00  0.00    -0.462 OA
BRANCH  23  24
ATOM     24  C   UNL     1     -10.637  68.696  26.836  1.00  0.00     0.130 A 
ATOM     25  C   UNL     1     -11.632  69.607  26.313  1.00  0.00     0.093 A 
ATOM     26  C   UNL     1      -9.303  69.034  26.638  1.00  0.00     0.094 A 
ATOM     27  C   UNL     1     -11.278  70.622  25.408  1.00  0.00     0.133 A 
ATOM     28  C   UNL     1      -8.924  70.125  25.829  1.00  0.00     0.138 A 
ATOM     29  C   UNL     1      -9.939  70.882  25.187  1.00  0.00     0.102 A 
ATOM     30  O   UNL     1      -7.581  70.466  25.645  1.00  0.00    -0.484 OA
ATOM     31  C   UNL     1      -9.541  72.004  24.312  1.00  0.00     0.174 C 
ATOM     32  C   UNL     1      -7.119  71.408  24.696  1.00  0.00     0.211 C 
ATOM     33  O   UNL     1     -10.258  72.349  23.336  1.00  0.00    -0.294 OA
ATOM     34  C   UNL     1      -8.175  72.578  24.537  1.00  0.00     0.131 C 
BRANCH  27  35
ATOM     35  O   UNL     1     -12.280  71.396  24.869  1.00  0.00    -0.507 OA
ATOM     36  H   UNL     1     -12.153  71.870  23.977  1.00  0.00     0.293 HD
ENDBRANCH  27  35
BRANCH  32  37
ATOM     37  C   UNL     1      -5.716  71.879  25.066  1.00  0.00    -0.007 A 
ATOM     38  C   UNL     1      -5.211  73.170  24.797  1.00  0.00     0.011 A 
ATOM     39  C   UNL     1      -4.848  70.998  25.724  1.00  0.00     0.011 A 
ATOM     40  C   UNL     1      -3.975  73.597  25.263  1.00  0.00     0.046 A 
ATOM     41  C   UNL     1      -3.578  71.370  26.150  1.00  0.00     0.046 A 
ATOM     42  C   UNL     1      -3.136  72.681  25.970  1.00  0.00     0.115 A 
BRANCH  42  43
ATOM     43  O   UNL     1      -1.869  73.091  26.433  1.00  0.00    -0.508 OA
ATOM     44  H   UNL     1      -1.050  72.725  25.949  1.00  0.00     0.293 HD
ENDBRANCH  42  43
ENDBRANCH  32  37
ENDBRANCH  23  24
ENDBRANCH   6  23
BRANCH   3  45
ATOM     45  O   UNL     1     -13.186  66.352  31.265  1.00  0.00    -0.387 OA
ATOM     46  H   UNL     1     -13.496  65.422  31.239  1.00  0.00     0.211 HD
ENDBRANCH   3  45
BRANCH   4  47
ATOM     47  C   UNL     1     -12.467  64.152  29.359  1.00  0.00     0.191 C 
BRANCH  47  48
ATOM     48  O   UNL     1     -13.219  63.909  28.226  1.00  0.00    -0.394 OA
ATOM     49  H   UNL     1     -14.191  63.861  28.486  1.00  0.00     0.210 HD
ENDBRANCH  47  48
ENDBRANCH   4  47
TORSDOF 14
ENDMDL
MODEL 8
REMARK VINA RESULT:    -8.145      2.685      4.863
REMARK INTER + INTRA:         -13.970
REMARK INTER:                 -11.943
REMARK INTRA:                  -2.027
REMARK UNBOUND:                -1.063
REMARK SMILES C[C@H]1O[C@@H](O[C@H]2[C@H](Oc3cc(O)c4c(c3)O[C@H](c3ccc(O)cc3)CC4=O)O[C@@H](CO)[C@H](O)[C@H]2O)[C@@H](O)[C@@H](O)[C@@H]1O
REMARK SMILES IDX 6 1 34 2 32 3 29 4 28 5 7 6 5 7 4 8 1 9 2 10 40 11 3 12
REMARK SMILES IDX 38 13 36 14 41 15 39 17 37 19 35 21 8 23 9 24 10 25 15 26
REMARK SMILES IDX 11 27 14 28 13 29 16 30 26 31 17 32 27 33 25 34 12 35 18 37
REMARK SMILES IDX 19 38 24 39 20 40 23 41 21 42 22 43 33 45 30 47 31 48
REMARK H PARENT 41 16 39 18 37 20 35 22 12 36 22 44 33 46 31 49
REMARK Flexibility Score: inf
ROOT
ATOM      1  C   UNL     1      -9.856  68.053  28.343  1.00  0.00     0.221 C 
ATOM      2  C   UNL     1     -10.706  66.838  27.929  1.00  0.00     0.181 C 
ATOM      3  C   UNL     1     -11.736  66.598  29.052  1.00  0.00     0.177 C 
ATOM      4  C   UNL     1     -10.961  66.428  30.385  1.00  0.00     0.179 C 
ATOM      5  O   UNL     1     -10.206  67.608  30.694  1.00  0.00    -0.332 OA
ATOM      6  C   UNL     1      -9.193  67.749  29.717  1.00  0.00     0.339 C 
ENDROOT
BRANCH   1   7
ATOM      7  O   UNL     1     -10.722  69.148  28.604  1.00  0.00    -0.337 OA
BRANCH   7   8
ATOM      8  C   UNL     1     -10.623  70.215  27.635  1.00  0.00     0.282 C 
ATOM      9  C   UNL     1      -8.390  70.187  24.698  1.00  0.00     0.041 C 
ATOM     10  C   UNL     1      -9.643  70.608  25.541  1.00  0.00     0.150 C 
ATOM     11  C   UNL     1      -9.643  72.207  25.811  1.00  0.00     0.174 C 
ATOM     12  O   UNL     1      -9.711  69.753  26.684  1.00  0.00    -0.344 OA
ATOM     13  C   UNL     1      -9.634  72.620  27.297  1.00  0.00     0.179 C 
ATOM     14  C   UNL     1     -10.031  71.449  28.291  1.00  0.00     0.202 C 
BRANCH  11  15
ATOM     15  O   UNL     1     -10.812  72.716  25.227  1.00  0.00    -0.388 OA
ATOM     16  H   UNL     1     -10.873  73.665  25.526  1.00  0.00     0.211 HD
ENDBRANCH  11  15
BRANCH  13  17
ATOM     17  O   UNL     1      -8.389  73.183  27.617  1.00  0.00    -0.387 OA
ATOM     18  H   UNL     1      -8.236  73.251  28.604  1.00  0.00     0.211 HD
ENDBRANCH  13  17
BRANCH  14  19
ATOM     19  O   UNL     1      -8.917  71.128  29.118  1.00  0.00    -0.385 OA
ATOM     20  H   UNL     1      -8.093  71.089  28.513  1.00  0.00     0.211 HD
ENDBRANCH  14  19
ENDBRANCH   7   8
ENDBRANCH   1   7
BRANCH   2  21
ATOM     21  O   UNL     1     -11.372  67.092  26.719  1.00  0.00    -0.387 OA
ATOM     22  H   UNL     1     -11.135  67.988  26.388  1.00  0.00     0.211 HD
ENDBRANCH   2  21
BRANCH   6  23
ATOM     23  O   UNL     1      -8.240  66.690  29.843  1.00  0.00    -0.462 OA
BRANCH  23  24
ATOM     24  C   UNL     1      -6.878  66.765  29.423  1.00  0.00     0.130 A 
ATOM     25  C   UNL     1      -5.781  66.227  30.198  1.00  0.00     0.093 A 
ATOM     26  C   UNL     1      -6.558  67.402  28.229  1.00  0.00     0.094 A 
ATOM     27  C   UNL     1      -4.452  66.579  29.909  1.00  0.00     0.133 A 
ATOM     28  C   UNL     1      -5.222  67.660  27.859  1.00  0.00     0.138 A 
ATOM     29  C   UNL     1      -4.182  67.273  28.745  1.00  0.00     0.102 A 
ATOM     30  O   UNL     1      -4.908  68.290  26.652  1.00  0.00    -0.484 OA
ATOM     31  C   UNL     1      -2.784  67.573  28.373  1.00  0.00     0.174 C 
ATOM     32  C   UNL     1      -3.619  68.763  26.309  1.00  0.00     0.211 C 
ATOM     33  O   UNL     1      -1.909  67.772  29.256  1.00  0.00    -0.294 OA
ATOM     34  C   UNL     1      -2.513  67.805  26.916  1.00  0.00     0.131 C 
BRANCH  27  35
ATOM     35  O   UNL     1      -3.458  66.114  30.739  1.00  0.00    -0.507 OA
ATOM     36  H   UNL     1      -3.678  65.720  31.652  1.00  0.00     0.293 HD
ENDBRANCH  27  35
BRANCH  32  37
ATOM     37  C   UNL     1      -3.517  68.955  24.799  1.00  0.00    -0.007 A 
ATOM     38  C   UNL     1      -2.422  68.530  24.014  1.00  0.00     0.011 A 
ATOM     39  C   UNL     1      -4.564  69.585  24.115  1.00  0.00     0.011 A 
ATOM     40  C   UNL     1      -2.426  68.612  22.627  1.00  0.00     0.046 A 
ATOM     41  C   UNL     1      -4.575  69.742  22.734  1.00  0.00     0.046 A 
ATOM     42  C   UNL     1      -3.535  69.222  21.963  1.00  0.00     0.115 A 
BRANCH  42  43
ATOM     43  O   UNL     1      -3.547  69.332  20.557  1.00  0.00    -0.508 OA
ATOM     44  H   UNL     1      -2.840  69.925  20.125  1.00  0.00     0.293 HD
ENDBRANCH  42  43
ENDBRANCH  32  37
ENDBRANCH  23  24
ENDBRANCH   6  23
BRANCH   3  45
ATOM     45  O   UNL     1     -12.427  65.459  28.718  1.00  0.00    -0.387 OA
ATOM     46  H   UNL     1     -11.810  64.752  29.003  1.00  0.00     0.211 HD
ENDBRANCH   3  45
BRANCH   4  47
ATOM     47  C   UNL     1     -11.912  66.185  31.581  1.00  0.00     0.191 C 
BRANCH  47  48
ATOM     48  O   UNL     1     -13.218  66.390  31.178  1.00  0.00    -0.394 OA
ATOM     49  H   UNL     1     -13.212  66.844  30.279  1.00  0.00     0.210 HD
ENDBRANCH  47  48
ENDBRANCH   4  47
TORSDOF 14
ENDMDL
MODEL 9
REMARK VINA RESULT:    -8.094      3.319      8.555
REMARK INTER + INTRA:         -13.889
REMARK INTER:                 -11.748
REMARK INTRA:                  -2.141
REMARK UNBOUND:                -1.063
REMARK SMILES C[C@H]1O[C@@H](O[C@H]2[C@H](Oc3cc(O)c4c(c3)O[C@H](c3ccc(O)cc3)CC4=O)O[C@@H](CO)[C@H](O)[C@H]2O)[C@@H](O)[C@@H](O)[C@@H]1O
REMARK SMILES IDX 6 1 34 2 32 3 29 4 28 5 7 6 5 7 4 8 1 9 2 10 40 11 3 12
REMARK SMILES IDX 38 13 36 14 41 15 39 17 37 19 35 21 8 23 9 24 10 25 15 26
REMARK SMILES IDX 11 27 14 28 13 29 16 30 26 31 17 32 27 33 25 34 12 35 18 37
REMARK SMILES IDX 19 38 24 39 20 40 23 41 21 42 22 43 33 45 30 47 31 48
REMARK H PARENT 41 16 39 18 37 20 35 22 12 36 22 44 33 46 31 49
REMARK Flexibility Score: inf
ROOT
ATOM      1  C   UNL     1      -9.822  69.457  25.518  1.00  0.00     0.221 C 
ATOM      2  C   UNL     1     -10.995  68.950  24.660  1.00  0.00     0.181 C 
ATOM      3  C   UNL     1     -12.040  70.084  24.602  1.00  0.00     0.177 C 
ATOM      4  C   UNL     1     -12.415  70.466  26.058  1.00  0.00     0.179 C 
ATOM      5  O   UNL     1     -11.264  70.933  26.778  1.00  0.00    -0.332 OA
ATOM      6  C   UNL     1     -10.366  69.849  26.921  1.00  0.00     0.339 C 
ENDROOT
BRANCH   1   7
ATOM      7  O   UNL     1      -9.349  70.679  24.969  1.00  0.00    -0.337 OA
BRANCH   7   8
ATOM      8  C   UNL     1      -7.935  70.677  24.672  1.00  0.00     0.282 C 
ATOM      9  C   UNL     1      -5.392  68.788  26.562  1.00  0.00     0.041 C 
ATOM     10  C   UNL     1      -6.001  69.518  25.316  1.00  0.00     0.150 C 
ATOM     11  C   UNL     1      -5.070  70.771  24.872  1.00  0.00     0.174 C 
ATOM     12  O   UNL     1      -7.375  69.793  25.596  1.00  0.00    -0.344 OA
ATOM     13  C   UNL     1      -5.773  72.144  24.885  1.00  0.00     0.179 C 
ATOM     14  C   UNL     1      -7.356  72.055  24.931  1.00  0.00     0.202 C 
BRANCH  11  15
ATOM     15  O   UNL     1      -4.644  70.514  23.562  1.00  0.00    -0.388 OA
ATOM     16  H   UNL     1      -3.660  70.676  23.560  1.00  0.00     0.211 HD
ENDBRANCH  11  15
BRANCH  13  17
ATOM     17  O   UNL     1      -5.258  72.921  25.934  1.00  0.00    -0.387 OA
ATOM     18  H   UNL     1      -4.374  72.589  26.265  1.00  0.00     0.211 HD
ENDBRANCH  13  17
BRANCH  14  19
ATOM     19  O   UNL     1      -7.828  72.609  26.155  1.00  0.00    -0.385 OA
ATOM     20  H   UNL     1      -7.775  71.870  26.861  1.00  0.00     0.211 HD
ENDBRANCH  14  19
ENDBRANCH   7   8
ENDBRANCH   1   7
BRANCH   2  21
ATOM     21  O   UNL     1     -10.559  68.640  23.363  1.00  0.00    -0.387 OA
ATOM     22  H   UNL     1     -11.230  68.080  22.909  1.00  0.00     0.211 HD
ENDBRANCH   2  21
BRANCH   6  23
ATOM     23  O   UNL     1     -10.930  68.857  27.784  1.00  0.00    -0.462 OA
BRANCH  23  24
ATOM     24  C   UNL     1     -10.192  68.089  28.734  1.00  0.00     0.130 A 
ATOM     25  C   UNL     1     -10.814  67.388  29.837  1.00  0.00     0.093 A 
ATOM     26  C   UNL     1      -8.807  68.016  28.637  1.00  0.00     0.094 A 
ATOM     27  C   UNL     1     -10.046  66.902  30.909  1.00  0.00     0.133 A 
ATOM     28  C   UNL     1      -8.022  67.424  29.647  1.00  0.00     0.138 A 
ATOM     29  C   UNL     1      -8.669  66.909  30.801  1.00  0.00     0.102 A 
ATOM     30  O   UNL     1      -6.631  67.343  29.536  1.00  0.00    -0.484 OA
ATOM     31  C   UNL     1      -7.842  66.319  31.875  1.00  0.00     0.174 C 
ATOM     32  C   UNL     1      -5.767  66.954  30.587  1.00  0.00     0.211 C 
ATOM     33  O   UNL     1      -8.224  66.350  33.074  1.00  0.00    -0.294 OA
ATOM     34  C   UNL     1      -6.470  65.857  31.487  1.00  0.00     0.131 C 
BRANCH  27  35
ATOM     35  O   UNL     1     -10.701  66.329  31.974  1.00  0.00    -0.507 OA
ATOM     36  H   UNL     1     -10.980  66.887  32.779  1.00  0.00     0.293 HD
ENDBRANCH  27  35
BRANCH  32  37
ATOM     37  C   UNL     1      -4.416  66.526  30.022  1.00  0.00    -0.007 A 
ATOM     38  C   UNL     1      -3.242  67.311  30.080  1.00  0.00     0.011 A 
ATOM     39  C   UNL     1      -4.296  65.275  29.405  1.00  0.00     0.011 A 
ATOM     40  C   UNL     1      -2.007  66.831  29.667  1.00  0.00     0.046 A 
ATOM     41  C   UNL     1      -3.087  64.786  28.922  1.00  0.00     0.046 A 
ATOM     42  C   UNL     1      -1.918  65.529  29.082  1.00  0.00     0.115 A 
BRANCH  42  43
ATOM     43  O   UNL     1      -0.675  65.034  28.638  1.00  0.00    -0.508 OA
ATOM     44  H   UNL     1       0.122  65.131  29.265  1.00  0.00     0.293 HD
ENDBRANCH  42  43
ENDBRANCH  32  37
ENDBRANCH  23  24
ENDBRANCH   6  23
BRANCH   3  45
ATOM     45  O   UNL     1     -13.121  69.590  23.914  1.00  0.00    -0.387 OA
ATOM     46  H   UNL     1     -12.904  68.637  23.845  1.00  0.00     0.211 HD
ENDBRANCH   3  45
BRANCH   4  47
ATOM     47  C   UNL     1     -13.460  71.605  26.108  1.00  0.00     0.191 C 
BRANCH  47  48
ATOM     48  O   UNL     1     -14.718  71.084  25.875  1.00  0.00    -0.394 OA
ATOM     49  H   UNL     1     -14.776  70.174  26.302  1.00  0.00     0.210 HD
ENDBRANCH  47  48
ENDBRANCH   4  47
TORSDOF 14
ENDMDL
