MODEL 1
REMARK VINA RESULT:    -5.506      0.000      0.000
REMARK INTER + INTRA:          -9.598
REMARK INTER:                  -8.564
REMARK INTRA:                  -1.034
REMARK UNBOUND:                -1.034
REMARK SMILES COc1cc(CNC(=O)CCCCC=CC(C)C)ccc1O
REMARK SMILES IDX 11 1 12 2 13 3 14 4 15 5 16 6 17 7 18 8 10 9 8 10 9 11 7 12
REMARK SMILES IDX 6 14 5 15 4 16 19 17 3 18 20 19 21 20 2 21 1 22 22 23
REMARK H PARENT 7 13 22 24
REMARK Flexibility Score: inf
ROOT
ATOM      1  C   UNL     1      39.416 -45.833  29.396  1.00  0.00     0.010 C 
ENDROOT
BRANCH   1   2
ATOM      2  C   UNL     1      38.455 -47.016  29.558  1.00  0.00     0.005 C 
BRANCH   2   3
ATOM      3  C   UNL     1      37.232 -46.619  30.395  1.00  0.00     0.027 C 
BRANCH   3   4
ATOM      4  C   UNL     1      36.033 -47.459  30.037  1.00  0.00    -0.031 C 
ATOM      5  C   UNL     1      35.716 -48.632  30.616  1.00  0.00    -0.028 C 
BRANCH   5   6
ATOM      6  C   UNL     1      36.471 -49.259  31.771  1.00  0.00     0.005 C 
ATOM      7  C   UNL     1      35.488 -49.685  32.865  1.00  0.00     0.012 C 
ATOM      8  C   UNL     1      37.278 -50.461  31.273  1.00  0.00     0.012 C 
ENDBRANCH   5   6
ENDBRANCH   3   4
ENDBRANCH   2   3
ENDBRANCH   1   2
BRANCH   1   9
ATOM      9  C   UNL     1      38.687 -44.600  28.857  1.00  0.00     0.100 C 
BRANCH   9  10
ATOM     10  C   UNL     1      39.007 -43.398  29.693  1.00  0.00     0.220 C 
ATOM     11  O   UNL     1      38.578 -42.264  29.341  1.00  0.00    -0.275 OA
ATOM     12  N   UNL     1      39.838 -43.531  30.854  1.00  0.00    -0.352 N 
ATOM     13  H   UNL     1      40.230 -44.469  31.093  1.00  0.00     0.163 HD
BRANCH  12  14
ATOM     14  C   UNL     1      40.195 -42.394  31.702  1.00  0.00     0.151 C 
BRANCH  14  15
ATOM     15  C   UNL     1      39.351 -42.385  32.950  1.00  0.00    -0.025 A 
ATOM     16  C   UNL     1      38.005 -41.993  32.901  1.00  0.00     0.056 A 
ATOM     17  C   UNL     1      39.905 -42.797  34.170  1.00  0.00     0.009 A 
ATOM     18  C   UNL     1      37.212 -42.007  34.066  1.00  0.00     0.160 A 
ATOM     19  C   UNL     1      39.125 -42.813  35.328  1.00  0.00     0.050 A 
ATOM     20  C   UNL     1      37.782 -42.420  35.280  1.00  0.00     0.157 A 
BRANCH  18  21
ATOM     21  O   UNL     1      35.862 -41.621  34.057  1.00  0.00    -0.493 OA
ATOM     22  C   UNL     1      35.371 -40.422  33.469  1.00  0.00     0.278 C 
ENDBRANCH  18  21
BRANCH  20  23
ATOM     23  O   UNL     1      37.000 -42.440  36.434  1.00  0.00    -0.504 OA
ATOM     24  H   UNL     1      36.391 -41.667  36.677  1.00  0.00     0.293 HD
ENDBRANCH  20  23
ENDBRANCH  14  15
ENDBRANCH  12  14
ENDBRANCH   9  10
ENDBRANCH   1   9
TORSDOF 10
ENDMDL
MODEL 2
REMARK VINA RESULT:    -5.451      1.726      2.466
REMARK INTER + INTRA:          -9.512
REMARK INTER:                  -8.009
REMARK INTRA:                  -1.503
REMARK UNBOUND:                -1.034
REMARK SMILES COc1cc(CNC(=O)CCCCC=CC(C)C)ccc1O
REMARK SMILES IDX 11 1 12 2 13 3 14 4 15 5 16 6 17 7 18 8 10 9 8 10 9 11 7 12
REMARK SMILES IDX 6 14 5 15 4 16 19 17 3 18 20 19 21 20 2 21 1 22 22 23
REMARK H PARENT 7 13 22 24
REMARK Flexibility Score: inf
ROOT
ATOM      1  C   UNL     1      36.249 -47.168  30.351  1.00  0.00     0.010 C 
ENDROOT
BRANCH   1   2
ATOM      2  C   UNL     1      35.517 -48.509  30.232  1.00  0.00     0.005 C 
BRANCH   2   3
ATOM      3  C   UNL     1      35.480 -49.236  31.582  1.00  0.00     0.027 C 
BRANCH   3   4
ATOM      4  C   UNL     1      36.721 -50.065  31.786  1.00  0.00    -0.031 C 
ATOM      5  C   UNL     1      37.714 -49.764  32.645  1.00  0.00    -0.028 C 
BRANCH   5   6
ATOM      6  C   UNL     1      37.708 -48.585  33.597  1.00  0.00     0.005 C 
ATOM      7  C   UNL     1      37.167 -49.020  34.961  1.00  0.00     0.012 C 
ATOM      8  C   UNL     1      39.125 -48.020  33.733  1.00  0.00     0.012 C 
ENDBRANCH   5   6
ENDBRANCH   3   4
ENDBRANCH   2   3
ENDBRANCH   1   2
BRANCH   1   9
ATOM      9  C   UNL     1      37.552 -47.177  29.546  1.00  0.00     0.100 C 
BRANCH   9  10
ATOM     10  C   UNL     1      38.337 -45.929  29.810  1.00  0.00     0.220 C 
ATOM     11  O   UNL     1      38.197 -44.934  29.045  1.00  0.00    -0.275 OA
ATOM     12  N   UNL     1      39.278 -45.886  30.891  1.00  0.00    -0.352 N 
ATOM     13  H   UNL     1      39.419 -46.740  31.474  1.00  0.00     0.163 HD
BRANCH  12  14
ATOM     14  C   UNL     1      40.081 -44.702  31.189  1.00  0.00     0.151 C 
BRANCH  14  15
ATOM     15  C   UNL     1      39.556 -44.008  32.419  1.00  0.00    -0.025 A 
ATOM     16  C   UNL     1      38.451 -43.147  32.339  1.00  0.00     0.056 A 
ATOM     17  C   UNL     1      40.158 -44.242  33.664  1.00  0.00     0.009 A 
ATOM     18  C   UNL     1      37.948 -42.516  33.495  1.00  0.00     0.160 A 
ATOM     19  C   UNL     1      39.665 -43.620  34.812  1.00  0.00     0.050 A 
ATOM     20  C   UNL     1      38.563 -42.760  34.732  1.00  0.00     0.157 A 
BRANCH  18  21
ATOM     21  O   UNL     1      36.846 -41.648  33.454  1.00  0.00    -0.493 OA
ATOM     22  C   UNL     1      35.487 -42.070  33.478  1.00  0.00     0.278 C 
ENDBRANCH  18  21
BRANCH  20  23
ATOM     23  O   UNL     1      38.067 -42.142  35.879  1.00  0.00    -0.504 OA
ATOM     24  H   UNL     1      38.665 -41.606  36.496  1.00  0.00     0.293 HD
ENDBRANCH  20  23
ENDBRANCH  14  15
ENDBRANCH  12  14
ENDBRANCH   9  10
ENDBRANCH   1   9
TORSDOF 10
ENDMDL
MODEL 3
REMARK VINA RESULT:    -5.385      8.906     11.694
REMARK INTER + INTRA:          -9.409
REMARK INTER:                  -7.205
REMARK INTRA:                  -2.203
REMARK UNBOUND:                -1.034
REMARK SMILES COc1cc(CNC(=O)CCCCC=CC(C)C)ccc1O
REMARK SMILES IDX 11 1 12 2 13 3 14 4 15 5 16 6 17 7 18 8 10 9 8 10 9 11 7 12
REMARK SMILES IDX 6 14 5 15 4 16 19 17 3 18 20 19 21 20 2 21 1 22 22 23
REMARK H PARENT 7 13 22 24
REMARK Flexibility Score: inf
ROOT
ATOM      1  C   UNL     1      29.951 -39.390  34.975  1.00  0.00     0.010 C 
ENDROOT
BRANCH   1   2
ATOM      2  C   UNL     1      28.606 -39.123  34.290  1.00  0.00     0.005 C 
BRANCH   2   3
ATOM      3  C   UNL     1      28.645 -37.810  33.498  1.00  0.00     0.027 C 
BRANCH   3   4
ATOM      4  C   UNL     1      29.209 -36.689  34.333  1.00  0.00    -0.031 C 
ATOM      5  C   UNL     1      29.946 -35.670  33.853  1.00  0.00    -0.028 C 
BRANCH   5   6
ATOM      6  C   UNL     1      30.265 -35.445  32.389  1.00  0.00     0.005 C 
ATOM      7  C   UNL     1      30.528 -33.958  32.136  1.00  0.00     0.012 C 
ATOM      8  C   UNL     1      31.480 -36.285  31.986  1.00  0.00     0.012 C 
ENDBRANCH   5   6
ENDBRANCH   3   4
ENDBRANCH   2   3
ENDBRANCH   1   2
BRANCH   1   9
ATOM      9  C   UNL     1      31.009 -39.830  33.960  1.00  0.00     0.100 C 
BRANCH   9  10
ATOM     10  C   UNL     1      32.273 -39.047  34.149  1.00  0.00     0.220 C 
ATOM     11  O   UNL     1      33.269 -39.288  33.413  1.00  0.00    -0.275 OA
ATOM     12  N   UNL     1      32.362 -38.069  35.195  1.00  0.00    -0.352 N 
ATOM     13  H   UNL     1      31.544 -37.928  35.828  1.00  0.00     0.163 HD
BRANCH  12  14
ATOM     14  C   UNL     1      33.571 -37.284  35.436  1.00  0.00     0.151 C 
BRANCH  14  15
ATOM     15  C   UNL     1      33.244 -35.813  35.464  1.00  0.00    -0.025 A 
ATOM     16  C   UNL     1      32.467 -35.271  36.499  1.00  0.00     0.056 A 
ATOM     17  C   UNL     1      33.742 -34.968  34.461  1.00  0.00     0.009 A 
ATOM     18  C   UNL     1      32.181 -33.892  36.534  1.00  0.00     0.160 A 
ATOM     19  C   UNL     1      33.463 -33.601  34.491  1.00  0.00     0.050 A 
ATOM     20  C   UNL     1      32.685 -33.061  35.523  1.00  0.00     0.157 A 
BRANCH  18  21
ATOM     21  O   UNL     1      31.407 -33.314  37.552  1.00  0.00    -0.493 OA
ATOM     22  C   UNL     1      29.988 -33.207  37.522  1.00  0.00     0.278 C 
ENDBRANCH  18  21
BRANCH  20  23
ATOM     23  O   UNL     1      32.410 -31.694  35.556  1.00  0.00    -0.504 OA
ATOM     24  H   UNL     1      31.555 -31.333  35.963  1.00  0.00     0.293 HD
ENDBRANCH  20  23
ENDBRANCH  14  15
ENDBRANCH  12  14
ENDBRANCH   9  10
ENDBRANCH   1   9
TORSDOF 10
ENDMDL
MODEL 4
REMARK VINA RESULT:    -5.375      9.447     12.509
REMARK INTER + INTRA:          -9.394
REMARK INTER:                  -6.977
REMARK INTRA:                  -2.417
REMARK UNBOUND:                -1.034
REMARK SMILES COc1cc(CNC(=O)CCCCC=CC(C)C)ccc1O
REMARK SMILES IDX 11 1 12 2 13 3 14 4 15 5 16 6 17 7 18 8 10 9 8 10 9 11 7 12
REMARK SMILES IDX 6 14 5 15 4 16 19 17 3 18 20 19 21 20 2 21 1 22 22 23
REMARK H PARENT 7 13 22 24
REMARK Flexibility Score: inf
ROOT
ATOM      1  C   UNL     1      32.202 -33.170  35.020  1.00  0.00     0.010 C 
ENDROOT
BRANCH   1   2
ATOM      2  C   UNL     1      31.940 -32.979  36.518  1.00  0.00     0.005 C 
BRANCH   2   3
ATOM      3  C   UNL     1      32.348 -34.228  37.309  1.00  0.00     0.027 C 
BRANCH   3   4
ATOM      4  C   UNL     1      32.279 -35.463  36.448  1.00  0.00    -0.031 C 
ATOM      5  C   UNL     1      31.225 -36.297  36.384  1.00  0.00    -0.028 C 
BRANCH   5   6
ATOM      6  C   UNL     1      29.911 -36.090  37.111  1.00  0.00     0.005 C 
ATOM      7  C   UNL     1      28.913 -35.381  36.190  1.00  0.00     0.012 C 
ATOM      8  C   UNL     1      29.354 -37.439  37.574  1.00  0.00     0.012 C 
ENDBRANCH   5   6
ENDBRANCH   3   4
ENDBRANCH   2   3
ENDBRANCH   1   2
BRANCH   1   9
ATOM      9  C   UNL     1      30.973 -32.789  34.191  1.00  0.00     0.100 C 
BRANCH   9  10
ATOM     10  C   UNL     1      30.556 -33.933  33.318  1.00  0.00     0.220 C 
ATOM     11  O   UNL     1      29.339 -34.069  33.012  1.00  0.00    -0.275 OA
ATOM     12  N   UNL     1      31.527 -34.893  32.879  1.00  0.00    -0.352 N 
ATOM     13  H   UNL     1      32.518 -34.791  33.192  1.00  0.00     0.163 HD
BRANCH  12  14
ATOM     14  C   UNL     1      31.179 -36.036  32.037  1.00  0.00     0.151 C 
BRANCH  14  15
ATOM     15  C   UNL     1      30.928 -37.255  32.885  1.00  0.00    -0.025 A 
ATOM     16  C   UNL     1      29.624 -37.603  33.271  1.00  0.00     0.056 A 
ATOM     17  C   UNL     1      32.002 -38.069  33.274  1.00  0.00     0.009 A 
ATOM     18  C   UNL     1      29.389 -38.756  34.046  1.00  0.00     0.160 A 
ATOM     19  C   UNL     1      31.776 -39.213  34.042  1.00  0.00     0.050 A 
ATOM     20  C   UNL     1      30.475 -39.559  34.428  1.00  0.00     0.157 A 
BRANCH  18  21
ATOM     21  O   UNL     1      28.101 -39.136  34.451  1.00  0.00    -0.493 OA
ATOM     22  C   UNL     1      26.898 -38.560  33.954  1.00  0.00     0.278 C 
ENDBRANCH  18  21
BRANCH  20  23
ATOM     23  O   UNL     1      30.247 -40.703  35.191  1.00  0.00    -0.504 OA
ATOM     24  H   UNL     1      29.841 -41.539  34.788  1.00  0.00     0.293 HD
ENDBRANCH  20  23
ENDBRANCH  14  15
ENDBRANCH  12  14
ENDBRANCH   9  10
ENDBRANCH   1   9
TORSDOF 10
ENDMDL
MODEL 5
REMARK VINA RESULT:    -5.281      8.954     11.541
REMARK INTER + INTRA:          -9.247
REMARK INTER:                  -7.440
REMARK INTRA:                  -1.808
REMARK UNBOUND:                -1.034
REMARK SMILES COc1cc(CNC(=O)CCCCC=CC(C)C)ccc1O
REMARK SMILES IDX 11 1 12 2 13 3 14 4 15 5 16 6 17 7 18 8 10 9 8 10 9 11 7 12
REMARK SMILES IDX 6 14 5 15 4 16 19 17 3 18 20 19 21 20 2 21 1 22 22 23
REMARK H PARENT 7 13 22 24
REMARK Flexibility Score: inf
ROOT
ATOM      1  C   UNL     1      32.447 -38.218  32.379  1.00  0.00     0.010 C 
ENDROOT
BRANCH   1   2
ATOM      2  C   UNL     1      31.556 -37.084  31.858  1.00  0.00     0.005 C 
BRANCH   2   3
ATOM      3  C   UNL     1      32.309 -35.747  31.867  1.00  0.00     0.027 C 
BRANCH   3   4
ATOM      4  C   UNL     1      33.348 -35.702  30.776  1.00  0.00    -0.031 C 
ATOM      5  C   UNL     1      34.661 -35.481  30.974  1.00  0.00    -0.028 C 
BRANCH   5   6
ATOM      6  C   UNL     1      35.316 -35.315  32.331  1.00  0.00     0.005 C 
ATOM      7  C   UNL     1      35.767 -36.679  32.861  1.00  0.00     0.012 C 
ATOM      8  C   UNL     1      36.507 -34.359  32.220  1.00  0.00     0.012 C 
ENDBRANCH   5   6
ENDBRANCH   3   4
ENDBRANCH   2   3
ENDBRANCH   1   2
BRANCH   1   9
ATOM      9  C   UNL     1      31.671 -39.139  33.323  1.00  0.00     0.100 C 
BRANCH   9  10
ATOM     10  C   UNL     1      31.502 -38.490  34.663  1.00  0.00     0.220 C 
ATOM     11  O   UNL     1      30.396 -38.588  35.265  1.00  0.00    -0.275 OA
ATOM     12  N   UNL     1      32.571 -37.720  35.229  1.00  0.00    -0.352 N 
ATOM     13  H   UNL     1      33.455 -37.605  34.687  1.00  0.00     0.163 HD
BRANCH  12  14
ATOM     14  C   UNL     1      32.460 -37.054  36.526  1.00  0.00     0.151 C 
BRANCH  14  15
ATOM     15  C   UNL     1      32.563 -35.560  36.358  1.00  0.00    -0.025 A 
ATOM     16  C   UNL     1      32.091 -34.693  37.356  1.00  0.00     0.056 A 
ATOM     17  C   UNL     1      33.161 -35.026  35.208  1.00  0.00     0.009 A 
ATOM     18  C   UNL     1      32.208 -33.297  37.207  1.00  0.00     0.160 A 
ATOM     19  C   UNL     1      33.281 -33.643  35.054  1.00  0.00     0.050 A 
ATOM     20  C   UNL     1      32.807 -32.778  36.049  1.00  0.00     0.157 A 
BRANCH  18  21
ATOM     21  O   UNL     1      31.747 -32.399  38.182  1.00  0.00    -0.493 OA
ATOM     22  C   UNL     1      31.734 -32.665  39.580  1.00  0.00     0.278 C 
ENDBRANCH  18  21
BRANCH  20  23
ATOM     23  O   UNL     1      32.930 -31.398  35.899  1.00  0.00    -0.504 OA
ATOM     24  H   UNL     1      33.687 -30.881  36.332  1.00  0.00     0.293 HD
ENDBRANCH  20  23
ENDBRANCH  14  15
ENDBRANCH  12  14
ENDBRANCH   9  10
ENDBRANCH   1   9
TORSDOF 10
ENDMDL
MODEL 6
REMARK VINA RESULT:    -5.278     11.269     15.922
REMARK INTER + INTRA:          -9.242
REMARK INTER:                  -8.436
REMARK INTRA:                  -0.807
REMARK UNBOUND:                -1.034
REMARK SMILES COc1cc(CNC(=O)CCCCC=CC(C)C)ccc1O
REMARK SMILES IDX 11 1 12 2 13 3 14 4 15 5 16 6 17 7 18 8 10 9 8 10 9 11 7 12
REMARK SMILES IDX 6 14 5 15 4 16 19 17 3 18 20 19 21 20 2 21 1 22 22 23
REMARK H PARENT 7 13 22 24
REMARK Flexibility Score: inf
ROOT
ATOM      1  C   UNL     1      30.630 -33.755  41.291  1.00  0.00     0.010 C 
ENDROOT
BRANCH   1   2
ATOM      2  C   UNL     1      30.932 -34.302  42.691  1.00  0.00     0.005 C 
BRANCH   2   3
ATOM      3  C   UNL     1      29.675 -34.914  43.323  1.00  0.00     0.027 C 
BRANCH   3   4
ATOM      4  C   UNL     1      29.105 -34.008  44.384  1.00  0.00    -0.031 C 
ATOM      5  C   UNL     1      29.416 -34.067  45.692  1.00  0.00    -0.028 C 
BRANCH   5   6
ATOM      6  C   UNL     1      30.443 -35.002  46.298  1.00  0.00     0.005 C 
ATOM      7  C   UNL     1      31.805 -34.306  46.367  1.00  0.00     0.012 C 
ATOM      8  C   UNL     1      29.990 -35.440  47.693  1.00  0.00     0.012 C 
ENDBRANCH   5   6
ENDBRANCH   3   4
ENDBRANCH   2   3
ENDBRANCH   1   2
BRANCH   1   9
ATOM      9  C   UNL     1      31.397 -32.457  41.028  1.00  0.00     0.100 C 
BRANCH   9  10
ATOM     10  C   UNL     1      31.325 -32.094  39.576  1.00  0.00     0.220 C 
ATOM     11  O   UNL     1      30.227 -31.710  39.085  1.00  0.00    -0.275 OA
ATOM     12  N   UNL     1      32.484 -32.233  38.742  1.00  0.00    -0.352 N 
ATOM     13  H   UNL     1      33.366 -32.607  39.157  1.00  0.00     0.163 HD
BRANCH  12  14
ATOM     14  C   UNL     1      32.472 -31.907  37.317  1.00  0.00     0.151 C 
BRANCH  14  15
ATOM     15  C   UNL     1      32.757 -33.137  36.495  1.00  0.00    -0.025 A 
ATOM     16  C   UNL     1      32.389 -34.409  36.958  1.00  0.00     0.056 A 
ATOM     17  C   UNL     1      33.372 -33.012  35.241  1.00  0.00     0.009 A 
ATOM     18  C   UNL     1      32.637 -35.556  36.178  1.00  0.00     0.160 A 
ATOM     19  C   UNL     1      33.621 -34.144  34.463  1.00  0.00     0.050 A 
ATOM     20  C   UNL     1      33.255 -35.414  34.926  1.00  0.00     0.157 A 
BRANCH  18  21
ATOM     21  O   UNL     1      32.284 -36.844  36.608  1.00  0.00    -0.493 OA
ATOM     22  C   UNL     1      30.985 -37.410  36.476  1.00  0.00     0.278 C 
ENDBRANCH  18  21
BRANCH  20  23
ATOM     23  O   UNL     1      33.498 -36.545  34.148  1.00  0.00    -0.504 OA
ATOM     24  H   UNL     1      33.008 -36.705  33.275  1.00  0.00     0.293 HD
ENDBRANCH  20  23
ENDBRANCH  14  15
ENDBRANCH  12  14
ENDBRANCH   9  10
ENDBRANCH   1   9
TORSDOF 10
ENDMDL
MODEL 7
REMARK VINA RESULT:    -5.275      7.500      9.909
REMARK INTER + INTRA:          -9.239
REMARK INTER:                  -7.653
REMARK INTRA:                  -1.586
REMARK UNBOUND:                -1.034
REMARK SMILES COc1cc(CNC(=O)CCCCC=CC(C)C)ccc1O
REMARK SMILES IDX 11 1 12 2 13 3 14 4 15 5 16 6 17 7 18 8 10 9 8 10 9 11 7 12
REMARK SMILES IDX 6 14 5 15 4 16 19 17 3 18 20 19 21 20 2 21 1 22 22 23
REMARK H PARENT 7 13 22 24
REMARK Flexibility Score: inf
ROOT
ATOM      1  C   UNL     1      35.704 -35.369  30.691  1.00  0.00     0.010 C 
ENDROOT
BRANCH   1   2
ATOM      2  C   UNL     1      37.062 -36.079  30.652  1.00  0.00     0.005 C 
BRANCH   2   3
ATOM      3  C   UNL     1      36.977 -37.461  31.314  1.00  0.00     0.027 C 
BRANCH   3   4
ATOM      4  C   UNL     1      37.486 -37.415  32.732  1.00  0.00    -0.031 C 
ATOM      5  C   UNL     1      36.747 -37.691  33.823  1.00  0.00    -0.028 C 
BRANCH   5   6
ATOM      6  C   UNL     1      35.307 -38.163  33.797  1.00  0.00     0.005 C 
ATOM      7  C   UNL     1      35.261 -39.688  33.665  1.00  0.00     0.012 C 
ATOM      8  C   UNL     1      34.588 -37.710  35.071  1.00  0.00     0.012 C 
ENDBRANCH   5   6
ENDBRANCH   3   4
ENDBRANCH   2   3
ENDBRANCH   1   2
BRANCH   1   9
ATOM      9  C   UNL     1      34.563 -36.342  30.385  1.00  0.00     0.100 C 
BRANCH   9  10
ATOM     10  C   UNL     1      33.383 -36.056  31.264  1.00  0.00     0.220 C 
ATOM     11  O   UNL     1      33.544 -35.379  32.318  1.00  0.00    -0.275 OA
ATOM     12  N   UNL     1      32.095 -36.594  30.936  1.00  0.00    -0.352 N 
ATOM     13  H   UNL     1      31.998 -37.199  30.091  1.00  0.00     0.163 HD
BRANCH  12  14
ATOM     14  C   UNL     1      30.911 -36.360  31.761  1.00  0.00     0.151 C 
BRANCH  14  15
ATOM     15  C   UNL     1      30.701 -37.508  32.714  1.00  0.00    -0.025 A 
ATOM     16  C   UNL     1      29.516 -37.613  33.458  1.00  0.00     0.056 A 
ATOM     17  C   UNL     1      31.686 -38.498  32.844  1.00  0.00     0.009 A 
ATOM     18  C   UNL     1      29.313 -38.699  34.333  1.00  0.00     0.160 A 
ATOM     19  C   UNL     1      31.491 -39.576  33.709  1.00  0.00     0.050 A 
ATOM     20  C   UNL     1      30.309 -39.680  34.452  1.00  0.00     0.157 A 
BRANCH  18  21
ATOM     21  O   UNL     1      28.142 -38.839  35.094  1.00  0.00    -0.493 OA
ATOM     22  C   UNL     1      26.851 -38.416  34.669  1.00  0.00     0.278 C 
ENDBRANCH  18  21
BRANCH  20  23
ATOM     23  O   UNL     1      30.111 -40.759  35.313  1.00  0.00    -0.504 OA
ATOM     24  H   UNL     1      29.297 -41.359  35.235  1.00  0.00     0.293 HD
ENDBRANCH  20  23
ENDBRANCH  14  15
ENDBRANCH  12  14
ENDBRANCH   9  10
ENDBRANCH   1   9
TORSDOF 10
ENDMDL
MODEL 8
REMARK VINA RESULT:    -5.176     10.391     15.368
REMARK INTER + INTRA:          -9.084
REMARK INTER:                  -8.313
REMARK INTRA:                  -0.771
REMARK UNBOUND:                -1.034
REMARK SMILES COc1cc(CNC(=O)CCCCC=CC(C)C)ccc1O
REMARK SMILES IDX 11 1 12 2 13 3 14 4 15 5 16 6 17 7 18 8 10 9 8 10 9 11 7 12
REMARK SMILES IDX 6 14 5 15 4 16 19 17 3 18 20 19 21 20 2 21 1 22 22 23
REMARK H PARENT 7 13 22 24
REMARK Flexibility Score: inf
ROOT
ATOM      1  C   UNL     1      30.535 -32.414  41.313  1.00  0.00     0.010 C 
ENDROOT
BRANCH   1   2
ATOM      2  C   UNL     1      29.869 -33.390  42.289  1.00  0.00     0.005 C 
BRANCH   2   3
ATOM      3  C   UNL     1      30.834 -34.516  42.683  1.00  0.00     0.027 C 
BRANCH   3   4
ATOM      4  C   UNL     1      30.182 -35.480  43.640  1.00  0.00    -0.031 C 
ATOM      5  C   UNL     1      30.061 -35.283  44.966  1.00  0.00    -0.028 C 
BRANCH   5   6
ATOM      6  C   UNL     1      30.495 -34.029  45.699  1.00  0.00     0.005 C 
ATOM      7  C   UNL     1      29.344 -33.508  46.564  1.00  0.00     0.012 C 
ATOM      8  C   UNL     1      31.724 -34.330  46.561  1.00  0.00     0.012 C 
ENDBRANCH   5   6
ENDBRANCH   3   4
ENDBRANCH   2   3
ENDBRANCH   1   2
BRANCH   1   9
ATOM      9  C   UNL     1      31.761 -33.047  40.649  1.00  0.00     0.100 C 
BRANCH   9  10
ATOM     10  C   UNL     1      31.625 -33.007  39.158  1.00  0.00     0.220 C 
ATOM     11  O   UNL     1      30.547 -32.602  38.643  1.00  0.00    -0.275 OA
ATOM     12  N   UNL     1      32.695 -33.477  38.326  1.00  0.00    -0.352 N 
ATOM     13  H   UNL     1      33.555 -33.861  38.775  1.00  0.00     0.163 HD
BRANCH  12  14
ATOM     14  C   UNL     1      32.617 -33.475  36.866  1.00  0.00     0.151 C 
BRANCH  14  15
ATOM     15  C   UNL     1      32.400 -34.873  36.351  1.00  0.00    -0.025 A 
ATOM     16  C   UNL     1      33.292 -35.443  35.429  1.00  0.00     0.056 A 
ATOM     17  C   UNL     1      31.312 -35.628  36.813  1.00  0.00     0.009 A 
ATOM     18  C   UNL     1      33.099 -36.760  34.965  1.00  0.00     0.160 A 
ATOM     19  C   UNL     1      31.115 -36.933  36.357  1.00  0.00     0.050 A 
ATOM     20  C   UNL     1      32.005 -37.500  35.436  1.00  0.00     0.157 A 
BRANCH  18  21
ATOM     21  O   UNL     1      33.969 -37.363  34.043  1.00  0.00    -0.493 OA
ATOM     22  C   UNL     1      35.277 -37.827  34.355  1.00  0.00     0.278 C 
ENDBRANCH  18  21
BRANCH  20  23
ATOM     23  O   UNL     1      31.812 -38.805  34.984  1.00  0.00    -0.504 OA
ATOM     24  H   UNL     1      32.030 -39.607  35.564  1.00  0.00     0.293 HD
ENDBRANCH  20  23
ENDBRANCH  14  15
ENDBRANCH  12  14
ENDBRANCH   9  10
ENDBRANCH   1   9
TORSDOF 10
ENDMDL
MODEL 9
REMARK VINA RESULT:    -5.138      8.398     11.378
REMARK INTER + INTRA:          -9.025
REMARK INTER:                  -7.008
REMARK INTRA:                  -2.017
REMARK UNBOUND:                -1.034
REMARK SMILES COc1cc(CNC(=O)CCCCC=CC(C)C)ccc1O
REMARK SMILES IDX 11 1 12 2 13 3 14 4 15 5 16 6 17 7 18 8 10 9 8 10 9 11 7 12
REMARK SMILES IDX 6 14 5 15 4 16 19 17 3 18 20 19 21 20 2 21 1 22 22 23
REMARK H PARENT 7 13 22 24
REMARK Flexibility Score: inf
ROOT
ATOM      1  C   UNL     1      28.474 -36.119  37.074  1.00  0.00     0.010 C 
ENDROOT
BRANCH   1   2
ATOM      2  C   UNL     1      27.451 -37.212  36.745  1.00  0.00     0.005 C 
BRANCH   2   3
ATOM      3  C   UNL     1      27.047 -37.158  35.267  1.00  0.00     0.027 C 
BRANCH   3   4
ATOM      4  C   UNL     1      26.977 -38.541  34.672  1.00  0.00    -0.031 C 
ATOM      5  C   UNL     1      28.041 -39.255  34.261  1.00  0.00    -0.028 C 
BRANCH   5   6
ATOM      6  C   UNL     1      29.485 -38.815  34.396  1.00  0.00     0.005 C 
ATOM      7  C   UNL     1      30.381 -40.033  34.638  1.00  0.00     0.012 C 
ATOM      8  C   UNL     1      29.921 -38.066  33.134  1.00  0.00     0.012 C 
ENDBRANCH   5   6
ENDBRANCH   3   4
ENDBRANCH   2   3
ENDBRANCH   1   2
BRANCH   1   9
ATOM      9  C   UNL     1      29.870 -36.712  37.277  1.00  0.00     0.100 C 
BRANCH   9  10
ATOM     10  C   UNL     1      30.841 -36.106  36.310  1.00  0.00     0.220 C 
ATOM     11  O   UNL     1      30.411 -35.373  35.376  1.00  0.00    -0.275 OA
ATOM     12  N   UNL     1      32.240 -36.402  36.415  1.00  0.00    -0.352 N 
ATOM     13  H   UNL     1      32.565 -37.057  37.160  1.00  0.00     0.163 HD
BRANCH  12  14
ATOM     14  C   UNL     1      33.233 -35.851  35.494  1.00  0.00     0.151 C 
BRANCH  14  15
ATOM     15  C   UNL     1      33.330 -36.704  34.256  1.00  0.00    -0.025 A 
ATOM     16  C   UNL     1      33.250 -36.126  32.979  1.00  0.00     0.056 A 
ATOM     17  C   UNL     1      33.528 -38.087  34.374  1.00  0.00     0.009 A 
ATOM     18  C   UNL     1      33.364 -36.923  31.823  1.00  0.00     0.160 A 
ATOM     19  C   UNL     1      33.642 -38.882  33.232  1.00  0.00     0.050 A 
ATOM     20  C   UNL     1      33.560 -38.305  31.959  1.00  0.00     0.157 A 
BRANCH  18  21
ATOM     21  O   UNL     1      33.289 -36.381  30.530  1.00  0.00    -0.493 OA
ATOM     22  C   UNL     1      32.530 -35.229  30.183  1.00  0.00     0.278 C 
ENDBRANCH  18  21
BRANCH  20  23
ATOM     23  O   UNL     1      33.678 -39.098  30.818  1.00  0.00    -0.504 OA
ATOM     24  H   UNL     1      32.871 -39.351  30.260  1.00  0.00     0.293 HD
ENDBRANCH  20  23
ENDBRANCH  14  15
ENDBRANCH  12  14
ENDBRANCH   9  10
ENDBRANCH   1   9
TORSDOF 10
ENDMDL
