MODEL 1
REMARK VINA RESULT:    -5.137      0.000      0.000
REMARK INTER + INTRA:         -10.465
REMARK INTER:                  -9.492
REMARK INTRA:                  -0.974
REMARK UNBOUND:                -0.974
REMARK SMILES CCCCCCCCCCCCCCCCO
REMARK SMILES IDX 9 1 8 2 7 3 6 4 5 5 4 6 3 7 2 8 1 9 10 10 11 11 12 12 13 13
REMARK SMILES IDX 14 14 15 15 16 16 17 17
REMARK H PARENT 17 18
REMARK Flexibility Score: inf
ROOT
ATOM      1  C   UNL     1       9.211   5.923  -7.957  1.00  0.00     0.000 C 
ENDROOT
BRANCH   1   2
ATOM      2  C   UNL     1       9.141   7.023  -6.891  1.00  0.00    -0.000 C 
BRANCH   2   3
ATOM      3  C   UNL     1      10.185   6.787  -5.788  1.00  0.00    -0.000 C 
BRANCH   3   4
ATOM      4  C   UNL     1       9.587   6.877  -4.375  1.00  0.00    -0.000 C 
BRANCH   4   5
ATOM      5  C   UNL     1       8.054   7.002  -4.389  1.00  0.00    -0.000 C 
BRANCH   5   6
ATOM      6  C   UNL     1       7.351   5.697  -3.980  1.00  0.00    -0.000 C 
BRANCH   6   7
ATOM      7  C   UNL     1       7.002   5.654  -2.484  1.00  0.00    -0.000 C 
BRANCH   7   8
ATOM      8  C   UNL     1       6.601   4.237  -2.056  1.00  0.00    -0.003 C 
ATOM      9  C   UNL     1       6.381   4.157  -0.548  1.00  0.00     0.004 C 
ENDBRANCH   7   8
ENDBRANCH   6   7
ENDBRANCH   5   6
ENDBRANCH   4   5
ENDBRANCH   3   4
ENDBRANCH   2   3
ENDBRANCH   1   2
BRANCH   1  10
ATOM     10  C   UNL     1       8.875   4.551  -7.353  1.00  0.00     0.000 C 
BRANCH  10  11
ATOM     11  C   UNL     1       8.823   3.436  -8.410  1.00  0.00     0.000 C 
BRANCH  11  12
ATOM     12  C   UNL     1       8.986   3.972  -9.843  1.00  0.00     0.000 C 
BRANCH  12  13
ATOM     13  C   UNL     1       9.488   2.896 -10.819  1.00  0.00     0.000 C 
BRANCH  13  14
ATOM     14  C   UNL     1      10.121   1.694 -10.098  1.00  0.00     0.002 C 
BRANCH  14  15
ATOM     15  C   UNL     1       9.956   0.380 -10.880  1.00  0.00     0.028 C 
BRANCH  15  16
ATOM     16  C   UNL     1       9.177  -0.700 -10.118  1.00  0.00     0.156 C 
BRANCH  16  17
ATOM     17  O   UNL     1       9.091  -0.387  -8.753  1.00  0.00    -0.396 OA
ATOM     18  H   UNL     1       8.826  -1.220  -8.283  1.00  0.00     0.210 HD
ENDBRANCH  16  17
ENDBRANCH  15  16
ENDBRANCH  14  15
ENDBRANCH  13  14
ENDBRANCH  12  13
ENDBRANCH  11  12
ENDBRANCH  10  11
ENDBRANCH   1  10
TORSDOF 15
ENDMDL
MODEL 2
REMARK VINA RESULT:    -5.133      1.078      2.128
REMARK INTER + INTRA:         -10.458
REMARK INTER:                  -9.587
REMARK INTRA:                  -0.871
REMARK UNBOUND:                -0.974
REMARK SMILES CCCCCCCCCCCCCCCCO
REMARK SMILES IDX 9 1 8 2 7 3 6 4 5 5 4 6 3 7 2 8 1 9 10 10 11 11 12 12 13 13
REMARK SMILES IDX 14 14 15 15 16 16 17 17
REMARK H PARENT 17 18
REMARK Flexibility Score: inf
ROOT
ATOM      1  C   UNL     1      10.084   6.701  -5.800  1.00  0.00     0.000 C 
ENDROOT
BRANCH   1   2
ATOM      2  C   UNL     1       9.630   7.066  -4.381  1.00  0.00    -0.000 C 
BRANCH   2   3
ATOM      3  C   UNL     1       8.106   7.253  -4.323  1.00  0.00    -0.000 C 
BRANCH   3   4
ATOM      4  C   UNL     1       7.444   6.399  -3.230  1.00  0.00    -0.000 C 
BRANCH   4   5
ATOM      5  C   UNL     1       6.893   5.069  -3.773  1.00  0.00    -0.000 C 
BRANCH   5   6
ATOM      6  C   UNL     1       6.464   4.106  -2.653  1.00  0.00    -0.000 C 
BRANCH   6   7
ATOM      7  C   UNL     1       6.458   4.770  -1.268  1.00  0.00    -0.000 C 
BRANCH   7   8
ATOM      8  C   UNL     1       6.017   3.777  -0.186  1.00  0.00    -0.003 C 
ATOM      9  C   UNL     1       6.718   4.058   1.140  1.00  0.00     0.004 C 
ENDBRANCH   7   8
ENDBRANCH   6   7
ENDBRANCH   5   6
ENDBRANCH   4   5
ENDBRANCH   3   4
ENDBRANCH   2   3
ENDBRANCH   1   2
BRANCH   1  10
ATOM     10  C   UNL     1       8.880   6.546  -6.740  1.00  0.00     0.000 C 
BRANCH  10  11
ATOM     11  C   UNL     1       8.935   5.249  -7.562  1.00  0.00     0.000 C 
BRANCH  11  12
ATOM     12  C   UNL     1       9.305   5.497  -9.035  1.00  0.00     0.000 C 
BRANCH  12  13
ATOM     13  C   UNL     1       9.051   4.268  -9.921  1.00  0.00     0.000 C 
BRANCH  13  14
ATOM     14  C   UNL     1       8.611   3.037  -9.110  1.00  0.00     0.002 C 
BRANCH  14  15
ATOM     15  C   UNL     1       7.714   2.084  -9.918  1.00  0.00     0.028 C 
BRANCH  15  16
ATOM     16  C   UNL     1       8.245   0.646  -9.990  1.00  0.00     0.156 C 
BRANCH  16  17
ATOM     17  O   UNL     1       9.035   0.348  -8.870  1.00  0.00    -0.396 OA
ATOM     18  H   UNL     1       9.824  -0.156  -9.201  1.00  0.00     0.210 HD
ENDBRANCH  16  17
ENDBRANCH  15  16
ENDBRANCH  14  15
ENDBRANCH  13  14
ENDBRANCH  12  13
ENDBRANCH  11  12
ENDBRANCH  10  11
ENDBRANCH   1  10
TORSDOF 15
ENDMDL
MODEL 3
REMARK VINA RESULT:    -4.999      1.924      2.742
REMARK INTER + INTRA:         -10.211
REMARK INTER:                  -9.331
REMARK INTRA:                  -0.880
REMARK UNBOUND:                -0.974
REMARK SMILES CCCCCCCCCCCCCCCCO
REMARK SMILES IDX 9 1 8 2 7 3 6 4 5 5 4 6 3 7 2 8 1 9 10 10 11 11 12 12 13 13
REMARK SMILES IDX 14 14 15 15 16 16 17 17
REMARK H PARENT 17 18
REMARK Flexibility Score: inf
ROOT
ATOM      1  C   UNL     1       8.683   6.398  -5.510  1.00  0.00     0.000 C 
ENDROOT
BRANCH   1   2
ATOM      2  C   UNL     1       9.339   7.059  -4.292  1.00  0.00    -0.000 C 
BRANCH   2   3
ATOM      3  C   UNL     1       8.432   8.152  -3.706  1.00  0.00    -0.000 C 
BRANCH   3   4
ATOM      4  C   UNL     1       7.066   7.611  -3.254  1.00  0.00    -0.000 C 
BRANCH   4   5
ATOM      5  C   UNL     1       6.797   7.858  -1.760  1.00  0.00    -0.000 C 
BRANCH   5   6
ATOM      6  C   UNL     1       6.585   6.553  -0.974  1.00  0.00    -0.000 C 
BRANCH   6   7
ATOM      7  C   UNL     1       6.919   5.301  -1.799  1.00  0.00    -0.000 C 
BRANCH   7   8
ATOM      8  C   UNL     1       6.170   4.075  -1.262  1.00  0.00    -0.003 C 
ATOM      9  C   UNL     1       6.487   3.838   0.212  1.00  0.00     0.004 C 
ENDBRANCH   7   8
ENDBRANCH   6   7
ENDBRANCH   5   6
ENDBRANCH   4   5
ENDBRANCH   3   4
ENDBRANCH   2   3
ENDBRANCH   1   2
BRANCH   1  10
ATOM     10  C   UNL     1       9.608   6.460  -6.735  1.00  0.00     0.000 C 
BRANCH  10  11
ATOM     11  C   UNL     1       9.130   5.560  -7.884  1.00  0.00     0.000 C 
BRANCH  11  12
ATOM     12  C   UNL     1       8.754   4.145  -7.411  1.00  0.00     0.000 C 
BRANCH  12  13
ATOM     13  C   UNL     1       8.709   3.132  -8.565  1.00  0.00     0.000 C 
BRANCH  13  14
ATOM     14  C   UNL     1       8.700   3.810  -9.946  1.00  0.00     0.002 C 
BRANCH  14  15
ATOM     15  C   UNL     1       7.460   3.445 -10.779  1.00  0.00     0.028 C 
BRANCH  15  16
ATOM     16  C   UNL     1       6.955   2.015 -10.543  1.00  0.00     0.156 C 
BRANCH  16  17
ATOM     17  O   UNL     1       5.632   2.022 -10.078  1.00  0.00    -0.396 OA
ATOM     18  H   UNL     1       5.100   2.547 -10.730  1.00  0.00     0.210 HD
ENDBRANCH  16  17
ENDBRANCH  15  16
ENDBRANCH  14  15
ENDBRANCH  13  14
ENDBRANCH  12  13
ENDBRANCH  11  12
ENDBRANCH  10  11
ENDBRANCH   1  10
TORSDOF 15
ENDMDL
MODEL 4
REMARK VINA RESULT:    -4.938      3.156      7.546
REMARK INTER + INTRA:         -10.097
REMARK INTER:                  -9.019
REMARK INTRA:                  -1.079
REMARK UNBOUND:                -0.974
REMARK SMILES CCCCCCCCCCCCCCCCO
REMARK SMILES IDX 9 1 8 2 7 3 6 4 5 5 4 6 3 7 2 8 1 9 10 10 11 11 12 12 13 13
REMARK SMILES IDX 14 14 15 15 16 16 17 17
REMARK H PARENT 17 18
REMARK Flexibility Score: inf
ROOT
ATOM      1  C   UNL     1       9.812   7.076  -4.785  1.00  0.00     0.000 C 
ENDROOT
BRANCH   1   2
ATOM      2  C   UNL     1      10.115   7.640  -6.179  1.00  0.00    -0.000 C 
BRANCH   2   3
ATOM      3  C   UNL     1       9.593   6.701  -7.277  1.00  0.00    -0.000 C 
BRANCH   3   4
ATOM      4  C   UNL     1       8.866   5.471  -6.711  1.00  0.00    -0.000 C 
BRANCH   4   5
ATOM      5  C   UNL     1       8.847   4.291  -7.697  1.00  0.00    -0.000 C 
BRANCH   5   6
ATOM      6  C   UNL     1       9.115   4.727  -9.146  1.00  0.00    -0.000 C 
BRANCH   6   7
ATOM      7  C   UNL     1       8.952   3.579 -10.153  1.00  0.00    -0.000 C 
BRANCH   7   8
ATOM      8  C   UNL     1       8.118   2.440  -9.555  1.00  0.00    -0.003 C 
ATOM      9  C   UNL     1       6.783   2.293 -10.281  1.00  0.00     0.004 C 
ENDBRANCH   7   8
ENDBRANCH   6   7
ENDBRANCH   5   6
ENDBRANCH   4   5
ENDBRANCH   3   4
ENDBRANCH   2   3
ENDBRANCH   1   2
BRANCH   1  10
ATOM     10  C   UNL     1       8.846   7.992  -4.019  1.00  0.00     0.000 C 
BRANCH  10  11
ATOM     11  C   UNL     1       7.442   7.384  -3.876  1.00  0.00     0.000 C 
BRANCH  11  12
ATOM     12  C   UNL     1       7.381   6.281  -2.805  1.00  0.00     0.000 C 
BRANCH  12  13
ATOM     13  C   UNL     1       6.905   4.935  -3.373  1.00  0.00     0.000 C 
BRANCH  13  14
ATOM     14  C   UNL     1       6.424   3.969  -2.276  1.00  0.00     0.002 C 
BRANCH  14  15
ATOM     15  C   UNL     1       6.121   4.684  -0.948  1.00  0.00     0.028 C 
BRANCH  15  16
ATOM     16  C   UNL     1       7.003   4.221   0.219  1.00  0.00     0.156 C 
BRANCH  16  17
ATOM     17  O   UNL     1       7.056   5.198   1.224  1.00  0.00    -0.396 OA
ATOM     18  H   UNL     1       6.564   4.835   2.005  1.00  0.00     0.210 HD
ENDBRANCH  16  17
ENDBRANCH  15  16
ENDBRANCH  14  15
ENDBRANCH  13  14
ENDBRANCH  12  13
ENDBRANCH  11  12
ENDBRANCH  10  11
ENDBRANCH   1  10
TORSDOF 15
ENDMDL
MODEL 5
REMARK VINA RESULT:    -4.885      1.743      3.785
REMARK INTER + INTRA:         -10.000
REMARK INTER:                  -8.803
REMARK INTRA:                  -1.197
REMARK UNBOUND:                -0.974
REMARK SMILES CCCCCCCCCCCCCCCCO
REMARK SMILES IDX 9 1 8 2 7 3 6 4 5 5 4 6 3 7 2 8 1 9 10 10 11 11 12 12 13 13
REMARK SMILES IDX 14 14 15 15 16 16 17 17
REMARK H PARENT 17 18
REMARK Flexibility Score: inf
ROOT
ATOM      1  C   UNL     1       7.779   7.482  -4.404  1.00  0.00     0.000 C 
ENDROOT
BRANCH   1   2
ATOM      2  C   UNL     1       7.449   8.923  -3.996  1.00  0.00    -0.000 C 
BRANCH   2   3
ATOM      3  C   UNL     1       6.534   8.948  -2.761  1.00  0.00    -0.000 C 
BRANCH   3   4
ATOM      4  C   UNL     1       7.316   9.094  -1.446  1.00  0.00    -0.000 C 
BRANCH   4   5
ATOM      5  C   UNL     1       6.938   8.019  -0.412  1.00  0.00    -0.000 C 
BRANCH   5   6
ATOM      6  C   UNL     1       6.399   6.735  -1.065  1.00  0.00    -0.000 C 
BRANCH   6   7
ATOM      7  C   UNL     1       6.647   5.483  -0.210  1.00  0.00    -0.000 C 
BRANCH   7   8
ATOM      8  C   UNL     1       6.509   4.209  -1.051  1.00  0.00    -0.003 C 
ATOM      9  C   UNL     1       6.653   4.513  -2.540  1.00  0.00     0.004 C 
ENDBRANCH   7   8
ENDBRANCH   6   7
ENDBRANCH   5   6
ENDBRANCH   4   5
ENDBRANCH   3   4
ENDBRANCH   2   3
ENDBRANCH   1   2
BRANCH   1  10
ATOM     10  C   UNL     1       9.267   7.174  -4.181  1.00  0.00     0.000 C 
BRANCH  10  11
ATOM     11  C   UNL     1       9.981   6.739  -5.470  1.00  0.00     0.000 C 
BRANCH  11  12
ATOM     12  C   UNL     1       9.055   5.966  -6.427  1.00  0.00     0.000 C 
BRANCH  12  13
ATOM     13  C   UNL     1       9.295   6.331  -7.900  1.00  0.00     0.000 C 
BRANCH  13  14
ATOM     14  C   UNL     1       9.198   5.111  -8.833  1.00  0.00     0.002 C 
BRANCH  14  15
ATOM     15  C   UNL     1       8.803   3.825  -8.088  1.00  0.00     0.028 C 
BRANCH  15  16
ATOM     16  C   UNL     1       8.245   2.726  -9.002  1.00  0.00     0.156 C 
BRANCH  16  17
ATOM     17  O   UNL     1       8.968   1.533  -8.849  1.00  0.00    -0.396 OA
ATOM     18  H   UNL     1       9.002   1.101  -9.741  1.00  0.00     0.210 HD
ENDBRANCH  16  17
ENDBRANCH  15  16
ENDBRANCH  14  15
ENDBRANCH  13  14
ENDBRANCH  12  13
ENDBRANCH  11  12
ENDBRANCH  10  11
ENDBRANCH   1  10
TORSDOF 15
ENDMDL
MODEL 6
REMARK VINA RESULT:    -4.823      2.921      8.254
REMARK INTER + INTRA:          -9.886
REMARK INTER:                  -9.143
REMARK INTRA:                  -0.743
REMARK UNBOUND:                -0.974
REMARK SMILES CCCCCCCCCCCCCCCCO
REMARK SMILES IDX 9 1 8 2 7 3 6 4 5 5 4 6 3 7 2 8 1 9 10 10 11 11 12 12 13 13
REMARK SMILES IDX 14 14 15 15 16 16 17 17
REMARK H PARENT 17 18
REMARK Flexibility Score: inf
ROOT
ATOM      1  C   UNL     1       9.608   6.364  -6.446  1.00  0.00     0.000 C 
ENDROOT
BRANCH   1   2
ATOM      2  C   UNL     1       8.938   5.638  -7.620  1.00  0.00    -0.000 C 
BRANCH   2   3
ATOM      3  C   UNL     1       8.922   4.119  -7.389  1.00  0.00    -0.000 C 
BRANCH   3   4
ATOM      4  C   UNL     1       8.523   3.331  -8.647  1.00  0.00    -0.000 C 
BRANCH   4   5
ATOM      5  C   UNL     1       9.219   3.853  -9.916  1.00  0.00    -0.000 C 
BRANCH   5   6
ATOM      6  C   UNL     1       9.447   2.748 -10.961  1.00  0.00    -0.000 C 
BRANCH   6   7
ATOM      7  C   UNL     1      10.382   1.638 -10.459  1.00  0.00    -0.000 C 
BRANCH   7   8
ATOM      8  C   UNL     1       9.841   0.254 -10.837  1.00  0.00    -0.003 C 
ATOM      9  C   UNL     1       9.035  -0.354  -9.693  1.00  0.00     0.004 C 
ENDBRANCH   7   8
ENDBRANCH   6   7
ENDBRANCH   5   6
ENDBRANCH   4   5
ENDBRANCH   3   4
ENDBRANCH   2   3
ENDBRANCH   1   2
BRANCH   1  10
ATOM     10  C   UNL     1       8.561   7.048  -5.554  1.00  0.00     0.000 C 
BRANCH  10  11
ATOM     11  C   UNL     1       8.673   6.626  -4.081  1.00  0.00     0.000 C 
BRANCH  11  12
ATOM     12  C   UNL     1       7.300   6.398  -3.425  1.00  0.00     0.000 C 
BRANCH  12  13
ATOM     13  C   UNL     1       7.138   7.181  -2.113  1.00  0.00     0.000 C 
BRANCH  13  14
ATOM     14  C   UNL     1       6.412   6.368  -1.026  1.00  0.00     0.002 C 
BRANCH  14  15
ATOM     15  C   UNL     1       6.673   4.857  -1.145  1.00  0.00     0.028 C 
BRANCH  15  16
ATOM     16  C   UNL     1       6.610   4.111   0.195  1.00  0.00     0.156 C 
BRANCH  16  17
ATOM     17  O   UNL     1       7.007   4.944   1.251  1.00  0.00    -0.396 OA
ATOM     18  H   UNL     1       7.646   4.424   1.804  1.00  0.00     0.210 HD
ENDBRANCH  16  17
ENDBRANCH  15  16
ENDBRANCH  14  15
ENDBRANCH  13  14
ENDBRANCH  12  13
ENDBRANCH  11  12
ENDBRANCH  10  11
ENDBRANCH   1  10
TORSDOF 15
ENDMDL
MODEL 7
REMARK VINA RESULT:    -4.647      2.574      7.438
REMARK INTER + INTRA:          -9.560
REMARK INTER:                  -8.223
REMARK INTRA:                  -1.337
REMARK UNBOUND:                -0.974
REMARK SMILES CCCCCCCCCCCCCCCCO
REMARK SMILES IDX 9 1 8 2 7 3 6 4 5 5 4 6 3 7 2 8 1 9 10 10 11 11 12 12 13 13
REMARK SMILES IDX 14 14 15 15 16 16 17 17
REMARK H PARENT 17 18
REMARK Flexibility Score: inf
ROOT
ATOM      1  C   UNL     1       8.114   7.165  -4.362  1.00  0.00     0.000 C 
ENDROOT
BRANCH   1   2
ATOM      2  C   UNL     1       9.474   7.790  -4.025  1.00  0.00    -0.000 C 
BRANCH   2   3
ATOM      3  C   UNL     1      10.193   8.260  -5.298  1.00  0.00    -0.000 C 
BRANCH   3   4
ATOM      4  C   UNL     1      10.605   7.094  -6.212  1.00  0.00    -0.000 C 
BRANCH   4   5
ATOM      5  C   UNL     1      10.166   7.305  -7.671  1.00  0.00    -0.000 C 
BRANCH   5   6
ATOM      6  C   UNL     1       9.257   6.176  -8.183  1.00  0.00    -0.000 C 
BRANCH   6   7
ATOM      7  C   UNL     1       9.137   5.011  -7.188  1.00  0.00    -0.000 C 
BRANCH   7   8
ATOM      8  C   UNL     1       8.595   3.754  -7.879  1.00  0.00    -0.003 C 
ATOM      9  C   UNL     1       9.095   3.656  -9.318  1.00  0.00     0.004 C 
ENDBRANCH   7   8
ENDBRANCH   6   7
ENDBRANCH   5   6
ENDBRANCH   4   5
ENDBRANCH   3   4
ENDBRANCH   2   3
ENDBRANCH   1   2
BRANCH   1  10
ATOM     10  C   UNL     1       7.002   7.764  -3.489  1.00  0.00     0.000 C 
BRANCH  10  11
ATOM     11  C   UNL     1       7.550   8.624  -2.340  1.00  0.00     0.000 C 
BRANCH  11  12
ATOM     12  C   UNL     1       6.984   8.211  -0.970  1.00  0.00     0.000 C 
BRANCH  12  13
ATOM     13  C   UNL     1       6.123   6.941  -1.046  1.00  0.00     0.000 C 
BRANCH  13  14
ATOM     14  C   UNL     1       6.781   5.739  -0.345  1.00  0.00     0.002 C 
BRANCH  14  15
ATOM     15  C   UNL     1       6.194   4.393  -0.802  1.00  0.00     0.028 C 
BRANCH  15  16
ATOM     16  C   UNL     1       6.913   3.782  -2.012  1.00  0.00     0.156 C 
BRANCH  16  17
ATOM     17  O   UNL     1       6.256   4.116  -3.205  1.00  0.00    -0.396 OA
ATOM     18  H   UNL     1       6.330   5.100  -3.309  1.00  0.00     0.210 HD
ENDBRANCH  16  17
ENDBRANCH  15  16
ENDBRANCH  14  15
ENDBRANCH  13  14
ENDBRANCH  12  13
ENDBRANCH  11  12
ENDBRANCH  10  11
ENDBRANCH   1  10
TORSDOF 15
ENDMDL
MODEL 8
REMARK VINA RESULT:    -4.607      3.146      7.928
REMARK INTER + INTRA:          -9.486
REMARK INTER:                  -8.386
REMARK INTRA:                  -1.099
REMARK UNBOUND:                -0.974
REMARK SMILES CCCCCCCCCCCCCCCCO
REMARK SMILES IDX 9 1 8 2 7 3 6 4 5 5 4 6 3 7 2 8 1 9 10 10 11 11 12 12 13 13
REMARK SMILES IDX 14 14 15 15 16 16 17 17
REMARK H PARENT 17 18
REMARK Flexibility Score: inf
ROOT
ATOM      1  C   UNL     1       6.640   9.128  -3.550  1.00  0.00     0.000 C 
ENDROOT
BRANCH   1   2
ATOM      2  C   UNL     1       7.825   8.720  -4.433  1.00  0.00    -0.000 C 
BRANCH   2   3
ATOM      3  C   UNL     1       8.087   7.209  -4.339  1.00  0.00    -0.000 C 
BRANCH   3   4
ATOM      4  C   UNL     1       9.572   6.851  -4.507  1.00  0.00    -0.000 C 
BRANCH   4   5
ATOM      5  C   UNL     1       9.993   6.761  -5.984  1.00  0.00    -0.000 C 
BRANCH   5   6
ATOM      6  C   UNL     1       8.845   6.306  -6.899  1.00  0.00    -0.000 C 
BRANCH   6   7
ATOM      7  C   UNL     1       9.298   5.298  -7.966  1.00  0.00    -0.000 C 
BRANCH   7   8
ATOM      8  C   UNL     1       8.866   3.875  -7.593  1.00  0.00    -0.003 C 
ATOM      9  C   UNL     1       8.383   3.105  -8.819  1.00  0.00     0.004 C 
ENDBRANCH   7   8
ENDBRANCH   6   7
ENDBRANCH   5   6
ENDBRANCH   4   5
ENDBRANCH   3   4
ENDBRANCH   2   3
ENDBRANCH   1   2
BRANCH   1  10
ATOM     10  C   UNL     1       7.122   9.845  -2.280  1.00  0.00     0.000 C 
BRANCH  10  11
ATOM     11  C   UNL     1       7.287   8.890  -1.088  1.00  0.00     0.000 C 
BRANCH  11  12
ATOM     12  C   UNL     1       6.174   7.829  -1.020  1.00  0.00     0.000 C 
BRANCH  12  13
ATOM     13  C   UNL     1       6.670   6.491  -0.451  1.00  0.00     0.000 C 
BRANCH  13  14
ATOM     14  C   UNL     1       6.711   5.378  -1.512  1.00  0.00     0.002 C 
BRANCH  14  15
ATOM     15  C   UNL     1       6.511   3.977  -0.910  1.00  0.00     0.028 C 
BRANCH  15  16
ATOM     16  C   UNL     1       6.652   3.934   0.618  1.00  0.00     0.156 C 
BRANCH  16  17
ATOM     17  O   UNL     1       6.283   2.678   1.119  1.00  0.00    -0.396 OA
ATOM     18  H   UNL     1       7.053   2.340   1.646  1.00  0.00     0.210 HD
ENDBRANCH  16  17
ENDBRANCH  15  16
ENDBRANCH  14  15
ENDBRANCH  13  14
ENDBRANCH  12  13
ENDBRANCH  11  12
ENDBRANCH  10  11
ENDBRANCH   1  10
TORSDOF 15
ENDMDL
MODEL 9
REMARK VINA RESULT:    -4.504      2.890      5.614
REMARK INTER + INTRA:          -9.296
REMARK INTER:                  -8.365
REMARK INTRA:                  -0.931
REMARK UNBOUND:                -0.974
REMARK SMILES CCCCCCCCCCCCCCCCO
REMARK SMILES IDX 9 1 8 2 7 3 6 4 5 5 4 6 3 7 2 8 1 9 10 10 11 11 12 12 13 13
REMARK SMILES IDX 14 14 15 15 16 16 17 17
REMARK H PARENT 17 18
REMARK Flexibility Score: inf
ROOT
ATOM      1  C   UNL     1       6.248   4.300  -2.509  1.00  0.00     0.000 C 
ENDROOT
BRANCH   1   2
ATOM      2  C   UNL     1       6.444   4.199  -0.991  1.00  0.00    -0.000 C 
BRANCH   2   3
ATOM      3  C   UNL     1       6.997   5.514  -0.420  1.00  0.00    -0.000 C 
BRANCH   3   4
ATOM      4  C   UNL     1       6.127   6.730  -0.779  1.00  0.00    -0.000 C 
BRANCH   4   5
ATOM      5  C   UNL     1       6.887   8.060  -0.643  1.00  0.00    -0.000 C 
BRANCH   5   6
ATOM      6  C   UNL     1       5.972   9.283  -0.816  1.00  0.00    -0.000 C 
BRANCH   6   7
ATOM      7  C   UNL     1       4.642   8.939  -1.502  1.00  0.00    -0.000 C 
BRANCH   7   8
ATOM      8  C   UNL     1       3.511   9.835  -0.985  1.00  0.00    -0.003 C 
ATOM      9  C   UNL     1       2.143   9.255  -1.334  1.00  0.00     0.004 C 
ENDBRANCH   7   8
ENDBRANCH   6   7
ENDBRANCH   5   6
ENDBRANCH   4   5
ENDBRANCH   3   4
ENDBRANCH   2   3
ENDBRANCH   1   2
BRANCH   1  10
ATOM     10  C   UNL     1       7.496   4.883  -3.188  1.00  0.00     0.000 C 
BRANCH  10  11
ATOM     11  C   UNL     1       7.157   5.982  -4.207  1.00  0.00     0.000 C 
BRANCH  11  12
ATOM     12  C   UNL     1       8.319   6.967  -4.425  1.00  0.00     0.000 C 
BRANCH  12  13
ATOM     13  C   UNL     1       8.786   7.011  -5.888  1.00  0.00     0.000 C 
BRANCH  13  14
ATOM     14  C   UNL     1       9.229   5.632  -6.408  1.00  0.00     0.002 C 
BRANCH  14  15
ATOM     15  C   UNL     1       9.095   5.503  -7.934  1.00  0.00     0.028 C 
BRANCH  15  16
ATOM     16  C   UNL     1       8.770   4.080  -8.409  1.00  0.00     0.156 C 
BRANCH  16  17
ATOM     17  O   UNL     1       8.485   3.242  -7.321  1.00  0.00    -0.396 OA
ATOM     18  H   UNL     1       9.319   2.746  -7.114  1.00  0.00     0.210 HD
ENDBRANCH  16  17
ENDBRANCH  15  16
ENDBRANCH  14  15
ENDBRANCH  13  14
ENDBRANCH  12  13
ENDBRANCH  11  12
ENDBRANCH  10  11
ENDBRANCH   1  10
TORSDOF 15
ENDMDL
