MODEL 1
REMARK VINA RESULT:    -5.738      0.000      0.000
REMARK INTER + INTRA:          -5.905
REMARK INTER:                  -5.905
REMARK INTRA:                   0.000
REMARK UNBOUND:                 0.000
REMARK SMILES Nc1ncnc2nc[nH]c12
REMARK SMILES IDX 8 1 7 2 6 3 5 4 4 5 3 6 2 7 10 8 9 9 1 11
REMARK H PARENT 9 10 1 12 1 13
REMARK Flexibility Score: inf
ROOT
ATOM      1  C   UNL     1      98.507 100.610 100.814  1.00  0.00     0.199 A 
ATOM      2  N   UNL     1      99.495  99.736 100.479  1.00  0.00    -0.217 NA
ATOM      3  C   UNL     1     100.531 100.183 101.207  1.00  0.00     0.182 A 
ATOM      4  N   UNL     1     101.780  99.661 101.243  1.00  0.00    -0.215 NA
ATOM      5  C   UNL     1     102.708 100.259 102.050  1.00  0.00     0.226 A 
ATOM      6  N   UNL     1     102.373 101.358 102.799  1.00  0.00    -0.217 NA
ATOM      7  C   UNL     1     101.114 101.887 102.764  1.00  0.00     0.152 A 
ATOM      8  C   UNL     1     100.181 101.267 101.938  1.00  0.00     0.127 A 
ATOM      9  N   UNL     1      98.895 101.558 101.704  1.00  0.00    -0.340 N 
ATOM     10  H   UNL     1      98.316 102.329 102.106  1.00  0.00     0.168 HD
ENDROOT
BRANCH   7  11
ATOM     11  N   UNL     1     100.789 103.033 103.553  1.00  0.00    -0.382 N 
ATOM     12  H   UNL     1     101.444 103.358 104.297  1.00  0.00     0.158 HD
ATOM     13  H   UNL     1      99.901 103.562 103.404  1.00  0.00     0.158 HD
ENDBRANCH   7  11
TORSDOF 1
ENDMDL
MODEL 2
REMARK VINA RESULT:    -5.442      1.523      3.003
REMARK INTER + INTRA:          -5.601
REMARK INTER:                  -5.601
REMARK INTRA:                   0.000
REMARK UNBOUND:                 0.000
REMARK SMILES Nc1ncnc2nc[nH]c12
REMARK SMILES IDX 8 1 7 2 6 3 5 4 4 5 3 6 2 7 10 8 9 9 1 11
REMARK H PARENT 9 10 1 12 1 13
REMARK Flexibility Score: inf
ROOT
ATOM      1  C   UNL     1     101.631  98.091 102.898  1.00  0.00     0.199 A 
ATOM      2  N   UNL     1     102.624  98.932 103.299  1.00  0.00    -0.217 NA
ATOM      3  C   UNL     1     102.062 100.139 103.129  1.00  0.00     0.182 A 
ATOM      4  N   UNL     1     102.633 101.340 103.384  1.00  0.00    -0.215 NA
ATOM      5  C   UNL     1     101.897 102.469 103.147  1.00  0.00     0.226 A 
ATOM      6  N   UNL     1     100.616 102.377 102.665  1.00  0.00    -0.217 NA
ATOM      7  C   UNL     1     100.038 101.165 102.408  1.00  0.00     0.152 A 
ATOM      8  C   UNL     1     100.800 100.027 102.654  1.00  0.00     0.127 A 
ATOM      9  N   UNL     1     100.503  98.730 102.498  1.00  0.00    -0.340 N 
ATOM     10  H   UNL     1      99.617  98.300 102.153  1.00  0.00     0.168 HD
ENDROOT
BRANCH   7  11
ATOM     11  N   UNL     1      98.703 101.094 101.906  1.00  0.00    -0.382 N 
ATOM     12  H   UNL     1      98.535 100.946 100.887  1.00  0.00     0.158 HD
ATOM     13  H   UNL     1      97.878 101.187 102.540  1.00  0.00     0.158 HD
ENDBRANCH   7  11
TORSDOF 1
ENDMDL
MODEL 3
REMARK VINA RESULT:    -5.381      1.409      2.387
REMARK INTER + INTRA:          -5.538
REMARK INTER:                  -5.538
REMARK INTRA:                   0.000
REMARK UNBOUND:                 0.000
REMARK SMILES Nc1ncnc2nc[nH]c12
REMARK SMILES IDX 8 1 7 2 6 3 5 4 4 5 3 6 2 7 10 8 9 9 1 11
REMARK H PARENT 9 10 1 12 1 13
REMARK Flexibility Score: inf
ROOT
ATOM      1  C   UNL     1      99.123 100.489 100.020  1.00  0.00     0.199 A 
ATOM      2  N   UNL     1      99.804 101.629 100.317  1.00  0.00    -0.217 NA
ATOM      3  C   UNL     1     100.600 101.233 101.324  1.00  0.00     0.182 A 
ATOM      4  N   UNL     1     101.495 101.995 101.995  1.00  0.00    -0.215 NA
ATOM      5  C   UNL     1     102.219 101.410 102.997  1.00  0.00     0.226 A 
ATOM      6  N   UNL     1     102.037 100.086 103.306  1.00  0.00    -0.217 NA
ATOM      7  C   UNL     1     101.134  99.315 102.629  1.00  0.00     0.152 A 
ATOM      8  C   UNL     1     100.405  99.925 101.613  1.00  0.00     0.127 A 
ATOM      9  N   UNL     1      99.467  99.429 100.796  1.00  0.00    -0.340 N 
ATOM     10  H   UNL     1      99.085  98.459 100.753  1.00  0.00     0.168 HD
ENDROOT
BRANCH   7  11
ATOM     11  N   UNL     1     100.961  97.939 102.969  1.00  0.00    -0.382 N 
ATOM     12  H   UNL     1     101.694  97.241 102.712  1.00  0.00     0.158 HD
ATOM     13  H   UNL     1     100.110  97.606 103.475  1.00  0.00     0.158 HD
ENDBRANCH   7  11
TORSDOF 1
ENDMDL
MODEL 4
REMARK VINA RESULT:    -5.293      0.965      2.982
REMARK INTER + INTRA:          -5.447
REMARK INTER:                  -5.447
REMARK INTRA:                   0.000
REMARK UNBOUND:                 0.000
REMARK SMILES Nc1ncnc2nc[nH]c12
REMARK SMILES IDX 8 1 7 2 6 3 5 4 4 5 3 6 2 7 10 8 9 9 1 11
REMARK H PARENT 9 10 1 12 1 13
REMARK Flexibility Score: inf
ROOT
ATOM      1  C   UNL     1     101.709 102.796 103.597  1.00  0.00     0.199 A 
ATOM      2  N   UNL     1     102.669 101.965 103.106  1.00  0.00    -0.217 NA
ATOM      3  C   UNL     1     101.956 101.132 102.330  1.00  0.00     0.182 A 
ATOM      4  N   UNL     1     102.436 100.099 101.598  1.00  0.00    -0.215 NA
ATOM      5  C   UNL     1     101.549  99.359 100.867  1.00  0.00     0.226 A 
ATOM      6  N   UNL     1     100.211  99.663 100.879  1.00  0.00    -0.217 NA
ATOM      7  C   UNL     1      99.725 100.706 101.617  1.00  0.00     0.152 A 
ATOM      8  C   UNL     1     100.641 101.449 102.356  1.00  0.00     0.127 A 
ATOM      9  N   UNL     1     100.458 102.506 103.158  1.00  0.00    -0.340 N 
ATOM     10  H   UNL     1      99.570 103.000 103.396  1.00  0.00     0.168 HD
ENDROOT
BRANCH   7  11
ATOM     11  N   UNL     1      98.328 101.003 101.614  1.00  0.00    -0.382 N 
ATOM     12  H   UNL     1      97.638 100.270 101.340  1.00  0.00     0.158 HD
ATOM     13  H   UNL     1      97.973 101.947 101.884  1.00  0.00     0.158 HD
ENDBRANCH   7  11
TORSDOF 1
ENDMDL
MODEL 5
REMARK VINA RESULT:    -5.255      1.113      2.799
REMARK INTER + INTRA:          -5.408
REMARK INTER:                  -5.408
REMARK INTRA:                   0.000
REMARK UNBOUND:                 0.000
REMARK SMILES Nc1ncnc2nc[nH]c12
REMARK SMILES IDX 8 1 7 2 6 3 5 4 4 5 3 6 2 7 10 8 9 9 1 11
REMARK H PARENT 9 10 1 12 1 13
REMARK Flexibility Score: inf
ROOT
ATOM      1  C   UNL     1     102.965  99.446 102.109  1.00  0.00     0.199 A 
ATOM      2  N   UNL     1     102.306  99.321 100.924  1.00  0.00    -0.217 NA
ATOM      3  C   UNL     1     101.455 100.359 100.959  1.00  0.00     0.182 A 
ATOM      4  N   UNL     1     100.554 100.699 100.007  1.00  0.00    -0.215 NA
ATOM      5  C   UNL     1      99.768 101.797 100.224  1.00  0.00     0.226 A 
ATOM      6  N   UNL     1      99.896 102.528 101.378  1.00  0.00    -0.217 NA
ATOM      7  C   UNL     1     100.805 102.186 102.340  1.00  0.00     0.152 A 
ATOM      8  C   UNL     1     101.597 101.066 102.104  1.00  0.00     0.127 A 
ATOM      9  N   UNL     1     102.553 100.503 102.853  1.00  0.00    -0.340 N 
ATOM     10  H   UNL     1     102.908 100.799 103.789  1.00  0.00     0.168 HD
ENDROOT
BRANCH   7  11
ATOM     11  N   UNL     1     100.920 102.963 103.533  1.00  0.00    -0.382 N 
ATOM     12  H   UNL     1     101.583 103.768 103.571  1.00  0.00     0.158 HD
ATOM     13  H   UNL     1     100.351 102.744 104.381  1.00  0.00     0.158 HD
ENDBRANCH   7  11
TORSDOF 1
ENDMDL
MODEL 6
REMARK VINA RESULT:    -5.248      1.409      3.448
REMARK INTER + INTRA:          -5.401
REMARK INTER:                  -5.401
REMARK INTRA:                   0.000
REMARK UNBOUND:                 0.000
REMARK SMILES Nc1ncnc2nc[nH]c12
REMARK SMILES IDX 8 1 7 2 6 3 5 4 4 5 3 6 2 7 10 8 9 9 1 11
REMARK H PARENT 9 10 1 12 1 13
REMARK Flexibility Score: inf
ROOT
ATOM      1  C   UNL     1     101.777  98.919 103.222  1.00  0.00     0.199 A 
ATOM      2  N   UNL     1     102.227 100.203 103.216  1.00  0.00    -0.217 NA
ATOM      3  C   UNL     1     101.461 100.770 102.270  1.00  0.00     0.182 A 
ATOM      4  N   UNL     1     101.502 102.060 101.861  1.00  0.00    -0.215 NA
ATOM      5  C   UNL     1     100.637 102.455 100.878  1.00  0.00     0.226 A 
ATOM      6  N   UNL     1      99.755 101.560 100.327  1.00  0.00    -0.217 NA
ATOM      7  C   UNL     1      99.712 100.258 100.738  1.00  0.00     0.152 A 
ATOM      8  C   UNL     1     100.599  99.872 101.739  1.00  0.00     0.127 A 
ATOM      9  N   UNL     1     100.782  98.684 102.330  1.00  0.00    -0.340 N 
ATOM     10  H   UNL     1     100.283  97.785 102.156  1.00  0.00     0.168 HD
ENDROOT
BRANCH   7  11
ATOM     11  N   UNL     1      98.785  99.344 100.149  1.00  0.00    -0.382 N 
ATOM     12  H   UNL     1      97.881  99.136 100.627  1.00  0.00     0.158 HD
ATOM     13  H   UNL     1      98.990  98.873  99.240  1.00  0.00     0.158 HD
ENDBRANCH   7  11
TORSDOF 1
ENDMDL
MODEL 7
REMARK VINA RESULT:    -5.116      1.383      3.029
REMARK INTER + INTRA:          -5.265
REMARK INTER:                  -5.265
REMARK INTRA:                   0.000
REMARK UNBOUND:                 0.000
REMARK SMILES Nc1ncnc2nc[nH]c12
REMARK SMILES IDX 8 1 7 2 6 3 5 4 4 5 3 6 2 7 10 8 9 9 1 11
REMARK H PARENT 9 10 1 12 1 13
REMARK Flexibility Score: inf
ROOT
ATOM      1  C   UNL     1     102.607 101.460 103.261  1.00  0.00     0.199 A 
ATOM      2  N   UNL     1     102.291 100.196 102.867  1.00  0.00    -0.217 NA
ATOM      3  C   UNL     1     101.271 100.408 102.019  1.00  0.00     0.182 A 
ATOM      4  N   UNL     1     100.578  99.466 101.336  1.00  0.00    -0.215 NA
ATOM      5  C   UNL     1      99.565  99.879 100.515  1.00  0.00     0.226 A 
ATOM      6  N   UNL     1      99.268 101.212 100.391  1.00  0.00    -0.217 NA
ATOM      7  C   UNL     1      99.966 102.163 101.080  1.00  0.00     0.152 A 
ATOM      8  C   UNL     1     100.993 101.728 101.912  1.00  0.00     0.127 A 
ATOM      9  N   UNL     1     101.831 102.419 102.695  1.00  0.00    -0.340 N 
ATOM     10  H   UNL     1     101.886 103.451 102.843  1.00  0.00     0.168 HD
ENDROOT
BRANCH   7  11
ATOM     11  N   UNL     1      99.637 103.546 100.936  1.00  0.00    -0.382 N 
ATOM     12  H   UNL     1      98.644 103.858 101.011  1.00  0.00     0.158 HD
ATOM     13  H   UNL     1     100.374 104.264 100.756  1.00  0.00     0.158 HD
ENDBRANCH   7  11
TORSDOF 1
ENDMDL
MODEL 8
REMARK VINA RESULT:    -5.044      4.322      6.139
REMARK INTER + INTRA:          -5.191
REMARK INTER:                  -5.191
REMARK INTRA:                   0.000
REMARK UNBOUND:                 0.000
REMARK SMILES Nc1ncnc2nc[nH]c12
REMARK SMILES IDX 8 1 7 2 6 3 5 4 4 5 3 6 2 7 10 8 9 9 1 11
REMARK H PARENT 9 10 1 12 1 13
REMARK Flexibility Score: inf
ROOT
ATOM      1  C   UNL     1     103.324  98.474 101.868  1.00  0.00     0.199 A 
ATOM      2  N   UNL     1     102.476  98.413 102.931  1.00  0.00    -0.217 NA
ATOM      3  C   UNL     1     102.319  97.089 103.096  1.00  0.00     0.182 A 
ATOM      4  N   UNL     1     101.560  96.475 104.034  1.00  0.00    -0.215 NA
ATOM      5  C   UNL     1     101.525  95.108 104.043  1.00  0.00     0.226 A 
ATOM      6  N   UNL     1     102.243  94.387 103.124  1.00  0.00    -0.217 NA
ATOM      7  C   UNL     1     103.010  95.005 102.177  1.00  0.00     0.152 A 
ATOM      8  C   UNL     1     103.035  96.396 102.180  1.00  0.00     0.127 A 
ATOM      9  N   UNL     1     103.684  97.258 101.386  1.00  0.00    -0.340 N 
ATOM     10  H   UNL     1     104.320  97.054 100.584  1.00  0.00     0.168 HD
ENDROOT
BRANCH   7  11
ATOM     11  N   UNL     1     103.750  94.233 101.229  1.00  0.00    -0.382 N 
ATOM     12  H   UNL     1     104.792  94.212 101.272  1.00  0.00     0.158 HD
ATOM     13  H   UNL     1     103.269  93.680 100.485  1.00  0.00     0.158 HD
ENDBRANCH   7  11
TORSDOF 1
ENDMDL
MODEL 9
REMARK VINA RESULT:    -4.970      2.824      4.026
REMARK INTER + INTRA:          -5.116
REMARK INTER:                  -5.116
REMARK INTRA:                   0.000
REMARK UNBOUND:                 0.000
REMARK SMILES Nc1ncnc2nc[nH]c12
REMARK SMILES IDX 8 1 7 2 6 3 5 4 4 5 3 6 2 7 10 8 9 9 1 11
REMARK H PARENT 9 10 1 12 1 13
REMARK Flexibility Score: inf
ROOT
ATOM      1  C   UNL     1     101.884  96.193 103.759  1.00  0.00     0.199 A 
ATOM      2  N   UNL     1     102.951  96.228 102.916  1.00  0.00    -0.217 NA
ATOM      3  C   UNL     1     102.709  97.335 102.195  1.00  0.00     0.182 A 
ATOM      4  N   UNL     1     103.477  97.836 101.199  1.00  0.00    -0.215 NA
ATOM      5  C   UNL     1     103.063  98.982 100.578  1.00  0.00     0.226 A 
ATOM      6  N   UNL     1     101.900  99.601 100.961  1.00  0.00    -0.217 NA
ATOM      7  C   UNL     1     101.124  99.097 101.966  1.00  0.00     0.152 A 
ATOM      8  C   UNL     1     101.559  97.930 102.588  1.00  0.00     0.127 A 
ATOM      9  N   UNL     1     101.014  97.219 103.584  1.00  0.00    -0.340 N 
ATOM     10  H   UNL     1     100.131  97.402 104.110  1.00  0.00     0.168 HD
ENDROOT
BRANCH   7  11
ATOM     11  N   UNL     1      99.917  99.758 102.348  1.00  0.00    -0.382 N 
ATOM     12  H   UNL     1      99.709  99.925 103.357  1.00  0.00     0.158 HD
ATOM     13  H   UNL     1      99.227 100.084 101.635  1.00  0.00     0.158 HD
ENDBRANCH   7  11
TORSDOF 1
ENDMDL
