MODEL 1
REMARK VINA RESULT:    -7.235      0.000      0.000
REMARK INTER + INTRA:          -8.565
REMARK INTER:                  -8.716
REMARK INTRA:                   0.150
REMARK UNBOUND:                 0.150
REMARK SMILES O=c1c(O)c(-c2ccc(O)c(O)c2)oc2cc(O)cc(O)c12
REMARK SMILES IDX 5 1 3 2 2 3 1 4 22 5 20 6 19 7 17 8 16 9 15 10 14 11 6 12
REMARK SMILES IDX 7 13 8 14 9 15 13 16 11 17 10 18 12 20 4 22 21 24 18 26
REMARK H PARENT 10 19 12 21 4 23 21 25 18 27
REMARK Flexibility Score: inf
ROOT
ATOM      1  C   UNL     1     133.491 129.021 139.950  1.00  0.00     0.180 A 
ATOM      2  C   UNL     1     133.702 130.403 140.086  1.00  0.00     0.208 A 
ATOM      3  C   UNL     1     134.473 131.073 139.123  1.00  0.00     0.238 A 
ATOM      4  O   UNL     1     134.703 132.301 139.280  1.00  0.00    -0.285 OA
ATOM      5  C   UNL     1     135.008 130.355 138.027  1.00  0.00     0.111 A 
ATOM      6  C   UNL     1     135.769 130.940 136.969  1.00  0.00     0.134 A 
ATOM      7  C   UNL     1     136.360 130.114 136.005  1.00  0.00     0.093 A 
ATOM      8  C   UNL     1     136.163 128.734 136.022  1.00  0.00     0.123 A 
ATOM      9  C   UNL     1     135.371 128.158 137.017  1.00  0.00     0.094 A 
ATOM     10  C   UNL     1     134.799 128.952 138.013  1.00  0.00     0.146 A 
ATOM     11  O   UNL     1     134.061 128.364 138.947  1.00  0.00    -0.452 OA
ENDROOT
BRANCH   1  12
ATOM     12  C   UNL     1     132.669 128.250 140.913  1.00  0.00     0.025 A 
ATOM     13  C   UNL     1     131.776 127.258 140.480  1.00  0.00     0.016 A 
ATOM     14  C   UNL     1     131.029 126.529 141.407  1.00  0.00     0.051 A 
ATOM     15  C   UNL     1     131.168 126.764 142.780  1.00  0.00     0.157 A 
ATOM     16  C   UNL     1     132.827 128.473 142.289  1.00  0.00     0.062 A 
ATOM     17  C   UNL     1     132.082 127.746 143.227  1.00  0.00     0.158 A 
BRANCH  15  18
ATOM     18  O   UNL     1     130.389 126.003 143.654  1.00  0.00    -0.504 OA
ATOM     19  H   UNL     1     130.438 126.073 144.660  1.00  0.00     0.293 HD
ENDBRANCH  15  18
BRANCH  17  20
ATOM     20  O   UNL     1     132.282 128.030 144.580  1.00  0.00    -0.504 OA
ATOM     21  H   UNL     1     133.096 127.742 145.102  1.00  0.00     0.293 HD
ENDBRANCH  17  20
ENDBRANCH   1  12
BRANCH   2  22
ATOM     22  O   UNL     1     133.182 131.089 141.188  1.00  0.00    -0.502 OA
ATOM     23  H   UNL     1     133.171 132.101 141.244  1.00  0.00     0.293 HD
ENDBRANCH   2  22
BRANCH   6  24
ATOM     24  O   UNL     1     135.950 132.317 136.807  1.00  0.00    -0.507 OA
ATOM     25  H   UNL     1     135.412 133.027 137.280  1.00  0.00     0.293 HD
ENDBRANCH   6  24
BRANCH   8  26
ATOM     26  O   UNL     1     136.753 127.944 135.038  1.00  0.00    -0.508 OA
ATOM     27  H   UNL     1     136.195 127.417 134.375  1.00  0.00     0.293 HD
ENDBRANCH   8  26
TORSDOF 6
ENDMDL
MODEL 2
REMARK VINA RESULT:    -6.982      1.494      3.329
REMARK INTER + INTRA:          -8.260
REMARK INTER:                  -8.307
REMARK INTRA:                   0.047
REMARK UNBOUND:                 0.150
REMARK SMILES O=c1c(O)c(-c2ccc(O)c(O)c2)oc2cc(O)cc(O)c12
REMARK SMILES IDX 5 1 3 2 2 3 1 4 22 5 20 6 19 7 17 8 16 9 15 10 14 11 6 12
REMARK SMILES IDX 7 13 8 14 9 15 13 16 11 17 10 18 12 20 4 22 21 24 18 26
REMARK H PARENT 10 19 12 21 4 23 21 25 18 27
REMARK Flexibility Score: inf
ROOT
ATOM      1  C   UNL     1     133.906 128.248 138.843  1.00  0.00     0.180 A 
ATOM      2  C   UNL     1     134.528 127.208 138.133  1.00  0.00     0.208 A 
ATOM      3  C   UNL     1     135.382 127.527 137.066  1.00  0.00     0.238 A 
ATOM      4  O   UNL     1     135.893 126.589 136.399  1.00  0.00    -0.285 OA
ATOM      5  C   UNL     1     135.616 128.882 136.732  1.00  0.00     0.111 A 
ATOM      6  C   UNL     1     136.495 129.322 135.696  1.00  0.00     0.134 A 
ATOM      7  C   UNL     1     136.549 130.682 135.369  1.00  0.00     0.093 A 
ATOM      8  C   UNL     1     135.810 131.625 136.081  1.00  0.00     0.123 A 
ATOM      9  C   UNL     1     134.993 131.212 137.136  1.00  0.00     0.094 A 
ATOM     10  C   UNL     1     134.890 129.858 137.462  1.00  0.00     0.146 A 
ATOM     11  O   UNL     1     134.094 129.507 138.465  1.00  0.00    -0.452 OA
ENDROOT
BRANCH   1  12
ATOM     12  C   UNL     1     133.012 127.991 139.997  1.00  0.00     0.025 A 
ATOM     13  C   UNL     1     133.155 128.695 141.203  1.00  0.00     0.016 A 
ATOM     14  C   UNL     1     132.285 128.452 142.267  1.00  0.00     0.051 A 
ATOM     15  C   UNL     1     131.251 127.516 142.147  1.00  0.00     0.157 A 
ATOM     16  C   UNL     1     131.963 127.068 139.865  1.00  0.00     0.062 A 
ATOM     17  C   UNL     1     131.086 126.818 140.929  1.00  0.00     0.158 A 
BRANCH  15  18
ATOM     18  O   UNL     1     130.420 127.317 143.251  1.00  0.00    -0.504 OA
ATOM     19  H   UNL     1     129.425 127.489 143.246  1.00  0.00     0.293 HD
ENDBRANCH  15  18
BRANCH  17  20
ATOM     20  O   UNL     1     130.073 125.877 140.730  1.00  0.00    -0.504 OA
ATOM     21  H   UNL     1     129.288 125.753 141.352  1.00  0.00     0.293 HD
ENDBRANCH  17  20
ENDBRANCH   1  12
BRANCH   2  22
ATOM     22  O   UNL     1     134.266 125.875 138.465  1.00  0.00    -0.502 OA
ATOM     23  H   UNL     1     135.001 125.215 138.689  1.00  0.00     0.293 HD
ENDBRANCH   2  22
BRANCH   6  24
ATOM     24  O   UNL     1     137.347 128.474 134.983  1.00  0.00    -0.507 OA
ATOM     25  H   UNL     1     138.134 128.782 134.432  1.00  0.00     0.293 HD
ENDBRANCH   6  24
BRANCH   8  26
ATOM     26  O   UNL     1     135.900 132.972 135.739  1.00  0.00    -0.508 OA
ATOM     27  H   UNL     1     136.797 133.427 135.610  1.00  0.00     0.293 HD
ENDBRANCH   8  26
TORSDOF 6
ENDMDL
MODEL 3
REMARK VINA RESULT:    -6.751      1.689      6.951
REMARK INTER + INTRA:          -7.982
REMARK INTER:                  -7.705
REMARK INTRA:                  -0.278
REMARK UNBOUND:                 0.150
REMARK SMILES O=c1c(O)c(-c2ccc(O)c(O)c2)oc2cc(O)cc(O)c12
REMARK SMILES IDX 5 1 3 2 2 3 1 4 22 5 20 6 19 7 17 8 16 9 15 10 14 11 6 12
REMARK SMILES IDX 7 13 8 14 9 15 13 16 11 17 10 18 12 20 4 22 21 24 18 26
REMARK H PARENT 10 19 12 21 4 23 21 25 18 27
REMARK Flexibility Score: inf
ROOT
ATOM      1  C   UNL     1     135.061 130.122 137.851  1.00  0.00     0.180 A 
ATOM      2  C   UNL     1     134.898 131.176 138.765  1.00  0.00     0.208 A 
ATOM      3  C   UNL     1     134.162 130.952 139.939  1.00  0.00     0.238 A 
ATOM      4  O   UNL     1     133.973 131.916 140.728  1.00  0.00    -0.285 OA
ATOM      5  C   UNL     1     133.613 129.673 140.193  1.00  0.00     0.111 A 
ATOM      6  C   UNL     1     132.884 129.323 141.370  1.00  0.00     0.134 A 
ATOM      7  C   UNL     1     132.275 128.065 141.456  1.00  0.00     0.093 A 
ATOM      8  C   UNL     1     132.422 127.123 140.439  1.00  0.00     0.123 A 
ATOM      9  C   UNL     1     133.182 127.434 139.310  1.00  0.00     0.094 A 
ATOM     10  C   UNL     1     133.772 128.693 139.180  1.00  0.00     0.146 A 
ATOM     11  O   UNL     1     134.478 128.952 138.086  1.00  0.00    -0.452 OA
ENDROOT
BRANCH   1  12
ATOM     12  C   UNL     1     135.844 130.274 136.603  1.00  0.00     0.025 A 
ATOM     13  C   UNL     1     135.319 130.945 135.488  1.00  0.00     0.016 A 
ATOM     14  C   UNL     1     136.086 131.096 134.331  1.00  0.00     0.051 A 
ATOM     15  C   UNL     1     137.391 130.596 134.268  1.00  0.00     0.157 A 
ATOM     16  C   UNL     1     137.160 129.790 136.551  1.00  0.00     0.062 A 
ATOM     17  C   UNL     1     137.937 129.937 135.394  1.00  0.00     0.158 A 
BRANCH  15  18
ATOM     18  O   UNL     1     138.103 130.777 133.080  1.00  0.00    -0.504 OA
ATOM     19  H   UNL     1     139.101 130.922 133.037  1.00  0.00     0.293 HD
ENDBRANCH  15  18
BRANCH  17  20
ATOM     20  O   UNL     1     139.234 129.419 135.410  1.00  0.00    -0.504 OA
ATOM     21  H   UNL     1     139.677 129.030 136.229  1.00  0.00     0.293 HD
ENDBRANCH  17  20
ENDBRANCH   1  12
BRANCH   2  22
ATOM     22  O   UNL     1     135.430 132.438 138.485  1.00  0.00    -0.502 OA
ATOM     23  H   UNL     1     135.650 132.740 137.543  1.00  0.00     0.293 HD
ENDBRANCH   2  22
BRANCH   6  24
ATOM     24  O   UNL     1     132.754 130.156 142.485  1.00  0.00    -0.507 OA
ATOM     25  H   UNL     1     133.412 130.202 143.248  1.00  0.00     0.293 HD
ENDBRANCH   6  24
BRANCH   8  26
ATOM     26  O   UNL     1     131.815 125.875 140.564  1.00  0.00    -0.508 OA
ATOM     27  H   UNL     1     131.054 125.592 139.957  1.00  0.00     0.293 HD
ENDBRANCH   8  26
TORSDOF 6
ENDMDL
MODEL 4
REMARK VINA RESULT:    -6.661      1.314      2.889
REMARK INTER + INTRA:          -7.873
REMARK INTER:                  -7.762
REMARK INTRA:                  -0.111
REMARK UNBOUND:                 0.150
REMARK SMILES O=c1c(O)c(-c2ccc(O)c(O)c2)oc2cc(O)cc(O)c12
REMARK SMILES IDX 5 1 3 2 2 3 1 4 22 5 20 6 19 7 17 8 16 9 15 10 14 11 6 12
REMARK SMILES IDX 7 13 8 14 9 15 13 16 11 17 10 18 12 20 4 22 21 24 18 26
REMARK H PARENT 10 19 12 21 4 23 21 25 18 27
REMARK Flexibility Score: inf
ROOT
ATOM      1  C   UNL     1     133.623 128.153 139.143  1.00  0.00     0.180 A 
ATOM      2  C   UNL     1     134.376 127.252 138.372  1.00  0.00     0.208 A 
ATOM      3  C   UNL     1     135.219 127.753 137.367  1.00  0.00     0.238 A 
ATOM      4  O   UNL     1     135.849 126.937 136.644  1.00  0.00    -0.285 OA
ATOM      5  C   UNL     1     135.311 129.150 137.157  1.00  0.00     0.111 A 
ATOM      6  C   UNL     1     136.164 129.770 136.194  1.00  0.00     0.134 A 
ATOM      7  C   UNL     1     136.077 131.151 135.984  1.00  0.00     0.093 A 
ATOM      8  C   UNL     1     135.218 131.943 136.744  1.00  0.00     0.123 A 
ATOM      9  C   UNL     1     134.423 131.355 137.730  1.00  0.00     0.094 A 
ATOM     10  C   UNL     1     134.461 129.974 137.938  1.00  0.00     0.146 A 
ATOM     11  O   UNL     1     133.682 129.453 138.878  1.00  0.00    -0.452 OA
ENDROOT
BRANCH   1  12
ATOM     12  C   UNL     1     132.732 127.702 140.237  1.00  0.00     0.025 A 
ATOM     13  C   UNL     1     131.653 126.838 139.991  1.00  0.00     0.016 A 
ATOM     14  C   UNL     1     130.841 126.408 141.042  1.00  0.00     0.051 A 
ATOM     15  C   UNL     1     131.096 126.818 142.356  1.00  0.00     0.157 A 
ATOM     16  C   UNL     1     133.003 128.098 141.555  1.00  0.00     0.062 A 
ATOM     17  C   UNL     1     132.193 127.672 142.617  1.00  0.00     0.158 A 
BRANCH  15  18
ATOM     18  O   UNL     1     130.243 126.356 143.360  1.00  0.00    -0.504 OA
ATOM     19  H   UNL     1     130.528 126.204 144.317  1.00  0.00     0.293 HD
ENDBRANCH  15  18
BRANCH  17  20
ATOM     20  O   UNL     1     132.515 128.115 143.901  1.00  0.00    -0.504 OA
ATOM     21  H   UNL     1     131.898 128.038 144.696  1.00  0.00     0.293 HD
ENDBRANCH  17  20
ENDBRANCH   1  12
BRANCH   2  22
ATOM     22  O   UNL     1     134.254 125.875 138.581  1.00  0.00    -0.502 OA
ATOM     23  H   UNL     1     134.932 125.208 138.229  1.00  0.00     0.293 HD
ENDBRANCH   2  22
BRANCH   6  24
ATOM     24  O   UNL     1     137.124 129.084 135.445  1.00  0.00    -0.507 OA
ATOM     25  H   UNL     1     137.896 128.566 135.837  1.00  0.00     0.293 HD
ENDBRANCH   6  24
BRANCH   8  26
ATOM     26  O   UNL     1     135.168 133.317 136.519  1.00  0.00    -0.508 OA
ATOM     27  H   UNL     1     134.897 133.965 137.249  1.00  0.00     0.293 HD
ENDBRANCH   8  26
TORSDOF 6
ENDMDL
MODEL 5
REMARK VINA RESULT:    -6.431      1.922      7.444
REMARK INTER + INTRA:          -7.597
REMARK INTER:                  -7.342
REMARK INTRA:                  -0.255
REMARK UNBOUND:                 0.150
REMARK SMILES O=c1c(O)c(-c2ccc(O)c(O)c2)oc2cc(O)cc(O)c12
REMARK SMILES IDX 5 1 3 2 2 3 1 4 22 5 20 6 19 7 17 8 16 9 15 10 14 11 6 12
REMARK SMILES IDX 7 13 8 14 9 15 13 16 11 17 10 18 12 20 4 22 21 24 18 26
REMARK H PARENT 10 19 12 21 4 23 21 25 18 27
REMARK Flexibility Score: inf
ROOT
ATOM      1  C   UNL     1     135.104 129.266 137.585  1.00  0.00     0.180 A 
ATOM      2  C   UNL     1     134.787 127.915 137.808  1.00  0.00     0.208 A 
ATOM      3  C   UNL     1     134.007 127.574 138.925  1.00  0.00     0.238 A 
ATOM      4  O   UNL     1     133.773 126.357 139.149  1.00  0.00    -0.285 OA
ATOM      5  C   UNL     1     133.540 128.588 139.794  1.00  0.00     0.111 A 
ATOM      6  C   UNL     1     132.708 128.360 140.932  1.00  0.00     0.134 A 
ATOM      7  C   UNL     1     132.414 129.422 141.796  1.00  0.00     0.093 A 
ATOM      8  C   UNL     1     132.865 130.714 141.528  1.00  0.00     0.123 A 
ATOM      9  C   UNL     1     133.628 130.959 140.385  1.00  0.00     0.094 A 
ATOM     10  C   UNL     1     133.969 129.913 139.525  1.00  0.00     0.146 A 
ATOM     11  O   UNL     1     134.705 130.187 138.454  1.00  0.00    -0.452 OA
ENDROOT
BRANCH   1  12
ATOM     12  C   UNL     1     135.900 129.706 136.416  1.00  0.00     0.025 A 
ATOM     13  C   UNL     1     135.304 130.375 135.336  1.00  0.00     0.016 A 
ATOM     14  C   UNL     1     136.079 130.800 134.256  1.00  0.00     0.051 A 
ATOM     15  C   UNL     1     137.461 130.582 134.238  1.00  0.00     0.157 A 
ATOM     16  C   UNL     1     137.289 129.505 136.412  1.00  0.00     0.062 A 
ATOM     17  C   UNL     1     138.075 129.929 135.332  1.00  0.00     0.158 A 
BRANCH  15  18
ATOM     18  O   UNL     1     138.178 131.030 133.126  1.00  0.00    -0.504 OA
ATOM     19  H   UNL     1     138.889 130.487 132.658  1.00  0.00     0.293 HD
ENDBRANCH  15  18
BRANCH  17  20
ATOM     20  O   UNL     1     139.449 129.684 135.390  1.00  0.00    -0.504 OA
ATOM     21  H   UNL     1     140.154 130.356 135.124  1.00  0.00     0.293 HD
ENDBRANCH  17  20
ENDBRANCH   1  12
BRANCH   2  22
ATOM     22  O   UNL     1     135.277 126.927 136.950  1.00  0.00    -0.502 OA
ATOM     23  H   UNL     1     134.669 126.279 136.462  1.00  0.00     0.293 HD
ENDBRANCH   2  22
BRANCH   6  24
ATOM     24  O   UNL     1     132.129 127.126 141.241  1.00  0.00    -0.507 OA
ATOM     25  H   UNL     1     132.494 126.231 140.952  1.00  0.00     0.293 HD
ENDBRANCH   6  24
BRANCH   8  26
ATOM     26  O   UNL     1     132.540 131.750 142.400  1.00  0.00    -0.508 OA
ATOM     27  H   UNL     1     133.161 132.025 143.152  1.00  0.00     0.293 HD
ENDBRANCH   8  26
TORSDOF 6
ENDMDL
MODEL 6
REMARK VINA RESULT:    -6.161      1.638      6.676
REMARK INTER + INTRA:          -7.272
REMARK INTER:                  -7.079
REMARK INTRA:                  -0.193
REMARK UNBOUND:                 0.150
REMARK SMILES O=c1c(O)c(-c2ccc(O)c(O)c2)oc2cc(O)cc(O)c12
REMARK SMILES IDX 5 1 3 2 2 3 1 4 22 5 20 6 19 7 17 8 16 9 15 10 14 11 6 12
REMARK SMILES IDX 7 13 8 14 9 15 13 16 11 17 10 18 12 20 4 22 21 24 18 26
REMARK H PARENT 10 19 12 21 4 23 21 25 18 27
REMARK Flexibility Score: inf
ROOT
ATOM      1  C   UNL     1     135.137 128.505 137.631  1.00  0.00     0.180 A 
ATOM      2  C   UNL     1     135.257 129.891 137.828  1.00  0.00     0.208 A 
ATOM      3  C   UNL     1     134.598 130.484 138.917  1.00  0.00     0.238 A 
ATOM      4  O   UNL     1     134.665 131.734 139.056  1.00  0.00    -0.285 OA
ATOM      5  C   UNL     1     133.843 129.682 139.805  1.00  0.00     0.111 A 
ATOM      6  C   UNL     1     133.168 130.171 140.965  1.00  0.00     0.134 A 
ATOM      7  C   UNL     1     132.343 129.309 141.698  1.00  0.00     0.093 A 
ATOM      8  C   UNL     1     132.220 127.964 141.354  1.00  0.00     0.123 A 
ATOM      9  C   UNL     1     132.923 127.462 140.257  1.00  0.00     0.094 A 
ATOM     10  C   UNL     1     133.725 128.305 139.485  1.00  0.00     0.146 A 
ATOM     11  O   UNL     1     134.368 127.790 138.444  1.00  0.00    -0.452 OA
ENDROOT
BRANCH   1  12
ATOM     12  C   UNL     1     135.822 127.804 136.520  1.00  0.00     0.025 A 
ATOM     13  C   UNL     1     135.102 127.259 135.446  1.00  0.00     0.016 A 
ATOM     14  C   UNL     1     135.772 126.624 134.399  1.00  0.00     0.051 A 
ATOM     15  C   UNL     1     137.168 126.532 134.395  1.00  0.00     0.157 A 
ATOM     16  C   UNL     1     137.223 127.733 136.509  1.00  0.00     0.062 A 
ATOM     17  C   UNL     1     137.904 127.097 135.462  1.00  0.00     0.158 A 
BRANCH  15  18
ATOM     18  O   UNL     1     137.776 125.880 133.320  1.00  0.00    -0.504 OA
ATOM     19  H   UNL     1     137.428 125.026 132.908  1.00  0.00     0.293 HD
ENDBRANCH  15  18
BRANCH  17  20
ATOM     20  O   UNL     1     139.299 127.053 135.523  1.00  0.00    -0.504 OA
ATOM     21  H   UNL     1     139.902 127.138 134.719  1.00  0.00     0.293 HD
ENDBRANCH  17  20
ENDBRANCH   1  12
BRANCH   2  22
ATOM     22  O   UNL     1     135.990 130.669 136.927  1.00  0.00    -0.502 OA
ATOM     23  H   UNL     1     136.313 131.603 137.150  1.00  0.00     0.293 HD
ENDBRANCH   2  22
BRANCH   6  24
ATOM     24  O   UNL     1     133.296 131.475 141.450  1.00  0.00    -0.507 OA
ATOM     25  H   UNL     1     133.736 132.234 140.951  1.00  0.00     0.293 HD
ENDBRANCH   6  24
BRANCH   8  26
ATOM     26  O   UNL     1     131.403 127.131 142.115  1.00  0.00    -0.508 OA
ATOM     27  H   UNL     1     130.430 126.981 141.876  1.00  0.00     0.293 HD
ENDBRANCH   8  26
TORSDOF 6
ENDMDL
MODEL 7
REMARK VINA RESULT:    -6.021     14.702     17.033
REMARK INTER + INTRA:          -7.103
REMARK INTER:                  -7.061
REMARK INTRA:                  -0.042
REMARK UNBOUND:                 0.150
REMARK SMILES O=c1c(O)c(-c2ccc(O)c(O)c2)oc2cc(O)cc(O)c12
REMARK SMILES IDX 5 1 3 2 2 3 1 4 22 5 20 6 19 7 17 8 16 9 15 10 14 11 6 12
REMARK SMILES IDX 7 13 8 14 9 15 13 16 11 17 10 18 12 20 4 22 21 24 18 26
REMARK H PARENT 10 19 12 21 4 23 21 25 18 27
REMARK Flexibility Score: inf
ROOT
ATOM      1  C   UNL     1     148.242 133.531 133.201  1.00  0.00     0.180 A 
ATOM      2  C   UNL     1     148.734 133.827 134.483  1.00  0.00     0.208 A 
ATOM      3  C   UNL     1     148.947 135.169 134.837  1.00  0.00     0.238 A 
ATOM      4  O   UNL     1     149.440 135.425 135.968  1.00  0.00    -0.285 OA
ATOM      5  C   UNL     1     148.648 136.197 133.912  1.00  0.00     0.111 A 
ATOM      6  C   UNL     1     148.785 137.593 134.180  1.00  0.00     0.134 A 
ATOM      7  C   UNL     1     148.585 138.517 133.147  1.00  0.00     0.093 A 
ATOM      8  C   UNL     1     148.188 138.102 131.877  1.00  0.00     0.123 A 
ATOM      9  C   UNL     1     147.993 136.744 131.621  1.00  0.00     0.094 A 
ATOM     10  C   UNL     1     148.220 135.796 132.620  1.00  0.00     0.146 A 
ATOM     11  O   UNL     1     148.032 134.514 132.333  1.00  0.00    -0.452 OA
ENDROOT
BRANCH   1  12
ATOM     12  C   UNL     1     147.969 132.142 132.763  1.00  0.00     0.025 A 
ATOM     13  C   UNL     1     148.582 131.601 131.622  1.00  0.00     0.016 A 
ATOM     14  C   UNL     1     148.327 130.282 131.242  1.00  0.00     0.051 A 
ATOM     15  C   UNL     1     147.470 129.474 131.997  1.00  0.00     0.157 A 
ATOM     16  C   UNL     1     147.126 131.328 133.534  1.00  0.00     0.062 A 
ATOM     17  C   UNL     1     146.863 130.003 133.161  1.00  0.00     0.158 A 
BRANCH  15  18
ATOM     18  O   UNL     1     147.254 128.166 131.561  1.00  0.00    -0.504 OA
ATOM     19  H   UNL     1     146.339 127.758 131.431  1.00  0.00     0.293 HD
ENDBRANCH  15  18
BRANCH  17  20
ATOM     20  O   UNL     1     146.004 129.255 133.970  1.00  0.00    -0.504 OA
ATOM     21  H   UNL     1     146.177 128.300 134.245  1.00  0.00     0.293 HD
ENDBRANCH  17  20
ENDBRANCH   1  12
BRANCH   2  22
ATOM     22  O   UNL     1     149.043 132.795 135.373  1.00  0.00    -0.502 OA
ATOM     23  H   UNL     1     148.484 132.599 136.195  1.00  0.00     0.293 HD
ENDBRANCH   2  22
BRANCH   6  24
ATOM     24  O   UNL     1     149.087 138.121 135.439  1.00  0.00    -0.507 OA
ATOM     25  H   UNL     1     149.562 138.997 135.596  1.00  0.00     0.293 HD
ENDBRANCH   6  24
BRANCH   8  26
ATOM     26  O   UNL     1     147.982 139.050 130.877  1.00  0.00    -0.508 OA
ATOM     27  H   UNL     1     148.542 139.060 130.032  1.00  0.00     0.293 HD
ENDBRANCH   8  26
TORSDOF 6
ENDMDL
MODEL 8
REMARK VINA RESULT:    -4.659     16.195     18.139
REMARK INTER + INTRA:          -5.461
REMARK INTER:                  -5.175
REMARK INTRA:                  -0.286
REMARK UNBOUND:                 0.150
REMARK SMILES O=c1c(O)c(-c2ccc(O)c(O)c2)oc2cc(O)cc(O)c12
REMARK SMILES IDX 5 1 3 2 2 3 1 4 22 5 20 6 19 7 17 8 16 9 15 10 14 11 6 12
REMARK SMILES IDX 7 13 8 14 9 15 13 16 11 17 10 18 12 20 4 22 21 24 18 26
REMARK H PARENT 10 19 12 21 4 23 21 25 18 27
REMARK Flexibility Score: inf
ROOT
ATOM      1  C   UNL     1     148.525 136.089 132.988  1.00  0.00     0.180 A 
ATOM      2  C   UNL     1     149.169 136.657 134.101  1.00  0.00     0.208 A 
ATOM      3  C   UNL     1     148.940 138.009 134.403  1.00  0.00     0.238 A 
ATOM      4  O   UNL     1     149.562 138.525 135.369  1.00  0.00    -0.285 OA
ATOM      5  C   UNL     1     148.059 138.771 133.600  1.00  0.00     0.111 A 
ATOM      6  C   UNL     1     147.723 140.138 133.839  1.00  0.00     0.134 A 
ATOM      7  C   UNL     1     146.942 140.830 132.905  1.00  0.00     0.093 A 
ATOM      8  C   UNL     1     146.432 140.188 131.777  1.00  0.00     0.123 A 
ATOM      9  C   UNL     1     146.705 138.836 131.565  1.00  0.00     0.094 A 
ATOM     10  C   UNL     1     147.511 138.129 132.460  1.00  0.00     0.146 A 
ATOM     11  O   UNL     1     147.755 136.847 132.216  1.00  0.00    -0.452 OA
ENDROOT
BRANCH   1  12
ATOM     12  C   UNL     1     148.696 134.664 132.621  1.00  0.00     0.025 A 
ATOM     13  C   UNL     1     149.577 134.273 131.600  1.00  0.00     0.016 A 
ATOM     14  C   UNL     1     149.739 132.922 131.288  1.00  0.00     0.051 A 
ATOM     15  C   UNL     1     149.039 131.937 131.993  1.00  0.00     0.157 A 
ATOM     16  C   UNL     1     148.009 133.677 133.344  1.00  0.00     0.062 A 
ATOM     17  C   UNL     1     148.165 132.319 133.037  1.00  0.00     0.158 A 
BRANCH  15  18
ATOM     18  O   UNL     1     149.243 130.604 131.628  1.00  0.00    -0.504 OA
ATOM     19  H   UNL     1     148.986 130.220 130.730  1.00  0.00     0.293 HD
ENDBRANCH  15  18
BRANCH  17  20
ATOM     20  O   UNL     1     147.440 131.393 133.791  1.00  0.00    -0.504 OA
ATOM     21  H   UNL     1     146.819 130.704 133.392  1.00  0.00     0.293 HD
ENDBRANCH  17  20
ENDBRANCH   1  12
BRANCH   2  22
ATOM     22  O   UNL     1     150.052 135.892 134.868  1.00  0.00    -0.502 OA
ATOM     23  H   UNL     1     149.736 135.166 135.500  1.00  0.00     0.293 HD
ENDBRANCH   2  22
BRANCH   6  24
ATOM     24  O   UNL     1     148.104 140.848 134.981  1.00  0.00    -0.507 OA
ATOM     25  H   UNL     1     149.054 141.092 135.215  1.00  0.00     0.293 HD
ENDBRANCH   6  24
BRANCH   8  26
ATOM     26  O   UNL     1     145.646 140.904 130.876  1.00  0.00    -0.508 OA
ATOM     27  H   UNL     1     145.242 140.463 130.058  1.00  0.00     0.293 HD
ENDBRANCH   8  26
TORSDOF 6
ENDMDL
