MODEL 1
REMARK VINA RESULT:    -5.984      0.000      0.000
REMARK INTER + INTRA:          -6.556
REMARK INTER:                  -6.334
REMARK INTRA:                  -0.222
REMARK UNBOUND:                -0.222
REMARK SMILES O=c1cc(-c2ccccc2)oc2ccccc12
REMARK SMILES IDX 4 1 3 2 2 3 1 4 17 5 16 6 15 7 14 8 13 9 12 10 11 11 5 12
REMARK SMILES IDX 8 13 7 14 9 15 6 16 10 17
REMARK H PARENT
REMARK Flexibility Score: inf
ROOT
ATOM      1  C   UNL     1       3.205  37.860   6.354  1.00  0.00     0.138 A 
ATOM      2  C   UNL     1       3.653  38.896   5.507  1.00  0.00     0.100 A 
ATOM      3  C   UNL     1       4.885  39.504   5.755  1.00  0.00     0.193 A 
ATOM      4  O   UNL     1       5.286  40.430   4.998  1.00  0.00    -0.289 OA
ATOM      5  C   UNL     1       5.659  39.076   6.842  1.00  0.00     0.065 A 
ATOM      6  C   UNL     1       6.909  39.646   7.148  1.00  0.00     0.016 A 
ATOM      7  C   UNL     1       7.641  39.181   8.246  1.00  0.00     0.001 A 
ATOM      8  C   UNL     1       7.135  38.150   9.042  1.00  0.00     0.004 A 
ATOM      9  C   UNL     1       5.895  37.578   8.745  1.00  0.00     0.048 A 
ATOM     10  C   UNL     1       5.153  38.036   7.651  1.00  0.00     0.138 A 
ATOM     11  O   UNL     1       3.975  37.486   7.377  1.00  0.00    -0.456 OA
ENDROOT
BRANCH   1  12
ATOM     12  C   UNL     1       1.899  37.157   6.159  1.00  0.00     0.017 A 
ATOM     13  C   UNL     1      -0.610  35.907   5.833  1.00  0.00     0.000 A 
ATOM     14  C   UNL     1      -0.530  37.168   6.421  1.00  0.00     0.001 A 
ATOM     15  C   UNL     1       0.551  35.263   5.407  1.00  0.00     0.001 A 
ATOM     16  C   UNL     1       0.712  37.790   6.583  1.00  0.00     0.012 A 
ATOM     17  C   UNL     1       1.798  35.878   5.566  1.00  0.00     0.012 A 
ENDBRANCH   1  12
TORSDOF 1
ENDMDL
MODEL 2
REMARK VINA RESULT:    -5.851      1.738      6.126
REMARK INTER + INTRA:          -6.415
REMARK INTER:                  -6.195
REMARK INTRA:                  -0.221
REMARK UNBOUND:                -0.222
REMARK SMILES O=c1cc(-c2ccccc2)oc2ccccc12
REMARK SMILES IDX 4 1 3 2 2 3 1 4 17 5 16 6 15 7 14 8 13 9 12 10 11 11 5 12
REMARK SMILES IDX 8 13 7 14 9 15 6 16 10 17
REMARK H PARENT
REMARK Flexibility Score: inf
ROOT
ATOM      1  C   UNL     1       2.953  38.051   6.889  1.00  0.00     0.138 A 
ATOM      2  C   UNL     1       2.486  37.032   6.033  1.00  0.00     0.100 A 
ATOM      3  C   UNL     1       1.122  36.942   5.749  1.00  0.00     0.193 A 
ATOM      4  O   UNL     1       0.704  36.031   4.983  1.00  0.00    -0.289 OA
ATOM      5  C   UNL     1       0.236  37.866   6.320  1.00  0.00     0.065 A 
ATOM      6  C   UNL     1      -1.150  37.832   6.075  1.00  0.00     0.016 A 
ATOM      7  C   UNL     1      -1.989  38.779   6.671  1.00  0.00     0.001 A 
ATOM      8  C   UNL     1      -1.456  39.762   7.510  1.00  0.00     0.004 A 
ATOM      9  C   UNL     1      -0.082  39.803   7.757  1.00  0.00     0.048 A 
ATOM     10  C   UNL     1       0.768  38.861   7.168  1.00  0.00     0.138 A 
ATOM     11  O   UNL     1       2.074  38.908   7.410  1.00  0.00    -0.456 OA
ENDROOT
BRANCH   1  12
ATOM     12  C   UNL     1       4.396  38.217   7.245  1.00  0.00     0.017 A 
ATOM     13  C   UNL     1       7.107  38.468   7.989  1.00  0.00     0.000 A 
ATOM     14  C   UNL     1       6.261  37.625   8.707  1.00  0.00     0.001 A 
ATOM     15  C   UNL     1       6.612  39.189   6.903  1.00  0.00     0.001 A 
ATOM     16  C   UNL     1       4.918  37.498   8.340  1.00  0.00     0.012 A 
ATOM     17  C   UNL     1       5.269  39.068   6.528  1.00  0.00     0.012 A 
ENDBRANCH   1  12
TORSDOF 1
ENDMDL
MODEL 3
REMARK VINA RESULT:    -5.792      3.541      5.889
REMARK INTER + INTRA:          -6.352
REMARK INTER:                  -6.118
REMARK INTRA:                  -0.234
REMARK UNBOUND:                -0.222
REMARK SMILES O=c1cc(-c2ccccc2)oc2ccccc12
REMARK SMILES IDX 4 1 3 2 2 3 1 4 17 5 16 6 15 7 14 8 13 9 12 10 11 11 5 12
REMARK SMILES IDX 8 13 7 14 9 15 6 16 10 17
REMARK H PARENT
REMARK Flexibility Score: inf
ROOT
ATOM      1  C   UNL     1      -0.868  39.450   7.447  1.00  0.00     0.138 A 
ATOM      2  C   UNL     1       0.430  39.993   7.347  1.00  0.00     0.100 A 
ATOM      3  C   UNL     1       1.462  39.219   6.814  1.00  0.00     0.193 A 
ATOM      4  O   UNL     1       2.622  39.705   6.725  1.00  0.00    -0.289 OA
ATOM      5  C   UNL     1       1.194  37.911   6.386  1.00  0.00     0.065 A 
ATOM      6  C   UNL     1       2.188  37.078   5.841  1.00  0.00     0.016 A 
ATOM      7  C   UNL     1       1.865  35.780   5.429  1.00  0.00     0.001 A 
ATOM      8  C   UNL     1       0.556  35.307   5.558  1.00  0.00     0.004 A 
ATOM      9  C   UNL     1      -0.437  36.128   6.099  1.00  0.00     0.048 A 
ATOM     10  C   UNL     1      -0.126  37.427   6.515  1.00  0.00     0.138 A 
ATOM     11  O   UNL     1      -1.077  38.200   7.028  1.00  0.00    -0.456 OA
ENDROOT
BRANCH   1  12
ATOM     12  C   UNL     1      -2.029  40.210   8.005  1.00  0.00     0.017 A 
ATOM     13  C   UNL     1      -4.204  41.714   8.989  1.00  0.00     0.000 A 
ATOM     14  C   UNL     1      -3.469  42.181   7.901  1.00  0.00     0.001 A 
ATOM     15  C   UNL     1      -3.863  40.504   9.591  1.00  0.00     0.001 A 
ATOM     16  C   UNL     1      -2.391  41.437   7.411  1.00  0.00     0.012 A 
ATOM     17  C   UNL     1      -2.786  39.753   9.108  1.00  0.00     0.012 A 
ENDBRANCH   1  12
TORSDOF 1
ENDMDL
MODEL 4
REMARK VINA RESULT:    -5.532      1.888      6.190
REMARK INTER + INTRA:          -6.077
REMARK INTER:                  -5.842
REMARK INTRA:                  -0.235
REMARK UNBOUND:                -0.222
REMARK SMILES O=c1cc(-c2ccccc2)oc2ccccc12
REMARK SMILES IDX 4 1 3 2 2 3 1 4 17 5 16 6 15 7 14 8 13 9 12 10 11 11 5 12
REMARK SMILES IDX 8 13 7 14 9 15 6 16 10 17
REMARK H PARENT
REMARK Flexibility Score: inf
ROOT
ATOM      1  C   UNL     1       2.373  38.500   6.797  1.00  0.00     0.138 A 
ATOM      2  C   UNL     1       1.618  39.689   6.869  1.00  0.00     0.100 A 
ATOM      3  C   UNL     1       0.246  39.651   6.613  1.00  0.00     0.193 A 
ATOM      4  O   UNL     1      -0.430  40.714   6.677  1.00  0.00    -0.289 OA
ATOM      5  C   UNL     1      -0.362  38.430   6.287  1.00  0.00     0.065 A 
ATOM      6  C   UNL     1      -1.739  38.322   6.018  1.00  0.00     0.016 A 
ATOM      7  C   UNL     1      -2.294  37.078   5.698  1.00  0.00     0.001 A 
ATOM      8  C   UNL     1      -1.484  35.940   5.645  1.00  0.00     0.004 A 
ATOM      9  C   UNL     1      -0.116  36.039   5.911  1.00  0.00     0.048 A 
ATOM     10  C   UNL     1       0.450  37.277   6.232  1.00  0.00     0.138 A 
ATOM     11  O   UNL     1       1.753  37.361   6.483  1.00  0.00    -0.456 OA
ENDROOT
BRANCH   1  12
ATOM     12  C   UNL     1       3.845  38.453   7.056  1.00  0.00     0.017 A 
ATOM     13  C   UNL     1       6.606  38.300   7.618  1.00  0.00     0.000 A 
ATOM     14  C   UNL     1       5.700  37.548   8.363  1.00  0.00     0.001 A 
ATOM     15  C   UNL     1       6.147  39.129   6.595  1.00  0.00     0.001 A 
ATOM     16  C   UNL     1       4.332  37.621   8.087  1.00  0.00     0.012 A 
ATOM     17  C   UNL     1       4.779  39.209   6.311  1.00  0.00     0.012 A 
ENDBRANCH   1  12
TORSDOF 1
ENDMDL
MODEL 5
REMARK VINA RESULT:    -5.426      3.809      6.586
REMARK INTER + INTRA:          -5.965
REMARK INTER:                  -5.721
REMARK INTRA:                  -0.244
REMARK UNBOUND:                -0.222
REMARK SMILES O=c1cc(-c2ccccc2)oc2ccccc12
REMARK SMILES IDX 4 1 3 2 2 3 1 4 17 5 16 6 15 7 14 8 13 9 12 10 11 11 5 12
REMARK SMILES IDX 8 13 7 14 9 15 6 16 10 17
REMARK H PARENT
REMARK Flexibility Score: inf
ROOT
ATOM      1  C   UNL     1      -1.854  38.405   7.327  1.00  0.00     0.138 A 
ATOM      2  C   UNL     1      -2.438  37.142   7.095  1.00  0.00     0.100 A 
ATOM      3  C   UNL     1      -1.669  36.120   6.535  1.00  0.00     0.193 A 
ATOM      4  O   UNL     1      -2.191  34.990   6.328  1.00  0.00    -0.289 OA
ATOM      5  C   UNL     1      -0.328  36.364   6.210  1.00  0.00     0.065 A 
ATOM      6  C   UNL     1       0.502  35.379   5.643  1.00  0.00     0.016 A 
ATOM      7  C   UNL     1       1.834  35.676   5.338  1.00  0.00     0.001 A 
ATOM      8  C   UNL     1       2.346  36.951   5.595  1.00  0.00     0.004 A 
ATOM      9  C   UNL     1       1.530  37.935   6.158  1.00  0.00     0.048 A 
ATOM     10  C   UNL     1       0.195  37.649   6.467  1.00  0.00     0.138 A 
ATOM     11  O   UNL     1      -0.573  38.592   7.002  1.00  0.00    -0.456 OA
ENDROOT
BRANCH   1  12
ATOM     12  C   UNL     1      -2.605  39.552   7.923  1.00  0.00     0.017 A 
ATOM     13  C   UNL     1      -3.988  41.776   8.976  1.00  0.00     0.000 A 
ATOM     14  C   UNL     1      -3.202  41.920   7.834  1.00  0.00     0.001 A 
ATOM     15  C   UNL     1      -4.089  40.533   9.599  1.00  0.00     0.001 A 
ATOM     16  C   UNL     1      -2.517  40.820   7.309  1.00  0.00     0.012 A 
ATOM     17  C   UNL     1      -3.406  39.426   9.081  1.00  0.00     0.012 A 
ENDBRANCH   1  12
TORSDOF 1
ENDMDL
MODEL 6
REMARK VINA RESULT:    -5.405      1.597      2.569
REMARK INTER + INTRA:          -5.943
REMARK INTER:                  -5.716
REMARK INTRA:                  -0.227
REMARK UNBOUND:                -0.222
REMARK SMILES O=c1cc(-c2ccccc2)oc2ccccc12
REMARK SMILES IDX 4 1 3 2 2 3 1 4 17 5 16 6 15 7 14 8 13 9 12 10 11 11 5 12
REMARK SMILES IDX 8 13 7 14 9 15 6 16 10 17
REMARK H PARENT
REMARK Flexibility Score: inf
ROOT
ATOM      1  C   UNL     1       3.704  38.344   6.917  1.00  0.00     0.138 A 
ATOM      2  C   UNL     1       4.612  37.714   7.794  1.00  0.00     0.100 A 
ATOM      3  C   UNL     1       5.739  38.410   8.236  1.00  0.00     0.193 A 
ATOM      4  O   UNL     1       6.551  37.847   9.020  1.00  0.00    -0.289 OA
ATOM      5  C   UNL     1       5.953  39.725   7.800  1.00  0.00     0.065 A 
ATOM      6  C   UNL     1       7.068  40.482   8.207  1.00  0.00     0.016 A 
ATOM      7  C   UNL     1       7.232  41.792   7.742  1.00  0.00     0.001 A 
ATOM      8  C   UNL     1       6.291  42.352   6.873  1.00  0.00     0.004 A 
ATOM      9  C   UNL     1       5.181  41.608   6.465  1.00  0.00     0.048 A 
ATOM     10  C   UNL     1       5.007  40.297   6.923  1.00  0.00     0.138 A 
ATOM     11  O   UNL     1       3.948  39.597   6.529  1.00  0.00    -0.456 OA
ENDROOT
BRANCH   1  12
ATOM     12  C   UNL     1       2.474  37.671   6.398  1.00  0.00     0.017 A 
ATOM     13  C   UNL     1       0.099  36.459   5.475  1.00  0.00     0.000 A 
ATOM     14  C   UNL     1       0.039  37.481   6.420  1.00  0.00     0.001 A 
ATOM     15  C   UNL     1       1.334  36.035   4.986  1.00  0.00     0.001 A 
ATOM     16  C   UNL     1       1.214  38.084   6.879  1.00  0.00     0.012 A 
ATOM     17  C   UNL     1       2.515  36.633   5.439  1.00  0.00     0.012 A 
ENDBRANCH   1  12
TORSDOF 1
ENDMDL
MODEL 7
REMARK VINA RESULT:    -5.290      6.324      9.391
REMARK INTER + INTRA:          -5.821
REMARK INTER:                  -5.591
REMARK INTRA:                  -0.230
REMARK UNBOUND:                -0.222
REMARK SMILES O=c1cc(-c2ccccc2)oc2ccccc12
REMARK SMILES IDX 4 1 3 2 2 3 1 4 17 5 16 6 15 7 14 8 13 9 12 10 11 11 5 12
REMARK SMILES IDX 8 13 7 14 9 15 6 16 10 17
REMARK H PARENT
REMARK Flexibility Score: inf
ROOT
ATOM      1  C   UNL     1      -2.691  40.368   8.681  1.00  0.00     0.138 A 
ATOM      2  C   UNL     1      -3.427  39.729   9.700  1.00  0.00     0.100 A 
ATOM      3  C   UNL     1      -4.519  40.383  10.275  1.00  0.00     0.193 A 
ATOM      4  O   UNL     1      -5.178  39.811  11.186  1.00  0.00    -0.289 OA
ATOM      5  C   UNL     1      -4.867  41.666   9.831  1.00  0.00     0.065 A 
ATOM      6  C   UNL     1      -5.954  42.380  10.368  1.00  0.00     0.016 A 
ATOM      7  C   UNL     1      -6.257  43.658   9.887  1.00  0.00     0.001 A 
ATOM      8  C   UNL     1      -5.483  44.231   8.874  1.00  0.00     0.004 A 
ATOM      9  C   UNL     1      -4.402  43.528   8.336  1.00  0.00     0.048 A 
ATOM     10  C   UNL     1      -4.088  42.249   8.809  1.00  0.00     0.138 A 
ATOM     11  O   UNL     1      -3.057  41.590   8.290  1.00  0.00    -0.456 OA
ENDROOT
BRANCH   1  12
ATOM     12  C   UNL     1      -1.510  39.739   8.013  1.00  0.00     0.017 A 
ATOM     13  C   UNL     1       0.660  38.481   6.718  1.00  0.00     0.000 A 
ATOM     14  C   UNL     1      -0.620  37.940   6.620  1.00  0.00     0.001 A 
ATOM     15  C   UNL     1       0.868  39.645   7.458  1.00  0.00     0.001 A 
ATOM     16  C   UNL     1      -1.697  38.561   7.260  1.00  0.00     0.012 A 
ATOM     17  C   UNL     1      -0.204  40.273   8.102  1.00  0.00     0.012 A 
ENDBRANCH   1  12
TORSDOF 1
ENDMDL
MODEL 8
REMARK VINA RESULT:    -5.137      4.092      6.843
REMARK INTER + INTRA:          -5.659
REMARK INTER:                  -5.412
REMARK INTRA:                  -0.247
REMARK UNBOUND:                -0.222
REMARK SMILES O=c1cc(-c2ccccc2)oc2ccccc12
REMARK SMILES IDX 4 1 3 2 2 3 1 4 17 5 16 6 15 7 14 8 13 9 12 10 11 11 5 12
REMARK SMILES IDX 8 13 7 14 9 15 6 16 10 17
REMARK H PARENT
REMARK Flexibility Score: inf
ROOT
ATOM      1  C   UNL     1      -0.781  38.804   6.672  1.00  0.00     0.138 A 
ATOM      2  C   UNL     1      -0.681  40.085   6.089  1.00  0.00     0.100 A 
ATOM      3  C   UNL     1      -1.501  41.118   6.549  1.00  0.00     0.193 A 
ATOM      4  O   UNL     1      -1.411  42.263   6.029  1.00  0.00    -0.289 OA
ATOM      5  C   UNL     1      -2.413  40.866   7.583  1.00  0.00     0.065 A 
ATOM      6  C   UNL     1      -3.268  41.861   8.093  1.00  0.00     0.016 A 
ATOM      7  C   UNL     1      -4.160  41.555   9.127  1.00  0.00     0.001 A 
ATOM      8  C   UNL     1      -4.205  40.262   9.657  1.00  0.00     0.004 A 
ATOM      9  C   UNL     1      -3.359  39.269   9.157  1.00  0.00     0.048 A 
ATOM     10  C   UNL     1      -2.464  39.563   8.123  1.00  0.00     0.138 A 
ATOM     11  O   UNL     1      -1.664  38.610   7.654  1.00  0.00    -0.456 OA
ENDROOT
BRANCH   1  12
ATOM     12  C   UNL     1       0.058  37.645   6.239  1.00  0.00     0.017 A 
ATOM     13  C   UNL     1       1.562  35.400   5.425  1.00  0.00     0.000 A 
ATOM     14  C   UNL     1       0.197  35.272   5.673  1.00  0.00     0.001 A 
ATOM     15  C   UNL     1       2.185  36.638   5.580  1.00  0.00     0.001 A 
ATOM     16  C   UNL     1      -0.551  36.383   6.076  1.00  0.00     0.012 A 
ATOM     17  C   UNL     1       1.444  37.755   5.983  1.00  0.00     0.012 A 
ENDBRANCH   1  12
TORSDOF 1
ENDMDL
MODEL 9
REMARK VINA RESULT:    -5.116      1.463      2.238
REMARK INTER + INTRA:          -5.637
REMARK INTER:                  -5.403
REMARK INTRA:                  -0.234
REMARK UNBOUND:                -0.222
REMARK SMILES O=c1cc(-c2ccccc2)oc2ccccc12
REMARK SMILES IDX 4 1 3 2 2 3 1 4 17 5 16 6 15 7 14 8 13 9 12 10 11 11 5 12
REMARK SMILES IDX 8 13 7 14 9 15 6 16 10 17
REMARK H PARENT
REMARK Flexibility Score: inf
ROOT
ATOM      1  C   UNL     1       1.904  38.914   6.926  1.00  0.00     0.138 A 
ATOM      2  C   UNL     1       2.438  39.950   6.131  1.00  0.00     0.100 A 
ATOM      3  C   UNL     1       3.821  40.133   6.074  1.00  0.00     0.193 A 
ATOM      4  O   UNL     1       4.297  41.059   5.363  1.00  0.00    -0.289 OA
ATOM      5  C   UNL     1       4.660  39.285   6.811  1.00  0.00     0.065 A 
ATOM      6  C   UNL     1       6.061  39.416   6.799  1.00  0.00     0.016 A 
ATOM      7  C   UNL     1       6.852  38.542   7.553  1.00  0.00     0.001 A 
ATOM      8  C   UNL     1       6.254  37.537   8.319  1.00  0.00     0.004 A 
ATOM      9  C   UNL     1       4.864  37.401   8.336  1.00  0.00     0.048 A 
ATOM     10  C   UNL     1       4.063  38.269   7.587  1.00  0.00     0.138 A 
ATOM     11  O   UNL     1       2.741  38.131   7.610  1.00  0.00    -0.456 OA
ENDROOT
BRANCH   1  12
ATOM     12  C   UNL     1       0.437  38.649   7.042  1.00  0.00     0.017 A 
ATOM     13  C   UNL     1      -2.317  38.059   7.225  1.00  0.00     0.000 A 
ATOM     14  C   UNL     1      -1.428  37.100   6.743  1.00  0.00     0.001 A 
ATOM     15  C   UNL     1      -1.844  39.311   7.616  1.00  0.00     0.001 A 
ATOM     16  C   UNL     1      -0.063  37.389   6.652  1.00  0.00     0.012 A 
ATOM     17  C   UNL     1      -0.479  39.610   7.528  1.00  0.00     0.012 A 
ENDBRANCH   1  12
TORSDOF 1
ENDMDL
