MODEL 1
REMARK VINA RESULT:    -3.622      0.000      0.000
REMARK INTER + INTRA:          -4.330
REMARK INTER:                  -4.257
REMARK INTRA:                  -0.073
REMARK UNBOUND:                -0.073
REMARK SMILES CCCCC(=O)[O-]
REMARK SMILES IDX 4 1 5 2 6 3 7 4 3 5 2 6 1 7
REMARK H PARENT
REMARK Flexibility Score: inf
ROOT
ATOM      1  C   UNL     1       3.531  35.754  55.590  1.00  0.00     0.053 C 
ENDROOT
BRANCH   1   2
ATOM      2  C   UNL     1       2.260  35.231  54.998  1.00  0.00     0.041 C 
ATOM      3  O   UNL     1       1.148  35.654  55.411  1.00  0.00    -0.550 OA
ATOM      4  O   UNL     1       2.302  34.240  54.026  1.00  0.00    -0.550 OA
ENDBRANCH   1   2
BRANCH   1   5
ATOM      5  C   UNL     1       4.745  35.115  54.904  1.00  0.00     0.006 C 
BRANCH   5   6
ATOM      6  C   UNL     1       5.262  35.951  53.723  1.00  0.00    -0.003 C 
ATOM      7  C   UNL     1       5.569  35.103  52.489  1.00  0.00     0.004 C 
ENDBRANCH   5   6
ENDBRANCH   1   5
TORSDOF 3
ENDMDL
MODEL 2
REMARK VINA RESULT:    -3.581     13.166     14.122
REMARK INTER + INTRA:          -4.282
REMARK INTER:                  -4.177
REMARK INTRA:                  -0.106
REMARK UNBOUND:                -0.073
REMARK SMILES CCCCC(=O)[O-]
REMARK SMILES IDX 4 1 5 2 6 3 7 4 3 5 2 6 1 7
REMARK H PARENT
REMARK Flexibility Score: inf
ROOT
ATOM      1  C   UNL     1      10.023  33.530  41.055  1.00  0.00     0.053 C 
ENDROOT
BRANCH   1   2
ATOM      2  C   UNL     1       8.704  32.824  41.055  1.00  0.00     0.041 C 
ATOM      3  O   UNL     1       7.632  33.484  41.052  1.00  0.00    -0.550 OA
ATOM      4  O   UNL     1       8.657  31.437  41.109  1.00  0.00    -0.550 OA
ENDBRANCH   1   2
BRANCH   1   5
ATOM      5  C   UNL     1      10.786  33.239  42.354  1.00  0.00     0.006 C 
BRANCH   5   6
ATOM      6  C   UNL     1      10.105  33.850  43.587  1.00  0.00    -0.003 C 
ATOM      7  C   UNL     1      10.393  35.343  43.743  1.00  0.00     0.004 C 
ENDBRANCH   5   6
ENDBRANCH   1   5
TORSDOF 3
ENDMDL
MODEL 3
REMARK VINA RESULT:    -3.573      9.068      9.980
REMARK INTER + INTRA:          -4.273
REMARK INTER:                  -4.150
REMARK INTRA:                  -0.123
REMARK UNBOUND:                -0.073
REMARK SMILES CCCCC(=O)[O-]
REMARK SMILES IDX 4 1 5 2 6 3 7 4 3 5 2 6 1 7
REMARK H PARENT
REMARK Flexibility Score: inf
ROOT
ATOM      1  C   UNL     1       5.309  42.109  48.207  1.00  0.00     0.053 C 
ENDROOT
BRANCH   1   2
ATOM      2  C   UNL     1       6.239  40.961  48.448  1.00  0.00     0.041 C 
ATOM      3  O   UNL     1       7.379  41.162  48.942  1.00  0.00    -0.550 OA
ATOM      4  O   UNL     1       5.865  39.675  48.081  1.00  0.00    -0.550 OA
ENDBRANCH   1   2
BRANCH   1   5
ATOM      5  C   UNL     1       4.710  42.027  46.798  1.00  0.00     0.006 C 
BRANCH   5   6
ATOM      6  C   UNL     1       5.694  42.488  45.711  1.00  0.00    -0.003 C 
ATOM      7  C   UNL     1       6.144  41.346  44.800  1.00  0.00     0.004 C 
ENDBRANCH   5   6
ENDBRANCH   1   5
TORSDOF 3
ENDMDL
MODEL 4
REMARK VINA RESULT:    -3.521     10.034     11.058
REMARK INTER + INTRA:          -4.212
REMARK INTER:                  -4.167
REMARK INTRA:                  -0.045
REMARK UNBOUND:                -0.073
REMARK SMILES CCCCC(=O)[O-]
REMARK SMILES IDX 4 1 5 2 6 3 7 4 3 5 2 6 1 7
REMARK H PARENT
REMARK Flexibility Score: inf
ROOT
ATOM      1  C   UNL     1       5.378  42.248  46.293  1.00  0.00     0.053 C 
ENDROOT
BRANCH   1   2
ATOM      2  C   UNL     1       5.868  41.972  44.906  1.00  0.00     0.041 C 
ATOM      3  O   UNL     1       5.365  42.578  43.924  1.00  0.00    -0.550 OA
ATOM      4  O   UNL     1       6.846  41.009  44.692  1.00  0.00    -0.550 OA
ENDBRANCH   1   2
BRANCH   1   5
ATOM      5  C   UNL     1       5.462  40.981  47.153  1.00  0.00     0.006 C 
BRANCH   5   6
ATOM      6  C   UNL     1       6.217  41.212  48.470  1.00  0.00    -0.003 C 
ATOM      7  C   UNL     1       5.554  42.269  49.354  1.00  0.00     0.004 C 
ENDBRANCH   5   6
ENDBRANCH   1   5
TORSDOF 3
ENDMDL
MODEL 5
REMARK VINA RESULT:    -3.479      1.916      3.547
REMARK INTER + INTRA:          -4.163
REMARK INTER:                  -4.059
REMARK INTRA:                  -0.103
REMARK UNBOUND:                -0.073
REMARK SMILES CCCCC(=O)[O-]
REMARK SMILES IDX 4 1 5 2 6 3 7 4 3 5 2 6 1 7
REMARK H PARENT
REMARK Flexibility Score: inf
ROOT
ATOM      1  C   UNL     1       5.274  35.808  53.882  1.00  0.00     0.053 C 
ENDROOT
BRANCH   1   2
ATOM      2  C   UNL     1       4.837  35.373  52.519  1.00  0.00     0.041 C 
ATOM      3  O   UNL     1       5.691  35.042  51.655  1.00  0.00    -0.550 OA
ATOM      4  O   UNL     1       3.489  35.381  52.185  1.00  0.00    -0.550 OA
ENDBRANCH   1   2
BRANCH   1   5
ATOM      5  C   UNL     1       4.563  34.983  54.962  1.00  0.00     0.006 C 
BRANCH   5   6
ATOM      6  C   UNL     1       3.776  35.858  55.950  1.00  0.00    -0.003 C 
ATOM      7  C   UNL     1       2.309  36.025  55.553  1.00  0.00     0.004 C 
ENDBRANCH   5   6
ENDBRANCH   1   5
TORSDOF 3
ENDMDL
MODEL 6
REMARK VINA RESULT:    -3.385      1.841      2.012
REMARK INTER + INTRA:          -4.051
REMARK INTER:                  -3.972
REMARK INTRA:                  -0.079
REMARK UNBOUND:                -0.073
REMARK SMILES CCCCC(=O)[O-]
REMARK SMILES IDX 4 1 5 2 6 3 7 4 3 5 2 6 1 7
REMARK H PARENT
REMARK Flexibility Score: inf
ROOT
ATOM      1  C   UNL     1       2.731  34.623  54.182  1.00  0.00     0.053 C 
ENDROOT
BRANCH   1   2
ATOM      2  C   UNL     1       2.919  35.581  55.316  1.00  0.00     0.041 C 
ATOM      3  O   UNL     1       1.955  36.286  55.716  1.00  0.00    -0.550 OA
ATOM      4  O   UNL     1       4.171  35.734  55.897  1.00  0.00    -0.550 OA
ENDBRANCH   1   2
BRANCH   1   5
ATOM      5  C   UNL     1       4.078  34.306  53.519  1.00  0.00     0.006 C 
BRANCH   5   6
ATOM      6  C   UNL     1       4.381  35.230  52.329  1.00  0.00    -0.003 C 
ATOM      7  C   UNL     1       3.116  35.719  51.624  1.00  0.00     0.004 C 
ENDBRANCH   5   6
ENDBRANCH   1   5
TORSDOF 3
ENDMDL
MODEL 7
REMARK VINA RESULT:    -3.376      9.049      9.380
REMARK INTER + INTRA:          -4.041
REMARK INTER:                  -4.023
REMARK INTRA:                  -0.018
REMARK UNBOUND:                -0.073
REMARK SMILES CCCCC(=O)[O-]
REMARK SMILES IDX 4 1 5 2 6 3 7 4 3 5 2 6 1 7
REMARK H PARENT
REMARK Flexibility Score: inf
ROOT
ATOM      1  C   UNL     1       6.353  40.751  47.789  1.00  0.00     0.053 C 
ENDROOT
BRANCH   1   2
ATOM      2  C   UNL     1       5.346  41.846  47.952  1.00  0.00     0.041 C 
ATOM      3  O   UNL     1       4.650  42.217  46.971  1.00  0.00    -0.550 OA
ATOM      4  O   UNL     1       5.212  42.491  49.174  1.00  0.00    -0.550 OA
ENDBRANCH   1   2
BRANCH   1   5
ATOM      5  C   UNL     1       7.503  40.928  48.789  1.00  0.00     0.006 C 
BRANCH   5   6
ATOM      6  C   UNL     1       8.719  40.053  48.449  1.00  0.00    -0.003 C 
ATOM      7  C   UNL     1       9.942  40.383  49.304  1.00  0.00     0.004 C 
ENDBRANCH   5   6
ENDBRANCH   1   5
TORSDOF 3
ENDMDL
MODEL 8
REMARK VINA RESULT:    -3.375     12.162     13.464
REMARK INTER + INTRA:          -4.040
REMARK INTER:                  -3.930
REMARK INTRA:                  -0.110
REMARK UNBOUND:                -0.073
REMARK SMILES CCCCC(=O)[O-]
REMARK SMILES IDX 4 1 5 2 6 3 7 4 3 5 2 6 1 7
REMARK H PARENT
REMARK Flexibility Score: inf
ROOT
ATOM      1  C   UNL     1      10.508  34.484  42.858  1.00  0.00     0.053 C 
ENDROOT
BRANCH   1   2
ATOM      2  C   UNL     1      10.124  34.120  44.258  1.00  0.00     0.041 C 
ATOM      3  O   UNL     1       9.409  33.107  44.476  1.00  0.00    -0.550 OA
ATOM      4  O   UNL     1      10.513  34.929  45.318  1.00  0.00    -0.550 OA
ENDBRANCH   1   2
BRANCH   1   5
ATOM      5  C   UNL     1      10.625  33.225  41.990  1.00  0.00     0.006 C 
BRANCH   5   6
ATOM      6  C   UNL     1       9.710  33.272  40.757  1.00  0.00    -0.003 C 
ATOM      7  C   UNL     1       8.228  33.164  41.116  1.00  0.00     0.004 C 
ENDBRANCH   5   6
ENDBRANCH   1   5
TORSDOF 3
ENDMDL
MODEL 9
REMARK VINA RESULT:    -3.309     12.546     14.227
REMARK INTER + INTRA:          -3.962
REMARK INTER:                  -3.861
REMARK INTRA:                  -0.102
REMARK UNBOUND:                -0.073
REMARK SMILES CCCCC(=O)[O-]
REMARK SMILES IDX 4 1 5 2 6 3 7 4 3 5 2 6 1 7
REMARK H PARENT
REMARK Flexibility Score: inf
ROOT
ATOM      1  C   UNL     1       8.283  33.077  41.275  1.00  0.00     0.053 C 
ENDROOT
BRANCH   1   2
ATOM      2  C   UNL     1       9.709  33.398  40.956  1.00  0.00     0.041 C 
ATOM      3  O   UNL     1      10.227  32.985  39.885  1.00  0.00    -0.550 OA
ATOM      4  O   UNL     1      10.482  34.109  41.864  1.00  0.00    -0.550 OA
ENDBRANCH   1   2
BRANCH   1   5
ATOM      5  C   UNL     1       8.204  31.890  42.244  1.00  0.00     0.006 C 
BRANCH   5   6
ATOM      6  C   UNL     1       7.544  32.263  43.580  1.00  0.00    -0.003 C 
ATOM      7  C   UNL     1       8.560  32.664  44.649  1.00  0.00     0.004 C 
ENDBRANCH   5   6
ENDBRANCH   1   5
TORSDOF 3
ENDMDL
