MODEL 1
REMARK VINA RESULT:    -4.193      0.000      0.000
REMARK INTER + INTRA:         -12.148
REMARK INTER:                  -9.095
REMARK INTRA:                  -3.053
REMARK UNBOUND:                -3.053
REMARK SMILES CCCCCCCCCCCCCCCCCCCCCC(=O)[O-]
REMARK SMILES IDX 12 1 11 2 10 3 9 4 8 5 7 6 6 7 5 8 4 9 3 10 2 11 1 12 13 13
REMARK SMILES IDX 14 14 15 15 16 16 17 17 18 18 19 19 20 20 21 21 22 22 23 23
REMARK SMILES IDX 24 24
REMARK H PARENT
REMARK Flexibility Score: inf
ROOT
ATOM      1  C   UNL     1       3.671  19.249  28.235  1.00  0.00     0.000 C 
ENDROOT
BRANCH   1   2
ATOM      2  C   UNL     1       4.863  18.482  28.846  1.00  0.00     0.000 C 
BRANCH   2   3
ATOM      3  C   UNL     1       6.238  19.157  28.685  1.00  0.00     0.000 C 
BRANCH   3   4
ATOM      4  C   UNL     1       6.581  20.101  29.851  1.00  0.00    -0.000 C 
BRANCH   4   5
ATOM      5  C   UNL     1       6.238  21.566  29.543  1.00  0.00    -0.000 C 
BRANCH   5   6
ATOM      6  C   UNL     1       6.849  22.061  28.224  1.00  0.00    -0.000 C 
BRANCH   6   7
ATOM      7  C   UNL     1       7.864  23.182  28.479  1.00  0.00    -0.000 C 
BRANCH   7   8
ATOM      8  C   UNL     1       9.287  22.733  28.119  1.00  0.00    -0.000 C 
BRANCH   8   9
ATOM      9  C   UNL     1       9.322  21.333  27.485  1.00  0.00    -0.000 C 
BRANCH   9  10
ATOM     10  C   UNL     1      10.263  20.369  28.228  1.00  0.00    -0.000 C 
BRANCH  10  11
ATOM     11  C   UNL     1      10.562  19.099  27.417  1.00  0.00    -0.003 C 
ATOM     12  C   UNL     1       9.396  18.682  26.522  1.00  0.00     0.004 C 
ENDBRANCH  10  11
ENDBRANCH   9  10
ENDBRANCH   8   9
ENDBRANCH   7   8
ENDBRANCH   6   7
ENDBRANCH   5   6
ENDBRANCH   4   5
ENDBRANCH   3   4
ENDBRANCH   2   3
ENDBRANCH   1   2
BRANCH   1  13
ATOM     13  C   UNL     1       2.686  19.852  29.254  1.00  0.00     0.000 C 
BRANCH  13  14
ATOM     14  C   UNL     1       2.597  19.039  30.554  1.00  0.00     0.000 C 
BRANCH  14  15
ATOM     15  C   UNL     1       1.133  18.785  30.940  1.00  0.00     0.000 C 
BRANCH  15  16
ATOM     16  C   UNL     1       0.134  19.529  30.037  1.00  0.00     0.000 C 
BRANCH  16  17
ATOM     17  C   UNL     1      -0.856  18.628  29.269  1.00  0.00     0.000 C 
BRANCH  17  18
ATOM     18  C   UNL     1      -0.305  17.251  28.857  1.00  0.00     0.000 C 
BRANCH  18  19
ATOM     19  C   UNL     1       0.430  17.230  27.504  1.00  0.00     0.000 C 
BRANCH  19  20
ATOM     20  C   UNL     1       1.790  16.499  27.548  1.00  0.00     0.006 C 
BRANCH  20  21
ATOM     21  C   UNL     1       1.983  15.700  28.843  1.00  0.00     0.053 C 
BRANCH  21  22
ATOM     22  C   UNL     1       1.778  14.239  28.595  1.00  0.00     0.041 C 
ATOM     23  O   UNL     1       2.209  13.707  27.539  1.00  0.00    -0.550 OA
ATOM     24  O   UNL     1       1.142  13.456  29.550  1.00  0.00    -0.550 OA
ENDBRANCH  21  22
ENDBRANCH  20  21
ENDBRANCH  19  20
ENDBRANCH  18  19
ENDBRANCH  17  18
ENDBRANCH  16  17
ENDBRANCH  15  16
ENDBRANCH  14  15
ENDBRANCH  13  14
ENDBRANCH   1  13
TORSDOF 20
ENDMDL
MODEL 2
REMARK VINA RESULT:    -4.140      3.229      8.111
REMARK INTER + INTRA:         -12.033
REMARK INTER:                  -8.833
REMARK INTRA:                  -3.200
REMARK UNBOUND:                -3.053
REMARK SMILES CCCCCCCCCCCCCCCCCCCCCC(=O)[O-]
REMARK SMILES IDX 12 1 11 2 10 3 9 4 8 5 7 6 6 7 5 8 4 9 3 10 2 11 1 12 13 13
REMARK SMILES IDX 14 14 15 15 16 16 17 17 18 18 19 19 20 20 21 21 22 22 23 23
REMARK SMILES IDX 24 24
REMARK H PARENT
REMARK Flexibility Score: inf
ROOT
ATOM      1  C   UNL     1       2.999  16.890  27.487  1.00  0.00     0.000 C 
ENDROOT
BRANCH   1   2
ATOM      2  C   UNL     1       1.512  16.476  27.452  1.00  0.00     0.000 C 
BRANCH   2   3
ATOM      3  C   UNL     1       0.500  17.636  27.500  1.00  0.00     0.000 C 
BRANCH   3   4
ATOM      4  C   UNL     1      -0.489  17.518  28.673  1.00  0.00    -0.000 C 
BRANCH   4   5
ATOM      5  C   UNL     1      -0.638  18.834  29.452  1.00  0.00    -0.000 C 
BRANCH   5   6
ATOM      6  C   UNL     1       0.694  19.350  30.018  1.00  0.00    -0.000 C 
BRANCH   6   7
ATOM      7  C   UNL     1       1.048  18.626  31.323  1.00  0.00    -0.000 C 
BRANCH   7   8
ATOM      8  C   UNL     1       2.055  17.494  31.073  1.00  0.00    -0.000 C 
BRANCH   8   9
ATOM      9  C   UNL     1       1.514  16.120  31.500  1.00  0.00    -0.000 C 
BRANCH   9  10
ATOM     10  C   UNL     1       2.287  14.954  30.859  1.00  0.00    -0.000 C 
BRANCH  10  11
ATOM     11  C   UNL     1       1.388  14.061  29.989  1.00  0.00    -0.003 C 
ATOM     12  C   UNL     1      -0.099  14.268  30.272  1.00  0.00     0.004 C 
ENDBRANCH  10  11
ENDBRANCH   9  10
ENDBRANCH   8   9
ENDBRANCH   7   8
ENDBRANCH   6   7
ENDBRANCH   5   6
ENDBRANCH   4   5
ENDBRANCH   3   4
ENDBRANCH   2   3
ENDBRANCH   1   2
BRANCH   1  13
ATOM     13  C   UNL     1       3.256  18.400  27.653  1.00  0.00     0.000 C 
BRANCH  13  14
ATOM     14  C   UNL     1       4.353  18.711  28.680  1.00  0.00     0.000 C 
BRANCH  14  15
ATOM     15  C   UNL     1       4.669  20.213  28.705  1.00  0.00     0.000 C 
BRANCH  15  16
ATOM     16  C   UNL     1       4.036  20.942  29.904  1.00  0.00     0.000 C 
BRANCH  16  17
ATOM     17  C   UNL     1       5.035  21.619  30.865  1.00  0.00     0.000 C 
BRANCH  17  18
ATOM     18  C   UNL     1       6.478  21.084  30.792  1.00  0.00     0.000 C 
BRANCH  18  19
ATOM     19  C   UNL     1       7.536  22.135  30.408  1.00  0.00     0.000 C 
BRANCH  19  20
ATOM     20  C   UNL     1       7.250  22.840  29.064  1.00  0.00     0.006 C 
BRANCH  20  21
ATOM     21  C   UNL     1       8.515  23.012  28.213  1.00  0.00     0.053 C 
BRANCH  21  22
ATOM     22  C   UNL     1       9.002  21.685  27.723  1.00  0.00     0.041 C 
ATOM     23  O   UNL     1      10.231  21.410  27.752  1.00  0.00    -0.550 OA
ATOM     24  O   UNL     1       8.095  20.736  27.271  1.00  0.00    -0.550 OA
ENDBRANCH  21  22
ENDBRANCH  20  21
ENDBRANCH  19  20
ENDBRANCH  18  19
ENDBRANCH  17  18
ENDBRANCH  16  17
ENDBRANCH  15  16
ENDBRANCH  14  15
ENDBRANCH  13  14
ENDBRANCH   1  13
TORSDOF 20
ENDMDL
MODEL 3
REMARK VINA RESULT:    -4.132      1.403      3.315
REMARK INTER + INTRA:         -12.016
REMARK INTER:                  -9.313
REMARK INTRA:                  -2.703
REMARK UNBOUND:                -3.053
REMARK SMILES CCCCCCCCCCCCCCCCCCCCCC(=O)[O-]
REMARK SMILES IDX 12 1 11 2 10 3 9 4 8 5 7 6 6 7 5 8 4 9 3 10 2 11 1 12 13 13
REMARK SMILES IDX 14 14 15 15 16 16 17 17 18 18 19 19 20 20 21 21 22 22 23 23
REMARK SMILES IDX 24 24
REMARK H PARENT
REMARK Flexibility Score: inf
ROOT
ATOM      1  C   UNL     1       0.627  17.299  27.471  1.00  0.00     0.000 C 
ENDROOT
BRANCH   1   2
ATOM      2  C   UNL     1       1.989  16.592  27.638  1.00  0.00     0.000 C 
BRANCH   2   3
ATOM      3  C   UNL     1       3.227  17.467  27.369  1.00  0.00     0.000 C 
BRANCH   3   4
ATOM      4  C   UNL     1       3.922  17.933  28.659  1.00  0.00    -0.000 C 
BRANCH   4   5
ATOM      5  C   UNL     1       4.367  19.403  28.591  1.00  0.00    -0.000 C 
BRANCH   5   6
ATOM      6  C   UNL     1       5.817  19.612  29.051  1.00  0.00    -0.000 C 
BRANCH   6   7
ATOM      7  C   UNL     1       5.910  20.771  30.051  1.00  0.00    -0.000 C 
BRANCH   7   8
ATOM      8  C   UNL     1       5.877  22.127  29.332  1.00  0.00    -0.000 C 
BRANCH   8   9
ATOM      9  C   UNL     1       6.835  22.181  28.131  1.00  0.00    -0.000 C 
BRANCH   9  10
ATOM     10  C   UNL     1       8.015  23.143  28.358  1.00  0.00    -0.000 C 
BRANCH  10  11
ATOM     11  C   UNL     1       9.363  22.525  27.955  1.00  0.00    -0.003 C 
ATOM     12  C   UNL     1       9.504  21.072  28.409  1.00  0.00     0.004 C 
ENDBRANCH  10  11
ENDBRANCH   9  10
ENDBRANCH   8   9
ENDBRANCH   7   8
ENDBRANCH   6   7
ENDBRANCH   5   6
ENDBRANCH   4   5
ENDBRANCH   3   4
ENDBRANCH   2   3
ENDBRANCH   1   2
BRANCH   1  13
ATOM     13  C   UNL     1      -0.376  17.071  28.616  1.00  0.00     0.000 C 
BRANCH  13  14
ATOM     14  C   UNL     1      -0.836  18.378  29.279  1.00  0.00     0.000 C 
BRANCH  14  15
ATOM     15  C   UNL     1       0.357  19.311  29.533  1.00  0.00     0.000 C 
BRANCH  15  16
ATOM     16  C   UNL     1       0.824  19.306  30.999  1.00  0.00     0.000 C 
BRANCH  16  17
ATOM     17  C   UNL     1       1.946  18.300  31.329  1.00  0.00     0.000 C 
BRANCH  17  18
ATOM     18  C   UNL     1       1.477  16.984  31.976  1.00  0.00     0.000 C 
BRANCH  18  19
ATOM     19  C   UNL     1       1.854  15.712  31.195  1.00  0.00     0.000 C 
BRANCH  19  20
ATOM     20  C   UNL     1       0.739  14.644  31.174  1.00  0.00     0.006 C 
BRANCH  20  21
ATOM     21  C   UNL     1       1.158  13.375  30.421  1.00  0.00     0.053 C 
BRANCH  21  22
ATOM     22  C   UNL     1       0.049  12.899  29.537  1.00  0.00     0.041 C 
ATOM     23  O   UNL     1       0.243  11.955  28.726  1.00  0.00    -0.550 OA
ATOM     24  O   UNL     1      -1.212  13.472  29.636  1.00  0.00    -0.550 OA
ENDBRANCH  21  22
ENDBRANCH  20  21
ENDBRANCH  19  20
ENDBRANCH  18  19
ENDBRANCH  17  18
ENDBRANCH  16  17
ENDBRANCH  15  16
ENDBRANCH  14  15
ENDBRANCH  13  14
ENDBRANCH   1  13
TORSDOF 20
ENDMDL
MODEL 4
REMARK VINA RESULT:    -4.119      1.284      2.166
REMARK INTER + INTRA:         -11.987
REMARK INTER:                  -8.391
REMARK INTRA:                  -3.596
REMARK UNBOUND:                -3.053
REMARK SMILES CCCCCCCCCCCCCCCCCCCCCC(=O)[O-]
REMARK SMILES IDX 12 1 11 2 10 3 9 4 8 5 7 6 6 7 5 8 4 9 3 10 2 11 1 12 13 13
REMARK SMILES IDX 14 14 15 15 16 16 17 17 18 18 19 19 20 20 21 21 22 22 23 23
REMARK SMILES IDX 24 24
REMARK H PARENT
REMARK Flexibility Score: inf
ROOT
ATOM      1  C   UNL     1       3.653  19.724  28.459  1.00  0.00     0.000 C 
ENDROOT
BRANCH   1   2
ATOM      2  C   UNL     1       4.675  18.633  28.845  1.00  0.00     0.000 C 
BRANCH   2   3
ATOM      3  C   UNL     1       6.154  19.056  28.770  1.00  0.00     0.000 C 
BRANCH   3   4
ATOM      4  C   UNL     1       6.864  18.991  30.133  1.00  0.00    -0.000 C 
BRANCH   4   5
ATOM      5  C   UNL     1       6.148  19.819  31.211  1.00  0.00    -0.000 C 
BRANCH   5   6
ATOM      6  C   UNL     1       6.661  21.264  31.296  1.00  0.00    -0.000 C 
BRANCH   6   7
ATOM      7  C   UNL     1       5.550  22.259  30.943  1.00  0.00    -0.000 C 
BRANCH   7   8
ATOM      8  C   UNL     1       6.022  23.266  29.884  1.00  0.00    -0.000 C 
BRANCH   8   9
ATOM      9  C   UNL     1       6.687  22.583  28.678  1.00  0.00    -0.000 C 
BRANCH   9  10
ATOM     10  C   UNL     1       8.121  23.083  28.431  1.00  0.00    -0.000 C 
BRANCH  10  11
ATOM     11  C   UNL     1       9.089  21.941  28.084  1.00  0.00    -0.003 C 
ATOM     12  C   UNL     1       9.806  21.383  29.313  1.00  0.00     0.004 C 
ENDBRANCH  10  11
ENDBRANCH   9  10
ENDBRANCH   8   9
ENDBRANCH   7   8
ENDBRANCH   6   7
ENDBRANCH   5   6
ENDBRANCH   4   5
ENDBRANCH   3   4
ENDBRANCH   2   3
ENDBRANCH   1   2
BRANCH   1  13
ATOM     13  C   UNL     1       2.790  20.254  29.619  1.00  0.00     0.000 C 
BRANCH  13  14
ATOM     14  C   UNL     1       2.430  19.169  30.643  1.00  0.00     0.000 C 
BRANCH  14  15
ATOM     15  C   UNL     1       0.933  19.213  30.983  1.00  0.00     0.000 C 
BRANCH  15  16
ATOM     16  C   UNL     1       0.031  19.200  29.736  1.00  0.00     0.000 C 
BRANCH  16  17
ATOM     17  C   UNL     1      -0.150  17.820  29.069  1.00  0.00     0.000 C 
BRANCH  17  18
ATOM     18  C   UNL     1       0.602  17.632  27.739  1.00  0.00     0.000 C 
BRANCH  18  19
ATOM     19  C   UNL     1       1.537  16.409  27.695  1.00  0.00     0.000 C 
BRANCH  19  20
ATOM     20  C   UNL     1       1.978  15.915  29.090  1.00  0.00     0.006 C 
BRANCH  20  21
ATOM     21  C   UNL     1       1.397  14.537  29.434  1.00  0.00     0.053 C 
BRANCH  21  22
ATOM     22  C   UNL     1       2.110  13.463  28.676  1.00  0.00     0.041 C 
ATOM     23  O   UNL     1       1.466  12.505  28.174  1.00  0.00    -0.550 OA
ATOM     24  O   UNL     1       3.484  13.539  28.491  1.00  0.00    -0.550 OA
ENDBRANCH  21  22
ENDBRANCH  20  21
ENDBRANCH  19  20
ENDBRANCH  18  19
ENDBRANCH  17  18
ENDBRANCH  16  17
ENDBRANCH  15  16
ENDBRANCH  14  15
ENDBRANCH  13  14
ENDBRANCH   1  13
TORSDOF 20
ENDMDL
MODEL 5
REMARK VINA RESULT:    -4.112      3.276      6.207
REMARK INTER + INTRA:         -11.972
REMARK INTER:                  -9.595
REMARK INTRA:                  -2.377
REMARK UNBOUND:                -3.053
REMARK SMILES CCCCCCCCCCCCCCCCCCCCCC(=O)[O-]
REMARK SMILES IDX 12 1 11 2 10 3 9 4 8 5 7 6 6 7 5 8 4 9 3 10 2 11 1 12 13 13
REMARK SMILES IDX 14 14 15 15 16 16 17 17 18 18 19 19 20 20 21 21 22 22 23 23
REMARK SMILES IDX 24 24
REMARK H PARENT
REMARK Flexibility Score: inf
ROOT
ATOM      1  C   UNL     1      -1.167  18.493  29.152  1.00  0.00     0.000 C 
ENDROOT
BRANCH   1   2
ATOM      2  C   UNL     1      -2.653  18.908  29.212  1.00  0.00     0.000 C 
BRANCH   2   3
ATOM      3  C   UNL     1      -2.926  20.309  29.791  1.00  0.00     0.000 C 
BRANCH   3   4
ATOM      4  C   UNL     1      -1.646  21.023  30.258  1.00  0.00    -0.000 C 
BRANCH   4   5
ATOM      5  C   UNL     1      -1.799  22.552  30.278  1.00  0.00    -0.000 C 
BRANCH   5   6
ATOM      6  C   UNL     1      -0.461  23.286  30.454  1.00  0.00    -0.000 C 
BRANCH   6   7
ATOM      7  C   UNL     1       0.522  22.439  31.272  1.00  0.00    -0.000 C 
BRANCH   7   8
ATOM      8  C   UNL     1       1.614  21.837  30.376  1.00  0.00    -0.000 C 
BRANCH   8   9
ATOM      9  C   UNL     1       2.316  20.635  31.029  1.00  0.00    -0.000 C 
BRANCH   9  10
ATOM     10  C   UNL     1       2.424  19.427  30.083  1.00  0.00    -0.000 C 
BRANCH  10  11
ATOM     11  C   UNL     1       3.026  19.801  28.719  1.00  0.00    -0.003 C 
ATOM     12  C   UNL     1       4.525  19.513  28.638  1.00  0.00     0.004 C 
ENDBRANCH  10  11
ENDBRANCH   9  10
ENDBRANCH   8   9
ENDBRANCH   7   8
ENDBRANCH   6   7
ENDBRANCH   5   6
ENDBRANCH   4   5
ENDBRANCH   3   4
ENDBRANCH   2   3
ENDBRANCH   1   2
BRANCH   1  13
ATOM     13  C   UNL     1      -0.912  17.014  28.810  1.00  0.00     0.000 C 
BRANCH  13  14
ATOM     14  C   UNL     1       0.580  16.654  28.779  1.00  0.00     0.000 C 
BRANCH  14  15
ATOM     15  C   UNL     1       1.159  16.847  27.370  1.00  0.00     0.000 C 
BRANCH  15  16
ATOM     16  C   UNL     1       2.646  16.461  27.272  1.00  0.00     0.000 C 
BRANCH  16  17
ATOM     17  C   UNL     1       3.170  15.567  28.415  1.00  0.00     0.000 C 
BRANCH  17  18
ATOM     18  C   UNL     1       3.513  14.121  28.011  1.00  0.00     0.000 C 
BRANCH  18  19
ATOM     19  C   UNL     1       2.950  13.038  28.950  1.00  0.00     0.000 C 
BRANCH  19  20
ATOM     20  C   UNL     1       1.435  12.794  28.776  1.00  0.00     0.006 C 
BRANCH  20  21
ATOM     21  C   UNL     1       0.672  12.877  30.104  1.00  0.00     0.053 C 
BRANCH  21  22
ATOM     22  C   UNL     1      -0.795  12.694  29.879  1.00  0.00     0.041 C 
ATOM     23  O   UNL     1      -1.300  11.541  29.887  1.00  0.00    -0.550 OA
ATOM     24  O   UNL     1      -1.613  13.802  29.699  1.00  0.00    -0.550 OA
ENDBRANCH  21  22
ENDBRANCH  20  21
ENDBRANCH  19  20
ENDBRANCH  18  19
ENDBRANCH  17  18
ENDBRANCH  16  17
ENDBRANCH  15  16
ENDBRANCH  14  15
ENDBRANCH  13  14
ENDBRANCH   1  13
TORSDOF 20
ENDMDL
MODEL 6
REMARK VINA RESULT:    -4.089      3.528      7.898
REMARK INTER + INTRA:         -11.922
REMARK INTER:                  -8.432
REMARK INTRA:                  -3.490
REMARK UNBOUND:                -3.053
REMARK SMILES CCCCCCCCCCCCCCCCCCCCCC(=O)[O-]
REMARK SMILES IDX 12 1 11 2 10 3 9 4 8 5 7 6 6 7 5 8 4 9 3 10 2 11 1 12 13 13
REMARK SMILES IDX 14 14 15 15 16 16 17 17 18 18 19 19 20 20 21 21 22 22 23 23
REMARK SMILES IDX 24 24
REMARK H PARENT
REMARK Flexibility Score: inf
ROOT
ATOM      1  C   UNL     1      -0.150  17.801  28.539  1.00  0.00     0.000 C 
ENDROOT
BRANCH   1   2
ATOM      2  C   UNL     1      -0.386  16.379  29.092  1.00  0.00     0.000 C 
BRANCH   2   3
ATOM      3  C   UNL     1       0.874  15.505  29.231  1.00  0.00     0.000 C 
BRANCH   3   4
ATOM      4  C   UNL     1       1.267  15.251  30.696  1.00  0.00    -0.000 C 
BRANCH   4   5
ATOM      5  C   UNL     1       2.741  14.845  30.849  1.00  0.00    -0.000 C 
BRANCH   5   6
ATOM      6  C   UNL     1       2.927  13.338  31.081  1.00  0.00    -0.000 C 
BRANCH   6   7
ATOM      7  C   UNL     1       2.709  12.555  29.781  1.00  0.00    -0.000 C 
BRANCH   7   8
ATOM      8  C   UNL     1       1.577  11.530  29.935  1.00  0.00    -0.000 C 
BRANCH   8   9
ATOM      9  C   UNL     1       0.368  11.847  29.039  1.00  0.00    -0.000 C 
BRANCH   9  10
ATOM     10  C   UNL     1      -0.975  11.635  29.759  1.00  0.00    -0.000 C 
BRANCH  10  11
ATOM     11  C   UNL     1      -1.439  12.889  30.517  1.00  0.00    -0.003 C 
ATOM     12  C   UNL     1      -1.233  12.774  32.027  1.00  0.00     0.004 C 
ENDBRANCH  10  11
ENDBRANCH   9  10
ENDBRANCH   8   9
ENDBRANCH   7   8
ENDBRANCH   6   7
ENDBRANCH   5   6
ENDBRANCH   4   5
ENDBRANCH   3   4
ENDBRANCH   2   3
ENDBRANCH   1   2
BRANCH   1  13
ATOM     13  C   UNL     1      -0.406  18.944  29.539  1.00  0.00     0.000 C 
BRANCH  13  14
ATOM     14  C   UNL     1       0.583  18.946  30.712  1.00  0.00     0.000 C 
BRANCH  14  15
ATOM     15  C   UNL     1       1.328  20.286  30.797  1.00  0.00     0.000 C 
BRANCH  15  16
ATOM     16  C   UNL     1       2.812  20.176  30.403  1.00  0.00     0.000 C 
BRANCH  16  17
ATOM     17  C   UNL     1       3.112  20.389  28.904  1.00  0.00     0.000 C 
BRANCH  17  18
ATOM     18  C   UNL     1       3.857  19.231  28.215  1.00  0.00     0.000 C 
BRANCH  18  19
ATOM     19  C   UNL     1       3.636  17.849  28.857  1.00  0.00     0.000 C 
BRANCH  19  20
ATOM     20  C   UNL     1       4.400  16.708  28.151  1.00  0.00     0.006 C 
BRANCH  20  21
ATOM     21  C   UNL     1       3.705  16.247  26.864  1.00  0.00     0.053 C 
BRANCH  21  22
ATOM     22  C   UNL     1       3.700  14.754  26.775  1.00  0.00     0.041 C 
ATOM     23  O   UNL     1       4.771  14.106  26.905  1.00  0.00    -0.550 OA
ATOM     24  O   UNL     1       2.503  14.074  26.588  1.00  0.00    -0.550 OA
ENDBRANCH  21  22
ENDBRANCH  20  21
ENDBRANCH  19  20
ENDBRANCH  18  19
ENDBRANCH  17  18
ENDBRANCH  16  17
ENDBRANCH  15  16
ENDBRANCH  14  15
ENDBRANCH  13  14
ENDBRANCH   1  13
TORSDOF 20
ENDMDL
MODEL 7
REMARK VINA RESULT:    -4.084      3.343      8.508
REMARK INTER + INTRA:         -11.912
REMARK INTER:                  -8.967
REMARK INTRA:                  -2.945
REMARK UNBOUND:                -3.053
REMARK SMILES CCCCCCCCCCCCCCCCCCCCCC(=O)[O-]
REMARK SMILES IDX 12 1 11 2 10 3 9 4 8 5 7 6 6 7 5 8 4 9 3 10 2 11 1 12 13 13
REMARK SMILES IDX 14 14 15 15 16 16 17 17 18 18 19 19 20 20 21 21 22 22 23 23
REMARK SMILES IDX 24 24
REMARK H PARENT
REMARK Flexibility Score: inf
ROOT
ATOM      1  C   UNL     1       3.025  16.396  26.947  1.00  0.00     0.000 C 
ENDROOT
BRANCH   1   2
ATOM      2  C   UNL     1       2.497  14.945  26.959  1.00  0.00     0.000 C 
BRANCH   2   3
ATOM      3  C   UNL     1       3.023  14.059  28.103  1.00  0.00     0.000 C 
BRANCH   3   4
ATOM      4  C   UNL     1       1.959  13.776  29.178  1.00  0.00    -0.000 C 
BRANCH   4   5
ATOM      5  C   UNL     1       2.114  14.679  30.412  1.00  0.00    -0.000 C 
BRANCH   5   6
ATOM      6  C   UNL     1       1.099  15.832  30.441  1.00  0.00    -0.000 C 
BRANCH   6   7
ATOM      7  C   UNL     1      -0.096  15.530  29.529  1.00  0.00    -0.000 C 
BRANCH   7   8
ATOM      8  C   UNL     1      -0.538  16.784  28.761  1.00  0.00    -0.000 C 
BRANCH   8   9
ATOM      9  C   UNL     1       0.336  18.008  29.079  1.00  0.00    -0.000 C 
BRANCH   9  10
ATOM     10  C   UNL     1      -0.470  19.167  29.692  1.00  0.00    -0.000 C 
BRANCH  10  11
ATOM     11  C   UNL     1       0.400  20.095  30.555  1.00  0.00    -0.003 C 
ATOM     12  C   UNL     1       1.289  19.328  31.534  1.00  0.00     0.004 C 
ENDBRANCH  10  11
ENDBRANCH   9  10
ENDBRANCH   8   9
ENDBRANCH   7   8
ENDBRANCH   6   7
ENDBRANCH   5   6
ENDBRANCH   4   5
ENDBRANCH   3   4
ENDBRANCH   2   3
ENDBRANCH   1   2
BRANCH   1  13
ATOM     13  C   UNL     1       4.265  16.650  27.823  1.00  0.00     0.000 C 
BRANCH  13  14
ATOM     14  C   UNL     1       4.025  17.709  28.908  1.00  0.00     0.000 C 
BRANCH  14  15
ATOM     15  C   UNL     1       3.660  19.062  28.280  1.00  0.00     0.000 C 
BRANCH  15  16
ATOM     16  C   UNL     1       3.918  20.253  29.220  1.00  0.00     0.000 C 
BRANCH  16  17
ATOM     17  C   UNL     1       5.404  20.605  29.442  1.00  0.00     0.000 C 
BRANCH  17  18
ATOM     18  C   UNL     1       5.743  22.104  29.343  1.00  0.00     0.000 C 
BRANCH  18  19
ATOM     19  C   UNL     1       6.858  22.447  28.337  1.00  0.00     0.000 C 
BRANCH  19  20
ATOM     20  C   UNL     1       8.257  22.568  28.979  1.00  0.00     0.006 C 
BRANCH  20  21
ATOM     21  C   UNL     1       9.369  22.725  27.934  1.00  0.00     0.053 C 
BRANCH  21  22
ATOM     22  C   UNL     1       9.950  21.392  27.582  1.00  0.00     0.041 C 
ATOM     23  O   UNL     1       9.817  20.414  28.364  1.00  0.00    -0.550 OA
ATOM     24  O   UNL     1      10.606  21.220  26.370  1.00  0.00    -0.550 OA
ENDBRANCH  21  22
ENDBRANCH  20  21
ENDBRANCH  19  20
ENDBRANCH  18  19
ENDBRANCH  17  18
ENDBRANCH  16  17
ENDBRANCH  15  16
ENDBRANCH  14  15
ENDBRANCH  13  14
ENDBRANCH   1  13
TORSDOF 20
ENDMDL
MODEL 8
REMARK VINA RESULT:    -4.075      3.371      7.066
REMARK INTER + INTRA:         -11.891
REMARK INTER:                  -8.348
REMARK INTRA:                  -3.543
REMARK UNBOUND:                -3.053
REMARK SMILES CCCCCCCCCCCCCCCCCCCCCC(=O)[O-]
REMARK SMILES IDX 12 1 11 2 10 3 9 4 8 5 7 6 6 7 5 8 4 9 3 10 2 11 1 12 13 13
REMARK SMILES IDX 14 14 15 15 16 16 17 17 18 18 19 19 20 20 21 21 22 22 23 23
REMARK SMILES IDX 24 24
REMARK H PARENT
REMARK Flexibility Score: inf
ROOT
ATOM      1  C   UNL     1       0.266  17.220  29.079  1.00  0.00     0.000 C 
ENDROOT
BRANCH   1   2
ATOM      2  C   UNL     1      -0.127  15.762  29.397  1.00  0.00     0.000 C 
BRANCH   2   3
ATOM      3  C   UNL     1       0.703  15.078  30.499  1.00  0.00     0.000 C 
BRANCH   3   4
ATOM      4  C   UNL     1       1.580  16.065  31.288  1.00  0.00    -0.000 C 
BRANCH   4   5
ATOM      5  C   UNL     1       3.079  15.870  31.015  1.00  0.00    -0.000 C 
BRANCH   5   6
ATOM      6  C   UNL     1       3.766  17.145  30.503  1.00  0.00    -0.000 C 
BRANCH   6   7
ATOM      7  C   UNL     1       4.566  16.858  29.227  1.00  0.00    -0.000 C 
BRANCH   7   8
ATOM      8  C   UNL     1       3.910  17.512  28.003  1.00  0.00    -0.000 C 
BRANCH   8   9
ATOM      9  C   UNL     1       2.965  16.555  27.259  1.00  0.00    -0.000 C 
BRANCH   9  10
ATOM     10  C   UNL     1       3.574  15.156  27.061  1.00  0.00    -0.000 C 
BRANCH  10  11
ATOM     11  C   UNL     1       2.675  14.040  27.616  1.00  0.00    -0.003 C 
ATOM     12  C   UNL     1       3.390  13.166  28.647  1.00  0.00     0.004 C 
ENDBRANCH  10  11
ENDBRANCH   9  10
ENDBRANCH   8   9
ENDBRANCH   7   8
ENDBRANCH   6   7
ENDBRANCH   5   6
ENDBRANCH   4   5
ENDBRANCH   3   4
ENDBRANCH   2   3
ENDBRANCH   1   2
BRANCH   1  13
ATOM     13  C   UNL     1      -0.870  18.250  29.212  1.00  0.00     0.000 C 
BRANCH  13  14
ATOM     14  C   UNL     1      -0.405  19.579  29.826  1.00  0.00     0.000 C 
BRANCH  14  15
ATOM     15  C   UNL     1       0.990  19.434  30.451  1.00  0.00     0.000 C 
BRANCH  15  16
ATOM     16  C   UNL     1       2.022  20.406  29.853  1.00  0.00     0.000 C 
BRANCH  16  17
ATOM     17  C   UNL     1       3.016  21.014  30.864  1.00  0.00     0.000 C 
BRANCH  17  18
ATOM     18  C   UNL     1       4.315  21.570  30.252  1.00  0.00     0.000 C 
BRANCH  18  19
ATOM     19  C   UNL     1       5.252  20.505  29.652  1.00  0.00     0.000 C 
BRANCH  19  20
ATOM     20  C   UNL     1       5.807  20.879  28.261  1.00  0.00     0.006 C 
BRANCH  20  21
ATOM     21  C   UNL     1       6.642  22.166  28.290  1.00  0.00     0.053 C 
BRANCH  21  22
ATOM     22  C   UNL     1       8.042  21.893  27.840  1.00  0.00     0.041 C 
ATOM     23  O   UNL     1       8.944  22.754  28.012  1.00  0.00    -0.550 OA
ATOM     24  O   UNL     1       8.360  20.669  27.265  1.00  0.00    -0.550 OA
ENDBRANCH  21  22
ENDBRANCH  20  21
ENDBRANCH  19  20
ENDBRANCH  18  19
ENDBRANCH  17  18
ENDBRANCH  16  17
ENDBRANCH  15  16
ENDBRANCH  14  15
ENDBRANCH  13  14
ENDBRANCH   1  13
TORSDOF 20
ENDMDL
MODEL 9
REMARK VINA RESULT:    -4.065      4.238      6.663
REMARK INTER + INTRA:         -11.870
REMARK INTER:                  -9.159
REMARK INTRA:                  -2.711
REMARK UNBOUND:                -3.053
REMARK SMILES CCCCCCCCCCCCCCCCCCCCCC(=O)[O-]
REMARK SMILES IDX 12 1 11 2 10 3 9 4 8 5 7 6 6 7 5 8 4 9 3 10 2 11 1 12 13 13
REMARK SMILES IDX 14 14 15 15 16 16 17 17 18 18 19 19 20 20 21 21 22 22 23 23
REMARK SMILES IDX 24 24
REMARK H PARENT
REMARK Flexibility Score: inf
ROOT
ATOM      1  C   UNL     1      -0.422  17.341  28.379  1.00  0.00     0.000 C 
ENDROOT
BRANCH   1   2
ATOM      2  C   UNL     1      -0.969  18.543  29.179  1.00  0.00     0.000 C 
BRANCH   2   3
ATOM      3  C   UNL     1      -2.496  18.736  29.123  1.00  0.00     0.000 C 
BRANCH   3   4
ATOM      4  C   UNL     1      -2.952  20.073  29.732  1.00  0.00    -0.000 C 
BRANCH   4   5
ATOM      5  C   UNL     1      -1.776  20.924  30.236  1.00  0.00    -0.000 C 
BRANCH   5   6
ATOM      6  C   UNL     1      -2.080  22.429  30.231  1.00  0.00    -0.000 C 
BRANCH   6   7
ATOM      7  C   UNL     1      -1.145  23.177  31.189  1.00  0.00    -0.000 C 
BRANCH   7   8
ATOM      8  C   UNL     1       0.139  22.377  31.448  1.00  0.00    -0.000 C 
BRANCH   8   9
ATOM      9  C   UNL     1       1.324  22.876  30.606  1.00  0.00    -0.000 C 
BRANCH   9  10
ATOM     10  C   UNL     1       2.464  21.845  30.518  1.00  0.00    -0.000 C 
BRANCH  10  11
ATOM     11  C   UNL     1       1.944  20.404  30.399  1.00  0.00    -0.003 C 
ATOM     12  C   UNL     1       2.604  19.633  29.256  1.00  0.00     0.004 C 
ENDBRANCH  10  11
ENDBRANCH   9  10
ENDBRANCH   8   9
ENDBRANCH   7   8
ENDBRANCH   6   7
ENDBRANCH   5   6
ENDBRANCH   4   5
ENDBRANCH   3   4
ENDBRANCH   2   3
ENDBRANCH   1   2
BRANCH   1  13
ATOM     13  C   UNL     1      -0.080  16.096  29.218  1.00  0.00     0.000 C 
BRANCH  13  14
ATOM     14  C   UNL     1       0.996  16.365  30.279  1.00  0.00     0.000 C 
BRANCH  14  15
ATOM     15  C   UNL     1       1.061  15.216  31.296  1.00  0.00     0.000 C 
BRANCH  15  16
ATOM     16  C   UNL     1       0.247  13.983  30.864  1.00  0.00     0.000 C 
BRANCH  16  17
ATOM     17  C   UNL     1       0.915  12.622  31.146  1.00  0.00     0.000 C 
BRANCH  17  18
ATOM     18  C   UNL     1       1.332  11.825  29.896  1.00  0.00     0.000 C 
BRANCH  18  19
ATOM     19  C   UNL     1       1.382  12.647  28.595  1.00  0.00     0.000 C 
BRANCH  19  20
ATOM     20  C   UNL     1       2.719  13.391  28.383  1.00  0.00     0.006 C 
BRANCH  20  21
ATOM     21  C   UNL     1       2.626  14.461  27.288  1.00  0.00     0.053 C 
BRANCH  21  22
ATOM     22  C   UNL     1       3.470  15.646  27.638  1.00  0.00     0.041 C 
ATOM     23  O   UNL     1       4.464  15.514  28.400  1.00  0.00    -0.550 OA
ATOM     24  O   UNL     1       3.183  16.889  27.091  1.00  0.00    -0.550 OA
ENDBRANCH  21  22
ENDBRANCH  20  21
ENDBRANCH  19  20
ENDBRANCH  18  19
ENDBRANCH  17  18
ENDBRANCH  16  17
ENDBRANCH  15  16
ENDBRANCH  14  15
ENDBRANCH  13  14
ENDBRANCH   1  13
TORSDOF 20
ENDMDL
