MODEL 1
REMARK VINA RESULT:    -3.986      0.000      0.000
REMARK INTER + INTRA:          -4.886
REMARK INTER:                  -4.802
REMARK INTRA:                  -0.084
REMARK UNBOUND:                -0.084
REMARK SMILES CC[C@@H](C)[C@H]([NH3+])C(=O)[O-]
REMARK SMILES IDX 3 1 4 2 5 3 6 4 7 8 8 9 9 10 2 11 1 12
REMARK H PARENT 6 5 6 6 6 7
REMARK Flexibility Score: inf
ROOT
ATOM      1  C   UNL     1     123.263 126.822 154.759  1.00  0.00     0.050 C 
ATOM      2  C   UNL     1     123.392 125.371 155.260  1.00  0.00     0.014 C 
ENDROOT
BRANCH   1   3
ATOM      3  C   UNL     1     121.773 127.190 154.458  1.00  0.00     0.230 C 
BRANCH   3   4
ATOM      4  N   UNL     1     121.057 126.097 153.781  1.00  0.00    -0.350 N 
ATOM      5  H   UNL     1     120.150 126.446 153.393  1.00  0.00     0.345 HD
ATOM      6  H   UNL     1     121.632 125.705 153.000  1.00  0.00     0.345 HD
ATOM      7  H   UNL     1     120.823 125.340 154.463  1.00  0.00     0.345 HD
ENDBRANCH   3   4
BRANCH   3   8
ATOM      8  C   UNL     1     121.684 128.438 153.615  1.00  0.00     0.099 C 
ATOM      9  O   UNL     1     121.987 128.407 152.392  1.00  0.00    -0.544 OA
ATOM     10  O   UNL     1     121.260 129.633 154.185  1.00  0.00    -0.544 OA
ENDBRANCH   3   8
ENDBRANCH   1   3
BRANCH   1  11
ATOM     11  C   UNL     1     123.872 127.806 155.796  1.00  0.00     0.006 C 
ATOM     12  C   UNL     1     125.403 127.797 155.809  1.00  0.00     0.004 C 
ENDBRANCH   1  11
TORSDOF 4
ENDMDL
MODEL 2
REMARK VINA RESULT:    -3.866      5.920      7.165
REMARK INTER + INTRA:          -4.741
REMARK INTER:                  -4.681
REMARK INTRA:                  -0.060
REMARK UNBOUND:                -0.084
REMARK SMILES CC[C@@H](C)[C@H]([NH3+])C(=O)[O-]
REMARK SMILES IDX 3 1 4 2 5 3 6 4 7 8 8 9 9 10 2 11 1 12
REMARK H PARENT 6 5 6 6 6 7
REMARK Flexibility Score: inf
ROOT
ATOM      1  C   UNL     1     122.606 128.928 148.643  1.00  0.00     0.050 C 
ATOM      2  C   UNL     1     122.676 128.892 150.182  1.00  0.00     0.014 C 
ENDROOT
BRANCH   1   3
ATOM      3  C   UNL     1     123.740 129.822 148.043  1.00  0.00     0.230 C 
BRANCH   3   4
ATOM      4  N   UNL     1     124.852 130.017 148.987  1.00  0.00    -0.350 N 
ATOM      5  H   UNL     1     125.046 131.038 149.111  1.00  0.00     0.345 HD
ATOM      6  H   UNL     1     124.624 129.600 149.918  1.00  0.00     0.345 HD
ATOM      7  H   UNL     1     125.727 129.586 148.610  1.00  0.00     0.345 HD
ENDBRANCH   3   4
BRANCH   3   8
ATOM      8  C   UNL     1     123.202 131.169 147.625  1.00  0.00     0.099 C 
ATOM      9  O   UNL     1     122.033 131.516 147.940  1.00  0.00    -0.544 OA
ATOM     10  O   UNL     1     124.001 132.040 146.892  1.00  0.00    -0.544 OA
ENDBRANCH   3   8
ENDBRANCH   1   3
BRANCH   1  11
ATOM     11  C   UNL     1     122.681 127.487 148.066  1.00  0.00     0.006 C 
ATOM     12  C   UNL     1     121.406 126.674 148.307  1.00  0.00     0.004 C 
ENDBRANCH   1  11
TORSDOF 4
ENDMDL
MODEL 3
REMARK VINA RESULT:    -3.764      8.419      9.518
REMARK INTER + INTRA:          -4.618
REMARK INTER:                  -4.486
REMARK INTRA:                  -0.133
REMARK UNBOUND:                -0.084
REMARK SMILES CC[C@@H](C)[C@H]([NH3+])C(=O)[O-]
REMARK SMILES IDX 3 1 4 2 5 3 6 4 7 8 8 9 9 10 2 11 1 12
REMARK H PARENT 6 5 6 6 6 7
REMARK Flexibility Score: inf
ROOT
ATOM      1  C   UNL     1     123.066 131.324 147.367  1.00  0.00     0.050 C 
ATOM      2  C   UNL     1     124.073 130.975 148.480  1.00  0.00     0.014 C 
ENDROOT
BRANCH   1   3
ATOM      3  C   UNL     1     123.797 131.749 146.052  1.00  0.00     0.230 C 
BRANCH   3   4
ATOM      4  N   UNL     1     124.881 132.712 146.304  1.00  0.00    -0.350 N 
ATOM      5  H   UNL     1     125.650 132.256 146.849  1.00  0.00     0.345 HD
ATOM      6  H   UNL     1     125.271 133.075 145.404  1.00  0.00     0.345 HD
ATOM      7  H   UNL     1     124.530 133.508 146.884  1.00  0.00     0.345 HD
ENDBRANCH   3   4
BRANCH   3   8
ATOM      8  C   UNL     1     122.826 132.344 145.062  1.00  0.00     0.099 C 
ATOM      9  O   UNL     1     122.114 133.334 145.381  1.00  0.00    -0.544 OA
ATOM     10  O   UNL     1     122.715 131.803 143.786  1.00  0.00    -0.544 OA
ENDBRANCH   3   8
ENDBRANCH   1   3
BRANCH   1  11
ATOM     11  C   UNL     1     122.119 130.122 147.103  1.00  0.00     0.006 C 
ATOM     12  C   UNL     1     122.861 128.846 146.696  1.00  0.00     0.004 C 
ENDBRANCH   1  11
TORSDOF 4
ENDMDL
MODEL 4
REMARK VINA RESULT:    -3.740      5.646      6.728
REMARK INTER + INTRA:          -4.590
REMARK INTER:                  -4.642
REMARK INTRA:                   0.052
REMARK UNBOUND:                -0.084
REMARK SMILES CC[C@@H](C)[C@H]([NH3+])C(=O)[O-]
REMARK SMILES IDX 3 1 4 2 5 3 6 4 7 8 8 9 9 10 2 11 1 12
REMARK H PARENT 6 5 6 6 6 7
REMARK Flexibility Score: inf
ROOT
ATOM      1  C   UNL     1     122.836 128.848 149.294  1.00  0.00     0.050 C 
ATOM      2  C   UNL     1     122.156 128.630 150.659  1.00  0.00     0.014 C 
ENDROOT
BRANCH   1   3
ATOM      3  C   UNL     1     122.098 128.062 148.160  1.00  0.00     0.230 C 
BRANCH   3   4
ATOM      4  N   UNL     1     122.486 126.644 148.124  1.00  0.00    -0.350 N 
ATOM      5  H   UNL     1     123.522 126.555 147.999  1.00  0.00     0.345 HD
ATOM      6  H   UNL     1     122.210 126.162 149.011  1.00  0.00     0.345 HD
ATOM      7  H   UNL     1     122.041 126.166 147.308  1.00  0.00     0.345 HD
ENDBRANCH   3   4
BRANCH   3   8
ATOM      8  C   UNL     1     122.365 128.684 146.811  1.00  0.00     0.099 C 
ATOM      9  O   UNL     1     123.511 128.614 146.290  1.00  0.00    -0.544 OA
ATOM     10  O   UNL     1     121.343 129.334 146.130  1.00  0.00    -0.544 OA
ENDBRANCH   3   8
ENDBRANCH   1   3
BRANCH   1  11
ATOM     11  C   UNL     1     122.897 130.364 148.959  1.00  0.00     0.006 C 
ATOM     12  C   UNL     1     124.326 130.898 148.838  1.00  0.00     0.004 C 
ENDBRANCH   1  11
TORSDOF 4
ENDMDL
MODEL 5
REMARK VINA RESULT:    -3.709      6.602      7.314
REMARK INTER + INTRA:          -4.552
REMARK INTER:                  -4.430
REMARK INTRA:                  -0.122
REMARK UNBOUND:                -0.084
REMARK SMILES CC[C@@H](C)[C@H]([NH3+])C(=O)[O-]
REMARK SMILES IDX 3 1 4 2 5 3 6 4 7 8 8 9 9 10 2 11 1 12
REMARK H PARENT 6 5 6 6 6 7
REMARK Flexibility Score: inf
ROOT
ATOM      1  C   UNL     1     122.733 128.241 148.270  1.00  0.00     0.050 C 
ATOM      2  C   UNL     1     124.093 127.993 147.588  1.00  0.00     0.014 C 
ENDROOT
BRANCH   1   3
ATOM      3  C   UNL     1     121.896 129.311 147.496  1.00  0.00     0.230 C 
BRANCH   3   4
ATOM      4  N   UNL     1     121.964 129.122 146.038  1.00  0.00    -0.350 N 
ATOM      5  H   UNL     1     121.134 129.562 145.577  1.00  0.00     0.345 HD
ATOM      6  H   UNL     1     122.835 129.551 145.649  1.00  0.00     0.345 HD
ATOM      7  H   UNL     1     121.935 128.103 145.803  1.00  0.00     0.345 HD
ENDBRANCH   3   4
BRANCH   3   8
ATOM      8  C   UNL     1     122.357 130.707 147.836  1.00  0.00     0.099 C 
ATOM      9  O   UNL     1     122.736 130.988 149.004  1.00  0.00    -0.544 OA
ATOM     10  O   UNL     1     122.369 131.693 146.856  1.00  0.00    -0.544 OA
ENDBRANCH   3   8
ENDBRANCH   1   3
BRANCH   1  11
ATOM     11  C   UNL     1     121.942 126.910 148.393  1.00  0.00     0.006 C 
ATOM     12  C   UNL     1     120.518 127.101 148.922  1.00  0.00     0.004 C 
ENDBRANCH   1  11
TORSDOF 4
ENDMDL
MODEL 6
REMARK VINA RESULT:    -3.701      6.559      7.230
REMARK INTER + INTRA:          -4.543
REMARK INTER:                  -4.419
REMARK INTRA:                  -0.124
REMARK UNBOUND:                -0.084
REMARK SMILES CC[C@@H](C)[C@H]([NH3+])C(=O)[O-]
REMARK SMILES IDX 3 1 4 2 5 3 6 4 7 8 8 9 9 10 2 11 1 12
REMARK H PARENT 6 5 6 6 6 7
REMARK Flexibility Score: inf
ROOT
ATOM      1  C   UNL     1     122.752 128.289 148.293  1.00  0.00     0.050 C 
ATOM      2  C   UNL     1     124.084 128.062 147.552  1.00  0.00     0.014 C 
ENDROOT
BRANCH   1   3
ATOM      3  C   UNL     1     121.828 129.279 147.510  1.00  0.00     0.230 C 
BRANCH   3   4
ATOM      4  N   UNL     1     121.926 129.096 146.053  1.00  0.00    -0.350 N 
ATOM      5  H   UNL     1     121.928 130.026 145.572  1.00  0.00     0.345 HD
ATOM      6  H   UNL     1     122.802 128.583 145.802  1.00  0.00     0.345 HD
ATOM      7  H   UNL     1     121.094 128.573 145.697  1.00  0.00     0.345 HD
ENDBRANCH   3   4
BRANCH   3   8
ATOM      8  C   UNL     1     122.159 130.712 147.853  1.00  0.00     0.099 C 
ATOM      9  O   UNL     1     121.873 131.643 147.054  1.00  0.00    -0.544 OA
ATOM     10  O   UNL     1     122.779 131.012 149.061  1.00  0.00    -0.544 OA
ENDBRANCH   3   8
ENDBRANCH   1   3
BRANCH   1  11
ATOM     11  C   UNL     1     122.028 126.935 148.527  1.00  0.00     0.006 C 
ATOM     12  C   UNL     1     120.548 127.095 148.885  1.00  0.00     0.004 C 
ENDBRANCH   1  11
TORSDOF 4
ENDMDL
MODEL 7
REMARK VINA RESULT:    -3.597      5.354      6.382
REMARK INTER + INTRA:          -4.417
REMARK INTER:                  -4.357
REMARK INTRA:                  -0.060
REMARK UNBOUND:                -0.084
REMARK SMILES CC[C@@H](C)[C@H]([NH3+])C(=O)[O-]
REMARK SMILES IDX 3 1 4 2 5 3 6 4 7 8 8 9 9 10 2 11 1 12
REMARK H PARENT 6 5 6 6 6 7
REMARK Flexibility Score: inf
ROOT
ATOM      1  C   UNL     1     122.829 128.926 148.226  1.00  0.00     0.050 C 
ATOM      2  C   UNL     1     123.273 128.703 146.767  1.00  0.00     0.014 C 
ENDROOT
BRANCH   1   3
ATOM      3  C   UNL     1     122.509 127.570 148.936  1.00  0.00     0.230 C 
BRANCH   3   4
ATOM      4  N   UNL     1     122.424 126.451 147.985  1.00  0.00    -0.350 N 
ATOM      5  H   UNL     1     122.271 125.551 148.498  1.00  0.00     0.345 HD
ATOM      6  H   UNL     1     121.635 126.595 147.313  1.00  0.00     0.345 HD
ATOM      7  H   UNL     1     123.323 126.351 147.460  1.00  0.00     0.345 HD
ENDBRANCH   3   4
BRANCH   3   8
ATOM      8  C   UNL     1     121.219 127.659 149.714  1.00  0.00     0.099 C 
ATOM      9  O   UNL     1     121.219 128.058 150.909  1.00  0.00    -0.544 OA
ATOM     10  O   UNL     1     120.018 127.304 149.111  1.00  0.00    -0.544 OA
ENDBRANCH   3   8
ENDBRANCH   1   3
BRANCH   1  11
ATOM     11  C   UNL     1     123.919 129.710 149.006  1.00  0.00     0.006 C 
ATOM     12  C   UNL     1     124.429 130.944 148.256  1.00  0.00     0.004 C 
ENDBRANCH   1  11
TORSDOF 4
ENDMDL
MODEL 8
REMARK VINA RESULT:    -3.597      7.789      8.435
REMARK INTER + INTRA:          -4.417
REMARK INTER:                  -4.280
REMARK INTRA:                  -0.136
REMARK UNBOUND:                -0.084
REMARK SMILES CC[C@@H](C)[C@H]([NH3+])C(=O)[O-]
REMARK SMILES IDX 3 1 4 2 5 3 6 4 7 8 8 9 9 10 2 11 1 12
REMARK H PARENT 6 5 6 6 6 7
REMARK Flexibility Score: inf
ROOT
ATOM      1  C   UNL     1     123.529 128.888 147.084  1.00  0.00     0.050 C 
ATOM      2  C   UNL     1     122.672 127.684 147.520  1.00  0.00     0.014 C 
ENDROOT
BRANCH   1   3
ATOM      3  C   UNL     1     122.663 129.967 146.353  1.00  0.00     0.230 C 
BRANCH   3   4
ATOM      4  N   UNL     1     121.362 129.434 145.919  1.00  0.00    -0.350 N 
ATOM      5  H   UNL     1     120.894 130.109 145.270  1.00  0.00     0.345 HD
ATOM      6  H   UNL     1     121.482 128.519 145.426  1.00  0.00     0.345 HD
ATOM      7  H   UNL     1     120.727 129.314 146.740  1.00  0.00     0.345 HD
ENDBRANCH   3   4
BRANCH   3   8
ATOM      8  C   UNL     1     123.395 130.526 145.157  1.00  0.00     0.099 C 
ATOM      9  O   UNL     1     123.600 129.810 144.141  1.00  0.00    -0.544 OA
ATOM     10  O   UNL     1     123.842 131.842 145.169  1.00  0.00    -0.544 OA
ENDBRANCH   3   8
ENDBRANCH   1   3
BRANCH   1  11
ATOM     11  C   UNL     1     124.252 129.506 148.312  1.00  0.00     0.006 C 
ATOM     12  C   UNL     1     123.571 130.772 148.839  1.00  0.00     0.004 C 
ENDBRANCH   1  11
TORSDOF 4
ENDMDL
MODEL 9
REMARK VINA RESULT:    -3.593      8.435      9.890
REMARK INTER + INTRA:          -4.413
REMARK INTER:                  -4.289
REMARK INTRA:                  -0.124
REMARK UNBOUND:                -0.084
REMARK SMILES CC[C@@H](C)[C@H]([NH3+])C(=O)[O-]
REMARK SMILES IDX 3 1 4 2 5 3 6 4 7 8 8 9 9 10 2 11 1 12
REMARK H PARENT 6 5 6 6 6 7
REMARK Flexibility Score: inf
ROOT
ATOM      1  C   UNL     1     122.849 130.497 145.241  1.00  0.00     0.050 C 
ATOM      2  C   UNL     1     123.519 130.563 143.855  1.00  0.00     0.014 C 
ENDROOT
BRANCH   1   3
ATOM      3  C   UNL     1     123.181 131.765 146.094  1.00  0.00     0.230 C 
BRANCH   3   4
ATOM      4  N   UNL     1     124.392 132.453 145.619  1.00  0.00    -0.350 N 
ATOM      5  H   UNL     1     125.190 132.270 146.272  1.00  0.00     0.345 HD
ATOM      6  H   UNL     1     124.655 132.123 144.662  1.00  0.00     0.345 HD
ATOM      7  H   UNL     1     124.241 133.487 145.608  1.00  0.00     0.345 HD
ENDBRANCH   3   4
BRANCH   3   8
ATOM      8  C   UNL     1     123.352 131.408 147.550  1.00  0.00     0.099 C 
ATOM      9  O   UNL     1     124.499 131.200 148.027  1.00  0.00    -0.544 OA
ATOM     10  O   UNL     1     122.239 131.311 148.377  1.00  0.00    -0.544 OA
ENDBRANCH   3   8
ENDBRANCH   1   3
BRANCH   1  11
ATOM     11  C   UNL     1     121.313 130.325 145.089  1.00  0.00     0.006 C 
ATOM     12  C   UNL     1     120.599 131.618 144.686  1.00  0.00     0.004 C 
ENDBRANCH   1  11
TORSDOF 4
ENDMDL
