MODEL 1
REMARK VINA RESULT:    -6.396      0.000      0.000
REMARK INTER + INTRA:          -6.957
REMARK INTER:                  -6.957
REMARK INTRA:                   0.000
REMARK UNBOUND:                 0.000
REMARK SMILES Cc1cc(O)c2c(c1)C(=O)c1cc(O)cc(O)c1C2=O
REMARK SMILES IDX 1 1 2 2 8 3 7 4 6 5 4 6 3 7 19 8 20 9 18 10 11 11 9 12 10 13
REMARK SMILES IDX 12 14 13 15 15 16 16 17 5 18 17 20 14 22
REMARK H PARENT 5 19 17 21 14 23
REMARK Flexibility Score: inf
ROOT
ATOM      1  C   UNL     1      18.151  36.625   5.377  1.00  0.00     0.044 C 
ATOM      2  C   UNL     1      19.124  35.721   6.077  1.00  0.00    -0.047 A 
ATOM      3  C   UNL     1      19.621  34.586   5.426  1.00  0.00     0.016 A 
ATOM      4  C   UNL     1      20.562  33.753   6.058  1.00  0.00     0.038 A 
ATOM      5  C   UNL     1      21.017  34.066   7.356  1.00  0.00     0.076 A 
ATOM      6  C   UNL     1      20.533  35.229   7.997  1.00  0.00     0.127 A 
ATOM      7  C   UNL     1      19.596  36.048   7.352  1.00  0.00     0.050 A 
ATOM      8  C   UNL     1      21.980  33.153   8.026  1.00  0.00     0.201 C 
ATOM      9  O   UNL     1      22.114  33.204   9.277  1.00  0.00    -0.288 OA
ATOM     10  C   UNL     1      22.694  32.110   7.238  1.00  0.00     0.076 A 
ATOM     11  C   UNL     1      22.188  31.767   5.961  1.00  0.00     0.041 A 
ATOM     12  C   UNL     1      21.077  32.550   5.366  1.00  0.00     0.194 C 
ATOM     13  O   UNL     1      20.583  32.199   4.259  1.00  0.00    -0.289 OA
ATOM     14  C   UNL     1      22.745  30.689   5.253  1.00  0.00     0.059 A 
ATOM     15  C   UNL     1      23.808  29.960   5.791  1.00  0.00     0.120 A 
ATOM     16  C   UNL     1      24.342  30.323   7.026  1.00  0.00     0.093 A 
ATOM     17  C   UNL     1      23.823  31.407   7.740  1.00  0.00     0.131 A 
ENDROOT
BRANCH   6  18
ATOM     18  O   UNL     1      20.987  35.582   9.269  1.00  0.00    -0.507 OA
ATOM     19  H   UNL     1      21.437  36.472   9.446  1.00  0.00     0.293 HD
ENDBRANCH   6  18
BRANCH  17  20
ATOM     20  O   UNL     1      24.485  31.769   8.916  1.00  0.00    -0.507 OA
ATOM     21  H   UNL     1      24.261  31.389   9.825  1.00  0.00     0.293 HD
ENDBRANCH  17  20
BRANCH  15  22
ATOM     22  O   UNL     1      24.352  28.880   5.098  1.00  0.00    -0.508 OA
ATOM     23  H   UNL     1      23.823  28.383   4.390  1.00  0.00     0.293 HD
ENDBRANCH  15  22
TORSDOF 3
ENDMDL
MODEL 2
REMARK VINA RESULT:    -6.395      1.626      5.506
REMARK INTER + INTRA:          -6.956
REMARK INTER:                  -6.956
REMARK INTRA:                   0.000
REMARK UNBOUND:                 0.000
REMARK SMILES Cc1cc(O)c2c(c1)C(=O)c1cc(O)cc(O)c1C2=O
REMARK SMILES IDX 1 1 2 2 8 3 7 4 6 5 4 6 3 7 19 8 20 9 18 10 11 11 9 12 10 13
REMARK SMILES IDX 12 14 13 15 15 16 16 17 5 18 17 20 14 22
REMARK H PARENT 5 19 17 21 14 23
REMARK Flexibility Score: inf
ROOT
ATOM      1  C   UNL     1      23.620  28.775   4.457  1.00  0.00     0.044 C 
ATOM      2  C   UNL     1      23.242  29.960   5.296  1.00  0.00    -0.047 A 
ATOM      3  C   UNL     1      22.839  31.154   4.687  1.00  0.00     0.016 A 
ATOM      4  C   UNL     1      22.445  32.258   5.464  1.00  0.00     0.038 A 
ATOM      5  C   UNL     1      22.448  32.162   6.872  1.00  0.00     0.076 A 
ATOM      6  C   UNL     1      22.828  30.945   7.482  1.00  0.00     0.127 A 
ATOM      7  C   UNL     1      23.216  29.855   6.691  1.00  0.00     0.050 A 
ATOM      8  C   UNL     1      22.069  33.350   7.680  1.00  0.00     0.201 C 
ATOM      9  O   UNL     1      22.406  33.409   8.892  1.00  0.00    -0.288 OA
ATOM     10  C   UNL     1      21.398  34.513   7.032  1.00  0.00     0.076 A 
ATOM     11  C   UNL     1      21.457  34.623   5.622  1.00  0.00     0.041 A 
ATOM     12  C   UNL     1      22.029  33.520   4.812  1.00  0.00     0.194 C 
ATOM     13  O   UNL     1      22.143  33.651   3.562  1.00  0.00    -0.289 OA
ATOM     14  C   UNL     1      20.965  35.777   4.989  1.00  0.00     0.059 A 
ATOM     15  C   UNL     1      20.401  36.812   5.738  1.00  0.00     0.120 A 
ATOM     16  C   UNL     1      20.297  36.688   7.122  1.00  0.00     0.093 A 
ATOM     17  C   UNL     1      20.755  35.540   7.775  1.00  0.00     0.131 A 
ENDROOT
BRANCH   6  18
ATOM     18  O   UNL     1      22.812  30.809   8.871  1.00  0.00    -0.507 OA
ATOM     19  H   UNL     1      23.234  30.012   9.334  1.00  0.00     0.293 HD
ENDBRANCH   6  18
BRANCH  17  20
ATOM     20  O   UNL     1      20.515  35.451   9.148  1.00  0.00    -0.507 OA
ATOM     21  H   UNL     1      19.592  35.372   9.552  1.00  0.00     0.293 HD
ENDBRANCH  17  20
BRANCH  15  22
ATOM     22  O   UNL     1      19.928  37.965   5.114  1.00  0.00    -0.508 OA
ATOM     23  H   UNL     1      20.017  38.101   4.113  1.00  0.00     0.293 HD
ENDBRANCH  15  22
TORSDOF 3
ENDMDL
MODEL 3
REMARK VINA RESULT:    -6.148      1.777      6.250
REMARK INTER + INTRA:          -6.687
REMARK INTER:                  -6.687
REMARK INTRA:                   0.000
REMARK UNBOUND:                 0.000
REMARK SMILES Cc1cc(O)c2c(c1)C(=O)c1cc(O)cc(O)c1C2=O
REMARK SMILES IDX 1 1 2 2 8 3 7 4 6 5 4 6 3 7 19 8 20 9 18 10 11 11 9 12 10 13
REMARK SMILES IDX 12 14 13 15 15 16 16 17 5 18 17 20 14 22
REMARK H PARENT 5 19 17 21 14 23
REMARK Flexibility Score: inf
ROOT
ATOM      1  C   UNL     1      25.126  28.895   7.346  1.00  0.00     0.044 C 
ATOM      2  C   UNL     1      24.424  30.090   6.770  1.00  0.00    -0.047 A 
ATOM      3  C   UNL     1      23.544  30.838   7.561  1.00  0.00     0.016 A 
ATOM      4  C   UNL     1      22.910  31.981   7.042  1.00  0.00     0.038 A 
ATOM      5  C   UNL     1      23.167  32.385   5.716  1.00  0.00     0.076 A 
ATOM      6  C   UNL     1      24.078  31.643   4.930  1.00  0.00     0.127 A 
ATOM      7  C   UNL     1      24.701  30.507   5.464  1.00  0.00     0.050 A 
ATOM      8  C   UNL     1      22.457  33.572   5.170  1.00  0.00     0.201 C 
ATOM      9  O   UNL     1      22.386  33.732   3.922  1.00  0.00    -0.288 OA
ATOM     10  C   UNL     1      21.738  34.501   6.086  1.00  0.00     0.076 A 
ATOM     11  C   UNL     1      21.437  34.055   7.395  1.00  0.00     0.041 A 
ATOM     12  C   UNL     1      21.974  32.762   7.883  1.00  0.00     0.194 C 
ATOM     13  O   UNL     1      21.648  32.335   9.025  1.00  0.00    -0.289 OA
ATOM     14  C   UNL     1      20.634  34.844   8.236  1.00  0.00     0.059 A 
ATOM     15  C   UNL     1      20.143  36.076   7.797  1.00  0.00     0.120 A 
ATOM     16  C   UNL     1      20.476  36.541   6.527  1.00  0.00     0.093 A 
ATOM     17  C   UNL     1      21.293  35.789   5.680  1.00  0.00     0.131 A 
ENDROOT
BRANCH   6  18
ATOM     18  O   UNL     1      24.376  32.035   3.624  1.00  0.00    -0.507 OA
ATOM     19  H   UNL     1      23.723  32.575   3.068  1.00  0.00     0.293 HD
ENDBRANCH   6  18
BRANCH  17  20
ATOM     20  O   UNL     1      21.666  36.376   4.468  1.00  0.00    -0.507 OA
ATOM     21  H   UNL     1      22.560  36.223   4.022  1.00  0.00     0.293 HD
ENDBRANCH  17  20
BRANCH  15  22
ATOM     22  O   UNL     1      19.333  36.853   8.624  1.00  0.00    -0.508 OA
ATOM     23  H   UNL     1      19.493  36.908   9.623  1.00  0.00     0.293 HD
ENDBRANCH  15  22
TORSDOF 3
ENDMDL
MODEL 4
REMARK VINA RESULT:    -5.865      1.657      3.444
REMARK INTER + INTRA:          -6.380
REMARK INTER:                  -6.380
REMARK INTRA:                   0.000
REMARK UNBOUND:                 0.000
REMARK SMILES Cc1cc(O)c2c(c1)C(=O)c1cc(O)cc(O)c1C2=O
REMARK SMILES IDX 1 1 2 2 8 3 7 4 6 5 4 6 3 7 19 8 20 9 18 10 11 11 9 12 10 13
REMARK SMILES IDX 12 14 13 15 15 16 16 17 5 18 17 20 14 22
REMARK H PARENT 5 19 17 21 14 23
REMARK Flexibility Score: inf
ROOT
ATOM      1  C   UNL     1      20.285  36.006   9.190  1.00  0.00     0.044 C 
ATOM      2  C   UNL     1      20.654  34.913   8.231  1.00  0.00    -0.047 A 
ATOM      3  C   UNL     1      21.763  34.098   8.488  1.00  0.00     0.016 A 
ATOM      4  C   UNL     1      22.096  33.046   7.615  1.00  0.00     0.038 A 
ATOM      5  C   UNL     1      21.303  32.803   6.474  1.00  0.00     0.076 A 
ATOM      6  C   UNL     1      20.169  33.612   6.235  1.00  0.00     0.127 A 
ATOM      7  C   UNL     1      19.852  34.655   7.116  1.00  0.00     0.050 A 
ATOM      8  C   UNL     1      21.692  31.714   5.540  1.00  0.00     0.201 C 
ATOM      9  O   UNL     1      21.237  31.713   4.366  1.00  0.00    -0.288 OA
ATOM     10  C   UNL     1      22.701  30.699   5.953  1.00  0.00     0.076 A 
ATOM     11  C   UNL     1      23.528  30.987   7.065  1.00  0.00     0.041 A 
ATOM     12  C   UNL     1      23.274  32.193   7.889  1.00  0.00     0.194 C 
ATOM     13  O   UNL     1      24.055  32.483   8.838  1.00  0.00    -0.289 OA
ATOM     14  C   UNL     1      24.585  30.122   7.394  1.00  0.00     0.059 A 
ATOM     15  C   UNL     1      24.819  28.969   6.641  1.00  0.00     0.120 A 
ATOM     16  C   UNL     1      23.979  28.656   5.575  1.00  0.00     0.093 A 
ATOM     17  C   UNL     1      22.905  29.485   5.242  1.00  0.00     0.131 A 
ENDROOT
BRANCH   6  18
ATOM     18  O   UNL     1      19.347  33.377   5.131  1.00  0.00    -0.507 OA
ATOM     19  H   UNL     1      18.475  32.867   5.214  1.00  0.00     0.293 HD
ENDBRANCH   6  18
BRANCH  17  20
ATOM     20  O   UNL     1      22.049  29.043   4.230  1.00  0.00    -0.507 OA
ATOM     21  H   UNL     1      21.042  29.089   4.287  1.00  0.00     0.293 HD
ENDBRANCH  17  20
BRANCH  15  22
ATOM     22  O   UNL     1      25.878  28.118   6.955  1.00  0.00    -0.508 OA
ATOM     23  H   UNL     1      26.801  28.477   7.172  1.00  0.00     0.293 HD
ENDBRANCH  15  22
TORSDOF 3
ENDMDL
MODEL 5
REMARK VINA RESULT:    -5.594      1.955      4.136
REMARK INTER + INTRA:          -6.085
REMARK INTER:                  -6.085
REMARK INTRA:                   0.000
REMARK UNBOUND:                 0.000
REMARK SMILES Cc1cc(O)c2c(c1)C(=O)c1cc(O)cc(O)c1C2=O
REMARK SMILES IDX 1 1 2 2 8 3 7 4 6 5 4 6 3 7 19 8 20 9 18 10 11 11 9 12 10 13
REMARK SMILES IDX 12 14 13 15 15 16 16 17 5 18 17 20 14 22
REMARK H PARENT 5 19 17 21 14 23
REMARK Flexibility Score: inf
ROOT
ATOM      1  C   UNL     1      20.837  35.066   8.646  1.00  0.00     0.044 C 
ATOM      2  C   UNL     1      21.370  33.949   7.799  1.00  0.00    -0.047 A 
ATOM      3  C   UNL     1      22.500  33.232   8.209  1.00  0.00     0.016 A 
ATOM      4  C   UNL     1      22.986  32.158   7.442  1.00  0.00     0.038 A 
ATOM      5  C   UNL     1      22.325  31.792   6.251  1.00  0.00     0.076 A 
ATOM      6  C   UNL     1      21.168  32.500   5.855  1.00  0.00     0.127 A 
ATOM      7  C   UNL     1      20.698  33.567   6.633  1.00  0.00     0.050 A 
ATOM      8  C   UNL     1      22.875  30.681   5.430  1.00  0.00     0.201 C 
ATOM      9  O   UNL     1      22.537  30.578   4.221  1.00  0.00    -0.288 OA
ATOM     10  C   UNL     1      23.905  29.768   6.000  1.00  0.00     0.076 A 
ATOM     11  C   UNL     1      24.599  30.180   7.163  1.00  0.00     0.041 A 
ATOM     12  C   UNL     1      24.187  31.411   7.879  1.00  0.00     0.194 C 
ATOM     13  O   UNL     1      24.850  31.812   8.875  1.00  0.00    -0.289 OA
ATOM     14  C   UNL     1      25.675  29.415   7.644  1.00  0.00     0.059 A 
ATOM     15  C   UNL     1      26.057  28.240   6.993  1.00  0.00     0.120 A 
ATOM     16  C   UNL     1      25.348  27.804   5.876  1.00  0.00     0.093 A 
ATOM     17  C   UNL     1      24.257  28.532   5.392  1.00  0.00     0.131 A 
ENDROOT
BRANCH   6  18
ATOM     18  O   UNL     1      20.475  32.141   4.698  1.00  0.00    -0.507 OA
ATOM     19  H   UNL     1      20.201  31.183   4.516  1.00  0.00     0.293 HD
ENDBRANCH   6  18
BRANCH  17  20
ATOM     20  O   UNL     1      23.536  27.970   4.336  1.00  0.00    -0.507 OA
ATOM     21  H   UNL     1      22.903  28.495   3.748  1.00  0.00     0.293 HD
ENDBRANCH  17  20
BRANCH  15  22
ATOM     22  O   UNL     1      27.135  27.488   7.458  1.00  0.00    -0.508 OA
ATOM     23  H   UNL     1      27.633  27.742   8.304  1.00  0.00     0.293 HD
ENDBRANCH  15  22
TORSDOF 3
ENDMDL
MODEL 6
REMARK VINA RESULT:    -5.519      1.727      2.968
REMARK INTER + INTRA:          -6.003
REMARK INTER:                  -6.003
REMARK INTRA:                   0.000
REMARK UNBOUND:                 0.000
REMARK SMILES Cc1cc(O)c2c(c1)C(=O)c1cc(O)cc(O)c1C2=O
REMARK SMILES IDX 1 1 2 2 8 3 7 4 6 5 4 6 3 7 19 8 20 9 18 10 11 11 9 12 10 13
REMARK SMILES IDX 12 14 13 15 15 16 16 17 5 18 17 20 14 22
REMARK H PARENT 5 19 17 21 14 23
REMARK Flexibility Score: inf
ROOT
ATOM      1  C   UNL     1      18.700  36.331   8.459  1.00  0.00     0.044 C 
ATOM      2  C   UNL     1      19.763  35.606   7.687  1.00  0.00    -0.047 A 
ATOM      3  C   UNL     1      20.343  34.444   8.210  1.00  0.00     0.016 A 
ATOM      4  C   UNL     1      21.313  33.735   7.479  1.00  0.00     0.038 A 
ATOM      5  C   UNL     1      21.701  34.192   6.202  1.00  0.00     0.076 A 
ATOM      6  C   UNL     1      21.092  35.350   5.667  1.00  0.00     0.127 A 
ATOM      7  C   UNL     1      20.127  36.043   6.410  1.00  0.00     0.050 A 
ATOM      8  C   UNL     1      22.757  33.455   5.460  1.00  0.00     0.201 C 
ATOM      9  O   UNL     1      23.366  34.027   4.517  1.00  0.00    -0.288 OA
ATOM     10  C   UNL     1      23.171  32.094   5.901  1.00  0.00     0.076 A 
ATOM     11  C   UNL     1      22.822  31.676   7.208  1.00  0.00     0.041 A 
ATOM     12  C   UNL     1      21.927  32.512   8.043  1.00  0.00     0.194 C 
ATOM     13  O   UNL     1      21.674  32.170   9.231  1.00  0.00    -0.289 OA
ATOM     14  C   UNL     1      23.319  30.461   7.710  1.00  0.00     0.059 A 
ATOM     15  C   UNL     1      24.142  29.652   6.924  1.00  0.00     0.120 A 
ATOM     16  C   UNL     1      24.450  30.035   5.620  1.00  0.00     0.093 A 
ATOM     17  C   UNL     1      23.948  31.225   5.087  1.00  0.00     0.131 A 
ENDROOT
BRANCH   6  18
ATOM     18  O   UNL     1      21.434  35.809   4.394  1.00  0.00    -0.507 OA
ATOM     19  H   UNL     1      20.759  36.273   3.796  1.00  0.00     0.293 HD
ENDBRANCH   6  18
BRANCH  17  20
ATOM     20  O   UNL     1      24.216  31.482   3.739  1.00  0.00    -0.507 OA
ATOM     21  H   UNL     1      25.132  31.393   3.323  1.00  0.00     0.293 HD
ENDBRANCH  17  20
BRANCH  15  22
ATOM     22  O   UNL     1      24.650  28.454   7.425  1.00  0.00    -0.508 OA
ATOM     23  H   UNL     1      25.636  28.229   7.363  1.00  0.00     0.293 HD
ENDBRANCH  15  22
TORSDOF 3
ENDMDL
MODEL 7
REMARK VINA RESULT:    -5.439      1.738      2.052
REMARK INTER + INTRA:          -5.916
REMARK INTER:                  -5.916
REMARK INTRA:                   0.000
REMARK UNBOUND:                 0.000
REMARK SMILES Cc1cc(O)c2c(c1)C(=O)c1cc(O)cc(O)c1C2=O
REMARK SMILES IDX 1 1 2 2 8 3 7 4 6 5 4 6 3 7 19 8 20 9 18 10 11 11 9 12 10 13
REMARK SMILES IDX 12 14 13 15 15 16 16 17 5 18 17 20 14 22
REMARK H PARENT 5 19 17 21 14 23
REMARK Flexibility Score: inf
ROOT
ATOM      1  C   UNL     1      20.242  36.710   5.128  1.00  0.00     0.044 C 
ATOM      2  C   UNL     1      20.937  35.488   5.651  1.00  0.00    -0.047 A 
ATOM      3  C   UNL     1      21.669  34.669   4.783  1.00  0.00     0.016 A 
ATOM      4  C   UNL     1      22.356  33.542   5.268  1.00  0.00     0.038 A 
ATOM      5  C   UNL     1      22.315  33.235   6.645  1.00  0.00     0.076 A 
ATOM      6  C   UNL     1      21.598  34.080   7.521  1.00  0.00     0.127 A 
ATOM      7  C   UNL     1      20.920  35.200   7.019  1.00  0.00     0.050 A 
ATOM      8  C   UNL     1      23.012  32.018   7.136  1.00  0.00     0.201 C 
ATOM      9  O   UNL     1      22.696  31.532   8.254  1.00  0.00    -0.288 OA
ATOM     10  C   UNL     1      23.991  31.312   6.263  1.00  0.00     0.076 A 
ATOM     11  C   UNL     1      23.977  31.590   4.875  1.00  0.00     0.041 A 
ATOM     12  C   UNL     1      23.121  32.677   4.342  1.00  0.00     0.194 C 
ATOM     13  O   UNL     1      23.059  32.877   3.098  1.00  0.00    -0.289 OA
ATOM     14  C   UNL     1      24.784  30.840   4.003  1.00  0.00     0.059 A 
ATOM     15  C   UNL     1      25.614  29.831   4.495  1.00  0.00     0.120 A 
ATOM     16  C   UNL     1      25.668  29.585   5.865  1.00  0.00     0.093 A 
ATOM     17  C   UNL     1      24.896  30.333   6.758  1.00  0.00     0.131 A 
ENDROOT
BRANCH   6  18
ATOM     18  O   UNL     1      21.564  33.820   8.892  1.00  0.00    -0.507 OA
ATOM     19  H   UNL     1      20.690  33.763   9.403  1.00  0.00     0.293 HD
ENDBRANCH   6  18
BRANCH  17  20
ATOM     20  O   UNL     1      25.089  30.095   8.121  1.00  0.00    -0.507 OA
ATOM     21  H   UNL     1      25.958  30.278   8.604  1.00  0.00     0.293 HD
ENDBRANCH  17  20
BRANCH  15  22
ATOM     22  O   UNL     1      26.402  29.074   3.630  1.00  0.00    -0.508 OA
ATOM     23  H   UNL     1      27.414  29.079   3.693  1.00  0.00     0.293 HD
ENDBRANCH  15  22
TORSDOF 3
ENDMDL
MODEL 8
REMARK VINA RESULT:    -5.416      1.594      6.675
REMARK INTER + INTRA:          -5.891
REMARK INTER:                  -5.891
REMARK INTRA:                   0.000
REMARK UNBOUND:                 0.000
REMARK SMILES Cc1cc(O)c2c(c1)C(=O)c1cc(O)cc(O)c1C2=O
REMARK SMILES IDX 1 1 2 2 8 3 7 4 6 5 4 6 3 7 19 8 20 9 18 10 11 11 9 12 10 13
REMARK SMILES IDX 12 14 13 15 15 16 16 17 5 18 17 20 14 22
REMARK H PARENT 5 19 17 21 14 23
REMARK Flexibility Score: inf
ROOT
ATOM      1  C   UNL     1      28.033  29.364   7.841  1.00  0.00     0.044 C 
ATOM      2  C   UNL     1      26.746  29.736   7.165  1.00  0.00    -0.047 A 
ATOM      3  C   UNL     1      25.795  30.510   7.841  1.00  0.00     0.016 A 
ATOM      4  C   UNL     1      24.602  30.897   7.204  1.00  0.00     0.038 A 
ATOM      5  C   UNL     1      24.361  30.508   5.870  1.00  0.00     0.076 A 
ATOM      6  C   UNL     1      25.337  29.750   5.183  1.00  0.00     0.127 A 
ATOM      7  C   UNL     1      26.520  29.375   5.833  1.00  0.00     0.050 A 
ATOM      8  C   UNL     1      23.078  30.890   5.225  1.00  0.00     0.201 C 
ATOM      9  O   UNL     1      22.689  30.267   4.201  1.00  0.00    -0.288 OA
ATOM     10  C   UNL     1      22.203  31.921   5.851  1.00  0.00     0.076 A 
ATOM     11  C   UNL     1      22.422  32.254   7.209  1.00  0.00     0.041 A 
ATOM     12  C   UNL     1      23.598  31.708   7.929  1.00  0.00     0.194 C 
ATOM     13  O   UNL     1      23.753  31.952   9.157  1.00  0.00    -0.289 OA
ATOM     14  C   UNL     1      21.529  33.111   7.872  1.00  0.00     0.059 A 
ATOM     15  C   UNL     1      20.431  33.652   7.199  1.00  0.00     0.120 A 
ATOM     16  C   UNL     1      20.237  33.366   5.849  1.00  0.00     0.093 A 
ATOM     17  C   UNL     1      21.125  32.537   5.158  1.00  0.00     0.131 A 
ENDROOT
BRANCH   6  18
ATOM     18  O   UNL     1      25.141  29.377   3.852  1.00  0.00    -0.507 OA
ATOM     19  H   UNL     1      25.596  28.564   3.454  1.00  0.00     0.293 HD
ENDBRANCH   6  18
BRANCH  17  20
ATOM     20  O   UNL     1      20.919  32.388   3.784  1.00  0.00    -0.507 OA
ATOM     21  H   UNL     1      21.064  33.129   3.112  1.00  0.00     0.293 HD
ENDBRANCH  17  20
BRANCH  15  22
ATOM     22  O   UNL     1      19.534  34.489   7.859  1.00  0.00    -0.508 OA
ATOM     23  H   UNL     1      18.531  34.383   7.751  1.00  0.00     0.293 HD
ENDBRANCH  15  22
TORSDOF 3
ENDMDL
MODEL 9
REMARK VINA RESULT:    -5.382      2.133      6.010
REMARK INTER + INTRA:          -5.854
REMARK INTER:                  -5.854
REMARK INTRA:                   0.000
REMARK UNBOUND:                 0.000
REMARK SMILES Cc1cc(O)c2c(c1)C(=O)c1cc(O)cc(O)c1C2=O
REMARK SMILES IDX 1 1 2 2 8 3 7 4 6 5 4 6 3 7 19 8 20 9 18 10 11 11 9 12 10 13
REMARK SMILES IDX 12 14 13 15 15 16 16 17 5 18 17 20 14 22
REMARK H PARENT 5 19 17 21 14 23
REMARK Flexibility Score: inf
ROOT
ATOM      1  C   UNL     1      26.274  28.268   3.278  1.00  0.00     0.044 C 
ATOM      2  C   UNL     1      25.511  29.111   4.257  1.00  0.00    -0.047 A 
ATOM      3  C   UNL     1      24.950  30.327   3.850  1.00  0.00     0.016 A 
ATOM      4  C   UNL     1      24.200  31.107   4.749  1.00  0.00     0.038 A 
ATOM      5  C   UNL     1      24.005  30.660   6.072  1.00  0.00     0.076 A 
ATOM      6  C   UNL     1      24.550  29.418   6.470  1.00  0.00     0.127 A 
ATOM      7  C   UNL     1      25.293  28.654   5.560  1.00  0.00     0.050 A 
ATOM      8  C   UNL     1      23.246  31.515   7.021  1.00  0.00     0.201 C 
ATOM      9  O   UNL     1      23.367  31.325   8.260  1.00  0.00    -0.288 OA
ATOM     10  C   UNL     1      22.440  32.662   6.516  1.00  0.00     0.076 A 
ATOM     11  C   UNL     1      22.692  33.135   5.205  1.00  0.00     0.041 A 
ATOM     12  C   UNL     1      23.617  32.396   4.312  1.00  0.00     0.194 C 
ATOM     13  O   UNL     1      23.892  32.858   3.170  1.00  0.00    -0.289 OA
ATOM     14  C   UNL     1      22.057  34.302   4.748  1.00  0.00     0.059 A 
ATOM     15  C   UNL     1      21.164  34.993   5.570  1.00  0.00     0.120 A 
ATOM     16  C   UNL     1      20.876  34.505   6.843  1.00  0.00     0.093 A 
ATOM     17  C   UNL     1      21.473  33.333   7.313  1.00  0.00     0.131 A 
ENDROOT
BRANCH   6  18
ATOM     18  O   UNL     1      24.348  28.934   7.764  1.00  0.00    -0.507 OA
ATOM     19  H   UNL     1      25.010  28.309   8.209  1.00  0.00     0.293 HD
ENDBRANCH   6  18
BRANCH  17  20
ATOM     20  O   UNL     1      21.048  32.856   8.556  1.00  0.00    -0.507 OA
ATOM     21  H   UNL     1      21.652  32.377   9.209  1.00  0.00     0.293 HD
ENDBRANCH  17  20
BRANCH  15  22
ATOM     22  O   UNL     1      20.546  36.160   5.125  1.00  0.00    -0.508 OA
ATOM     23  H   UNL     1      19.862  36.648   5.693  1.00  0.00     0.293 HD
ENDBRANCH  15  22
TORSDOF 3
ENDMDL
