MODEL 1
REMARK VINA RESULT:    -3.147      0.000      0.000
REMARK INTER + INTRA:          -8.018
REMARK INTER:                  -5.723
REMARK INTRA:                  -2.295
REMARK UNBOUND:                -2.295
REMARK SMILES CCCCCCCCCCCCCCCC(=O)[O-]
REMARK SMILES IDX 9 1 10 2 11 3 12 4 13 5 14 6 15 7 16 8 17 9 18 10 8 11 7 12
REMARK SMILES IDX 6 13 5 14 4 15 3 16 2 17 1 18
REMARK H PARENT
REMARK Flexibility Score: inf
ROOT
ATOM      1  C   UNL     1     -32.913   2.922 -37.976  1.00  0.00     0.000 C 
ENDROOT
BRANCH   1   2
ATOM      2  C   UNL     1     -32.029   4.091 -38.443  1.00  0.00     0.000 C 
BRANCH   2   3
ATOM      3  C   UNL     1     -31.399   3.847 -39.825  1.00  0.00     0.000 C 
BRANCH   3   4
ATOM      4  C   UNL     1     -29.871   4.068 -39.853  1.00  0.00     0.000 C 
BRANCH   4   5
ATOM      5  C   UNL     1     -29.491   5.537 -39.611  1.00  0.00     0.000 C 
BRANCH   5   6
ATOM      6  C   UNL     1     -28.651   5.742 -38.337  1.00  0.00     0.006 C 
BRANCH   6   7
ATOM      7  C   UNL     1     -27.811   4.515 -37.941  1.00  0.00     0.053 C 
BRANCH   7   8
ATOM      8  C   UNL     1     -26.700   4.860 -36.997  1.00  0.00     0.041 C 
ATOM      9  O   UNL     1     -25.786   4.027 -36.763  1.00  0.00    -0.550 OA
ATOM     10  O   UNL     1     -26.692   6.088 -36.346  1.00  0.00    -0.550 OA
ENDBRANCH   7   8
ENDBRANCH   6   7
ENDBRANCH   5   6
ENDBRANCH   4   5
ENDBRANCH   3   4
ENDBRANCH   2   3
ENDBRANCH   1   2
BRANCH   1  11
ATOM     11  C   UNL     1     -32.979   1.785 -39.008  1.00  0.00     0.000 C 
BRANCH  11  12
ATOM     12  C   UNL     1     -33.190   0.407 -38.355  1.00  0.00    -0.000 C 
BRANCH  12  13
ATOM     13  C   UNL     1     -32.010  -0.555 -38.610  1.00  0.00    -0.000 C 
BRANCH  13  14
ATOM     14  C   UNL     1     -30.667   0.161 -38.850  1.00  0.00    -0.000 C 
BRANCH  14  15
ATOM     15  C   UNL     1     -29.722   0.195 -37.634  1.00  0.00    -0.000 C 
BRANCH  15  16
ATOM     16  C   UNL     1     -29.375   1.606 -37.116  1.00  0.00    -0.000 C 
BRANCH  16  17
ATOM     17  C   UNL     1     -30.069   2.002 -35.800  1.00  0.00    -0.003 C 
ATOM     18  C   UNL     1     -31.067   0.955 -35.311  1.00  0.00     0.004 C 
ENDBRANCH  16  17
ENDBRANCH  15  16
ENDBRANCH  14  15
ENDBRANCH  13  14
ENDBRANCH  12  13
ENDBRANCH  11  12
ENDBRANCH   1  11
TORSDOF 14
ENDMDL
MODEL 2
REMARK VINA RESULT:    -3.066      2.223      3.933
REMARK INTER + INTRA:          -7.871
REMARK INTER:                  -6.424
REMARK INTRA:                  -1.447
REMARK UNBOUND:                -2.295
REMARK SMILES CCCCCCCCCCCCCCCC(=O)[O-]
REMARK SMILES IDX 9 1 10 2 11 3 12 4 13 5 14 6 15 7 16 8 17 9 18 10 8 11 7 12
REMARK SMILES IDX 6 13 5 14 4 15 3 16 2 17 1 18
REMARK H PARENT
REMARK Flexibility Score: inf
ROOT
ATOM      1  C   UNL     1     -29.982   3.618 -36.672  1.00  0.00     0.000 C 
ENDROOT
BRANCH   1   2
ATOM      2  C   UNL     1     -28.669   3.398 -37.441  1.00  0.00     0.000 C 
BRANCH   2   3
ATOM      3  C   UNL     1     -27.991   4.716 -37.853  1.00  0.00     0.000 C 
BRANCH   3   4
ATOM      4  C   UNL     1     -26.888   5.173 -36.875  1.00  0.00     0.000 C 
BRANCH   4   5
ATOM      5  C   UNL     1     -25.972   4.015 -36.448  1.00  0.00     0.000 C 
BRANCH   5   6
ATOM      6  C   UNL     1     -25.902   3.832 -34.921  1.00  0.00     0.006 C 
BRANCH   6   7
ATOM      7  C   UNL     1     -25.685   5.143 -34.145  1.00  0.00     0.053 C 
BRANCH   7   8
ATOM      8  C   UNL     1     -24.423   5.130 -33.337  1.00  0.00     0.041 C 
ATOM      9  O   UNL     1     -23.446   4.424 -33.700  1.00  0.00    -0.550 OA
ATOM     10  O   UNL     1     -24.338   5.867 -32.162  1.00  0.00    -0.550 OA
ENDBRANCH   7   8
ENDBRANCH   6   7
ENDBRANCH   5   6
ENDBRANCH   4   5
ENDBRANCH   3   4
ENDBRANCH   2   3
ENDBRANCH   1   2
BRANCH   1  11
ATOM     11  C   UNL     1     -31.141   4.034 -37.592  1.00  0.00     0.000 C 
BRANCH  11  12
ATOM     12  C   UNL     1     -31.278   3.116 -38.820  1.00  0.00    -0.000 C 
BRANCH  12  13
ATOM     13  C   UNL     1     -32.736   2.674 -39.068  1.00  0.00    -0.000 C 
BRANCH  13  14
ATOM     14  C   UNL     1     -32.962   1.160 -38.902  1.00  0.00    -0.000 C 
BRANCH  14  15
ATOM     15  C   UNL     1     -32.395   0.557 -37.602  1.00  0.00    -0.000 C 
BRANCH  15  16
ATOM     16  C   UNL     1     -31.294  -0.506 -37.800  1.00  0.00    -0.000 C 
BRANCH  16  17
ATOM     17  C   UNL     1     -30.816  -0.682 -39.252  1.00  0.00    -0.003 C 
ATOM     18  C   UNL     1     -29.451  -0.048 -39.513  1.00  0.00     0.004 C 
ENDBRANCH  16  17
ENDBRANCH  15  16
ENDBRANCH  14  15
ENDBRANCH  13  14
ENDBRANCH  12  13
ENDBRANCH  11  12
ENDBRANCH   1  11
TORSDOF 14
ENDMDL
MODEL 3
REMARK VINA RESULT:    -3.044      5.752      8.375
REMARK INTER + INTRA:          -7.831
REMARK INTER:                  -6.203
REMARK INTRA:                  -1.627
REMARK UNBOUND:                -2.295
REMARK SMILES CCCCCCCCCCCCCCCC(=O)[O-]
REMARK SMILES IDX 9 1 10 2 11 3 12 4 13 5 14 6 15 7 16 8 17 9 18 10 8 11 7 12
REMARK SMILES IDX 6 13 5 14 4 15 3 16 2 17 1 18
REMARK H PARENT
REMARK Flexibility Score: inf
ROOT
ATOM      1  C   UNL     1     -30.477  -0.745 -36.477  1.00  0.00     0.000 C 
ENDROOT
BRANCH   1   2
ATOM      2  C   UNL     1     -30.078  -2.082 -35.830  1.00  0.00     0.000 C 
BRANCH   2   3
ATOM      3  C   UNL     1     -30.954  -2.442 -34.617  1.00  0.00     0.000 C 
BRANCH   3   4
ATOM      4  C   UNL     1     -32.065  -1.408 -34.331  1.00  0.00     0.000 C 
BRANCH   4   5
ATOM      5  C   UNL     1     -33.348  -2.066 -33.796  1.00  0.00     0.000 C 
BRANCH   5   6
ATOM      6  C   UNL     1     -33.238  -3.596 -33.679  1.00  0.00     0.006 C 
BRANCH   6   7
ATOM      7  C   UNL     1     -33.947  -4.179 -32.444  1.00  0.00     0.053 C 
BRANCH   7   8
ATOM      8  C   UNL     1     -34.816  -5.353 -32.782  1.00  0.00     0.041 C 
ATOM      9  O   UNL     1     -35.345  -5.442 -33.921  1.00  0.00    -0.550 OA
ATOM     10  O   UNL     1     -35.075  -6.329 -31.827  1.00  0.00    -0.550 OA
ENDBRANCH   7   8
ENDBRANCH   6   7
ENDBRANCH   5   6
ENDBRANCH   4   5
ENDBRANCH   3   4
ENDBRANCH   2   3
ENDBRANCH   1   2
BRANCH   1  11
ATOM     11  C   UNL     1     -30.036  -0.648 -37.947  1.00  0.00     0.000 C 
BRANCH  11  12
ATOM     12  C   UNL     1     -31.228  -0.629 -38.920  1.00  0.00    -0.000 C 
BRANCH  12  13
ATOM     13  C   UNL     1     -32.525  -0.118 -38.256  1.00  0.00    -0.000 C 
BRANCH  13  14
ATOM     14  C   UNL     1     -33.132   1.115 -38.951  1.00  0.00    -0.000 C 
BRANCH  14  15
ATOM     15  C   UNL     1     -32.910   2.450 -38.215  1.00  0.00    -0.000 C 
BRANCH  15  16
ATOM     16  C   UNL     1     -31.480   3.022 -38.317  1.00  0.00    -0.000 C 
BRANCH  16  17
ATOM     17  C   UNL     1     -30.682   3.015 -37.001  1.00  0.00    -0.003 C 
ATOM     18  C   UNL     1     -31.540   2.671 -35.784  1.00  0.00     0.004 C 
ENDBRANCH  16  17
ENDBRANCH  15  16
ENDBRANCH  14  15
ENDBRANCH  13  14
ENDBRANCH  12  13
ENDBRANCH  11  12
ENDBRANCH   1  11
TORSDOF 14
ENDMDL
MODEL 4
REMARK VINA RESULT:    -2.938      2.015      3.796
REMARK INTER + INTRA:          -7.638
REMARK INTER:                  -5.873
REMARK INTRA:                  -1.765
REMARK UNBOUND:                -2.295
REMARK SMILES CCCCCCCCCCCCCCCC(=O)[O-]
REMARK SMILES IDX 9 1 10 2 11 3 12 4 13 5 14 6 15 7 16 8 17 9 18 10 8 11 7 12
REMARK SMILES IDX 6 13 5 14 4 15 3 16 2 17 1 18
REMARK H PARENT
REMARK Flexibility Score: inf
ROOT
ATOM      1  C   UNL     1     -29.269   2.189 -36.722  1.00  0.00     0.000 C 
ENDROOT
BRANCH   1   2
ATOM      2  C   UNL     1     -29.555   3.691 -36.885  1.00  0.00     0.000 C 
BRANCH   2   3
ATOM      3  C   UNL     1     -28.669   4.355 -37.953  1.00  0.00     0.000 C 
BRANCH   3   4
ATOM      4  C   UNL     1     -27.625   5.330 -37.367  1.00  0.00     0.000 C 
BRANCH   4   5
ATOM      5  C   UNL     1     -26.366   4.602 -36.866  1.00  0.00     0.000 C 
BRANCH   5   6
ATOM      6  C   UNL     1     -26.123   4.786 -35.358  1.00  0.00     0.006 C 
BRANCH   6   7
ATOM      7  C   UNL     1     -25.072   3.825 -34.774  1.00  0.00     0.053 C 
BRANCH   7   8
ATOM      8  C   UNL     1     -24.255   4.457 -33.689  1.00  0.00     0.041 C 
ATOM      9  O   UNL     1     -23.193   3.908 -33.294  1.00  0.00    -0.550 OA
ATOM     10  O   UNL     1     -24.684   5.633 -33.086  1.00  0.00    -0.550 OA
ENDBRANCH   7   8
ENDBRANCH   6   7
ENDBRANCH   5   6
ENDBRANCH   4   5
ENDBRANCH   3   4
ENDBRANCH   2   3
ENDBRANCH   1   2
BRANCH   1  11
ATOM     11  C   UNL     1     -29.247   1.444 -38.066  1.00  0.00     0.000 C 
BRANCH  11  12
ATOM     12  C   UNL     1     -29.828   0.023 -37.964  1.00  0.00    -0.000 C 
BRANCH  12  13
ATOM     13  C   UNL     1     -30.944  -0.236 -38.998  1.00  0.00    -0.000 C 
BRANCH  13  14
ATOM     14  C   UNL     1     -32.365  -0.160 -38.409  1.00  0.00    -0.000 C 
BRANCH  14  15
ATOM     15  C   UNL     1     -33.186   1.068 -38.848  1.00  0.00    -0.000 C 
BRANCH  15  16
ATOM     16  C   UNL     1     -32.918   2.355 -38.040  1.00  0.00    -0.000 C 
BRANCH  16  17
ATOM     17  C   UNL     1     -32.801   3.637 -38.882  1.00  0.00    -0.003 C 
ATOM     18  C   UNL     1     -31.774   3.522 -40.007  1.00  0.00     0.004 C 
ENDBRANCH  16  17
ENDBRANCH  15  16
ENDBRANCH  14  15
ENDBRANCH  13  14
ENDBRANCH  12  13
ENDBRANCH  11  12
ENDBRANCH   1  11
TORSDOF 14
ENDMDL
MODEL 5
REMARK VINA RESULT:    -2.938      1.364      2.960
REMARK INTER + INTRA:          -7.637
REMARK INTER:                  -5.374
REMARK INTRA:                  -2.263
REMARK UNBOUND:                -2.295
REMARK SMILES CCCCCCCCCCCCCCCC(=O)[O-]
REMARK SMILES IDX 9 1 10 2 11 3 12 4 13 5 14 6 15 7 16 8 17 9 18 10 8 11 7 12
REMARK SMILES IDX 6 13 5 14 4 15 3 16 2 17 1 18
REMARK H PARENT
REMARK Flexibility Score: inf
ROOT
ATOM      1  C   UNL     1     -29.849  -0.556 -38.059  1.00  0.00     0.000 C 
ENDROOT
BRANCH   1   2
ATOM      2  C   UNL     1     -28.746   0.464 -38.388  1.00  0.00     0.000 C 
BRANCH   2   3
ATOM      3  C   UNL     1     -28.967   1.824 -37.704  1.00  0.00     0.000 C 
BRANCH   3   4
ATOM      4  C   UNL     1     -28.524   3.026 -38.565  1.00  0.00     0.000 C 
BRANCH   4   5
ATOM      5  C   UNL     1     -28.894   4.372 -37.920  1.00  0.00     0.000 C 
BRANCH   5   6
ATOM      6  C   UNL     1     -27.673   5.271 -37.658  1.00  0.00     0.006 C 
BRANCH   6   7
ATOM      7  C   UNL     1     -26.561   4.589 -36.841  1.00  0.00     0.053 C 
BRANCH   7   8
ATOM      8  C   UNL     1     -26.838   4.606 -35.368  1.00  0.00     0.041 C 
ATOM      9  O   UNL     1     -26.539   5.616 -34.679  1.00  0.00    -0.550 OA
ATOM     10  O   UNL     1     -27.391   3.491 -34.749  1.00  0.00    -0.550 OA
ENDBRANCH   7   8
ENDBRANCH   6   7
ENDBRANCH   5   6
ENDBRANCH   4   5
ENDBRANCH   3   4
ENDBRANCH   2   3
ENDBRANCH   1   2
BRANCH   1  11
ATOM     11  C   UNL     1     -31.060  -0.438 -38.998  1.00  0.00     0.000 C 
BRANCH  11  12
ATOM     12  C   UNL     1     -32.380  -0.223 -38.235  1.00  0.00    -0.000 C 
BRANCH  12  13
ATOM     13  C   UNL     1     -33.188   0.976 -38.778  1.00  0.00    -0.000 C 
BRANCH  13  14
ATOM     14  C   UNL     1     -32.313   2.091 -39.382  1.00  0.00    -0.000 C 
BRANCH  14  15
ATOM     15  C   UNL     1     -32.465   3.470 -38.712  1.00  0.00    -0.000 C 
BRANCH  15  16
ATOM     16  C   UNL     1     -33.013   3.439 -37.270  1.00  0.00    -0.000 C 
BRANCH  16  17
ATOM     17  C   UNL     1     -31.946   3.553 -36.167  1.00  0.00    -0.003 C 
ATOM     18  C   UNL     1     -31.651   2.220 -35.481  1.00  0.00     0.004 C 
ENDBRANCH  16  17
ENDBRANCH  15  16
ENDBRANCH  14  15
ENDBRANCH  13  14
ENDBRANCH  12  13
ENDBRANCH  11  12
ENDBRANCH   1  11
TORSDOF 14
ENDMDL
MODEL 6
REMARK VINA RESULT:    -2.920      2.816      5.287
REMARK INTER + INTRA:          -7.604
REMARK INTER:                  -5.446
REMARK INTRA:                  -2.158
REMARK UNBOUND:                -2.295
REMARK SMILES CCCCCCCCCCCCCCCC(=O)[O-]
REMARK SMILES IDX 9 1 10 2 11 3 12 4 13 5 14 6 15 7 16 8 17 9 18 10 8 11 7 12
REMARK SMILES IDX 6 13 5 14 4 15 3 16 2 17 1 18
REMARK H PARENT
REMARK Flexibility Score: inf
ROOT
ATOM      1  C   UNL     1     -31.701   3.982 -36.570  1.00  0.00     0.000 C 
ENDROOT
BRANCH   1   2
ATOM      2  C   UNL     1     -32.137   2.512 -36.697  1.00  0.00     0.000 C 
BRANCH   2   3
ATOM      3  C   UNL     1     -33.061   2.266 -37.902  1.00  0.00     0.000 C 
BRANCH   3   4
ATOM      4  C   UNL     1     -32.486   1.261 -38.923  1.00  0.00     0.000 C 
BRANCH   4   5
ATOM      5  C   UNL     1     -31.120   0.706 -38.488  1.00  0.00     0.000 C 
BRANCH   5   6
ATOM      6  C   UNL     1     -31.038  -0.829 -38.569  1.00  0.00     0.006 C 
BRANCH   6   7
ATOM      7  C   UNL     1     -30.457  -1.353 -39.894  1.00  0.00     0.053 C 
BRANCH   7   8
ATOM      8  C   UNL     1     -29.107  -1.978 -39.722  1.00  0.00     0.041 C 
ATOM      9  O   UNL     1     -28.933  -3.195 -39.997  1.00  0.00    -0.550 OA
ATOM     10  O   UNL     1     -28.048  -1.229 -39.223  1.00  0.00    -0.550 OA
ENDBRANCH   7   8
ENDBRANCH   6   7
ENDBRANCH   5   6
ENDBRANCH   4   5
ENDBRANCH   3   4
ENDBRANCH   2   3
ENDBRANCH   1   2
BRANCH   1  11
ATOM     11  C   UNL     1     -32.195   4.845 -37.742  1.00  0.00     0.000 C 
BRANCH  11  12
ATOM     12  C   UNL     1     -31.046   5.328 -38.645  1.00  0.00    -0.000 C 
BRANCH  12  13
ATOM     13  C   UNL     1     -30.953   4.529 -39.963  1.00  0.00    -0.000 C 
BRANCH  13  14
ATOM     14  C   UNL     1     -29.662   3.700 -40.096  1.00  0.00    -0.000 C 
BRANCH  14  15
ATOM     15  C   UNL     1     -28.553   4.059 -39.089  1.00  0.00    -0.000 C 
BRANCH  15  16
ATOM     16  C   UNL     1     -28.354   3.043 -37.945  1.00  0.00    -0.000 C 
BRANCH  16  17
ATOM     17  C   UNL     1     -27.735   3.623 -36.661  1.00  0.00    -0.003 C 
ATOM     18  C   UNL     1     -26.865   4.851 -36.919  1.00  0.00     0.004 C 
ENDBRANCH  16  17
ENDBRANCH  15  16
ENDBRANCH  14  15
ENDBRANCH  13  14
ENDBRANCH  12  13
ENDBRANCH  11  12
ENDBRANCH   1  11
TORSDOF 14
ENDMDL
MODEL 7
REMARK VINA RESULT:    -2.914      1.838      3.400
REMARK INTER + INTRA:          -7.595
REMARK INTER:                  -5.322
REMARK INTRA:                  -2.272
REMARK UNBOUND:                -2.295
REMARK SMILES CCCCCCCCCCCCCCCC(=O)[O-]
REMARK SMILES IDX 9 1 10 2 11 3 12 4 13 5 14 6 15 7 16 8 17 9 18 10 8 11 7 12
REMARK SMILES IDX 6 13 5 14 4 15 3 16 2 17 1 18
REMARK H PARENT
REMARK Flexibility Score: inf
ROOT
ATOM      1  C   UNL     1     -29.791   2.348 -35.525  1.00  0.00     0.000 C 
ENDROOT
BRANCH   1   2
ATOM      2  C   UNL     1     -30.224   3.638 -36.241  1.00  0.00     0.000 C 
BRANCH   2   3
ATOM      3  C   UNL     1     -29.234   4.076 -37.334  1.00  0.00     0.000 C 
BRANCH   3   4
ATOM      4  C   UNL     1     -27.844   3.416 -37.205  1.00  0.00     0.000 C 
BRANCH   4   5
ATOM      5  C   UNL     1     -26.709   4.452 -37.167  1.00  0.00     0.000 C 
BRANCH   5   6
ATOM      6  C   UNL     1     -26.770   5.370 -35.933  1.00  0.00     0.006 C 
BRANCH   6   7
ATOM      7  C   UNL     1     -26.703   4.617 -34.593  1.00  0.00     0.053 C 
BRANCH   7   8
ATOM      8  C   UNL     1     -25.314   4.565 -34.032  1.00  0.00     0.041 C 
ATOM      9  O   UNL     1     -24.860   5.537 -33.374  1.00  0.00    -0.550 OA
ATOM     10  O   UNL     1     -24.507   3.458 -34.269  1.00  0.00    -0.550 OA
ENDBRANCH   7   8
ENDBRANCH   6   7
ENDBRANCH   5   6
ENDBRANCH   4   5
ENDBRANCH   3   4
ENDBRANCH   2   3
ENDBRANCH   1   2
BRANCH   1  11
ATOM     11  C   UNL     1     -30.939   1.335 -35.390  1.00  0.00     0.000 C 
BRANCH  11  12
ATOM     12  C   UNL     1     -30.555  -0.064 -35.903  1.00  0.00    -0.000 C 
BRANCH  12  13
ATOM     13  C   UNL     1     -29.448  -0.016 -36.979  1.00  0.00    -0.000 C 
BRANCH  13  14
ATOM     14  C   UNL     1     -29.739  -0.899 -38.207  1.00  0.00    -0.000 C 
BRANCH  14  15
ATOM     15  C   UNL     1     -30.761  -0.313 -39.200  1.00  0.00    -0.000 C 
BRANCH  15  16
ATOM     16  C   UNL     1     -30.756   1.226 -39.311  1.00  0.00    -0.000 C 
BRANCH  16  17
ATOM     17  C   UNL     1     -32.114   1.900 -39.047  1.00  0.00    -0.003 C 
ATOM     18  C   UNL     1     -33.183   0.921 -38.564  1.00  0.00     0.004 C 
ENDBRANCH  16  17
ENDBRANCH  15  16
ENDBRANCH  14  15
ENDBRANCH  13  14
ENDBRANCH  12  13
ENDBRANCH  11  12
ENDBRANCH   1  11
TORSDOF 14
ENDMDL
MODEL 8
REMARK VINA RESULT:    -2.910      7.395      9.730
REMARK INTER + INTRA:          -7.587
REMARK INTER:                  -4.921
REMARK INTRA:                  -2.666
REMARK UNBOUND:                -2.295
REMARK SMILES CCCCCCCCCCCCCCCC(=O)[O-]
REMARK SMILES IDX 9 1 10 2 11 3 12 4 13 5 14 6 15 7 16 8 17 9 18 10 8 11 7 12
REMARK SMILES IDX 6 13 5 14 4 15 3 16 2 17 1 18
REMARK H PARENT
REMARK Flexibility Score: inf
ROOT
ATOM      1  C   UNL     1     -26.493   2.643 -31.732  1.00  0.00     0.000 C 
ENDROOT
BRANCH   1   2
ATOM      2  C   UNL     1     -26.032   2.726 -30.267  1.00  0.00     0.000 C 
BRANCH   2   3
ATOM      3  C   UNL     1     -25.637   4.152 -29.845  1.00  0.00     0.000 C 
BRANCH   3   4
ATOM      4  C   UNL     1     -24.122   4.327 -29.608  1.00  0.00     0.000 C 
BRANCH   4   5
ATOM      5  C   UNL     1     -23.614   5.699 -30.079  1.00  0.00     0.000 C 
BRANCH   5   6
ATOM      6  C   UNL     1     -24.719   6.769 -30.124  1.00  0.00     0.006 C 
BRANCH   6   7
ATOM      7  C   UNL     1     -24.567   7.868 -29.057  1.00  0.00     0.053 C 
BRANCH   7   8
ATOM      8  C   UNL     1     -24.915   7.385 -27.682  1.00  0.00     0.041 C 
ATOM      9  O   UNL     1     -24.032   7.336 -26.786  1.00  0.00    -0.550 OA
ATOM     10  O   UNL     1     -26.205   6.951 -27.399  1.00  0.00    -0.550 OA
ENDBRANCH   7   8
ENDBRANCH   6   7
ENDBRANCH   5   6
ENDBRANCH   4   5
ENDBRANCH   3   4
ENDBRANCH   2   3
ENDBRANCH   1   2
BRANCH   1  11
ATOM     11  C   UNL     1     -26.870   4.017 -32.309  1.00  0.00     0.000 C 
BRANCH  11  12
ATOM     12  C   UNL     1     -26.158   4.314 -33.641  1.00  0.00    -0.000 C 
BRANCH  12  13
ATOM     13  C   UNL     1     -24.809   5.038 -33.441  1.00  0.00    -0.000 C 
BRANCH  13  14
ATOM     14  C   UNL     1     -23.593   4.229 -33.930  1.00  0.00    -0.000 C 
BRANCH  14  15
ATOM     15  C   UNL     1     -23.098   3.144 -32.953  1.00  0.00    -0.000 C 
BRANCH  15  16
ATOM     16  C   UNL     1     -23.391   1.693 -33.386  1.00  0.00    -0.000 C 
BRANCH  16  17
ATOM     17  C   UNL     1     -23.350   0.656 -32.249  1.00  0.00    -0.003 C 
ATOM     18  C   UNL     1     -22.717   1.197 -30.969  1.00  0.00     0.004 C 
ENDBRANCH  16  17
ENDBRANCH  15  16
ENDBRANCH  14  15
ENDBRANCH  13  14
ENDBRANCH  12  13
ENDBRANCH  11  12
ENDBRANCH   1  11
TORSDOF 14
ENDMDL
MODEL 9
REMARK VINA RESULT:    -2.894      3.001      5.019
REMARK INTER + INTRA:          -7.557
REMARK INTER:                  -4.933
REMARK INTRA:                  -2.624
REMARK UNBOUND:                -2.295
REMARK SMILES CCCCCCCCCCCCCCCC(=O)[O-]
REMARK SMILES IDX 9 1 10 2 11 3 12 4 13 5 14 6 15 7 16 8 17 9 18 10 8 11 7 12
REMARK SMILES IDX 6 13 5 14 4 15 3 16 2 17 1 18
REMARK H PARENT
REMARK Flexibility Score: inf
ROOT
ATOM      1  C   UNL     1     -31.377   4.188 -36.731  1.00  0.00     0.000 C 
ENDROOT
BRANCH   1   2
ATOM      2  C   UNL     1     -31.928   2.766 -36.930  1.00  0.00     0.000 C 
BRANCH   2   3
ATOM      3  C   UNL     1     -33.089   2.712 -37.938  1.00  0.00     0.000 C 
BRANCH   3   4
ATOM      4  C   UNL     1     -32.880   1.676 -39.063  1.00  0.00     0.000 C 
BRANCH   4   5
ATOM      5  C   UNL     1     -31.494   1.014 -38.994  1.00  0.00     0.000 C 
BRANCH   5   6
ATOM      6  C   UNL     1     -31.558  -0.490 -38.675  1.00  0.00     0.006 C 
BRANCH   6   7
ATOM      7  C   UNL     1     -30.459  -0.971 -37.712  1.00  0.00     0.053 C 
BRANCH   7   8
ATOM      8  C   UNL     1     -30.950  -1.109 -36.303  1.00  0.00     0.041 C 
ATOM      9  O   UNL     1     -30.261  -1.729 -35.451  1.00  0.00    -0.550 OA
ATOM     10  O   UNL     1     -32.185  -0.586 -35.939  1.00  0.00    -0.550 OA
ENDBRANCH   7   8
ENDBRANCH   6   7
ENDBRANCH   5   6
ENDBRANCH   4   5
ENDBRANCH   3   4
ENDBRANCH   2   3
ENDBRANCH   1   2
BRANCH   1  11
ATOM     11  C   UNL     1     -31.641   5.097 -37.943  1.00  0.00     0.000 C 
BRANCH  11  12
ATOM     12  C   UNL     1     -30.344   5.536 -38.645  1.00  0.00    -0.000 C 
BRANCH  12  13
ATOM     13  C   UNL     1     -30.151   4.848 -40.014  1.00  0.00    -0.000 C 
BRANCH  13  14
ATOM     14  C   UNL     1     -29.180   3.653 -39.976  1.00  0.00    -0.000 C 
BRANCH  14  15
ATOM     15  C   UNL     1     -28.245   3.615 -38.752  1.00  0.00    -0.000 C 
BRANCH  15  16
ATOM     16  C   UNL     1     -28.329   2.328 -37.906  1.00  0.00    -0.000 C 
BRANCH  16  17
ATOM     17  C   UNL     1     -27.894   2.487 -36.438  1.00  0.00    -0.003 C 
ATOM     18  C   UNL     1     -28.731   1.650 -35.472  1.00  0.00     0.004 C 
ENDBRANCH  16  17
ENDBRANCH  15  16
ENDBRANCH  14  15
ENDBRANCH  13  14
ENDBRANCH  12  13
ENDBRANCH  11  12
ENDBRANCH   1  11
TORSDOF 14
ENDMDL
