MODEL 1
REMARK VINA RESULT:    -4.240      0.000      0.000
REMARK INTER + INTRA:          -5.997
REMARK INTER:                  -5.727
REMARK INTRA:                  -0.270
REMARK UNBOUND:                -0.270
REMARK SMILES O=C[C@H](O)[C@H](O)[C@@H](O)CO
REMARK SMILES IDX 7 1 9 2 10 3 5 5 3 6 2 7 1 8 4 9 6 11 8 13
REMARK H PARENT 10 4 4 10 6 12 8 14
REMARK Flexibility Score: inf
ROOT
ATOM      1  C   UNL     1       6.151  22.376  21.221  1.00  0.00     0.171 C 
ENDROOT
BRANCH   1   2
ATOM      2  C   UNL     1       4.820  21.604  21.316  1.00  0.00     0.190 C 
BRANCH   2   3
ATOM      3  O   UNL     1       5.009  20.257  20.977  1.00  0.00    -0.394 OA
ATOM      4  H   UNL     1       4.852  20.180  20.000  1.00  0.00     0.210 HD
ENDBRANCH   2   3
ENDBRANCH   1   2
BRANCH   1   5
ATOM      5  C   UNL     1       6.106  23.564  20.216  1.00  0.00     0.181 C 
BRANCH   5   6
ATOM      6  C   UNL     1       7.219  24.619  20.457  1.00  0.00     0.209 C 
BRANCH   6   7
ATOM      7  C   UNL     1       7.197  25.684  19.391  1.00  0.00     0.258 C 
ATOM      8  O   UNL     1       7.934  26.655  19.467  1.00  0.00    -0.300 OA
ENDBRANCH   6   7
BRANCH   6   9
ATOM      9  O   UNL     1       8.479  24.000  20.448  1.00  0.00    -0.383 OA
ATOM     10  H   UNL     1       8.332  23.047  20.686  1.00  0.00     0.211 HD
ENDBRANCH   6   9
ENDBRANCH   5   6
BRANCH   5  11
ATOM     11  O   UNL     1       4.837  24.171  20.272  1.00  0.00    -0.387 OA
ATOM     12  H   UNL     1       4.496  24.236  19.342  1.00  0.00     0.211 HD
ENDBRANCH   5  11
ENDBRANCH   1   5
BRANCH   1  13
ATOM     13  O   UNL     1       6.529  22.840  22.493  1.00  0.00    -0.388 OA
ATOM     14  H   UNL     1       7.521  22.813  22.538  1.00  0.00     0.211 HD
ENDBRANCH   1  13
TORSDOF 8
ENDMDL
MODEL 2
REMARK VINA RESULT:    -4.124      1.396      4.636
REMARK INTER + INTRA:          -5.841
REMARK INTER:                  -5.344
REMARK INTRA:                  -0.497
REMARK UNBOUND:                -0.270
REMARK SMILES O=C[C@H](O)[C@H](O)[C@@H](O)CO
REMARK SMILES IDX 7 1 9 2 10 3 5 5 3 6 2 7 1 8 4 9 6 11 8 13
REMARK H PARENT 10 4 4 10 6 12 8 14
REMARK Flexibility Score: inf
ROOT
ATOM      1  C   UNL     1       5.907  22.999  20.564  1.00  0.00     0.171 C 
ENDROOT
BRANCH   1   2
ATOM      2  C   UNL     1       7.140  23.813  21.004  1.00  0.00     0.190 C 
BRANCH   2   3
ATOM      3  O   UNL     1       7.849  24.271  19.884  1.00  0.00    -0.394 OA
ATOM      4  H   UNL     1       7.755  25.260  19.868  1.00  0.00     0.210 HD
ENDBRANCH   2   3
ENDBRANCH   1   2
BRANCH   1   5
ATOM      5  C   UNL     1       5.662  21.731  21.433  1.00  0.00     0.181 C 
BRANCH   5   6
ATOM      6  C   UNL     1       4.381  20.947  21.036  1.00  0.00     0.209 C 
BRANCH   6   7
ATOM      7  C   UNL     1       3.302  21.108  22.074  1.00  0.00     0.258 C 
ATOM      8  O   UNL     1       2.697  22.163  22.183  1.00  0.00    -0.300 OA
ENDBRANCH   6   7
BRANCH   6   9
ATOM      9  O   UNL     1       4.676  19.581  20.902  1.00  0.00    -0.383 OA
ATOM     10  H   UNL     1       4.298  19.290  20.031  1.00  0.00     0.211 HD
ENDBRANCH   6   9
ENDBRANCH   5   6
BRANCH   5  11
ATOM     11  O   UNL     1       5.605  22.102  22.790  1.00  0.00    -0.387 OA
ATOM     12  H   UNL     1       4.649  22.104  23.059  1.00  0.00     0.211 HD
ENDBRANCH   5  11
ENDBRANCH   1   5
BRANCH   1  13
ATOM     13  O   UNL     1       4.763  23.816  20.578  1.00  0.00    -0.388 OA
ATOM     14  H   UNL     1       5.012  24.686  20.169  1.00  0.00     0.211 HD
ENDBRANCH   1  13
TORSDOF 8
ENDMDL
MODEL 3
REMARK VINA RESULT:    -4.090      6.049      7.506
REMARK INTER + INTRA:          -5.795
REMARK INTER:                  -5.488
REMARK INTRA:                  -0.307
REMARK UNBOUND:                -0.270
REMARK SMILES O=C[C@H](O)[C@H](O)[C@@H](O)CO
REMARK SMILES IDX 7 1 9 2 10 3 5 5 3 6 2 7 1 8 4 9 6 11 8 13
REMARK H PARENT 10 4 4 10 6 12 8 14
REMARK Flexibility Score: inf
ROOT
ATOM      1  C   UNL     1       1.677  19.259  21.016  1.00  0.00     0.171 C 
ENDROOT
BRANCH   1   2
ATOM      2  C   UNL     1       0.506  19.840  20.199  1.00  0.00     0.190 C 
BRANCH   2   3
ATOM      3  O   UNL     1      -0.328  18.811  19.739  1.00  0.00    -0.394 OA
ATOM      4  H   UNL     1      -1.161  18.852  20.278  1.00  0.00     0.210 HD
ENDBRANCH   2   3
ENDBRANCH   1   2
BRANCH   1   5
ATOM      5  C   UNL     1       2.861  18.765  20.134  1.00  0.00     0.181 C 
BRANCH   5   6
ATOM      6  C   UNL     1       2.723  17.285  19.686  1.00  0.00     0.209 C 
BRANCH   6   7
ATOM      7  C   UNL     1       3.622  16.387  20.495  1.00  0.00     0.258 C 
ATOM      8  O   UNL     1       3.406  16.197  21.682  1.00  0.00    -0.300 OA
ENDBRANCH   6   7
BRANCH   6   9
ATOM      9  O   UNL     1       3.064  17.159  18.330  1.00  0.00    -0.383 OA
ATOM     10  H   UNL     1       4.050  17.046  18.291  1.00  0.00     0.211 HD
ENDBRANCH   6   9
ENDBRANCH   5   6
BRANCH   5  11
ATOM     11  O   UNL     1       4.069  18.953  20.831  1.00  0.00    -0.387 OA
ATOM     12  H   UNL     1       4.406  19.860  20.607  1.00  0.00     0.211 HD
ENDBRANCH   5  11
ENDBRANCH   1   5
BRANCH   1  13
ATOM     13  O   UNL     1       2.137  20.212  21.942  1.00  0.00    -0.388 OA
ATOM     14  H   UNL     1       1.887  21.109  21.596  1.00  0.00     0.211 HD
ENDBRANCH   1  13
TORSDOF 8
ENDMDL
MODEL 4
REMARK VINA RESULT:    -4.050     11.109     13.228
REMARK INTER + INTRA:          -5.741
REMARK INTER:                  -5.346
REMARK INTRA:                  -0.395
REMARK UNBOUND:                -0.270
REMARK SMILES O=C[C@H](O)[C@H](O)[C@@H](O)CO
REMARK SMILES IDX 7 1 9 2 10 3 5 5 3 6 2 7 1 8 4 9 6 11 8 13
REMARK H PARENT 10 4 4 10 6 12 8 14
REMARK Flexibility Score: inf
ROOT
ATOM      1  C   UNL     1      -1.345  14.647  19.156  1.00  0.00     0.171 C 
ENDROOT
BRANCH   1   2
ATOM      2  C   UNL     1      -2.056  15.828  19.845  1.00  0.00     0.190 C 
BRANCH   2   3
ATOM      3  O   UNL     1      -1.266  16.985  19.774  1.00  0.00    -0.394 OA
ATOM      4  H   UNL     1      -0.351  16.727  20.064  1.00  0.00     0.210 HD
ENDBRANCH   2   3
ENDBRANCH   1   2
BRANCH   1   5
ATOM      5  C   UNL     1      -1.941  14.295  17.762  1.00  0.00     0.181 C 
BRANCH   5   6
ATOM      6  C   UNL     1      -3.258  15.054  17.443  1.00  0.00     0.209 C 
BRANCH   6   7
ATOM      7  C   UNL     1      -4.455  14.154  17.602  1.00  0.00     0.258 C 
ATOM      8  O   UNL     1      -4.736  13.678  18.691  1.00  0.00    -0.300 OA
ENDBRANCH   6   7
BRANCH   6   9
ATOM      9  O   UNL     1      -3.228  15.535  16.125  1.00  0.00    -0.383 OA
ATOM     10  H   UNL     1      -3.844  14.963  15.596  1.00  0.00     0.211 HD
ENDBRANCH   6   9
ENDBRANCH   5   6
BRANCH   5  11
ATOM     11  O   UNL     1      -2.149  12.904  17.684  1.00  0.00    -0.387 OA
ATOM     12  H   UNL     1      -2.354  12.685  16.738  1.00  0.00     0.211 HD
ENDBRANCH   5  11
ENDBRANCH   1   5
BRANCH   1  13
ATOM     13  O   UNL     1       0.029  14.920  19.032  1.00  0.00    -0.388 OA
ATOM     14  H   UNL     1       0.119  15.831  18.646  1.00  0.00     0.211 HD
ENDBRANCH   1  13
TORSDOF 8
ENDMDL
MODEL 5
REMARK VINA RESULT:    -3.983     11.579     13.210
REMARK INTER + INTRA:          -5.650
REMARK INTER:                  -5.037
REMARK INTRA:                  -0.613
REMARK UNBOUND:                -0.270
REMARK SMILES O=C[C@H](O)[C@H](O)[C@@H](O)CO
REMARK SMILES IDX 7 1 9 2 10 3 5 5 3 6 2 7 1 8 4 9 6 11 8 13
REMARK H PARENT 10 4 4 10 6 12 8 14
REMARK Flexibility Score: inf
ROOT
ATOM      1  C   UNL     1      -1.027  14.502  18.556  1.00  0.00     0.171 C 
ENDROOT
BRANCH   1   2
ATOM      2  C   UNL     1      -1.071  12.965  18.670  1.00  0.00     0.190 C 
BRANCH   2   3
ATOM      3  O   UNL     1      -1.600  12.402  17.499  1.00  0.00    -0.394 OA
ATOM      4  H   UNL     1      -1.666  13.134  16.832  1.00  0.00     0.210 HD
ENDBRANCH   2   3
ENDBRANCH   1   2
BRANCH   1   5
ATOM      5  C   UNL     1      -2.317  15.198  19.080  1.00  0.00     0.181 C 
BRANCH   5   6
ATOM      6  C   UNL     1      -3.412  15.369  17.993  1.00  0.00     0.209 C 
BRANCH   6   7
ATOM      7  C   UNL     1      -4.545  14.399  18.206  1.00  0.00     0.258 C 
ATOM      8  O   UNL     1      -4.476  13.259  17.776  1.00  0.00    -0.300 OA
ENDBRANCH   6   7
BRANCH   6   9
ATOM      9  O   UNL     1      -2.864  15.149  16.720  1.00  0.00    -0.383 OA
ATOM     10  H   UNL     1      -2.852  14.166  16.578  1.00  0.00     0.211 HD
ENDBRANCH   6   9
ENDBRANCH   5   6
BRANCH   5  11
ATOM     11  O   UNL     1      -1.978  16.447  19.633  1.00  0.00    -0.387 OA
ATOM     12  H   UNL     1      -2.809  16.989  19.678  1.00  0.00     0.211 HD
ENDBRANCH   5  11
ENDBRANCH   1   5
BRANCH   1  13
ATOM     13  O   UNL     1       0.096  15.002  19.237  1.00  0.00    -0.388 OA
ATOM     14  H   UNL     1       0.424  15.793  18.733  1.00  0.00     0.211 HD
ENDBRANCH   1  13
TORSDOF 8
ENDMDL
MODEL 6
REMARK VINA RESULT:    -3.899      6.793      7.942
REMARK INTER + INTRA:          -5.536
REMARK INTER:                  -4.595
REMARK INTRA:                  -0.941
REMARK UNBOUND:                -0.270
REMARK SMILES O=C[C@H](O)[C@H](O)[C@@H](O)CO
REMARK SMILES IDX 7 1 9 2 10 3 5 5 3 6 2 7 1 8 4 9 6 11 8 13
REMARK H PARENT 10 4 4 10 6 12 8 14
REMARK Flexibility Score: inf
ROOT
ATOM      1  C   UNL     1       2.217  19.078  20.009  1.00  0.00     0.171 C 
ENDROOT
BRANCH   1   2
ATOM      2  C   UNL     1       0.735  19.484  20.137  1.00  0.00     0.190 C 
BRANCH   2   3
ATOM      3  O   UNL     1      -0.089  18.349  20.101  1.00  0.00    -0.394 OA
ATOM      4  H   UNL     1       0.351  17.656  20.660  1.00  0.00     0.210 HD
ENDBRANCH   2   3
ENDBRANCH   1   2
BRANCH   1   5
ATOM      5  C   UNL     1       2.852  18.625  21.356  1.00  0.00     0.181 C 
BRANCH   5   6
ATOM      6  C   UNL     1       3.321  17.144  21.350  1.00  0.00     0.209 C 
BRANCH   6   7
ATOM      7  C   UNL     1       2.252  16.234  21.894  1.00  0.00     0.258 C 
ATOM      8  O   UNL     1       1.199  16.083  21.294  1.00  0.00    -0.300 OA
ENDBRANCH   6   7
BRANCH   6   9
ATOM      9  O   UNL     1       4.475  17.003  22.137  1.00  0.00    -0.383 OA
ATOM     10  H   UNL     1       4.476  16.072  22.481  1.00  0.00     0.211 HD
ENDBRANCH   6   9
ENDBRANCH   5   6
BRANCH   5  11
ATOM     11  O   UNL     1       1.932  18.841  22.399  1.00  0.00    -0.387 OA
ATOM     12  H   UNL     1       1.896  18.010  22.942  1.00  0.00     0.211 HD
ENDBRANCH   5  11
ENDBRANCH   1   5
BRANCH   1  13
ATOM     13  O   UNL     1       2.354  18.060  19.049  1.00  0.00    -0.388 OA
ATOM     14  H   UNL     1       1.724  18.262  18.308  1.00  0.00     0.211 HD
ENDBRANCH   1  13
TORSDOF 8
ENDMDL
MODEL 7
REMARK VINA RESULT:    -3.893      5.706      7.477
REMARK INTER + INTRA:          -5.529
REMARK INTER:                  -5.015
REMARK INTRA:                  -0.514
REMARK UNBOUND:                -0.270
REMARK SMILES O=C[C@H](O)[C@H](O)[C@@H](O)CO
REMARK SMILES IDX 7 1 9 2 10 3 5 5 3 6 2 7 1 8 4 9 6 11 8 13
REMARK H PARENT 10 4 4 10 6 12 8 14
REMARK Flexibility Score: inf
ROOT
ATOM      1  C   UNL     1       2.525  16.499  20.465  1.00  0.00     0.171 C 
ENDROOT
BRANCH   1   2
ATOM      2  C   UNL     1       3.689  15.651  21.016  1.00  0.00     0.190 C 
BRANCH   2   3
ATOM      3  O   UNL     1       4.673  16.477  21.580  1.00  0.00    -0.394 OA
ATOM      4  H   UNL     1       4.431  17.412  21.348  1.00  0.00     0.210 HD
ENDBRANCH   2   3
ENDBRANCH   1   2
BRANCH   1   5
ATOM      5  C   UNL     1       2.992  17.663  19.542  1.00  0.00     0.181 C 
BRANCH   5   6
ATOM      6  C   UNL     1       2.238  18.996  19.799  1.00  0.00     0.209 C 
BRANCH   6   7
ATOM      7  C   UNL     1       2.665  19.619  21.102  1.00  0.00     0.258 C 
ATOM      8  O   UNL     1       3.807  19.483  21.512  1.00  0.00    -0.300 OA
ENDBRANCH   6   7
BRANCH   6   9
ATOM      9  O   UNL     1       0.854  18.764  19.843  1.00  0.00    -0.383 OA
ATOM     10  H   UNL     1       0.726  17.864  20.241  1.00  0.00     0.211 HD
ENDBRANCH   6   9
ENDBRANCH   5   6
BRANCH   5  11
ATOM     11  O   UNL     1       2.851  17.274  18.197  1.00  0.00    -0.387 OA
ATOM     12  H   UNL     1       2.593  18.080  17.678  1.00  0.00     0.211 HD
ENDBRANCH   5  11
ENDBRANCH   1   5
BRANCH   1  13
ATOM     13  O   UNL     1       1.617  15.678  19.774  1.00  0.00    -0.388 OA
ATOM     14  H   UNL     1       0.914  15.402  20.419  1.00  0.00     0.211 HD
ENDBRANCH   1  13
TORSDOF 8
ENDMDL
MODEL 8
REMARK VINA RESULT:    -3.852      6.050      8.078
REMARK INTER + INTRA:          -5.474
REMARK INTER:                  -4.738
REMARK INTRA:                  -0.736
REMARK UNBOUND:                -0.270
REMARK SMILES O=C[C@H](O)[C@H](O)[C@@H](O)CO
REMARK SMILES IDX 7 1 9 2 10 3 5 5 3 6 2 7 1 8 4 9 6 11 8 13
REMARK H PARENT 10 4 4 10 6 12 8 14
REMARK Flexibility Score: inf
ROOT
ATOM      1  C   UNL     1       1.009  16.458  20.834  1.00  0.00     0.171 C 
ENDROOT
BRANCH   1   2
ATOM      2  C   UNL     1       0.253  15.176  20.430  1.00  0.00     0.190 C 
BRANCH   2   3
ATOM      3  O   UNL     1       0.212  15.051  19.034  1.00  0.00    -0.394 OA
ATOM      4  H   UNL     1      -0.275  15.845  18.688  1.00  0.00     0.210 HD
ENDBRANCH   2   3
ENDBRANCH   1   2
BRANCH   1   5
ATOM      5  C   UNL     1       2.507  16.451  20.410  1.00  0.00     0.181 C 
BRANCH   5   6
ATOM      6  C   UNL     1       3.407  17.345  21.306  1.00  0.00     0.209 C 
BRANCH   6   7
ATOM      7  C   UNL     1       3.698  18.664  20.639  1.00  0.00     0.258 C 
ATOM      8  O   UNL     1       2.794  19.447  20.389  1.00  0.00    -0.300 OA
ENDBRANCH   6   7
BRANCH   6   9
ATOM      9  O   UNL     1       4.623  16.694  21.566  1.00  0.00    -0.383 OA
ATOM     10  H   UNL     1       5.205  17.349  22.034  1.00  0.00     0.211 HD
ENDBRANCH   6   9
ENDBRANCH   5   6
BRANCH   5  11
ATOM     11  O   UNL     1       2.609  16.851  19.063  1.00  0.00    -0.387 OA
ATOM     12  H   UNL     1       2.681  17.841  19.050  1.00  0.00     0.211 HD
ENDBRANCH   5  11
ENDBRANCH   1   5
BRANCH   1  13
ATOM     13  O   UNL     1       0.365  17.585  20.294  1.00  0.00    -0.388 OA
ATOM     14  H   UNL     1       0.899  18.384  20.547  1.00  0.00     0.211 HD
ENDBRANCH   1  13
TORSDOF 8
ENDMDL
MODEL 9
REMARK VINA RESULT:    -3.848      6.784      7.363
REMARK INTER + INTRA:          -5.467
REMARK INTER:                  -4.739
REMARK INTRA:                  -0.729
REMARK UNBOUND:                -0.270
REMARK SMILES O=C[C@H](O)[C@H](O)[C@@H](O)CO
REMARK SMILES IDX 7 1 9 2 10 3 5 5 3 6 2 7 1 8 4 9 6 11 8 13
REMARK H PARENT 10 4 4 10 6 12 8 14
REMARK Flexibility Score: inf
ROOT
ATOM      1  C   UNL     1       3.372  16.969  20.598  1.00  0.00     0.171 C 
ENDROOT
BRANCH   1   2
ATOM      2  C   UNL     1       2.288  15.903  20.852  1.00  0.00     0.190 C 
BRANCH   2   3
ATOM      3  O   UNL     1       1.466  15.762  19.724  1.00  0.00    -0.394 OA
ATOM      4  H   UNL     1       0.707  16.393  19.840  1.00  0.00     0.210 HD
ENDBRANCH   2   3
ENDBRANCH   1   2
BRANCH   1   5
ATOM      5  C   UNL     1       2.792  18.383  20.300  1.00  0.00     0.181 C 
BRANCH   5   6
ATOM      6  C   UNL     1       1.672  18.811  21.287  1.00  0.00     0.209 C 
BRANCH   6   7
ATOM      7  C   UNL     1       0.925  20.013  20.772  1.00  0.00     0.258 C 
ATOM      8  O   UNL     1       0.105  19.897  19.874  1.00  0.00    -0.300 OA
ENDBRANCH   6   7
BRANCH   6   9
ATOM      9  O   UNL     1       2.229  19.129  22.536  1.00  0.00    -0.383 OA
ATOM     10  H   UNL     1       2.283  20.120  22.583  1.00  0.00     0.211 HD
ENDBRANCH   6   9
ENDBRANCH   5   6
BRANCH   5  11
ATOM     11  O   UNL     1       2.315  18.419  18.976  1.00  0.00    -0.387 OA
ATOM     12  H   UNL     1       2.701  19.224  18.542  1.00  0.00     0.211 HD
ENDBRANCH   5  11
ENDBRANCH   1   5
BRANCH   1  13
ATOM     13  O   UNL     1       4.248  17.034  21.695  1.00  0.00    -0.388 OA
ATOM     14  H   UNL     1       5.044  17.557  21.412  1.00  0.00     0.211 HD
ENDBRANCH   1  13
TORSDOF 8
ENDMDL
