MODEL 1
REMARK VINA RESULT:    -4.420      0.000      0.000
REMARK INTER + INTRA:         -10.018
REMARK INTER:                  -7.779
REMARK INTRA:                  -2.239
REMARK UNBOUND:                -2.239
REMARK SMILES CCCCCCC=CCCCCCCCC(=O)[O-]
REMARK SMILES IDX 10 1 11 2 12 3 13 4 14 5 15 6 16 7 17 8 18 9 9 10 8 11 7 12
REMARK SMILES IDX 6 13 5 14 4 15 3 16 2 17 1 18
REMARK H PARENT
REMARK Flexibility Score: inf
ROOT
ATOM      1  C   UNL     1      -7.470  26.142  23.976  1.00  0.00     0.004 C 
ENDROOT
BRANCH   1   2
ATOM      2  C   UNL     1      -8.481  25.197  24.634  1.00  0.00     0.000 C 
BRANCH   2   3
ATOM      3  C   UNL     1      -9.615  25.985  25.309  1.00  0.00     0.000 C 
BRANCH   3   4
ATOM      4  C   UNL     1     -10.859  26.108  24.404  1.00  0.00     0.000 C 
BRANCH   4   5
ATOM      5  C   UNL     1     -11.051  27.514  23.809  1.00  0.00     0.006 C 
BRANCH   5   6
ATOM      6  C   UNL     1     -10.237  28.588  24.539  1.00  0.00     0.053 C 
BRANCH   6   7
ATOM      7  C   UNL     1      -9.390  29.350  23.571  1.00  0.00     0.041 C 
ATOM      8  O   UNL     1      -8.564  30.205  23.987  1.00  0.00    -0.550 OA
ATOM      9  O   UNL     1      -9.475  29.081  22.211  1.00  0.00    -0.550 OA
ENDBRANCH   6   7
ENDBRANCH   5   6
ENDBRANCH   4   5
ENDBRANCH   3   4
ENDBRANCH   2   3
ENDBRANCH   1   2
BRANCH   1  10
ATOM     10  C   UNL     1      -7.222  25.752  22.513  1.00  0.00     0.027 C 
BRANCH  10  11
ATOM     11  C   UNL     1      -8.482  25.861  21.701  1.00  0.00    -0.031 C 
ATOM     12  C   UNL     1      -8.506  25.544  20.397  1.00  0.00    -0.031 C 
BRANCH  12  13
ATOM     13  C   UNL     1      -9.763  25.670  19.580  1.00  0.00     0.027 C 
BRANCH  13  14
ATOM     14  C   UNL     1     -10.829  24.670  20.052  1.00  0.00     0.004 C 
BRANCH  14  15
ATOM     15  C   UNL     1     -10.545  23.237  19.577  1.00  0.00     0.000 C 
BRANCH  15  16
ATOM     16  C   UNL     1     -10.754  22.195  20.687  1.00  0.00    -0.000 C 
BRANCH  16  17
ATOM     17  C   UNL     1     -10.278  22.734  22.041  1.00  0.00    -0.003 C 
ATOM     18  C   UNL     1      -8.871  22.244  22.366  1.00  0.00     0.004 C 
ENDBRANCH  16  17
ENDBRANCH  15  16
ENDBRANCH  14  15
ENDBRANCH  13  14
ENDBRANCH  12  13
ENDBRANCH  10  11
ENDBRANCH   1  10
TORSDOF 13
ENDMDL
MODEL 2
REMARK VINA RESULT:    -4.173      2.481      5.743
REMARK INTER + INTRA:          -9.583
REMARK INTER:                  -7.709
REMARK INTRA:                  -1.874
REMARK UNBOUND:                -2.239
REMARK SMILES CCCCCCC=CCCCCCCCC(=O)[O-]
REMARK SMILES IDX 10 1 11 2 12 3 13 4 14 5 15 6 16 7 17 8 18 9 9 10 8 11 7 12
REMARK SMILES IDX 6 13 5 14 4 15 3 16 2 17 1 18
REMARK H PARENT
REMARK Flexibility Score: inf
ROOT
ATOM      1  C   UNL     1      -7.803  24.801  21.763  1.00  0.00     0.004 C 
ENDROOT
BRANCH   1   2
ATOM      2  C   UNL     1      -9.027  24.058  22.312  1.00  0.00     0.000 C 
BRANCH   2   3
ATOM      3  C   UNL     1      -8.837  22.536  22.216  1.00  0.00     0.000 C 
BRANCH   3   4
ATOM      4  C   UNL     1      -9.996  21.851  21.463  1.00  0.00     0.000 C 
BRANCH   4   5
ATOM      5  C   UNL     1     -10.941  22.838  20.756  1.00  0.00     0.006 C 
BRANCH   5   6
ATOM      6  C   UNL     1     -10.733  22.883  19.238  1.00  0.00     0.053 C 
BRANCH   6   7
ATOM      7  C   UNL     1     -10.250  24.234  18.817  1.00  0.00     0.041 C 
ATOM      8  O   UNL     1     -11.019  25.230  18.879  1.00  0.00    -0.550 OA
ATOM      9  O   UNL     1      -8.936  24.404  18.401  1.00  0.00    -0.550 OA
ENDBRANCH   6   7
ENDBRANCH   5   6
ENDBRANCH   4   5
ENDBRANCH   3   4
ENDBRANCH   2   3
ENDBRANCH   1   2
BRANCH   1  10
ATOM     10  C   UNL     1      -7.233  25.769  22.807  1.00  0.00     0.027 C 
BRANCH  10  11
ATOM     11  C   UNL     1      -8.147  25.890  23.994  1.00  0.00    -0.031 C 
ATOM     12  C   UNL     1      -8.160  26.991  24.761  1.00  0.00    -0.031 C 
BRANCH  12  13
ATOM     13  C   UNL     1      -9.062  27.105  25.958  1.00  0.00     0.027 C 
BRANCH  13  14
ATOM     14  C   UNL     1     -10.240  28.050  25.673  1.00  0.00     0.004 C 
BRANCH  14  15
ATOM     15  C   UNL     1      -9.896  29.124  24.630  1.00  0.00     0.000 C 
BRANCH  15  16
ATOM     16  C   UNL     1     -10.939  29.210  23.505  1.00  0.00    -0.000 C 
BRANCH  16  17
ATOM     17  C   UNL     1     -10.388  28.623  22.201  1.00  0.00    -0.003 C 
ATOM     18  C   UNL     1     -10.936  27.222  21.951  1.00  0.00     0.004 C 
ENDBRANCH  16  17
ENDBRANCH  15  16
ENDBRANCH  14  15
ENDBRANCH  13  14
ENDBRANCH  12  13
ENDBRANCH  10  11
ENDBRANCH   1  10
TORSDOF 13
ENDMDL
MODEL 3
REMARK VINA RESULT:    -4.076      1.263      2.449
REMARK INTER + INTRA:          -9.412
REMARK INTER:                  -8.088
REMARK INTRA:                  -1.324
REMARK UNBOUND:                -2.239
REMARK SMILES CCCCCCC=CCCCCCCCC(=O)[O-]
REMARK SMILES IDX 10 1 11 2 12 3 13 4 14 5 15 6 16 7 17 8 18 9 9 10 8 11 7 12
REMARK SMILES IDX 6 13 5 14 4 15 3 16 2 17 1 18
REMARK H PARENT
REMARK Flexibility Score: inf
ROOT
ATOM      1  C   UNL     1      -7.379  25.986  23.404  1.00  0.00     0.004 C 
ENDROOT
BRANCH   1   2
ATOM      2  C   UNL     1      -8.626  25.960  24.295  1.00  0.00     0.000 C 
BRANCH   2   3
ATOM      3  C   UNL     1      -8.589  27.095  25.330  1.00  0.00     0.000 C 
BRANCH   3   4
ATOM      4  C   UNL     1     -10.002  27.592  25.702  1.00  0.00     0.000 C 
BRANCH   4   5
ATOM      5  C   UNL     1     -10.424  28.866  24.949  1.00  0.00     0.006 C 
BRANCH   5   6
ATOM      6  C   UNL     1     -11.016  28.573  23.565  1.00  0.00     0.053 C 
BRANCH   6   7
ATOM      7  C   UNL     1     -10.131  29.123  22.493  1.00  0.00     0.041 C 
ATOM      8  O   UNL     1      -8.912  29.342  22.726  1.00  0.00    -0.550 OA
ATOM      9  O   UNL     1     -10.639  29.349  21.220  1.00  0.00    -0.550 OA
ENDBRANCH   6   7
ENDBRANCH   5   6
ENDBRANCH   4   5
ENDBRANCH   3   4
ENDBRANCH   2   3
ENDBRANCH   1   2
BRANCH   1  10
ATOM     10  C   UNL     1      -7.703  25.499  21.987  1.00  0.00     0.027 C 
BRANCH  10  11
ATOM     11  C   UNL     1      -8.737  24.407  22.011  1.00  0.00    -0.031 C 
ATOM     12  C   UNL     1      -8.388  23.112  22.071  1.00  0.00    -0.031 C 
BRANCH  12  13
ATOM     13  C   UNL     1      -9.422  22.019  22.077  1.00  0.00     0.027 C 
BRANCH  13  14
ATOM     14  C   UNL     1     -10.642  22.410  21.228  1.00  0.00     0.004 C 
BRANCH  14  15
ATOM     15  C   UNL     1     -10.734  21.606  19.922  1.00  0.00     0.000 C 
BRANCH  15  16
ATOM     16  C   UNL     1     -11.052  22.490  18.706  1.00  0.00    -0.000 C 
BRANCH  16  17
ATOM     17  C   UNL     1     -10.233  23.786  18.742  1.00  0.00    -0.003 C 
ATOM     18  C   UNL     1     -10.756  24.797  17.726  1.00  0.00     0.004 C 
ENDBRANCH  16  17
ENDBRANCH  15  16
ENDBRANCH  14  15
ENDBRANCH  13  14
ENDBRANCH  12  13
ENDBRANCH  10  11
ENDBRANCH   1  10
TORSDOF 13
ENDMDL
MODEL 4
REMARK VINA RESULT:    -3.785      2.953      6.510
REMARK INTER + INTRA:          -8.901
REMARK INTER:                  -7.344
REMARK INTRA:                  -1.556
REMARK UNBOUND:                -2.239
REMARK SMILES CCCCCCC=CCCCCCCCC(=O)[O-]
REMARK SMILES IDX 10 1 11 2 12 3 13 4 14 5 15 6 16 7 17 8 18 9 9 10 8 11 7 12
REMARK SMILES IDX 6 13 5 14 4 15 3 16 2 17 1 18
REMARK H PARENT
REMARK Flexibility Score: inf
ROOT
ATOM      1  C   UNL     1      -7.788  25.993  22.453  1.00  0.00     0.004 C 
ENDROOT
BRANCH   1   2
ATOM      2  C   UNL     1      -9.156  25.312  22.324  1.00  0.00     0.000 C 
BRANCH   2   3
ATOM      3  C   UNL     1      -9.797  25.614  20.961  1.00  0.00     0.000 C 
BRANCH   3   4
ATOM      4  C   UNL     1      -8.960  25.061  19.788  1.00  0.00     0.000 C 
BRANCH   4   5
ATOM      5  C   UNL     1      -9.710  24.026  18.931  1.00  0.00     0.006 C 
BRANCH   5   6
ATOM      6  C   UNL     1     -10.950  23.458  19.630  1.00  0.00     0.053 C 
BRANCH   6   7
ATOM      7  C   UNL     1     -10.655  22.108  20.201  1.00  0.00     0.041 C 
ATOM      8  O   UNL     1     -10.993  21.067  19.576  1.00  0.00    -0.550 OA
ATOM      9  O   UNL     1      -9.963  21.996  21.400  1.00  0.00    -0.550 OA
ENDBRANCH   6   7
ENDBRANCH   5   6
ENDBRANCH   4   5
ENDBRANCH   3   4
ENDBRANCH   2   3
ENDBRANCH   1   2
BRANCH   1  10
ATOM     10  C   UNL     1      -7.305  25.987  23.908  1.00  0.00     0.027 C 
BRANCH  10  11
ATOM     11  C   UNL     1      -8.460  25.878  24.864  1.00  0.00    -0.031 C 
ATOM     12  C   UNL     1      -8.821  26.905  25.649  1.00  0.00    -0.031 C 
BRANCH  12  13
ATOM     13  C   UNL     1      -9.966  26.789  26.618  1.00  0.00     0.027 C 
BRANCH  13  14
ATOM     14  C   UNL     1     -10.853  28.043  26.575  1.00  0.00     0.004 C 
BRANCH  14  15
ATOM     15  C   UNL     1     -11.033  28.591  25.151  1.00  0.00     0.000 C 
BRANCH  15  16
ATOM     16  C   UNL     1     -10.579  30.053  25.019  1.00  0.00    -0.000 C 
BRANCH  16  17
ATOM     17  C   UNL     1      -9.394  30.174  24.054  1.00  0.00    -0.003 C 
ATOM     18  C   UNL     1      -9.493  29.150  22.927  1.00  0.00     0.004 C 
ENDBRANCH  16  17
ENDBRANCH  15  16
ENDBRANCH  14  15
ENDBRANCH  13  14
ENDBRANCH  12  13
ENDBRANCH  10  11
ENDBRANCH   1  10
TORSDOF 13
ENDMDL
MODEL 5
REMARK VINA RESULT:    -3.754      2.444      5.814
REMARK INTER + INTRA:          -8.847
REMARK INTER:                  -7.286
REMARK INTRA:                  -1.561
REMARK UNBOUND:                -2.239
REMARK SMILES CCCCCCC=CCCCCCCCC(=O)[O-]
REMARK SMILES IDX 10 1 11 2 12 3 13 4 14 5 15 6 16 7 17 8 18 9 9 10 8 11 7 12
REMARK SMILES IDX 6 13 5 14 4 15 3 16 2 17 1 18
REMARK H PARENT
REMARK Flexibility Score: inf
ROOT
ATOM      1  C   UNL     1      -9.399  25.841  19.491  1.00  0.00     0.004 C 
ENDROOT
BRANCH   1   2
ATOM      2  C   UNL     1      -9.703  24.526  18.763  1.00  0.00     0.000 C 
BRANCH   2   3
ATOM      3  C   UNL     1     -11.005  23.897  19.281  1.00  0.00     0.000 C 
BRANCH   3   4
ATOM      4  C   UNL     1     -10.860  22.382  19.537  1.00  0.00     0.000 C 
BRANCH   4   5
ATOM      5  C   UNL     1     -11.016  21.990  21.017  1.00  0.00     0.006 C 
BRANCH   5   6
ATOM      6  C   UNL     1     -10.451  23.043  21.977  1.00  0.00     0.053 C 
BRANCH   6   7
ATOM      7  C   UNL     1      -8.985  22.832  22.179  1.00  0.00     0.041 C 
ATOM      8  O   UNL     1      -8.167  23.746  21.889  1.00  0.00    -0.550 OA
ATOM      9  O   UNL     1      -8.522  21.645  22.732  1.00  0.00    -0.550 OA
ENDBRANCH   6   7
ENDBRANCH   5   6
ENDBRANCH   4   5
ENDBRANCH   3   4
ENDBRANCH   2   3
ENDBRANCH   1   2
BRANCH   1  10
ATOM     10  C   UNL     1     -10.591  26.285  20.348  1.00  0.00     0.027 C 
BRANCH  10  11
ATOM     11  C   UNL     1     -10.366  27.655  20.923  1.00  0.00    -0.031 C 
ATOM     12  C   UNL     1      -9.997  27.828  22.202  1.00  0.00    -0.031 C 
BRANCH  12  13
ATOM     13  C   UNL     1      -9.790  29.200  22.783  1.00  0.00     0.027 C 
BRANCH  13  14
ATOM     14  C   UNL     1      -9.177  29.116  24.189  1.00  0.00     0.004 C 
BRANCH  14  15
ATOM     15  C   UNL     1      -9.844  28.041  25.061  1.00  0.00     0.000 C 
BRANCH  15  16
ATOM     16  C   UNL     1      -8.825  27.089  25.707  1.00  0.00    -0.000 C 
BRANCH  16  17
ATOM     17  C   UNL     1      -8.506  25.914  24.776  1.00  0.00    -0.003 C 
ATOM     18  C   UNL     1      -7.088  26.018  24.223  1.00  0.00     0.004 C 
ENDBRANCH  16  17
ENDBRANCH  15  16
ENDBRANCH  14  15
ENDBRANCH  13  14
ENDBRANCH  12  13
ENDBRANCH  10  11
ENDBRANCH   1  10
TORSDOF 13
ENDMDL
MODEL 6
REMARK VINA RESULT:    -3.670      1.540      3.021
REMARK INTER + INTRA:          -8.699
REMARK INTER:                  -7.074
REMARK INTRA:                  -1.625
REMARK UNBOUND:                -2.239
REMARK SMILES CCCCCCC=CCCCCCCCC(=O)[O-]
REMARK SMILES IDX 10 1 11 2 12 3 13 4 14 5 15 6 16 7 17 8 18 9 9 10 8 11 7 12
REMARK SMILES IDX 6 13 5 14 4 15 3 16 2 17 1 18
REMARK H PARENT
REMARK Flexibility Score: inf
ROOT
ATOM      1  C   UNL     1      -7.750  25.967  21.870  1.00  0.00     0.004 C 
ENDROOT
BRANCH   1   2
ATOM      2  C   UNL     1      -8.490  27.219  21.384  1.00  0.00     0.000 C 
BRANCH   2   3
ATOM      3  C   UNL     1      -9.994  26.947  21.231  1.00  0.00     0.000 C 
BRANCH   3   4
ATOM      4  C   UNL     1     -10.807  28.247  21.058  1.00  0.00     0.000 C 
BRANCH   4   5
ATOM      5  C   UNL     1     -10.703  29.203  22.259  1.00  0.00     0.006 C 
BRANCH   5   6
ATOM      6  C   UNL     1     -10.997  28.516  23.597  1.00  0.00     0.053 C 
BRANCH   6   7
ATOM      7  C   UNL     1      -9.840  28.677  24.531  1.00  0.00     0.041 C 
ATOM      8  O   UNL     1      -9.725  27.923  25.533  1.00  0.00    -0.550 OA
ATOM      9  O   UNL     1      -8.863  29.629  24.270  1.00  0.00    -0.550 OA
ENDBRANCH   6   7
ENDBRANCH   5   6
ENDBRANCH   4   5
ENDBRANCH   3   4
ENDBRANCH   2   3
ENDBRANCH   1   2
BRANCH   1  10
ATOM     10  C   UNL     1      -8.261  25.524  23.246  1.00  0.00     0.027 C 
BRANCH  10  11
ATOM     11  C   UNL     1      -8.948  24.189  23.166  1.00  0.00    -0.031 C 
ATOM     12  C   UNL     1      -8.829  23.402  22.086  1.00  0.00    -0.031 C 
BRANCH  12  13
ATOM     13  C   UNL     1      -9.530  22.075  21.999  1.00  0.00     0.027 C 
BRANCH  13  14
ATOM     14  C   UNL     1     -10.830  22.191  21.188  1.00  0.00     0.004 C 
BRANCH  14  15
ATOM     15  C   UNL     1     -10.677  21.671  19.750  1.00  0.00     0.000 C 
BRANCH  15  16
ATOM     16  C   UNL     1     -11.011  22.740  18.698  1.00  0.00    -0.000 C 
BRANCH  16  17
ATOM     17  C   UNL     1     -10.003  23.894  18.749  1.00  0.00    -0.003 C 
ATOM     18  C   UNL     1     -10.565  25.148  18.087  1.00  0.00     0.004 C 
ENDBRANCH  16  17
ENDBRANCH  15  16
ENDBRANCH  14  15
ENDBRANCH  13  14
ENDBRANCH  12  13
ENDBRANCH  10  11
ENDBRANCH   1  10
TORSDOF 13
ENDMDL
MODEL 7
REMARK VINA RESULT:    -3.551      2.115      3.417
REMARK INTER + INTRA:          -8.490
REMARK INTER:                  -7.039
REMARK INTRA:                  -1.450
REMARK UNBOUND:                -2.239
REMARK SMILES CCCCCCC=CCCCCCCCC(=O)[O-]
REMARK SMILES IDX 10 1 11 2 12 3 13 4 14 5 15 6 16 7 17 8 18 9 9 10 8 11 7 12
REMARK SMILES IDX 6 13 5 14 4 15 3 16 2 17 1 18
REMARK H PARENT
REMARK Flexibility Score: inf
ROOT
ATOM      1  C   UNL     1      -9.670  29.547  24.620  1.00  0.00     0.004 C 
ENDROOT
BRANCH   1   2
ATOM      2  C   UNL     1     -11.069  28.951  24.813  1.00  0.00     0.000 C 
BRANCH   2   3
ATOM      3  C   UNL     1     -11.002  27.622  25.581  1.00  0.00     0.000 C 
BRANCH   3   4
ATOM      4  C   UNL     1      -9.576  27.309  26.083  1.00  0.00     0.000 C 
BRANCH   4   5
ATOM      5  C   UNL     1      -8.952  26.064  25.428  1.00  0.00     0.006 C 
BRANCH   5   6
ATOM      6  C   UNL     1      -7.721  26.392  24.575  1.00  0.00     0.053 C 
BRANCH   6   7
ATOM      7  C   UNL     1      -7.703  25.549  23.341  1.00  0.00     0.041 C 
ATOM      8  O   UNL     1      -6.777  25.680  22.496  1.00  0.00    -0.550 OA
ATOM      9  O   UNL     1      -8.680  24.582  23.144  1.00  0.00    -0.550 OA
ENDBRANCH   6   7
ENDBRANCH   5   6
ENDBRANCH   4   5
ENDBRANCH   3   4
ENDBRANCH   2   3
ENDBRANCH   1   2
BRANCH   1  10
ATOM     10  C   UNL     1      -9.251  29.504  23.145  1.00  0.00     0.027 C 
BRANCH  10  11
ATOM     11  C   UNL     1     -10.232  28.714  22.324  1.00  0.00    -0.031 C 
ATOM     12  C   UNL     1      -9.881  27.565  21.726  1.00  0.00    -0.031 C 
BRANCH  12  13
ATOM     13  C   UNL     1     -10.858  26.785  20.890  1.00  0.00     0.027 C 
BRANCH  13  14
ATOM     14  C   UNL     1     -10.223  26.354  19.559  1.00  0.00     0.004 C 
BRANCH  14  15
ATOM     15  C   UNL     1      -9.458  25.026  19.671  1.00  0.00     0.000 C 
BRANCH  15  16
ATOM     16  C   UNL     1     -10.364  23.856  20.084  1.00  0.00    -0.000 C 
BRANCH  16  17
ATOM     17  C   UNL     1     -10.565  22.880  18.919  1.00  0.00    -0.003 C 
ATOM     18  C   UNL     1     -10.951  21.493  19.422  1.00  0.00     0.004 C 
ENDBRANCH  16  17
ENDBRANCH  15  16
ENDBRANCH  14  15
ENDBRANCH  13  14
ENDBRANCH  12  13
ENDBRANCH  10  11
ENDBRANCH   1  10
TORSDOF 13
ENDMDL
MODEL 8
REMARK VINA RESULT:    -3.427      2.948      6.246
REMARK INTER + INTRA:          -8.270
REMARK INTER:                  -6.897
REMARK INTRA:                  -1.374
REMARK UNBOUND:                -2.239
REMARK SMILES CCCCCCC=CCCCCCCCC(=O)[O-]
REMARK SMILES IDX 10 1 11 2 12 3 13 4 14 5 15 6 16 7 17 8 18 9 9 10 8 11 7 12
REMARK SMILES IDX 6 13 5 14 4 15 3 16 2 17 1 18
REMARK H PARENT
REMARK Flexibility Score: inf
ROOT
ATOM      1  C   UNL     1     -10.003  27.314  20.319  1.00  0.00     0.004 C 
ENDROOT
BRANCH   1   2
ATOM      2  C   UNL     1     -10.828  26.426  19.380  1.00  0.00     0.000 C 
BRANCH   2   3
ATOM      3  C   UNL     1      -9.947  25.359  18.712  1.00  0.00     0.000 C 
BRANCH   3   4
ATOM      4  C   UNL     1     -10.779  24.209  18.108  1.00  0.00     0.000 C 
BRANCH   4   5
ATOM      5  C   UNL     1     -10.678  22.894  18.900  1.00  0.00     0.006 C 
BRANCH   5   6
ATOM      6  C   UNL     1     -10.637  23.111  20.416  1.00  0.00     0.053 C 
BRANCH   6   7
ATOM      7  C   UNL     1     -10.277  21.840  21.116  1.00  0.00     0.041 C 
ATOM      8  O   UNL     1     -10.867  20.766  20.824  1.00  0.00    -0.550 OA
ATOM      9  O   UNL     1      -9.255  21.829  22.057  1.00  0.00    -0.550 OA
ENDBRANCH   6   7
ENDBRANCH   5   6
ENDBRANCH   4   5
ENDBRANCH   3   4
ENDBRANCH   2   3
ENDBRANCH   1   2
BRANCH   1  10
ATOM     10  C   UNL     1     -10.853  28.459  20.882  1.00  0.00     0.027 C 
BRANCH  10  11
ATOM     11  C   UNL     1     -10.889  28.421  22.385  1.00  0.00    -0.031 C 
ATOM     12  C   UNL     1      -9.894  28.937  23.124  1.00  0.00    -0.031 C 
BRANCH  12  13
ATOM     13  C   UNL     1      -9.922  28.883  24.627  1.00  0.00     0.027 C 
BRANCH  13  14
ATOM     14  C   UNL     1      -9.543  27.483  25.135  1.00  0.00     0.004 C 
BRANCH  14  15
ATOM     15  C   UNL     1      -8.028  27.231  25.096  1.00  0.00     0.000 C 
BRANCH  15  16
ATOM     16  C   UNL     1      -7.662  25.952  24.328  1.00  0.00    -0.000 C 
BRANCH  16  17
ATOM     17  C   UNL     1      -7.609  26.216  22.819  1.00  0.00    -0.003 C 
ATOM     18  C   UNL     1      -7.720  24.916  22.027  1.00  0.00     0.004 C 
ENDBRANCH  16  17
ENDBRANCH  15  16
ENDBRANCH  14  15
ENDBRANCH  13  14
ENDBRANCH  12  13
ENDBRANCH  10  11
ENDBRANCH   1  10
TORSDOF 13
ENDMDL
MODEL 9
REMARK VINA RESULT:    -3.337      2.768      5.903
REMARK INTER + INTRA:          -8.113
REMARK INTER:                  -6.793
REMARK INTRA:                  -1.320
REMARK UNBOUND:                -2.239
REMARK SMILES CCCCCCC=CCCCCCCCC(=O)[O-]
REMARK SMILES IDX 10 1 11 2 12 3 13 4 14 5 15 6 16 7 17 8 18 9 9 10 8 11 7 12
REMARK SMILES IDX 6 13 5 14 4 15 3 16 2 17 1 18
REMARK H PARENT
REMARK Flexibility Score: inf
ROOT
ATOM      1  C   UNL     1      -7.909  26.364  21.740  1.00  0.00     0.004 C 
ENDROOT
BRANCH   1   2
ATOM      2  C   UNL     1      -7.816  24.882  22.119  1.00  0.00     0.000 C 
BRANCH   2   3
ATOM      3  C   UNL     1      -9.204  24.305  22.435  1.00  0.00     0.000 C 
BRANCH   3   4
ATOM      4  C   UNL     1      -9.213  22.762  22.419  1.00  0.00     0.000 C 
BRANCH   4   5
ATOM      5  C   UNL     1     -10.543  22.158  21.933  1.00  0.00     0.006 C 
BRANCH   5   6
ATOM      6  C   UNL     1     -10.399  21.368  20.628  1.00  0.00     0.053 C 
BRANCH   6   7
ATOM      7  C   UNL     1     -10.751  22.228  19.456  1.00  0.00     0.041 C 
ATOM      8  O   UNL     1     -11.125  21.703  18.373  1.00  0.00    -0.550 OA
ATOM      9  O   UNL     1     -10.714  23.612  19.572  1.00  0.00    -0.550 OA
ENDBRANCH   6   7
ENDBRANCH   5   6
ENDBRANCH   4   5
ENDBRANCH   3   4
ENDBRANCH   2   3
ENDBRANCH   1   2
BRANCH   1  10
ATOM     10  C   UNL     1      -9.148  26.637  20.879  1.00  0.00     0.027 C 
BRANCH  10  11
ATOM     11  C   UNL     1      -9.949  27.786  21.427  1.00  0.00    -0.031 C 
ATOM     12  C   UNL     1      -9.555  28.456  22.521  1.00  0.00    -0.031 C 
BRANCH  12  13
ATOM     13  C   UNL     1     -10.365  29.594  23.080  1.00  0.00     0.027 C 
BRANCH  13  14
ATOM     14  C   UNL     1     -10.601  29.415  24.587  1.00  0.00     0.004 C 
BRANCH  14  15
ATOM     15  C   UNL     1     -11.011  27.980  24.954  1.00  0.00     0.000 C 
BRANCH  15  16
ATOM     16  C   UNL     1     -10.358  27.494  26.257  1.00  0.00    -0.000 C 
BRANCH  16  17
ATOM     17  C   UNL     1      -8.893  27.106  26.024  1.00  0.00    -0.003 C 
ATOM     18  C   UNL     1      -8.777  25.675  25.507  1.00  0.00     0.004 C 
ENDBRANCH  16  17
ENDBRANCH  15  16
ENDBRANCH  14  15
ENDBRANCH  13  14
ENDBRANCH  12  13
ENDBRANCH  10  11
ENDBRANCH   1  10
TORSDOF 13
ENDMDL
