MODEL 1
REMARK VINA RESULT:    -4.791      0.000      0.000
REMARK INTER + INTRA:          -5.160
REMARK INTER:                  -5.071
REMARK INTRA:                  -0.089
REMARK UNBOUND:                -0.089
REMARK SMILES C=C(C)[C@H]1CC=C(C)C(=O)C1
REMARK SMILES IDX 8 1 7 2 6 3 5 4 4 5 11 6 9 7 10 8 2 9 1 10 3 11
REMARK H PARENT
REMARK Flexibility Score: inf
ROOT
ATOM      1  C   UNL     1     101.408 137.637 124.892  1.00  0.00     0.048 C 
ATOM      2  C   UNL     1     101.250 136.144 124.981  1.00  0.00    -0.012 C 
ATOM      3  C   UNL     1     102.339 135.361 125.083  1.00  0.00    -0.019 C 
ATOM      4  C   UNL     1     102.239 133.861 125.157  1.00  0.00     0.036 C 
ATOM      5  C   UNL     1     100.951 133.426 125.882  1.00  0.00     0.025 C 
ATOM      6  C   UNL     1      99.719 134.059 125.210  1.00  0.00     0.089 C 
ATOM      7  C   UNL     1      99.894 135.548 125.081  1.00  0.00     0.158 C 
ATOM      8  O   UNL     1      98.873 136.284 125.022  1.00  0.00    -0.295 OA
ENDROOT
BRANCH   5   9
ATOM      9  C   UNL     1     100.832 131.909 125.956  1.00  0.00    -0.077 C 
ATOM     10  C   UNL     1     101.133 131.237 127.081  1.00  0.00     0.008 C 
ATOM     11  C   UNL     1     100.369 131.127 124.753  1.00  0.00     0.039 C 
ENDBRANCH   5   9
TORSDOF 1
ENDMDL
MODEL 2
REMARK VINA RESULT:    -4.680      1.560      2.091
REMARK INTER + INTRA:          -5.042
REMARK INTER:                  -4.947
REMARK INTRA:                  -0.095
REMARK UNBOUND:                -0.089
REMARK SMILES C=C(C)[C@H]1CC=C(C)C(=O)C1
REMARK SMILES IDX 8 1 7 2 6 3 5 4 4 5 11 6 9 7 10 8 2 9 1 10 3 11
REMARK H PARENT
REMARK Flexibility Score: inf
ROOT
ATOM      1  C   UNL     1     101.418 137.997 124.678  1.00  0.00     0.048 C 
ATOM      2  C   UNL     1     101.346 136.496 124.756  1.00  0.00    -0.012 C 
ATOM      3  C   UNL     1     101.047 135.901 125.924  1.00  0.00    -0.019 C 
ATOM      4  C   UNL     1     100.980 134.403 126.063  1.00  0.00     0.036 C 
ATOM      5  C   UNL     1     100.491 133.747 124.757  1.00  0.00     0.025 C 
ATOM      6  C   UNL     1     101.376 134.184 123.575  1.00  0.00     0.089 C 
ATOM      7  C   UNL     1     101.484 135.683 123.522  1.00  0.00     0.158 C 
ATOM      8  O   UNL     1     101.729 136.243 122.419  1.00  0.00    -0.295 OA
ENDROOT
BRANCH   5   9
ATOM      9  C   UNL     1     100.428 132.230 124.880  1.00  0.00    -0.077 C 
ATOM     10  C   UNL     1      99.861 131.473 123.924  1.00  0.00     0.008 C 
ATOM     11  C   UNL     1     101.008 131.544 126.091  1.00  0.00     0.039 C 
ENDBRANCH   5   9
TORSDOF 1
ENDMDL
MODEL 3
REMARK VINA RESULT:    -4.407      2.294      4.672
REMARK INTER + INTRA:          -4.753
REMARK INTER:                  -4.657
REMARK INTRA:                  -0.096
REMARK UNBOUND:                -0.089
REMARK SMILES C=C(C)[C@H]1CC=C(C)C(=O)C1
REMARK SMILES IDX 8 1 7 2 6 3 5 4 4 5 11 6 9 7 10 8 2 9 1 10 3 11
REMARK H PARENT
REMARK Flexibility Score: inf
ROOT
ATOM      1  C   UNL     1     103.269 130.588 125.944  1.00  0.00     0.048 C 
ATOM      2  C   UNL     1     102.506 131.839 125.601  1.00  0.00    -0.012 C 
ATOM      3  C   UNL     1     101.360 132.121 126.244  1.00  0.00    -0.019 C 
ATOM      4  C   UNL     1     100.548 133.348 125.928  1.00  0.00     0.036 C 
ATOM      5  C   UNL     1     101.455 134.517 125.496  1.00  0.00     0.025 C 
ATOM      6  C   UNL     1     102.351 134.091 124.319  1.00  0.00     0.089 C 
ATOM      7  C   UNL     1     103.082 132.817 124.644  1.00  0.00     0.158 C 
ATOM      8  O   UNL     1     104.174 132.571 124.066  1.00  0.00    -0.295 OA
ENDROOT
BRANCH   5   9
ATOM      9  C   UNL     1     100.645 135.764 125.164  1.00  0.00    -0.077 C 
ATOM     10  C   UNL     1      99.301 135.749 125.177  1.00  0.00     0.008 C 
ATOM     11  C   UNL     1     101.348 137.050 124.811  1.00  0.00     0.039 C 
ENDBRANCH   5   9
TORSDOF 1
ENDMDL
MODEL 4
REMARK VINA RESULT:    -4.386     12.059     13.235
REMARK INTER + INTRA:          -4.731
REMARK INTER:                  -4.637
REMARK INTRA:                  -0.094
REMARK UNBOUND:                -0.089
REMARK SMILES C=C(C)[C@H]1CC=C(C)C(=O)C1
REMARK SMILES IDX 8 1 7 2 6 3 5 4 4 5 11 6 9 7 10 8 2 9 1 10 3 11
REMARK H PARENT
REMARK Flexibility Score: inf
ROOT
ATOM      1  C   UNL     1      94.168 139.108 137.898  1.00  0.00     0.048 C 
ATOM      2  C   UNL     1      95.165 139.610 136.889  1.00  0.00    -0.012 C 
ATOM      3  C   UNL     1      95.354 140.932 136.737  1.00  0.00    -0.019 C 
ATOM      4  C   UNL     1      96.325 141.489 135.729  1.00  0.00     0.036 C 
ATOM      5  C   UNL     1      97.530 140.548 135.542  1.00  0.00     0.025 C 
ATOM      6  C   UNL     1      97.050 139.133 135.169  1.00  0.00     0.089 C 
ATOM      7  C   UNL     1      96.022 138.647 136.153  1.00  0.00     0.158 C 
ATOM      8  O   UNL     1      95.870 137.407 136.322  1.00  0.00    -0.295 OA
ENDROOT
BRANCH   5   9
ATOM      9  C   UNL     1      98.516 141.094 134.517  1.00  0.00    -0.077 C 
ATOM     10  C   UNL     1      98.095 141.637 133.362  1.00  0.00     0.008 C 
ATOM     11  C   UNL     1      99.998 141.036 134.788  1.00  0.00     0.039 C 
ENDBRANCH   5   9
TORSDOF 1
ENDMDL
MODEL 5
REMARK VINA RESULT:    -4.378      2.258      4.469
REMARK INTER + INTRA:          -4.722
REMARK INTER:                  -4.624
REMARK INTRA:                  -0.098
REMARK UNBOUND:                -0.089
REMARK SMILES C=C(C)[C@H]1CC=C(C)C(=O)C1
REMARK SMILES IDX 8 1 7 2 6 3 5 4 4 5 11 6 9 7 10 8 2 9 1 10 3 11
REMARK H PARENT
REMARK Flexibility Score: inf
ROOT
ATOM      1  C   UNL     1     102.424 129.919 123.696  1.00  0.00     0.048 C 
ATOM      2  C   UNL     1     101.887 131.219 124.231  1.00  0.00    -0.012 C 
ATOM      3  C   UNL     1     102.734 132.139 124.726  1.00  0.00    -0.019 C 
ATOM      4  C   UNL     1     102.251 133.448 125.290  1.00  0.00     0.036 C 
ATOM      5  C   UNL     1     100.985 133.934 124.556  1.00  0.00     0.025 C 
ATOM      6  C   UNL     1      99.896 132.846 124.591  1.00  0.00     0.089 C 
ATOM      7  C   UNL     1     100.443 131.535 124.097  1.00  0.00     0.158 C 
ATOM      8  O   UNL     1      99.653 130.688 123.600  1.00  0.00    -0.295 OA
ENDROOT
BRANCH   5   9
ATOM      9  C   UNL     1     100.479 135.254 125.123  1.00  0.00    -0.077 C 
ATOM     10  C   UNL     1      99.164 135.520 125.210  1.00  0.00     0.008 C 
ATOM     11  C   UNL     1     101.457 136.296 125.602  1.00  0.00     0.039 C 
ENDBRANCH   5   9
TORSDOF 1
ENDMDL
MODEL 6
REMARK VINA RESULT:    -4.336      1.805      2.705
REMARK INTER + INTRA:          -4.678
REMARK INTER:                  -4.590
REMARK INTRA:                  -0.088
REMARK UNBOUND:                -0.089
REMARK SMILES C=C(C)[C@H]1CC=C(C)C(=O)C1
REMARK SMILES IDX 8 1 7 2 6 3 5 4 4 5 11 6 9 7 10 8 2 9 1 10 3 11
REMARK H PARENT
REMARK Flexibility Score: inf
ROOT
ATOM      1  C   UNL     1     101.200 135.873 125.936  1.00  0.00     0.048 C 
ATOM      2  C   UNL     1     101.129 134.497 125.332  1.00  0.00    -0.012 C 
ATOM      3  C   UNL     1     100.854 133.438 126.113  1.00  0.00    -0.019 C 
ATOM      4  C   UNL     1     100.788 132.037 125.565  1.00  0.00     0.036 C 
ATOM      5  C   UNL     1     100.271 132.034 124.113  1.00  0.00     0.025 C 
ATOM      6  C   UNL     1     101.131 132.963 123.238  1.00  0.00     0.089 C 
ATOM      7  C   UNL     1     101.239 134.328 123.862  1.00  0.00     0.158 C 
ATOM      8  O   UNL     1     101.461 135.325 123.124  1.00  0.00    -0.295 OA
ENDROOT
BRANCH   5   9
ATOM      9  C   UNL     1     100.208 130.623 123.542  1.00  0.00    -0.077 C 
ATOM     10  C   UNL     1      99.057 129.930 123.513  1.00  0.00     0.008 C 
ATOM     11  C   UNL     1     101.453 129.974 122.993  1.00  0.00     0.039 C 
ENDBRANCH   5   9
TORSDOF 1
ENDMDL
MODEL 7
REMARK VINA RESULT:    -4.216      3.282      5.595
REMARK INTER + INTRA:          -4.551
REMARK INTER:                  -4.462
REMARK INTRA:                  -0.089
REMARK UNBOUND:                -0.089
REMARK SMILES C=C(C)[C@H]1CC=C(C)C(=O)C1
REMARK SMILES IDX 8 1 7 2 6 3 5 4 4 5 11 6 9 7 10 8 2 9 1 10 3 11
REMARK H PARENT
REMARK Flexibility Score: inf
ROOT
ATOM      1  C   UNL     1     103.124 129.893 130.048  1.00  0.00     0.048 C 
ATOM      2  C   UNL     1     102.459 130.304 128.763  1.00  0.00    -0.012 C 
ATOM      3  C   UNL     1     101.143 130.577 128.750  1.00  0.00    -0.019 C 
ATOM      4  C   UNL     1     100.423 130.975 127.489  1.00  0.00     0.036 C 
ATOM      5  C   UNL     1     101.349 131.774 126.551  1.00  0.00     0.025 C 
ATOM      6  C   UNL     1     102.634 130.976 126.262  1.00  0.00     0.089 C 
ATOM      7  C   UNL     1     103.277 130.527 127.545  1.00  0.00     0.158 C 
ATOM      8  O   UNL     1     104.518 130.306 127.566  1.00  0.00    -0.295 OA
ENDROOT
BRANCH   5   9
ATOM      9  C   UNL     1     100.636 132.175 125.265  1.00  0.00    -0.077 C 
ATOM     10  C   UNL     1     100.555 133.461 124.883  1.00  0.00     0.008 C 
ATOM     11  C   UNL     1     100.004 131.123 124.391  1.00  0.00     0.039 C 
ENDBRANCH   5   9
TORSDOF 1
ENDMDL
MODEL 8
REMARK VINA RESULT:    -4.165     12.260     13.036
REMARK INTER + INTRA:          -4.497
REMARK INTER:                  -4.403
REMARK INTRA:                  -0.094
REMARK UNBOUND:                -0.089
REMARK SMILES C=C(C)[C@H]1CC=C(C)C(=O)C1
REMARK SMILES IDX 8 1 7 2 6 3 5 4 4 5 11 6 9 7 10 8 2 9 1 10 3 11
REMARK H PARENT
REMARK Flexibility Score: inf
ROOT
ATOM      1  C   UNL     1      96.654 144.462 134.204  1.00  0.00     0.048 C 
ATOM      2  C   UNL     1      96.624 143.009 134.595  1.00  0.00    -0.012 C 
ATOM      3  C   UNL     1      97.575 142.175 134.140  1.00  0.00    -0.019 C 
ATOM      4  C   UNL     1      97.583 140.709 134.485  1.00  0.00     0.036 C 
ATOM      5  C   UNL     1      97.006 140.468 135.894  1.00  0.00     0.025 C 
ATOM      6  C   UNL     1      95.601 141.087 136.009  1.00  0.00     0.089 C 
ATOM      7  C   UNL     1      95.621 142.528 135.577  1.00  0.00     0.158 C 
ATOM      8  O   UNL     1      94.750 143.318 136.032  1.00  0.00    -0.295 OA
ENDROOT
BRANCH   5   9
ATOM      9  C   UNL     1      96.999 138.988 136.252  1.00  0.00    -0.077 C 
ATOM     10  C   UNL     1      96.070 138.152 135.757  1.00  0.00     0.008 C 
ATOM     11  C   UNL     1      98.049 138.429 137.179  1.00  0.00     0.039 C 
ENDBRANCH   5   9
TORSDOF 1
ENDMDL
MODEL 9
REMARK VINA RESULT:    -4.138      4.526      5.982
REMARK INTER + INTRA:          -4.468
REMARK INTER:                  -4.370
REMARK INTRA:                  -0.098
REMARK UNBOUND:                -0.089
REMARK SMILES C=C(C)[C@H]1CC=C(C)C(=O)C1
REMARK SMILES IDX 8 1 7 2 6 3 5 4 4 5 11 6 9 7 10 8 2 9 1 10 3 11
REMARK H PARENT
REMARK Flexibility Score: inf
ROOT
ATOM      1  C   UNL     1     100.889 130.663 131.148  1.00  0.00     0.048 C 
ATOM      2  C   UNL     1     101.269 130.593 129.694  1.00  0.00    -0.012 C 
ATOM      3  C   UNL     1     100.392 130.985 128.754  1.00  0.00    -0.019 C 
ATOM      4  C   UNL     1     100.713 130.919 127.285  1.00  0.00     0.036 C 
ATOM      5  C   UNL     1     102.215 131.158 127.034  1.00  0.00     0.025 C 
ATOM      6  C   UNL     1     103.059 130.171 127.861  1.00  0.00     0.089 C 
ATOM      7  C   UNL     1     102.650 130.209 129.308  1.00  0.00     0.158 C 
ATOM      8  O   UNL     1     103.485 129.875 130.192  1.00  0.00    -0.295 OA
ENDROOT
BRANCH   5   9
ATOM      9  C   UNL     1     102.556 131.084 125.551  1.00  0.00    -0.077 C 
ATOM     10  C   UNL     1     103.819 130.894 125.133  1.00  0.00     0.008 C 
ATOM     11  C   UNL     1     101.468 131.225 124.517  1.00  0.00     0.039 C 
ENDBRANCH   5   9
TORSDOF 1
ENDMDL
