MODEL 1
REMARK VINA RESULT:    -4.548      0.000      0.000
REMARK INTER + INTRA:         -14.757
REMARK INTER:                 -10.396
REMARK INTRA:                  -4.361
REMARK UNBOUND:                -4.361
REMARK SMILES CCCCCCCCCCCCCCCCCCCCCCCC(=O)[O-]
REMARK SMILES IDX 13 1 14 2 15 3 16 4 17 5 18 6 19 7 20 8 21 9 22 10 23 11
REMARK SMILES IDX 24 12 25 13 26 14 12 15 11 16 10 17 9 18 8 19 7 20 6 21 5 22
REMARK SMILES IDX 4 23 3 24 2 25 1 26
REMARK H PARENT
REMARK Flexibility Score: inf
ROOT
ATOM      1  C   UNL     1      17.688 -44.522  25.855  1.00  0.00     0.000 C 
ENDROOT
BRANCH   1   2
ATOM      2  C   UNL     1      16.854 -45.230  26.937  1.00  0.00     0.000 C 
BRANCH   2   3
ATOM      3  C   UNL     1      17.559 -45.251  28.303  1.00  0.00     0.000 C 
BRANCH   3   4
ATOM      4  C   UNL     1      16.579 -45.432  29.476  1.00  0.00     0.000 C 
BRANCH   4   5
ATOM      5  C   UNL     1      15.112 -45.448  29.018  1.00  0.00     0.000 C 
BRANCH   5   6
ATOM      6  C   UNL     1      14.149 -44.946  30.105  1.00  0.00     0.000 C 
BRANCH   6   7
ATOM      7  C   UNL     1      14.807 -45.001  31.489  1.00  0.00     0.000 C 
BRANCH   7   8
ATOM      8  C   UNL     1      14.486 -43.737  32.300  1.00  0.00     0.000 C 
BRANCH   8   9
ATOM      9  C   UNL     1      15.736 -43.077  32.906  1.00  0.00     0.000 C 
BRANCH   9  10
ATOM     10  C   UNL     1      17.047 -43.869  32.733  1.00  0.00     0.006 C 
BRANCH  10  11
ATOM     11  C   UNL     1      18.319 -43.004  32.816  1.00  0.00     0.053 C 
BRANCH  11  12
ATOM     12  C   UNL     1      19.558 -43.765  32.448  1.00  0.00     0.041 C 
ATOM     13  O   UNL     1      20.070 -43.633  31.306  1.00  0.00    -0.550 OA
ATOM     14  O   UNL     1      20.127 -44.648  33.357  1.00  0.00    -0.550 OA
ENDBRANCH  11  12
ENDBRANCH  10  11
ENDBRANCH   9  10
ENDBRANCH   8   9
ENDBRANCH   7   8
ENDBRANCH   6   7
ENDBRANCH   5   6
ENDBRANCH   4   5
ENDBRANCH   3   4
ENDBRANCH   2   3
ENDBRANCH   1   2
BRANCH   1  15
ATOM     15  C   UNL     1      17.788 -43.004  26.086  1.00  0.00     0.000 C 
BRANCH  15  16
ATOM     16  C   UNL     1      18.728 -42.316  25.081  1.00  0.00     0.000 C 
BRANCH  16  17
ATOM     17  C   UNL     1      18.377 -40.836  24.853  1.00  0.00     0.000 C 
BRANCH  17  18
ATOM     18  C   UNL     1      17.168 -40.308  25.655  1.00  0.00    -0.000 C 
BRANCH  18  19
ATOM     19  C   UNL     1      17.446 -39.092  26.564  1.00  0.00    -0.000 C 
BRANCH  19  20
ATOM     20  C   UNL     1      18.809 -39.134  27.292  1.00  0.00    -0.000 C 
BRANCH  20  21
ATOM     21  C   UNL     1      18.811 -39.997  28.570  1.00  0.00    -0.000 C 
BRANCH  21  22
ATOM     22  C   UNL     1      17.944 -39.463  29.723  1.00  0.00    -0.000 C 
BRANCH  22  23
ATOM     23  C   UNL     1      17.044 -40.544  30.344  1.00  0.00    -0.000 C 
BRANCH  23  24
ATOM     24  C   UNL     1      16.839 -41.755  29.416  1.00  0.00    -0.000 C 
BRANCH  24  25
ATOM     25  C   UNL     1      15.448 -41.847  28.764  1.00  0.00    -0.003 C 
ATOM     26  C   UNL     1      14.674 -40.531  28.818  1.00  0.00     0.004 C 
ENDBRANCH  24  25
ENDBRANCH  23  24
ENDBRANCH  22  23
ENDBRANCH  21  22
ENDBRANCH  20  21
ENDBRANCH  19  20
ENDBRANCH  18  19
ENDBRANCH  17  18
ENDBRANCH  16  17
ENDBRANCH  15  16
ENDBRANCH   1  15
TORSDOF 22
ENDMDL
MODEL 2
REMARK VINA RESULT:    -4.493      1.098      2.088
REMARK INTER + INTRA:         -14.634
REMARK INTER:                 -10.411
REMARK INTRA:                  -4.222
REMARK UNBOUND:                -4.361
REMARK SMILES CCCCCCCCCCCCCCCCCCCCCCCC(=O)[O-]
REMARK SMILES IDX 13 1 14 2 15 3 16 4 17 5 18 6 19 7 20 8 21 9 22 10 23 11
REMARK SMILES IDX 24 12 25 13 26 14 12 15 11 16 10 17 9 18 8 19 7 20 6 21 5 22
REMARK SMILES IDX 4 23 3 24 2 25 1 26
REMARK H PARENT
REMARK Flexibility Score: inf
ROOT
ATOM      1  C   UNL     1      17.903 -44.159  25.680  1.00  0.00     0.000 C 
ENDROOT
BRANCH   1   2
ATOM      2  C   UNL     1      17.139 -44.132  27.016  1.00  0.00     0.000 C 
BRANCH   2   3
ATOM      3  C   UNL     1      17.144 -45.496  27.725  1.00  0.00     0.000 C 
BRANCH   3   4
ATOM      4  C   UNL     1      16.854 -45.384  29.232  1.00  0.00     0.000 C 
BRANCH   4   5
ATOM      5  C   UNL     1      15.613 -44.527  29.529  1.00  0.00     0.000 C 
BRANCH   5   6
ATOM      6  C   UNL     1      14.745 -45.115  30.652  1.00  0.00     0.000 C 
BRANCH   6   7
ATOM      7  C   UNL     1      14.135 -44.003  31.514  1.00  0.00     0.000 C 
BRANCH   7   8
ATOM      8  C   UNL     1      15.062 -42.778  31.567  1.00  0.00     0.000 C 
BRANCH   8   9
ATOM      9  C   UNL     1      15.965 -42.761  32.811  1.00  0.00     0.000 C 
BRANCH   9  10
ATOM     10  C   UNL     1      17.455 -42.475  32.539  1.00  0.00     0.006 C 
BRANCH  10  11
ATOM     11  C   UNL     1      18.304 -43.739  32.304  1.00  0.00     0.053 C 
BRANCH  11  12
ATOM     12  C   UNL     1      19.499 -43.477  31.437  1.00  0.00     0.041 C 
ATOM     13  O   UNL     1      20.010 -44.408  30.761  1.00  0.00    -0.550 OA
ATOM     14  O   UNL     1      20.070 -42.211  31.402  1.00  0.00    -0.550 OA
ENDBRANCH  11  12
ENDBRANCH  10  11
ENDBRANCH   9  10
ENDBRANCH   8   9
ENDBRANCH   7   8
ENDBRANCH   6   7
ENDBRANCH   5   6
ENDBRANCH   4   5
ENDBRANCH   3   4
ENDBRANCH   2   3
ENDBRANCH   1   2
BRANCH   1  15
ATOM     15  C   UNL     1      18.621 -42.832  25.384  1.00  0.00     0.000 C 
BRANCH  15  16
ATOM     16  C   UNL     1      17.641 -41.658  25.214  1.00  0.00     0.000 C 
BRANCH  16  17
ATOM     17  C   UNL     1      18.353 -40.301  25.077  1.00  0.00     0.000 C 
BRANCH  17  18
ATOM     18  C   UNL     1      17.627 -39.101  25.723  1.00  0.00    -0.000 C 
BRANCH  18  19
ATOM     19  C   UNL     1      16.131 -39.312  26.036  1.00  0.00    -0.000 C 
BRANCH  19  20
ATOM     20  C   UNL     1      15.610 -38.510  27.251  1.00  0.00    -0.000 C 
BRANCH  20  21
ATOM     21  C   UNL     1      15.655 -39.288  28.581  1.00  0.00    -0.000 C 
BRANCH  21  22
ATOM     22  C   UNL     1      15.931 -40.795  28.450  1.00  0.00    -0.000 C 
BRANCH  22  23
ATOM     23  C   UNL     1      17.277 -41.212  29.067  1.00  0.00    -0.000 C 
BRANCH  23  24
ATOM     24  C   UNL     1      18.044 -40.027  29.681  1.00  0.00    -0.000 C 
BRANCH  24  25
ATOM     25  C   UNL     1      19.301 -39.593  28.907  1.00  0.00    -0.003 C 
ATOM     26  C   UNL     1      19.457 -38.076  28.822  1.00  0.00     0.004 C 
ENDBRANCH  24  25
ENDBRANCH  23  24
ENDBRANCH  22  23
ENDBRANCH  21  22
ENDBRANCH  20  21
ENDBRANCH  19  20
ENDBRANCH  18  19
ENDBRANCH  17  18
ENDBRANCH  16  17
ENDBRANCH  15  16
ENDBRANCH   1  15
TORSDOF 22
ENDMDL
MODEL 3
REMARK VINA RESULT:    -4.462      2.576      5.707
REMARK INTER + INTRA:         -14.561
REMARK INTER:                  -9.755
REMARK INTRA:                  -4.806
REMARK UNBOUND:                -4.361
REMARK SMILES CCCCCCCCCCCCCCCCCCCCCCCC(=O)[O-]
REMARK SMILES IDX 13 1 14 2 15 3 16 4 17 5 18 6 19 7 20 8 21 9 22 10 23 11
REMARK SMILES IDX 24 12 25 13 26 14 12 15 11 16 10 17 9 18 8 19 7 20 6 21 5 22
REMARK SMILES IDX 4 23 3 24 2 25 1 26
REMARK H PARENT
REMARK Flexibility Score: inf
ROOT
ATOM      1  C   UNL     1      15.861 -44.029  27.397  1.00  0.00     0.000 C 
ENDROOT
BRANCH   1   2
ATOM      2  C   UNL     1      16.191 -43.561  25.969  1.00  0.00     0.000 C 
BRANCH   2   3
ATOM      3  C   UNL     1      17.520 -44.138  25.454  1.00  0.00     0.000 C 
BRANCH   3   4
ATOM      4  C   UNL     1      18.647 -43.091  25.413  1.00  0.00     0.000 C 
BRANCH   4   5
ATOM      5  C   UNL     1      18.117 -41.652  25.524  1.00  0.00     0.000 C 
BRANCH   5   6
ATOM      6  C   UNL     1      18.452 -41.002  26.875  1.00  0.00     0.000 C 
BRANCH   6   7
ATOM      7  C   UNL     1      18.307 -39.477  26.801  1.00  0.00     0.000 C 
BRANCH   7   8
ATOM      8  C   UNL     1      18.784 -38.817  28.103  1.00  0.00     0.000 C 
BRANCH   8   9
ATOM      9  C   UNL     1      17.880 -39.136  29.306  1.00  0.00     0.000 C 
BRANCH   9  10
ATOM     10  C   UNL     1      16.367 -39.018  29.041  1.00  0.00     0.006 C 
BRANCH  10  11
ATOM     11  C   UNL     1      15.592 -40.337  29.222  1.00  0.00     0.053 C 
BRANCH  11  12
ATOM     12  C   UNL     1      14.654 -40.616  28.087  1.00  0.00     0.041 C 
ATOM     13  O   UNL     1      13.664 -41.376  28.252  1.00  0.00    -0.550 OA
ATOM     14  O   UNL     1      14.893 -40.063  26.835  1.00  0.00    -0.550 OA
ENDBRANCH  11  12
ENDBRANCH  10  11
ENDBRANCH   9  10
ENDBRANCH   8   9
ENDBRANCH   7   8
ENDBRANCH   6   7
ENDBRANCH   5   6
ENDBRANCH   4   5
ENDBRANCH   3   4
ENDBRANCH   2   3
ENDBRANCH   1   2
BRANCH   1  15
ATOM     15  C   UNL     1      16.666 -45.272  27.812  1.00  0.00     0.000 C 
BRANCH  15  16
ATOM     16  C   UNL     1      17.603 -44.996  29.002  1.00  0.00     0.000 C 
BRANCH  16  17
ATOM     17  C   UNL     1      17.653 -43.508  29.389  1.00  0.00     0.000 C 
BRANCH  17  18
ATOM     18  C   UNL     1      19.024 -42.994  29.878  1.00  0.00    -0.000 C 
BRANCH  18  19
ATOM     19  C   UNL     1      19.010 -42.201  31.202  1.00  0.00    -0.000 C 
BRANCH  19  20
ATOM     20  C   UNL     1      17.600 -41.930  31.772  1.00  0.00    -0.000 C 
BRANCH  20  21
ATOM     21  C   UNL     1      17.291 -42.698  33.073  1.00  0.00    -0.000 C 
BRANCH  21  22
ATOM     22  C   UNL     1      17.965 -44.075  33.196  1.00  0.00    -0.000 C 
BRANCH  22  23
ATOM     23  C   UNL     1      17.087 -45.220  32.663  1.00  0.00    -0.000 C 
BRANCH  23  24
ATOM     24  C   UNL     1      15.582 -44.917  32.772  1.00  0.00    -0.000 C 
BRANCH  24  25
ATOM     25  C   UNL     1      14.802 -45.009  31.449  1.00  0.00    -0.003 C 
ATOM     26  C   UNL     1      14.280 -43.656  30.967  1.00  0.00     0.004 C 
ENDBRANCH  24  25
ENDBRANCH  23  24
ENDBRANCH  22  23
ENDBRANCH  21  22
ENDBRANCH  20  21
ENDBRANCH  19  20
ENDBRANCH  18  19
ENDBRANCH  17  18
ENDBRANCH  16  17
ENDBRANCH  15  16
ENDBRANCH   1  15
TORSDOF 22
ENDMDL
MODEL 4
REMARK VINA RESULT:    -4.452      1.879      5.109
REMARK INTER + INTRA:         -14.538
REMARK INTER:                 -10.902
REMARK INTRA:                  -3.637
REMARK UNBOUND:                -4.361
REMARK SMILES CCCCCCCCCCCCCCCCCCCCCCCC(=O)[O-]
REMARK SMILES IDX 13 1 14 2 15 3 16 4 17 5 18 6 19 7 20 8 21 9 22 10 23 11
REMARK SMILES IDX 24 12 25 13 26 14 12 15 11 16 10 17 9 18 8 19 7 20 6 21 5 22
REMARK SMILES IDX 4 23 3 24 2 25 1 26
REMARK H PARENT
REMARK Flexibility Score: inf
ROOT
ATOM      1  C   UNL     1      18.797 -42.396  25.475  1.00  0.00     0.000 C 
ENDROOT
BRANCH   1   2
ATOM      2  C   UNL     1      17.693 -41.337  25.316  1.00  0.00     0.000 C 
BRANCH   2   3
ATOM      3  C   UNL     1      18.086 -39.981  25.926  1.00  0.00     0.000 C 
BRANCH   3   4
ATOM      4  C   UNL     1      18.495 -40.092  27.406  1.00  0.00     0.000 C 
BRANCH   4   5
ATOM      5  C   UNL     1      17.366 -40.649  28.287  1.00  0.00     0.000 C 
BRANCH   5   6
ATOM      6  C   UNL     1      17.894 -41.474  29.471  1.00  0.00     0.000 C 
BRANCH   6   7
ATOM      7  C   UNL     1      19.210 -42.173  29.109  1.00  0.00     0.000 C 
BRANCH   7   8
ATOM      8  C   UNL     1      20.053 -42.442  30.365  1.00  0.00     0.000 C 
BRANCH   8   9
ATOM      9  C   UNL     1      20.045 -43.920  30.789  1.00  0.00     0.000 C 
BRANCH   9  10
ATOM     10  C   UNL     1      19.313 -44.221  32.111  1.00  0.00     0.006 C 
BRANCH  10  11
ATOM     11  C   UNL     1      18.895 -42.965  32.899  1.00  0.00     0.053 C 
BRANCH  11  12
ATOM     12  C   UNL     1      17.407 -42.823  33.012  1.00  0.00     0.041 C 
ATOM     13  O   UNL     1      16.669 -43.844  33.013  1.00  0.00    -0.550 OA
ATOM     14  O   UNL     1      16.831 -41.561  33.079  1.00  0.00    -0.550 OA
ENDBRANCH  11  12
ENDBRANCH  10  11
ENDBRANCH   9  10
ENDBRANCH   8   9
ENDBRANCH   7   8
ENDBRANCH   6   7
ENDBRANCH   5   6
ENDBRANCH   4   5
ENDBRANCH   3   4
ENDBRANCH   2   3
ENDBRANCH   1   2
BRANCH   1  15
ATOM     15  C   UNL     1      18.238 -43.829  25.523  1.00  0.00     0.000 C 
BRANCH  15  16
ATOM     16  C   UNL     1      17.107 -43.985  26.553  1.00  0.00     0.000 C 
BRANCH  16  17
ATOM     17  C   UNL     1      17.131 -45.349  27.264  1.00  0.00     0.000 C 
BRANCH  17  18
ATOM     18  C   UNL     1      17.333 -45.299  28.794  1.00  0.00    -0.000 C 
BRANCH  18  19
ATOM     19  C   UNL     1      16.134 -44.774  29.612  1.00  0.00    -0.000 C 
BRANCH  19  20
ATOM     20  C   UNL     1      14.807 -45.525  29.358  1.00  0.00    -0.000 C 
BRANCH  20  21
ATOM     21  C   UNL     1      13.657 -44.619  28.876  1.00  0.00    -0.000 C 
BRANCH  21  22
ATOM     22  C   UNL     1      12.250 -45.057  29.316  1.00  0.00    -0.000 C 
BRANCH  22  23
ATOM     23  C   UNL     1      11.361 -43.875  29.739  1.00  0.00    -0.000 C 
BRANCH  23  24
ATOM     24  C   UNL     1      12.154 -42.567  29.917  1.00  0.00    -0.000 C 
BRANCH  24  25
ATOM     25  C   UNL     1      12.349 -42.116  31.376  1.00  0.00    -0.003 C 
ATOM     26  C   UNL     1      13.427 -42.914  32.108  1.00  0.00     0.004 C 
ENDBRANCH  24  25
ENDBRANCH  23  24
ENDBRANCH  22  23
ENDBRANCH  21  22
ENDBRANCH  20  21
ENDBRANCH  19  20
ENDBRANCH  18  19
ENDBRANCH  17  18
ENDBRANCH  16  17
ENDBRANCH  15  16
ENDBRANCH   1  15
TORSDOF 22
ENDMDL
MODEL 5
REMARK VINA RESULT:    -4.430      1.547      2.719
REMARK INTER + INTRA:         -14.487
REMARK INTER:                  -9.992
REMARK INTRA:                  -4.495
REMARK UNBOUND:                -4.361
REMARK SMILES CCCCCCCCCCCCCCCCCCCCCCCC(=O)[O-]
REMARK SMILES IDX 13 1 14 2 15 3 16 4 17 5 18 6 19 7 20 8 21 9 22 10 23 11
REMARK SMILES IDX 24 12 25 13 26 14 12 15 11 16 10 17 9 18 8 19 7 20 6 21 5 22
REMARK SMILES IDX 4 23 3 24 2 25 1 26
REMARK H PARENT
REMARK Flexibility Score: inf
ROOT
ATOM      1  C   UNL     1      17.156 -45.416  27.212  1.00  0.00     0.000 C 
ENDROOT
BRANCH   1   2
ATOM      2  C   UNL     1      17.178 -45.506  28.748  1.00  0.00     0.000 C 
BRANCH   2   3
ATOM      3  C   UNL     1      15.972 -44.805  29.396  1.00  0.00     0.000 C 
BRANCH   3   4
ATOM      4  C   UNL     1      14.635 -45.486  29.055  1.00  0.00     0.000 C 
BRANCH   4   5
ATOM      5  C   UNL     1      13.435 -44.540  29.219  1.00  0.00     0.000 C 
BRANCH   5   6
ATOM      6  C   UNL     1      13.861 -43.085  29.471  1.00  0.00     0.000 C 
BRANCH   6   7
ATOM      7  C   UNL     1      13.223 -42.540  30.754  1.00  0.00     0.000 C 
BRANCH   7   8
ATOM      8  C   UNL     1      14.244 -42.495  31.899  1.00  0.00     0.000 C 
BRANCH   8   9
ATOM      9  C   UNL     1      14.105 -43.675  32.876  1.00  0.00     0.000 C 
BRANCH   9  10
ATOM     10  C   UNL     1      15.273 -44.681  32.865  1.00  0.00     0.006 C 
BRANCH  10  11
ATOM     11  C   UNL     1      16.666 -44.025  32.894  1.00  0.00     0.053 C 
BRANCH  11  12
ATOM     12  C   UNL     1      17.776 -45.022  32.739  1.00  0.00     0.041 C 
ATOM     13  O   UNL     1      17.788 -46.073  33.433  1.00  0.00    -0.550 OA
ATOM     14  O   UNL     1      18.816 -44.774  31.853  1.00  0.00    -0.550 OA
ENDBRANCH  11  12
ENDBRANCH  10  11
ENDBRANCH   9  10
ENDBRANCH   8   9
ENDBRANCH   7   8
ENDBRANCH   6   7
ENDBRANCH   5   6
ENDBRANCH   4   5
ENDBRANCH   3   4
ENDBRANCH   2   3
ENDBRANCH   1   2
BRANCH   1  15
ATOM     15  C   UNL     1      17.494 -44.005  26.700  1.00  0.00     0.000 C 
BRANCH  15  16
ATOM     16  C   UNL     1      16.542 -43.541  25.583  1.00  0.00     0.000 C 
BRANCH  16  17
ATOM     17  C   UNL     1      15.164 -43.111  26.115  1.00  0.00     0.000 C 
BRANCH  17  18
ATOM     18  C   UNL     1      14.824 -41.614  25.945  1.00  0.00    -0.000 C 
BRANCH  18  19
ATOM     19  C   UNL     1      15.365 -40.945  24.664  1.00  0.00    -0.000 C 
BRANCH  19  20
ATOM     20  C   UNL     1      16.133 -39.625  24.905  1.00  0.00    -0.000 C 
BRANCH  20  21
ATOM     21  C   UNL     1      17.635 -39.704  24.569  1.00  0.00    -0.000 C 
BRANCH  21  22
ATOM     22  C   UNL     1      18.585 -39.493  25.760  1.00  0.00    -0.000 C 
BRANCH  22  23
ATOM     23  C   UNL     1      18.457 -40.593  26.828  1.00  0.00    -0.000 C 
BRANCH  23  24
ATOM     24  C   UNL     1      18.015 -40.046  28.198  1.00  0.00    -0.000 C 
BRANCH  24  25
ATOM     25  C   UNL     1      16.914 -40.860  28.900  1.00  0.00    -0.003 C 
ATOM     26  C   UNL     1      17.446 -41.724  30.043  1.00  0.00     0.004 C 
ENDBRANCH  24  25
ENDBRANCH  23  24
ENDBRANCH  22  23
ENDBRANCH  21  22
ENDBRANCH  20  21
ENDBRANCH  19  20
ENDBRANCH  18  19
ENDBRANCH  17  18
ENDBRANCH  16  17
ENDBRANCH  15  16
ENDBRANCH   1  15
TORSDOF 22
ENDMDL
MODEL 6
REMARK VINA RESULT:    -4.408      2.820      6.066
REMARK INTER + INTRA:         -14.438
REMARK INTER:                 -10.585
REMARK INTRA:                  -3.853
REMARK UNBOUND:                -4.361
REMARK SMILES CCCCCCCCCCCCCCCCCCCCCCCC(=O)[O-]
REMARK SMILES IDX 13 1 14 2 15 3 16 4 17 5 18 6 19 7 20 8 21 9 22 10 23 11
REMARK SMILES IDX 24 12 25 13 26 14 12 15 11 16 10 17 9 18 8 19 7 20 6 21 5 22
REMARK SMILES IDX 4 23 3 24 2 25 1 26
REMARK H PARENT
REMARK Flexibility Score: inf
ROOT
ATOM      1  C   UNL     1      18.205 -43.855  25.390  1.00  0.00     0.000 C 
ENDROOT
BRANCH   1   2
ATOM      2  C   UNL     1      18.966 -42.518  25.431  1.00  0.00     0.000 C 
BRANCH   2   3
ATOM      3  C   UNL     1      18.238 -41.404  24.661  1.00  0.00     0.000 C 
BRANCH   3   4
ATOM      4  C   UNL     1      17.610 -40.350  25.591  1.00  0.00     0.000 C 
BRANCH   4   5
ATOM      5  C   UNL     1      18.668 -39.522  26.338  1.00  0.00     0.000 C 
BRANCH   5   6
ATOM      6  C   UNL     1      18.386 -39.427  27.846  1.00  0.00     0.000 C 
BRANCH   6   7
ATOM      7  C   UNL     1      18.139 -40.816  28.447  1.00  0.00     0.000 C 
BRANCH   7   8
ATOM      8  C   UNL     1      16.952 -40.790  29.421  1.00  0.00     0.000 C 
BRANCH   8   9
ATOM      9  C   UNL     1      15.697 -41.477  28.859  1.00  0.00     0.000 C 
BRANCH   9  10
ATOM     10  C   UNL     1      14.867 -40.628  27.875  1.00  0.00     0.006 C 
BRANCH  10  11
ATOM     11  C   UNL     1      14.621 -39.182  28.344  1.00  0.00     0.053 C 
BRANCH  11  12
ATOM     12  C   UNL     1      13.191 -38.933  28.719  1.00  0.00     0.041 C 
ATOM     13  O   UNL     1      12.452 -39.887  29.076  1.00  0.00    -0.550 OA
ATOM     14  O   UNL     1      12.665 -37.650  28.640  1.00  0.00    -0.550 OA
ENDBRANCH  11  12
ENDBRANCH  10  11
ENDBRANCH   9  10
ENDBRANCH   8   9
ENDBRANCH   7   8
ENDBRANCH   6   7
ENDBRANCH   5   6
ENDBRANCH   4   5
ENDBRANCH   3   4
ENDBRANCH   2   3
ENDBRANCH   1   2
BRANCH   1  15
ATOM     15  C   UNL     1      17.066 -43.917  26.422  1.00  0.00     0.000 C 
BRANCH  15  16
ATOM     16  C   UNL     1      17.056 -45.240  27.208  1.00  0.00     0.000 C 
BRANCH  16  17
ATOM     17  C   UNL     1      16.587 -45.066  28.663  1.00  0.00     0.000 C 
BRANCH  17  18
ATOM     18  C   UNL     1      17.668 -45.294  29.741  1.00  0.00    -0.000 C 
BRANCH  18  19
ATOM     19  C   UNL     1      18.494 -44.051  30.136  1.00  0.00    -0.000 C 
BRANCH  19  20
ATOM     20  C   UNL     1      19.575 -44.313  31.210  1.00  0.00    -0.000 C 
BRANCH  20  21
ATOM     21  C   UNL     1      19.399 -43.476  32.493  1.00  0.00    -0.000 C 
BRANCH  21  22
ATOM     22  C   UNL     1      18.220 -42.490  32.475  1.00  0.00    -0.000 C 
BRANCH  22  23
ATOM     23  C   UNL     1      17.016 -42.984  33.295  1.00  0.00    -0.000 C 
BRANCH  23  24
ATOM     24  C   UNL     1      15.724 -43.073  32.463  1.00  0.00    -0.000 C 
BRANCH  24  25
ATOM     25  C   UNL     1      14.748 -44.183  32.892  1.00  0.00    -0.003 C 
ATOM     26  C   UNL     1      15.416 -45.553  33.013  1.00  0.00     0.004 C 
ENDBRANCH  24  25
ENDBRANCH  23  24
ENDBRANCH  22  23
ENDBRANCH  21  22
ENDBRANCH  20  21
ENDBRANCH  19  20
ENDBRANCH  18  19
ENDBRANCH  17  18
ENDBRANCH  16  17
ENDBRANCH  15  16
ENDBRANCH   1  15
TORSDOF 22
ENDMDL
MODEL 7
REMARK VINA RESULT:    -4.385      1.165      1.886
REMARK INTER + INTRA:         -14.386
REMARK INTER:                 -10.157
REMARK INTRA:                  -4.230
REMARK UNBOUND:                -4.361
REMARK SMILES CCCCCCCCCCCCCCCCCCCCCCCC(=O)[O-]
REMARK SMILES IDX 13 1 14 2 15 3 16 4 17 5 18 6 19 7 20 8 21 9 22 10 23 11
REMARK SMILES IDX 24 12 25 13 26 14 12 15 11 16 10 17 9 18 8 19 7 20 6 21 5 22
REMARK SMILES IDX 4 23 3 24 2 25 1 26
REMARK H PARENT
REMARK Flexibility Score: inf
ROOT
ATOM      1  C   UNL     1      17.117 -44.559  25.936  1.00  0.00     0.000 C 
ENDROOT
BRANCH   1   2
ATOM      2  C   UNL     1      17.337 -45.478  27.151  1.00  0.00     0.000 C 
BRANCH   2   3
ATOM      3  C   UNL     1      16.800 -44.867  28.456  1.00  0.00     0.000 C 
BRANCH   3   4
ATOM      4  C   UNL     1      15.374 -45.339  28.791  1.00  0.00     0.000 C 
BRANCH   4   5
ATOM      5  C   UNL     1      14.334 -44.217  28.646  1.00  0.00     0.000 C 
BRANCH   5   6
ATOM      6  C   UNL     1      14.758 -42.924  29.359  1.00  0.00     0.000 C 
BRANCH   6   7
ATOM      7  C   UNL     1      14.030 -42.773  30.700  1.00  0.00     0.000 C 
BRANCH   7   8
ATOM      8  C   UNL     1      15.018 -42.429  31.826  1.00  0.00     0.000 C 
BRANCH   8   9
ATOM      9  C   UNL     1      15.598 -43.674  32.517  1.00  0.00     0.000 C 
BRANCH   9  10
ATOM     10  C   UNL     1      17.035 -44.048  32.101  1.00  0.00     0.006 C 
BRANCH  10  11
ATOM     11  C   UNL     1      18.131 -43.338  32.917  1.00  0.00     0.053 C 
BRANCH  11  12
ATOM     12  C   UNL     1      19.458 -44.030  32.826  1.00  0.00     0.041 C 
ATOM     13  O   UNL     1      19.743 -44.726  31.816  1.00  0.00    -0.550 OA
ATOM     14  O   UNL     1      20.366 -43.934  33.873  1.00  0.00    -0.550 OA
ENDBRANCH  11  12
ENDBRANCH  10  11
ENDBRANCH   9  10
ENDBRANCH   8   9
ENDBRANCH   7   8
ENDBRANCH   6   7
ENDBRANCH   5   6
ENDBRANCH   4   5
ENDBRANCH   3   4
ENDBRANCH   2   3
ENDBRANCH   1   2
BRANCH   1  15
ATOM     15  C   UNL     1      17.210 -43.067  26.301  1.00  0.00     0.000 C 
BRANCH  15  16
ATOM     16  C   UNL     1      18.629 -42.502  26.112  1.00  0.00     0.000 C 
BRANCH  16  17
ATOM     17  C   UNL     1      18.923 -42.106  24.654  1.00  0.00     0.000 C 
BRANCH  17  18
ATOM     18  C   UNL     1      18.277 -40.786  24.181  1.00  0.00    -0.000 C 
BRANCH  18  19
ATOM     19  C   UNL     1      18.331 -39.615  25.184  1.00  0.00    -0.000 C 
BRANCH  19  20
ATOM     20  C   UNL     1      16.952 -39.028  25.560  1.00  0.00    -0.000 C 
BRANCH  20  21
ATOM     21  C   UNL     1      16.810 -38.669  27.053  1.00  0.00    -0.000 C 
BRANCH  21  22
ATOM     22  C   UNL     1      16.456 -39.845  27.979  1.00  0.00    -0.000 C 
BRANCH  22  23
ATOM     23  C   UNL     1      16.476 -39.460  29.468  1.00  0.00    -0.000 C 
BRANCH  23  24
ATOM     24  C   UNL     1      17.551 -40.219  30.266  1.00  0.00    -0.000 C 
BRANCH  24  25
ATOM     25  C   UNL     1      18.063 -41.510  29.604  1.00  0.00    -0.003 C 
ATOM     26  C   UNL     1      19.577 -41.682  29.721  1.00  0.00     0.004 C 
ENDBRANCH  24  25
ENDBRANCH  23  24
ENDBRANCH  22  23
ENDBRANCH  21  22
ENDBRANCH  20  21
ENDBRANCH  19  20
ENDBRANCH  18  19
ENDBRANCH  17  18
ENDBRANCH  16  17
ENDBRANCH  15  16
ENDBRANCH   1  15
TORSDOF 22
ENDMDL
MODEL 8
REMARK VINA RESULT:    -4.383      1.463      3.112
REMARK INTER + INTRA:         -14.381
REMARK INTER:                 -10.114
REMARK INTRA:                  -4.266
REMARK UNBOUND:                -4.361
REMARK SMILES CCCCCCCCCCCCCCCCCCCCCCCC(=O)[O-]
REMARK SMILES IDX 13 1 14 2 15 3 16 4 17 5 18 6 19 7 20 8 21 9 22 10 23 11
REMARK SMILES IDX 24 12 25 13 26 14 12 15 11 16 10 17 9 18 8 19 7 20 6 21 5 22
REMARK SMILES IDX 4 23 3 24 2 25 1 26
REMARK H PARENT
REMARK Flexibility Score: inf
ROOT
ATOM      1  C   UNL     1      18.791 -41.547  24.382  1.00  0.00     0.000 C 
ENDROOT
BRANCH   1   2
ATOM      2  C   UNL     1      18.894 -42.699  25.398  1.00  0.00     0.000 C 
BRANCH   2   3
ATOM      3  C   UNL     1      17.517 -43.246  25.808  1.00  0.00     0.000 C 
BRANCH   3   4
ATOM      4  C   UNL     1      17.540 -44.758  26.096  1.00  0.00     0.000 C 
BRANCH   4   5
ATOM      5  C   UNL     1      16.803 -45.119  27.396  1.00  0.00     0.000 C 
BRANCH   5   6
ATOM      6  C   UNL     1      17.579 -44.694  28.652  1.00  0.00     0.000 C 
BRANCH   6   7
ATOM      7  C   UNL     1      16.858 -45.152  29.924  1.00  0.00     0.000 C 
BRANCH   7   8
ATOM      8  C   UNL     1      15.338 -44.982  29.786  1.00  0.00     0.000 C 
BRANCH   8   9
ATOM      9  C   UNL     1      14.584 -45.212  31.106  1.00  0.00     0.000 C 
BRANCH   9  10
ATOM     10  C   UNL     1      15.384 -44.894  32.384  1.00  0.00     0.006 C 
BRANCH  10  11
ATOM     11  C   UNL     1      15.281 -43.426  32.841  1.00  0.00     0.053 C 
BRANCH  11  12
ATOM     12  C   UNL     1      16.621 -42.811  33.111  1.00  0.00     0.041 C 
ATOM     13  O   UNL     1      17.667 -43.506  33.032  1.00  0.00    -0.550 OA
ATOM     14  O   UNL     1      16.711 -41.476  33.485  1.00  0.00    -0.550 OA
ENDBRANCH  11  12
ENDBRANCH  10  11
ENDBRANCH   9  10
ENDBRANCH   8   9
ENDBRANCH   7   8
ENDBRANCH   6   7
ENDBRANCH   5   6
ENDBRANCH   4   5
ENDBRANCH   3   4
ENDBRANCH   2   3
ENDBRANCH   1   2
BRANCH   1  15
ATOM     15  C   UNL     1      17.589 -40.627  24.654  1.00  0.00     0.000 C 
BRANCH  15  16
ATOM     16  C   UNL     1      18.011 -39.259  25.219  1.00  0.00     0.000 C 
BRANCH  16  17
ATOM     17  C   UNL     1      17.713 -39.116  26.721  1.00  0.00     0.000 C 
BRANCH  17  18
ATOM     18  C   UNL     1      18.950 -39.014  27.638  1.00  0.00    -0.000 C 
BRANCH  18  19
ATOM     19  C   UNL     1      18.990 -40.003  28.823  1.00  0.00    -0.000 C 
BRANCH  19  20
ATOM     20  C   UNL     1      17.889 -41.087  28.791  1.00  0.00    -0.000 C 
BRANCH  20  21
ATOM     21  C   UNL     1      16.854 -40.964  29.927  1.00  0.00    -0.000 C 
BRANCH  21  22
ATOM     22  C   UNL     1      15.426 -41.403  29.563  1.00  0.00    -0.000 C 
BRANCH  22  23
ATOM     23  C   UNL     1      15.237 -41.628  28.054  1.00  0.00    -0.000 C 
BRANCH  23  24
ATOM     24  C   UNL     1      14.196 -40.678  27.434  1.00  0.00    -0.000 C 
BRANCH  24  25
ATOM     25  C   UNL     1      14.273 -39.220  27.923  1.00  0.00    -0.003 C 
ATOM     26  C   UNL     1      14.084 -38.202  26.799  1.00  0.00     0.004 C 
ENDBRANCH  24  25
ENDBRANCH  23  24
ENDBRANCH  22  23
ENDBRANCH  21  22
ENDBRANCH  20  21
ENDBRANCH  19  20
ENDBRANCH  18  19
ENDBRANCH  17  18
ENDBRANCH  16  17
ENDBRANCH  15  16
ENDBRANCH   1  15
TORSDOF 22
ENDMDL
MODEL 9
REMARK VINA RESULT:    -4.330      2.747      4.186
REMARK INTER + INTRA:         -14.259
REMARK INTER:                 -10.108
REMARK INTRA:                  -4.151
REMARK UNBOUND:                -4.361
REMARK SMILES CCCCCCCCCCCCCCCCCCCCCCCC(=O)[O-]
REMARK SMILES IDX 13 1 14 2 15 3 16 4 17 5 18 6 19 7 20 8 21 9 22 10 23 11
REMARK SMILES IDX 24 12 25 13 26 14 12 15 11 16 10 17 9 18 8 19 7 20 6 21 5 22
REMARK SMILES IDX 4 23 3 24 2 25 1 26
REMARK H PARENT
REMARK Flexibility Score: inf
ROOT
ATOM      1  C   UNL     1      17.120 -45.502  27.627  1.00  0.00     0.000 C 
ENDROOT
BRANCH   1   2
ATOM      2  C   UNL     1      17.469 -45.410  29.123  1.00  0.00     0.000 C 
BRANCH   2   3
ATOM      3  C   UNL     1      18.114 -44.065  29.495  1.00  0.00     0.000 C 
BRANCH   3   4
ATOM      4  C   UNL     1      18.928 -44.137  30.799  1.00  0.00     0.000 C 
BRANCH   4   5
ATOM      5  C   UNL     1      18.247 -45.003  31.871  1.00  0.00     0.000 C 
BRANCH   5   6
ATOM      6  C   UNL     1      17.433 -44.170  32.873  1.00  0.00     0.000 C 
BRANCH   6   7
ATOM      7  C   UNL     1      15.958 -44.586  32.863  1.00  0.00     0.000 C 
BRANCH   7   8
ATOM      8  C   UNL     1      15.044 -43.363  32.690  1.00  0.00     0.000 C 
BRANCH   8   9
ATOM      9  C   UNL     1      13.865 -43.624  31.738  1.00  0.00     0.000 C 
BRANCH   9  10
ATOM     10  C   UNL     1      14.246 -43.825  30.258  1.00  0.00     0.006 C 
BRANCH  10  11
ATOM     11  C   UNL     1      13.717 -45.135  29.645  1.00  0.00     0.053 C 
BRANCH  11  12
ATOM     12  C   UNL     1      12.358 -44.977  29.031  1.00  0.00     0.041 C 
ATOM     13  O   UNL     1      11.325 -45.048  29.746  1.00  0.00    -0.550 OA
ATOM     14  O   UNL     1      12.232 -44.785  27.661  1.00  0.00    -0.550 OA
ENDBRANCH  11  12
ENDBRANCH  10  11
ENDBRANCH   9  10
ENDBRANCH   8   9
ENDBRANCH   7   8
ENDBRANCH   6   7
ENDBRANCH   5   6
ENDBRANCH   4   5
ENDBRANCH   3   4
ENDBRANCH   2   3
ENDBRANCH   1   2
BRANCH   1  15
ATOM     15  C   UNL     1      16.901 -44.120  26.987  1.00  0.00     0.000 C 
BRANCH  15  16
ATOM     16  C   UNL     1      17.421 -44.053  25.540  1.00  0.00     0.000 C 
BRANCH  16  17
ATOM     17  C   UNL     1      18.598 -43.077  25.374  1.00  0.00     0.000 C 
BRANCH  17  18
ATOM     18  C   UNL     1      18.595 -41.863  26.327  1.00  0.00    -0.000 C 
BRANCH  18  19
ATOM     19  C   UNL     1      18.013 -40.556  25.748  1.00  0.00    -0.000 C 
BRANCH  19  20
ATOM     20  C   UNL     1      16.474 -40.447  25.830  1.00  0.00    -0.000 C 
BRANCH  20  21
ATOM     21  C   UNL     1      15.960 -39.810  27.137  1.00  0.00    -0.000 C 
BRANCH  21  22
ATOM     22  C   UNL     1      15.449 -40.804  28.193  1.00  0.00    -0.000 C 
BRANCH  22  23
ATOM     23  C   UNL     1      16.447 -41.020  29.343  1.00  0.00    -0.000 C 
BRANCH  23  24
ATOM     24  C   UNL     1      17.242 -39.748  29.689  1.00  0.00    -0.000 C 
BRANCH  24  25
ATOM     25  C   UNL     1      18.762 -39.850  29.470  1.00  0.00    -0.003 C 
ATOM     26  C   UNL     1      19.314 -38.739  28.578  1.00  0.00     0.004 C 
ENDBRANCH  24  25
ENDBRANCH  23  24
ENDBRANCH  22  23
ENDBRANCH  21  22
ENDBRANCH  20  21
ENDBRANCH  19  20
ENDBRANCH  18  19
ENDBRANCH  17  18
ENDBRANCH  16  17
ENDBRANCH  15  16
ENDBRANCH   1  15
TORSDOF 22
ENDMDL
