MODEL 1
REMARK VINA RESULT:    -3.253      0.000      0.000
REMARK INTER + INTRA:         -11.545
REMARK INTER:                  -7.436
REMARK INTRA:                  -4.109
REMARK UNBOUND:                -4.109
REMARK SMILES CCCCCCCCCCCCCCCCCCCCCCCC(=O)[O-]
REMARK SMILES IDX 13 1 14 2 15 3 16 4 17 5 18 6 19 7 20 8 21 9 22 10 23 11
REMARK SMILES IDX 24 12 25 13 26 14 12 15 11 16 10 17 9 18 8 19 7 20 6 21 5 22
REMARK SMILES IDX 4 23 3 24 2 25 1 26
REMARK H PARENT
REMARK Flexibility Score: inf
ROOT
ATOM      1  C   UNL     1     -99.355  68.527  24.248  1.00  0.00     0.000 C 
ENDROOT
BRANCH   1   2
ATOM      2  C   UNL     1     -99.223  69.510  23.073  1.00  0.00     0.000 C 
BRANCH   2   3
ATOM      3  C   UNL     1    -100.584  69.876  22.455  1.00  0.00     0.000 C 
BRANCH   3   4
ATOM      4  C   UNL     1    -101.095  71.249  22.924  1.00  0.00     0.000 C 
BRANCH   4   5
ATOM      5  C   UNL     1    -102.527  71.188  23.483  1.00  0.00     0.000 C 
BRANCH   5   6
ATOM      6  C   UNL     1    -102.561  70.872  24.988  1.00  0.00     0.000 C 
BRANCH   6   7
ATOM      7  C   UNL     1    -103.113  72.039  25.824  1.00  0.00     0.000 C 
BRANCH   7   8
ATOM      8  C   UNL     1    -102.844  71.871  27.328  1.00  0.00     0.000 C 
BRANCH   8   9
ATOM      9  C   UNL     1    -102.239  70.499  27.673  1.00  0.00     0.000 C 
BRANCH   9  10
ATOM     10  C   UNL     1    -101.104  70.593  28.709  1.00  0.00     0.006 C 
BRANCH  10  11
ATOM     11  C   UNL     1    -100.824  69.281  29.461  1.00  0.00     0.053 C 
BRANCH  11  12
ATOM     12  C   UNL     1     -99.369  68.925  29.445  1.00  0.00     0.041 C 
ATOM     13  O   UNL     1     -98.496  69.823  29.315  1.00  0.00    -0.550 OA
ATOM     14  O   UNL     1     -98.979  67.594  29.536  1.00  0.00    -0.550 OA
ENDBRANCH  11  12
ENDBRANCH  10  11
ENDBRANCH   9  10
ENDBRANCH   8   9
ENDBRANCH   7   8
ENDBRANCH   6   7
ENDBRANCH   5   6
ENDBRANCH   4   5
ENDBRANCH   3   4
ENDBRANCH   2   3
ENDBRANCH   1   2
BRANCH   1  15
ATOM     15  C   UNL     1     -99.473  69.236  25.610  1.00  0.00     0.000 C 
BRANCH  15  16
ATOM     16  C   UNL     1     -98.434  70.366  25.766  1.00  0.00     0.000 C 
BRANCH  16  17
ATOM     17  C   UNL     1     -99.058  71.758  25.967  1.00  0.00     0.000 C 
BRANCH  17  18
ATOM     18  C   UNL     1     -98.512  72.806  24.985  1.00  0.00    -0.000 C 
BRANCH  18  19
ATOM     19  C   UNL     1     -97.379  72.254  24.105  1.00  0.00    -0.000 C 
BRANCH  19  20
ATOM     20  C   UNL     1     -96.254  73.280  23.878  1.00  0.00    -0.000 C 
BRANCH  20  21
ATOM     21  C   UNL     1     -95.302  72.880  22.737  1.00  0.00    -0.000 C 
BRANCH  21  22
ATOM     22  C   UNL     1     -95.707  73.389  21.340  1.00  0.00    -0.000 C 
BRANCH  22  23
ATOM     23  C   UNL     1     -96.264  72.276  20.437  1.00  0.00    -0.000 C 
BRANCH  23  24
ATOM     24  C   UNL     1     -97.771  72.036  20.639  1.00  0.00    -0.000 C 
BRANCH  24  25
ATOM     25  C   UNL     1     -98.683  73.197  20.199  1.00  0.00    -0.003 C 
ATOM     26  C   UNL     1     -99.237  74.002  21.374  1.00  0.00     0.004 C 
ENDBRANCH  24  25
ENDBRANCH  23  24
ENDBRANCH  22  23
ENDBRANCH  21  22
ENDBRANCH  20  21
ENDBRANCH  19  20
ENDBRANCH  18  19
ENDBRANCH  17  18
ENDBRANCH  16  17
ENDBRANCH  15  16
ENDBRANCH   1  15
TORSDOF 22
ENDMDL
MODEL 2
REMARK VINA RESULT:    -3.173      1.934      5.634
REMARK INTER + INTRA:         -11.363
REMARK INTER:                  -7.190
REMARK INTRA:                  -4.172
REMARK UNBOUND:                -4.109
REMARK SMILES CCCCCCCCCCCCCCCCCCCCCCCC(=O)[O-]
REMARK SMILES IDX 13 1 14 2 15 3 16 4 17 5 18 6 19 7 20 8 21 9 22 10 23 11
REMARK SMILES IDX 24 12 25 13 26 14 12 15 11 16 10 17 9 18 8 19 7 20 6 21 5 22
REMARK SMILES IDX 4 23 3 24 2 25 1 26
REMARK H PARENT
REMARK Flexibility Score: inf
ROOT
ATOM      1  C   UNL     1     -96.753  72.405  20.063  1.00  0.00     0.000 C 
ENDROOT
BRANCH   1   2
ATOM      2  C   UNL     1     -95.714  73.538  20.058  1.00  0.00     0.000 C 
BRANCH   2   3
ATOM      3  C   UNL     1     -95.544  74.190  21.442  1.00  0.00     0.000 C 
BRANCH   3   4
ATOM      4  C   UNL     1     -95.254  73.161  22.548  1.00  0.00     0.000 C 
BRANCH   4   5
ATOM      5  C   UNL     1     -95.919  73.528  23.886  1.00  0.00     0.000 C 
BRANCH   5   6
ATOM      6  C   UNL     1     -97.229  74.311  23.700  1.00  0.00     0.000 C 
BRANCH   6   7
ATOM      7  C   UNL     1     -98.297  73.929  24.739  1.00  0.00     0.000 C 
BRANCH   7   8
ATOM      8  C   UNL     1     -97.840  74.188  26.184  1.00  0.00     0.000 C 
BRANCH   8   9
ATOM      9  C   UNL     1     -98.819  73.621  27.227  1.00  0.00     0.000 C 
BRANCH   9  10
ATOM     10  C   UNL     1     -98.432  72.207  27.698  1.00  0.00     0.006 C 
BRANCH  10  11
ATOM     11  C   UNL     1     -98.756  71.921  29.173  1.00  0.00     0.053 C 
BRANCH  11  12
ATOM     12  C   UNL     1     -97.692  72.437  30.093  1.00  0.00     0.041 C 
ATOM     13  O   UNL     1     -97.950  72.648  31.307  1.00  0.00    -0.550 OA
ATOM     14  O   UNL     1     -96.424  72.718  29.599  1.00  0.00    -0.550 OA
ENDBRANCH  11  12
ENDBRANCH  10  11
ENDBRANCH   9  10
ENDBRANCH   8   9
ENDBRANCH   7   8
ENDBRANCH   6   7
ENDBRANCH   5   6
ENDBRANCH   4   5
ENDBRANCH   3   4
ENDBRANCH   2   3
ENDBRANCH   1   2
BRANCH   1  15
ATOM     15  C   UNL     1     -98.185  72.910  20.321  1.00  0.00     0.000 C 
BRANCH  15  16
ATOM     16  C   UNL     1     -98.941  72.019  21.330  1.00  0.00     0.000 C 
BRANCH  16  17
ATOM     17  C   UNL     1     -98.050  70.971  22.019  1.00  0.00     0.000 C 
BRANCH  17  18
ATOM     18  C   UNL     1     -98.615  70.499  23.368  1.00  0.00    -0.000 C 
BRANCH  18  19
ATOM     19  C   UNL     1     -99.351  69.155  23.260  1.00  0.00    -0.000 C 
BRANCH  19  20
ATOM     20  C   UNL     1     -99.254  68.323  24.551  1.00  0.00    -0.000 C 
BRANCH  20  21
ATOM     21  C   UNL     1     -99.073  69.192  25.809  1.00  0.00    -0.000 C 
BRANCH  21  22
ATOM     22  C   UNL     1    -100.153  69.005  26.892  1.00  0.00    -0.000 C 
BRANCH  22  23
ATOM     23  C   UNL     1    -101.512  69.605  26.491  1.00  0.00    -0.000 C 
BRANCH  23  24
ATOM     24  C   UNL     1    -101.396  71.039  25.943  1.00  0.00    -0.000 C 
BRANCH  24  25
ATOM     25  C   UNL     1    -102.200  71.314  24.659  1.00  0.00    -0.003 C 
ATOM     26  C   UNL     1    -101.695  72.532  23.885  1.00  0.00     0.004 C 
ENDBRANCH  24  25
ENDBRANCH  23  24
ENDBRANCH  22  23
ENDBRANCH  21  22
ENDBRANCH  20  21
ENDBRANCH  19  20
ENDBRANCH  18  19
ENDBRANCH  17  18
ENDBRANCH  16  17
ENDBRANCH  15  16
ENDBRANCH   1  15
TORSDOF 22
ENDMDL
MODEL 3
REMARK VINA RESULT:    -3.166      3.194      6.917
REMARK INTER + INTRA:         -11.348
REMARK INTER:                  -7.284
REMARK INTRA:                  -4.064
REMARK UNBOUND:                -4.109
REMARK SMILES CCCCCCCCCCCCCCCCCCCCCCCC(=O)[O-]
REMARK SMILES IDX 13 1 14 2 15 3 16 4 17 5 18 6 19 7 20 8 21 9 22 10 23 11
REMARK SMILES IDX 24 12 25 13 26 14 12 15 11 16 10 17 9 18 8 19 7 20 6 21 5 22
REMARK SMILES IDX 4 23 3 24 2 25 1 26
REMARK H PARENT
REMARK Flexibility Score: inf
ROOT
ATOM      1  C   UNL     1     -98.665  69.173  26.540  1.00  0.00     0.000 C 
ENDROOT
BRANCH   1   2
ATOM      2  C   UNL     1     -99.733  68.996  25.448  1.00  0.00     0.000 C 
BRANCH   2   3
ATOM      3  C   UNL     1     -99.165  68.363  24.164  1.00  0.00     0.000 C 
BRANCH   3   4
ATOM      4  C   UNL     1     -98.793  69.413  23.104  1.00  0.00     0.000 C 
BRANCH   4   5
ATOM      5  C   UNL     1     -99.802  70.573  23.040  1.00  0.00     0.000 C 
BRANCH   5   6
ATOM      6  C   UNL     1     -99.123  71.951  23.108  1.00  0.00     0.000 C 
BRANCH   6   7
ATOM      7  C   UNL     1     -97.821  71.928  23.926  1.00  0.00     0.000 C 
BRANCH   7   8
ATOM      8  C   UNL     1     -97.456  73.307  24.499  1.00  0.00     0.000 C 
BRANCH   8   9
ATOM      9  C   UNL     1     -96.027  73.745  24.128  1.00  0.00     0.000 C 
BRANCH   9  10
ATOM     10  C   UNL     1     -95.392  72.845  23.052  1.00  0.00     0.006 C 
BRANCH  10  11
ATOM     11  C   UNL     1     -95.344  73.474  21.650  1.00  0.00     0.053 C 
BRANCH  11  12
ATOM     12  C   UNL     1     -96.007  72.608  20.622  1.00  0.00     0.041 C 
ATOM     13  O   UNL     1     -96.276  71.406  20.884  1.00  0.00    -0.550 OA
ATOM     14  O   UNL     1     -96.293  73.120  19.363  1.00  0.00    -0.550 OA
ENDBRANCH  11  12
ENDBRANCH  10  11
ENDBRANCH   9  10
ENDBRANCH   8   9
ENDBRANCH   7   8
ENDBRANCH   6   7
ENDBRANCH   5   6
ENDBRANCH   4   5
ENDBRANCH   3   4
ENDBRANCH   2   3
ENDBRANCH   1   2
BRANCH   1  15
ATOM     15  C   UNL     1     -98.650  70.593  27.136  1.00  0.00     0.000 C 
BRANCH  15  16
ATOM     16  C   UNL     1     -97.952  70.635  28.512  1.00  0.00     0.000 C 
BRANCH  16  17
ATOM     17  C   UNL     1     -97.917  72.037  29.145  1.00  0.00     0.000 C 
BRANCH  17  18
ATOM     18  C   UNL     1     -98.196  73.158  28.131  1.00  0.00    -0.000 C 
BRANCH  18  19
ATOM     19  C   UNL     1     -99.499  73.916  28.436  1.00  0.00    -0.000 C 
BRANCH  19  20
ATOM     20  C   UNL     1    -100.076  73.566  29.819  1.00  0.00    -0.000 C 
BRANCH  20  21
ATOM     21  C   UNL     1    -101.492  72.968  29.741  1.00  0.00    -0.000 C 
BRANCH  21  22
ATOM     22  C   UNL     1    -101.547  71.461  29.428  1.00  0.00    -0.000 C 
BRANCH  22  23
ATOM     23  C   UNL     1    -102.770  71.070  28.580  1.00  0.00    -0.000 C 
BRANCH  23  24
ATOM     24  C   UNL     1    -102.387  70.467  27.216  1.00  0.00    -0.000 C 
BRANCH  24  25
ATOM     25  C   UNL     1    -102.633  71.383  26.003  1.00  0.00    -0.003 C 
ATOM     26  C   UNL     1    -101.544  72.440  25.820  1.00  0.00     0.004 C 
ENDBRANCH  24  25
ENDBRANCH  23  24
ENDBRANCH  22  23
ENDBRANCH  21  22
ENDBRANCH  20  21
ENDBRANCH  19  20
ENDBRANCH  18  19
ENDBRANCH  17  18
ENDBRANCH  16  17
ENDBRANCH  15  16
ENDBRANCH   1  15
TORSDOF 22
ENDMDL
MODEL 4
REMARK VINA RESULT:    -3.165      1.623      4.697
REMARK INTER + INTRA:         -11.345
REMARK INTER:                  -7.268
REMARK INTRA:                  -4.077
REMARK UNBOUND:                -4.109
REMARK SMILES CCCCCCCCCCCCCCCCCCCCCCCC(=O)[O-]
REMARK SMILES IDX 13 1 14 2 15 3 16 4 17 5 18 6 19 7 20 8 21 9 22 10 23 11
REMARK SMILES IDX 24 12 25 13 26 14 12 15 11 16 10 17 9 18 8 19 7 20 6 21 5 22
REMARK SMILES IDX 4 23 3 24 2 25 1 26
REMARK H PARENT
REMARK Flexibility Score: inf
ROOT
ATOM      1  C   UNL     1     -95.221  72.875  22.610  1.00  0.00     0.000 C 
ENDROOT
BRANCH   1   2
ATOM      2  C   UNL     1     -96.002  73.394  23.828  1.00  0.00     0.000 C 
BRANCH   2   3
ATOM      3  C   UNL     1     -96.904  74.593  23.483  1.00  0.00     0.000 C 
BRANCH   3   4
ATOM      4  C   UNL     1     -98.280  74.512  24.167  1.00  0.00     0.000 C 
BRANCH   4   5
ATOM      5  C   UNL     1     -98.390  73.320  25.134  1.00  0.00     0.000 C 
BRANCH   5   6
ATOM      6  C   UNL     1     -99.831  72.802  25.273  1.00  0.00     0.000 C 
BRANCH   6   7
ATOM      7  C   UNL     1     -99.937  71.597  26.223  1.00  0.00     0.000 C 
BRANCH   7   8
ATOM      8  C   UNL     1     -98.675  70.718  26.210  1.00  0.00     0.000 C 
BRANCH   8   9
ATOM      9  C   UNL     1     -98.993  69.223  26.387  1.00  0.00     0.000 C 
BRANCH   9  10
ATOM     10  C   UNL     1    -100.368  68.981  27.037  1.00  0.00     0.006 C 
BRANCH  10  11
ATOM     11  C   UNL     1    -100.302  68.475  28.487  1.00  0.00     0.053 C 
BRANCH  11  12
ATOM     12  C   UNL     1    -100.479  69.584  29.478  1.00  0.00     0.041 C 
ATOM     13  O   UNL     1     -99.578  70.450  29.629  1.00  0.00    -0.550 OA
ATOM     14  O   UNL     1    -101.626  69.639  30.260  1.00  0.00    -0.550 OA
ENDBRANCH  11  12
ENDBRANCH  10  11
ENDBRANCH   9  10
ENDBRANCH   8   9
ENDBRANCH   7   8
ENDBRANCH   6   7
ENDBRANCH   5   6
ENDBRANCH   4   5
ENDBRANCH   3   4
ENDBRANCH   2   3
ENDBRANCH   1   2
BRANCH   1  15
ATOM     15  C   UNL     1     -95.185  73.885  21.449  1.00  0.00     0.000 C 
BRANCH  15  16
ATOM     16  C   UNL     1     -95.810  73.308  20.160  1.00  0.00     0.000 C 
BRANCH  16  17
ATOM     17  C   UNL     1     -96.694  72.072  20.400  1.00  0.00     0.000 C 
BRANCH  17  18
ATOM     18  C   UNL     1     -98.196  72.394  20.359  1.00  0.00    -0.000 C 
BRANCH  18  19
ATOM     19  C   UNL     1     -98.925  71.968  21.643  1.00  0.00    -0.000 C 
BRANCH  19  20
ATOM     20  C   UNL     1     -98.235  70.788  22.350  1.00  0.00    -0.000 C 
BRANCH  20  21
ATOM     21  C   UNL     1     -99.204  69.638  22.679  1.00  0.00    -0.000 C 
BRANCH  21  22
ATOM     22  C   UNL     1    -100.628  70.077  23.068  1.00  0.00    -0.000 C 
BRANCH  22  23
ATOM     23  C   UNL     1    -101.633  69.940  21.911  1.00  0.00    -0.000 C 
BRANCH  23  24
ATOM     24  C   UNL     1    -102.874  70.833  22.085  1.00  0.00    -0.000 C 
BRANCH  24  25
ATOM     25  C   UNL     1    -102.584  72.275  22.544  1.00  0.00    -0.003 C 
ATOM     26  C   UNL     1    -102.930  73.322  21.485  1.00  0.00     0.004 C 
ENDBRANCH  24  25
ENDBRANCH  23  24
ENDBRANCH  22  23
ENDBRANCH  21  22
ENDBRANCH  20  21
ENDBRANCH  19  20
ENDBRANCH  18  19
ENDBRANCH  17  18
ENDBRANCH  16  17
ENDBRANCH  15  16
ENDBRANCH   1  15
TORSDOF 22
ENDMDL
MODEL 5
REMARK VINA RESULT:    -3.160      3.084      7.252
REMARK INTER + INTRA:         -11.333
REMARK INTER:                  -6.915
REMARK INTRA:                  -4.419
REMARK UNBOUND:                -4.109
REMARK SMILES CCCCCCCCCCCCCCCCCCCCCCCC(=O)[O-]
REMARK SMILES IDX 13 1 14 2 15 3 16 4 17 5 18 6 19 7 20 8 21 9 22 10 23 11
REMARK SMILES IDX 24 12 25 13 26 14 12 15 11 16 10 17 9 18 8 19 7 20 6 21 5 22
REMARK SMILES IDX 4 23 3 24 2 25 1 26
REMARK H PARENT
REMARK Flexibility Score: inf
ROOT
ATOM      1  C   UNL     1     -99.742  71.733  25.729  1.00  0.00     0.000 C 
ENDROOT
BRANCH   1   2
ATOM      2  C   UNL     1     -99.394  73.122  25.169  1.00  0.00     0.000 C 
BRANCH   2   3
ATOM      3  C   UNL     1     -97.907  73.477  25.353  1.00  0.00     0.000 C 
BRANCH   3   4
ATOM      4  C   UNL     1     -97.242  73.927  24.041  1.00  0.00     0.000 C 
BRANCH   4   5
ATOM      5  C   UNL     1     -96.247  72.887  23.496  1.00  0.00     0.000 C 
BRANCH   5   6
ATOM      6  C   UNL     1     -96.219  72.845  21.959  1.00  0.00     0.000 C 
BRANCH   6   7
ATOM      7  C   UNL     1     -96.787  71.532  21.395  1.00  0.00     0.000 C 
BRANCH   7   8
ATOM      8  C   UNL     1     -98.295  71.377  21.655  1.00  0.00     0.000 C 
BRANCH   8   9
ATOM      9  C   UNL     1     -98.625  70.146  22.517  1.00  0.00     0.000 C 
BRANCH   9  10
ATOM     10  C   UNL     1    -100.140  69.913  22.664  1.00  0.00     0.006 C 
BRANCH  10  11
ATOM     11  C   UNL     1    -101.013  71.032  22.073  1.00  0.00     0.053 C 
BRANCH  11  12
ATOM     12  C   UNL     1    -102.116  70.492  21.216  1.00  0.00     0.041 C 
ATOM     13  O   UNL     1    -102.780  69.490  21.592  1.00  0.00    -0.550 OA
ATOM     14  O   UNL     1    -102.386  71.074  19.983  1.00  0.00    -0.550 OA
ENDBRANCH  11  12
ENDBRANCH  10  11
ENDBRANCH   9  10
ENDBRANCH   8   9
ENDBRANCH   7   8
ENDBRANCH   6   7
ENDBRANCH   5   6
ENDBRANCH   4   5
ENDBRANCH   3   4
ENDBRANCH   2   3
ENDBRANCH   1   2
BRANCH   1  15
ATOM     15  C   UNL     1     -98.501  70.847  25.942  1.00  0.00     0.000 C 
BRANCH  15  16
ATOM     16  C   UNL     1     -98.843  69.540  26.688  1.00  0.00     0.000 C 
BRANCH  16  17
ATOM     17  C   UNL     1    -100.135  68.865  26.195  1.00  0.00     0.000 C 
BRANCH  17  18
ATOM     18  C   UNL     1    -101.211  68.762  27.287  1.00  0.00    -0.000 C 
BRANCH  18  19
ATOM     19  C   UNL     1    -100.634  68.938  28.701  1.00  0.00    -0.000 C 
BRANCH  19  20
ATOM     20  C   UNL     1    -101.496  69.862  29.579  1.00  0.00    -0.000 C 
BRANCH  20  21
ATOM     21  C   UNL     1    -102.406  70.791  28.756  1.00  0.00    -0.000 C 
BRANCH  21  22
ATOM     22  C   UNL     1    -101.887  72.231  28.586  1.00  0.00    -0.000 C 
BRANCH  22  23
ATOM     23  C   UNL     1    -100.711  72.557  29.523  1.00  0.00    -0.000 C 
BRANCH  23  24
ATOM     24  C   UNL     1     -99.714  73.556  28.909  1.00  0.00    -0.000 C 
BRANCH  24  25
ATOM     25  C   UNL     1     -98.228  73.214  29.127  1.00  0.00    -0.003 C 
ATOM     26  C   UNL     1     -97.998  71.750  29.499  1.00  0.00     0.004 C 
ENDBRANCH  24  25
ENDBRANCH  23  24
ENDBRANCH  22  23
ENDBRANCH  21  22
ENDBRANCH  20  21
ENDBRANCH  19  20
ENDBRANCH  18  19
ENDBRANCH  17  18
ENDBRANCH  16  17
ENDBRANCH  15  16
ENDBRANCH   1  15
TORSDOF 22
ENDMDL
MODEL 6
REMARK VINA RESULT:    -3.130      1.958      4.025
REMARK INTER + INTRA:         -11.265
REMARK INTER:                  -7.282
REMARK INTRA:                  -3.983
REMARK UNBOUND:                -4.109
REMARK SMILES CCCCCCCCCCCCCCCCCCCCCCCC(=O)[O-]
REMARK SMILES IDX 13 1 14 2 15 3 16 4 17 5 18 6 19 7 20 8 21 9 22 10 23 11
REMARK SMILES IDX 24 12 25 13 26 14 12 15 11 16 10 17 9 18 8 19 7 20 6 21 5 22
REMARK SMILES IDX 4 23 3 24 2 25 1 26
REMARK H PARENT
REMARK Flexibility Score: inf
ROOT
ATOM      1  C   UNL     1    -100.781  72.283  25.739  1.00  0.00     0.000 C 
ENDROOT
BRANCH   1   2
ATOM      2  C   UNL     1    -101.711  72.333  26.962  1.00  0.00     0.000 C 
BRANCH   2   3
ATOM      3  C   UNL     1    -102.131  70.932  27.443  1.00  0.00     0.000 C 
BRANCH   3   4
ATOM      4  C   UNL     1    -101.583  69.811  26.543  1.00  0.00     0.000 C 
BRANCH   4   5
ATOM      5  C   UNL     1    -100.729  68.793  27.321  1.00  0.00     0.000 C 
BRANCH   5   6
ATOM      6  C   UNL     1     -99.228  69.125  27.277  1.00  0.00     0.000 C 
BRANCH   6   7
ATOM      7  C   UNL     1     -98.706  69.677  28.615  1.00  0.00     0.000 C 
BRANCH   7   8
ATOM      8  C   UNL     1     -98.008  71.038  28.463  1.00  0.00     0.000 C 
BRANCH   8   9
ATOM      9  C   UNL     1     -98.339  72.005  29.614  1.00  0.00     0.000 C 
BRANCH   9  10
ATOM     10  C   UNL     1     -99.769  71.821  30.152  1.00  0.00     0.006 C 
BRANCH  10  11
ATOM     11  C   UNL     1     -99.848  71.589  31.670  1.00  0.00     0.053 C 
BRANCH  11  12
ATOM     12  C   UNL     1    -100.242  70.183  32.004  1.00  0.00     0.041 C 
ATOM     13  O   UNL     1     -99.374  69.270  32.035  1.00  0.00    -0.550 OA
ATOM     14  O   UNL     1    -101.575  69.874  32.247  1.00  0.00    -0.550 OA
ENDBRANCH  11  12
ENDBRANCH  10  11
ENDBRANCH   9  10
ENDBRANCH   8   9
ENDBRANCH   7   8
ENDBRANCH   6   7
ENDBRANCH   5   6
ENDBRANCH   4   5
ENDBRANCH   3   4
ENDBRANCH   2   3
ENDBRANCH   1   2
BRANCH   1  15
ATOM     15  C   UNL     1     -99.593  73.255  25.852  1.00  0.00     0.000 C 
BRANCH  15  16
ATOM     16  C   UNL     1     -98.313  72.684  25.204  1.00  0.00     0.000 C 
BRANCH  16  17
ATOM     17  C   UNL     1     -97.244  73.749  24.902  1.00  0.00     0.000 C 
BRANCH  17  18
ATOM     18  C   UNL     1     -96.203  73.276  23.875  1.00  0.00    -0.000 C 
BRANCH  18  19
ATOM     19  C   UNL     1     -96.426  73.893  22.485  1.00  0.00    -0.000 C 
BRANCH  19  20
ATOM     20  C   UNL     1     -95.945  72.974  21.348  1.00  0.00    -0.000 C 
BRANCH  20  21
ATOM     21  C   UNL     1     -96.857  71.750  21.142  1.00  0.00    -0.000 C 
BRANCH  21  22
ATOM     22  C   UNL     1     -98.346  72.076  20.920  1.00  0.00    -0.000 C 
BRANCH  22  23
ATOM     23  C   UNL     1     -99.268  71.378  21.934  1.00  0.00    -0.000 C 
BRANCH  23  24
ATOM     24  C   UNL     1     -98.572  70.230  22.688  1.00  0.00    -0.000 C 
BRANCH  24  25
ATOM     25  C   UNL     1     -99.475  69.437  23.651  1.00  0.00    -0.003 C 
ATOM     26  C   UNL     1     -98.999  68.002  23.874  1.00  0.00     0.004 C 
ENDBRANCH  24  25
ENDBRANCH  23  24
ENDBRANCH  22  23
ENDBRANCH  21  22
ENDBRANCH  20  21
ENDBRANCH  19  20
ENDBRANCH  18  19
ENDBRANCH  17  18
ENDBRANCH  16  17
ENDBRANCH  15  16
ENDBRANCH   1  15
TORSDOF 22
ENDMDL
MODEL 7
REMARK VINA RESULT:    -3.129      1.383      4.646
REMARK INTER + INTRA:         -11.263
REMARK INTER:                  -7.022
REMARK INTRA:                  -4.241
REMARK UNBOUND:                -4.109
REMARK SMILES CCCCCCCCCCCCCCCCCCCCCCCC(=O)[O-]
REMARK SMILES IDX 13 1 14 2 15 3 16 4 17 5 18 6 19 7 20 8 21 9 22 10 23 11
REMARK SMILES IDX 24 12 25 13 26 14 12 15 11 16 10 17 9 18 8 19 7 20 6 21 5 22
REMARK SMILES IDX 4 23 3 24 2 25 1 26
REMARK H PARENT
REMARK Flexibility Score: inf
ROOT
ATOM      1  C   UNL     1     -96.245  72.327  20.451  1.00  0.00     0.000 C 
ENDROOT
BRANCH   1   2
ATOM      2  C   UNL     1     -97.164  71.416  21.281  1.00  0.00     0.000 C 
BRANCH   2   3
ATOM      3  C   UNL     1     -98.623  71.909  21.299  1.00  0.00     0.000 C 
BRANCH   3   4
ATOM      4  C   UNL     1     -99.483  71.167  22.337  1.00  0.00     0.000 C 
BRANCH   4   5
ATOM      5  C   UNL     1     -98.635  70.423  23.384  1.00  0.00     0.000 C 
BRANCH   5   6
ATOM      6  C   UNL     1     -98.997  68.932  23.487  1.00  0.00     0.000 C 
BRANCH   6   7
ATOM      7  C   UNL     1     -99.621  68.569  24.845  1.00  0.00     0.000 C 
BRANCH   7   8
ATOM      8  C   UNL     1     -98.999  69.353  26.013  1.00  0.00     0.000 C 
BRANCH   8   9
ATOM      9  C   UNL     1     -99.717  69.095  27.349  1.00  0.00     0.000 C 
BRANCH   9  10
ATOM     10  C   UNL     1     -99.080  69.861  28.523  1.00  0.00     0.006 C 
BRANCH  10  11
ATOM     11  C   UNL     1    -100.085  70.629  29.397  1.00  0.00     0.053 C 
BRANCH  11  12
ATOM     12  C   UNL     1    -100.296  69.968  30.724  1.00  0.00     0.041 C 
ATOM     13  O   UNL     1     -99.461  69.130  31.157  1.00  0.00    -0.550 OA
ATOM     14  O   UNL     1    -101.436  70.250  31.467  1.00  0.00    -0.550 OA
ENDBRANCH  11  12
ENDBRANCH  10  11
ENDBRANCH   9  10
ENDBRANCH   8   9
ENDBRANCH   7   8
ENDBRANCH   6   7
ENDBRANCH   5   6
ENDBRANCH   4   5
ENDBRANCH   3   4
ENDBRANCH   2   3
ENDBRANCH   1   2
BRANCH   1  15
ATOM     15  C   UNL     1     -95.512  73.375  21.308  1.00  0.00     0.000 C 
BRANCH  15  16
ATOM     16  C   UNL     1     -95.272  72.879  22.750  1.00  0.00     0.000 C 
BRANCH  16  17
ATOM     17  C   UNL     1     -95.820  73.828  23.830  1.00  0.00     0.000 C 
BRANCH  17  18
ATOM     18  C   UNL     1     -97.112  74.541  23.400  1.00  0.00    -0.000 C 
BRANCH  18  19
ATOM     19  C   UNL     1     -98.309  74.180  24.294  1.00  0.00    -0.000 C 
BRANCH  19  20
ATOM     20  C   UNL     1     -97.893  73.386  25.546  1.00  0.00    -0.000 C 
BRANCH  20  21
ATOM     21  C   UNL     1     -99.090  72.748  26.273  1.00  0.00    -0.000 C 
BRANCH  21  22
ATOM     22  C   UNL     1    -100.453  72.944  25.584  1.00  0.00    -0.000 C 
BRANCH  22  23
ATOM     23  C   UNL     1    -101.635  72.881  26.567  1.00  0.00    -0.000 C 
BRANCH  23  24
ATOM     24  C   UNL     1    -102.786  71.991  26.065  1.00  0.00    -0.000 C 
BRANCH  24  25
ATOM     25  C   UNL     1    -102.357  70.794  25.196  1.00  0.00    -0.003 C 
ATOM     26  C   UNL     1    -102.922  70.851  23.777  1.00  0.00     0.004 C 
ENDBRANCH  24  25
ENDBRANCH  23  24
ENDBRANCH  22  23
ENDBRANCH  21  22
ENDBRANCH  20  21
ENDBRANCH  19  20
ENDBRANCH  18  19
ENDBRANCH  17  18
ENDBRANCH  16  17
ENDBRANCH  15  16
ENDBRANCH   1  15
TORSDOF 22
ENDMDL
MODEL 8
REMARK VINA RESULT:    -3.098      3.463      7.819
REMARK INTER + INTRA:         -11.192
REMARK INTER:                  -7.062
REMARK INTRA:                  -4.130
REMARK UNBOUND:                -4.109
REMARK SMILES CCCCCCCCCCCCCCCCCCCCCCCC(=O)[O-]
REMARK SMILES IDX 13 1 14 2 15 3 16 4 17 5 18 6 19 7 20 8 21 9 22 10 23 11
REMARK SMILES IDX 24 12 25 13 26 14 12 15 11 16 10 17 9 18 8 19 7 20 6 21 5 22
REMARK SMILES IDX 4 23 3 24 2 25 1 26
REMARK H PARENT
REMARK Flexibility Score: inf
ROOT
ATOM      1  C   UNL     1    -102.099  72.099  24.933  1.00  0.00     0.000 C 
ENDROOT
BRANCH   1   2
ATOM      2  C   UNL     1    -102.157  71.026  23.833  1.00  0.00     0.000 C 
BRANCH   2   3
ATOM      3  C   UNL     1    -101.003  71.152  22.823  1.00  0.00     0.000 C 
BRANCH   3   4
ATOM      4  C   UNL     1    -100.207  69.845  22.671  1.00  0.00     0.000 C 
BRANCH   4   5
ATOM      5  C   UNL     1     -98.686  70.065  22.763  1.00  0.00     0.000 C 
BRANCH   5   6
ATOM      6  C   UNL     1     -98.224  71.322  22.008  1.00  0.00     0.000 C 
BRANCH   6   7
ATOM      7  C   UNL     1     -97.615  72.381  22.943  1.00  0.00     0.000 C 
BRANCH   7   8
ATOM      8  C   UNL     1     -96.095  72.525  22.766  1.00  0.00     0.000 C 
BRANCH   8   9
ATOM      9  C   UNL     1     -95.680  73.942  22.331  1.00  0.00     0.000 C 
BRANCH   9  10
ATOM     10  C   UNL     1     -95.302  74.019  20.840  1.00  0.00     0.006 C 
BRANCH  10  11
ATOM     11  C   UNL     1     -96.505  74.124  19.888  1.00  0.00     0.053 C 
BRANCH  11  12
ATOM     12  C   UNL     1     -96.701  72.871  19.091  1.00  0.00     0.041 C 
ATOM     13  O   UNL     1     -97.820  72.619  18.571  1.00  0.00    -0.550 OA
ATOM     14  O   UNL     1     -95.658  71.964  18.954  1.00  0.00    -0.550 OA
ENDBRANCH  11  12
ENDBRANCH  10  11
ENDBRANCH   9  10
ENDBRANCH   8   9
ENDBRANCH   7   8
ENDBRANCH   6   7
ENDBRANCH   5   6
ENDBRANCH   4   5
ENDBRANCH   3   4
ENDBRANCH   2   3
ENDBRANCH   1   2
BRANCH   1  15
ATOM     15  C   UNL     1    -100.700  72.724  25.083  1.00  0.00     0.000 C 
BRANCH  15  16
ATOM     16  C   UNL     1    -100.286  72.869  26.563  1.00  0.00     0.000 C 
BRANCH  16  17
ATOM     17  C   UNL     1     -98.852  72.396  26.854  1.00  0.00     0.000 C 
BRANCH  17  18
ATOM     18  C   UNL     1     -98.471  71.126  26.076  1.00  0.00    -0.000 C 
BRANCH  18  19
ATOM     19  C   UNL     1     -98.753  69.841  26.872  1.00  0.00    -0.000 C 
BRANCH  19  20
ATOM     20  C   UNL     1     -99.813  68.951  26.198  1.00  0.00    -0.000 C 
BRANCH  20  21
ATOM     21  C   UNL     1    -101.193  69.052  26.872  1.00  0.00    -0.000 C 
BRANCH  21  22
ATOM     22  C   UNL     1    -101.164  69.157  28.408  1.00  0.00    -0.000 C 
BRANCH  22  23
ATOM     23  C   UNL     1    -101.783  70.464  28.931  1.00  0.00    -0.000 C 
BRANCH  23  24
ATOM     24  C   UNL     1    -100.835  71.250  29.855  1.00  0.00    -0.000 C 
BRANCH  24  25
ATOM     25  C   UNL     1     -99.621  70.458  30.374  1.00  0.00    -0.003 C 
ATOM     26  C   UNL     1     -99.555  70.394  31.900  1.00  0.00     0.004 C 
ENDBRANCH  24  25
ENDBRANCH  23  24
ENDBRANCH  22  23
ENDBRANCH  21  22
ENDBRANCH  20  21
ENDBRANCH  19  20
ENDBRANCH  18  19
ENDBRANCH  17  18
ENDBRANCH  16  17
ENDBRANCH  15  16
ENDBRANCH   1  15
TORSDOF 22
ENDMDL
MODEL 9
REMARK VINA RESULT:    -3.089      2.988      6.385
REMARK INTER + INTRA:         -11.171
REMARK INTER:                  -6.640
REMARK INTRA:                  -4.531
REMARK UNBOUND:                -4.109
REMARK SMILES CCCCCCCCCCCCCCCCCCCCCCCC(=O)[O-]
REMARK SMILES IDX 13 1 14 2 15 3 16 4 17 5 18 6 19 7 20 8 21 9 22 10 23 11
REMARK SMILES IDX 24 12 25 13 26 14 12 15 11 16 10 17 9 18 8 19 7 20 6 21 5 22
REMARK SMILES IDX 4 23 3 24 2 25 1 26
REMARK H PARENT
REMARK Flexibility Score: inf
ROOT
ATOM      1  C   UNL     1     -99.357  68.410  23.888  1.00  0.00     0.000 C 
ENDROOT
BRANCH   1   2
ATOM      2  C   UNL     1     -99.716  69.776  23.280  1.00  0.00     0.000 C 
BRANCH   2   3
ATOM      3  C   UNL     1     -98.588  70.344  22.399  1.00  0.00     0.000 C 
BRANCH   3   4
ATOM      4  C   UNL     1     -98.313  71.831  22.680  1.00  0.00     0.000 C 
BRANCH   4   5
ATOM      5  C   UNL     1     -97.480  72.048  23.956  1.00  0.00     0.000 C 
BRANCH   5   6
ATOM      6  C   UNL     1     -98.149  73.022  24.940  1.00  0.00     0.000 C 
BRANCH   6   7
ATOM      7  C   UNL     1     -99.161  73.954  24.252  1.00  0.00     0.000 C 
BRANCH   7   8
ATOM      8  C   UNL     1    -100.506  74.020  24.994  1.00  0.00     0.000 C 
BRANCH   8   9
ATOM      9  C   UNL     1    -101.056  72.627  25.349  1.00  0.00     0.000 C 
BRANCH   9  10
ATOM     10  C   UNL     1    -102.501  72.417  24.860  1.00  0.00     0.006 C 
BRANCH  10  11
ATOM     11  C   UNL     1    -102.854  70.955  24.540  1.00  0.00     0.053 C 
BRANCH  11  12
ATOM     12  C   UNL     1    -103.653  70.832  23.279  1.00  0.00     0.041 C 
ATOM     13  O   UNL     1    -104.860  71.189  23.255  1.00  0.00    -0.550 OA
ATOM     14  O   UNL     1    -103.072  70.289  22.140  1.00  0.00    -0.550 OA
ENDBRANCH  11  12
ENDBRANCH  10  11
ENDBRANCH   9  10
ENDBRANCH   8   9
ENDBRANCH   7   8
ENDBRANCH   6   7
ENDBRANCH   5   6
ENDBRANCH   4   5
ENDBRANCH   3   4
ENDBRANCH   2   3
ENDBRANCH   1   2
BRANCH   1  15
ATOM     15  C   UNL     1     -98.716  68.528  25.283  1.00  0.00     0.000 C 
BRANCH  15  16
ATOM     16  C   UNL     1     -99.419  69.589  26.156  1.00  0.00     0.000 C 
BRANCH  16  17
ATOM     17  C   UNL     1    -100.728  69.096  26.795  1.00  0.00     0.000 C 
BRANCH  17  18
ATOM     18  C   UNL     1    -100.502  68.337  28.113  1.00  0.00    -0.000 C 
BRANCH  18  19
ATOM     19  C   UNL     1     -99.202  68.757  28.818  1.00  0.00    -0.000 C 
BRANCH  19  20
ATOM     20  C   UNL     1     -99.444  69.263  30.251  1.00  0.00    -0.000 C 
BRANCH  20  21
ATOM     21  C   UNL     1    -100.866  69.813  30.458  1.00  0.00    -0.000 C 
BRANCH  21  22
ATOM     22  C   UNL     1    -100.971  71.349  30.505  1.00  0.00    -0.000 C 
BRANCH  22  23
ATOM     23  C   UNL     1    -101.008  71.990  29.107  1.00  0.00    -0.000 C 
BRANCH  23  24
ATOM     24  C   UNL     1     -99.866  72.996  28.877  1.00  0.00    -0.000 C 
BRANCH  24  25
ATOM     25  C   UNL     1     -98.533  72.378  28.416  1.00  0.00    -0.003 C 
ATOM     26  C   UNL     1     -97.470  72.359  29.513  1.00  0.00     0.004 C 
ENDBRANCH  24  25
ENDBRANCH  23  24
ENDBRANCH  22  23
ENDBRANCH  21  22
ENDBRANCH  20  21
ENDBRANCH  19  20
ENDBRANCH  18  19
ENDBRANCH  17  18
ENDBRANCH  16  17
ENDBRANCH  15  16
ENDBRANCH   1  15
TORSDOF 22
ENDMDL
