MODEL 1
REMARK VINA RESULT:    -3.349      0.000      0.000
REMARK INTER + INTRA:          -4.531
REMARK INTER:                  -4.327
REMARK INTRA:                  -0.203
REMARK UNBOUND:                -0.203
REMARK SMILES CCCCCCC(C)=O
REMARK SMILES IDX 4 1 3 2 2 3 1 4 5 5 6 6 7 7 9 8 8 9
REMARK H PARENT
REMARK Flexibility Score: inf
ROOT
ATOM      1  C   UNL     1     169.519 166.761 168.992  1.00  0.00     0.000 C 
ENDROOT
BRANCH   1   2
ATOM      2  C   UNL     1     168.745 166.406 167.717  1.00  0.00    -0.000 C 
BRANCH   2   3
ATOM      3  C   UNL     1     167.251 166.232 168.012  1.00  0.00    -0.003 C 
ATOM      4  C   UNL     1     166.476 165.888 166.744  1.00  0.00     0.004 C 
ENDBRANCH   2   3
ENDBRANCH   1   2
BRANCH   1   5
ATOM      5  C   UNL     1     170.884 167.380 168.654  1.00  0.00     0.008 C 
BRANCH   5   6
ATOM      6  C   UNL     1     171.433 166.872 167.312  1.00  0.00     0.075 C 
BRANCH   6   7
ATOM      7  C   UNL     1     172.663 166.023 167.491  1.00  0.00     0.129 C 
ATOM      8  O   UNL     1     173.063 165.761 168.616  1.00  0.00    -0.300 OA
ATOM      9  C   UNL     1     173.387 165.476 166.298  1.00  0.00     0.087 C 
ENDBRANCH   6   7
ENDBRANCH   5   6
ENDBRANCH   1   5
TORSDOF 5
ENDMDL
MODEL 2
REMARK VINA RESULT:    -3.338      6.232      7.480
REMARK INTER + INTRA:          -4.517
REMARK INTER:                  -4.385
REMARK INTRA:                  -0.133
REMARK UNBOUND:                -0.203
REMARK SMILES CCCCCCC(C)=O
REMARK SMILES IDX 4 1 3 2 2 3 1 4 5 5 6 6 7 7 9 8 8 9
REMARK H PARENT
REMARK Flexibility Score: inf
ROOT
ATOM      1  C   UNL     1     166.426 162.239 168.158  1.00  0.00     0.000 C 
ENDROOT
BRANCH   1   2
ATOM      2  C   UNL     1     166.053 163.520 167.402  1.00  0.00    -0.000 C 
BRANCH   2   3
ATOM      3  C   UNL     1     165.317 164.504 168.319  1.00  0.00    -0.003 C 
ATOM      4  C   UNL     1     164.005 164.964 167.692  1.00  0.00     0.004 C 
ENDBRANCH   2   3
ENDBRANCH   1   2
BRANCH   1   5
ATOM      5  C   UNL     1     166.754 161.099 167.181  1.00  0.00     0.008 C 
BRANCH   5   6
ATOM      6  C   UNL     1     167.229 159.833 167.908  1.00  0.00     0.075 C 
BRANCH   6   7
ATOM      7  C   UNL     1     166.210 158.727 167.840  1.00  0.00     0.129 C 
ATOM      8  O   UNL     1     165.828 158.188 168.868  1.00  0.00    -0.300 OA
ATOM      9  C   UNL     1     165.641 158.300 166.520  1.00  0.00     0.087 C 
ENDBRANCH   6   7
ENDBRANCH   5   6
ENDBRANCH   1   5
TORSDOF 5
ENDMDL
MODEL 3
REMARK VINA RESULT:    -3.306      7.685     10.702
REMARK INTER + INTRA:          -4.475
REMARK INTER:                  -4.257
REMARK INTRA:                  -0.219
REMARK UNBOUND:                -0.203
REMARK SMILES CCCCCCC(C)=O
REMARK SMILES IDX 4 1 3 2 2 3 1 4 5 5 6 6 7 7 9 8 8 9
REMARK H PARENT
REMARK Flexibility Score: inf
ROOT
ATOM      1  C   UNL     1     161.918 164.577 168.959  1.00  0.00     0.000 C 
ENDROOT
BRANCH   1   2
ATOM      2  C   UNL     1     162.518 164.778 167.562  1.00  0.00    -0.000 C 
BRANCH   2   3
ATOM      3  C   UNL     1     164.011 165.117 167.650  1.00  0.00    -0.003 C 
ATOM      4  C   UNL     1     164.653 165.136 166.266  1.00  0.00     0.004 C 
ENDBRANCH   2   3
ENDBRANCH   1   2
BRANCH   1   5
ATOM      5  C   UNL     1     160.522 163.942 168.871  1.00  0.00     0.008 C 
BRANCH   5   6
ATOM      6  C   UNL     1     159.866 164.173 167.503  1.00  0.00     0.075 C 
BRANCH   6   7
ATOM      7  C   UNL     1     158.688 165.105 167.591  1.00  0.00     0.129 C 
ATOM      8  O   UNL     1     158.243 165.420 168.685  1.00  0.00    -0.300 OA
ATOM      9  C   UNL     1     158.072 165.671 166.347  1.00  0.00     0.087 C 
ENDBRANCH   6   7
ENDBRANCH   5   6
ENDBRANCH   1   5
TORSDOF 5
ENDMDL
MODEL 4
REMARK VINA RESULT:    -3.288      5.734      7.597
REMARK INTER + INTRA:          -4.452
REMARK INTER:                  -4.301
REMARK INTRA:                  -0.151
REMARK UNBOUND:                -0.203
REMARK SMILES CCCCCCC(C)=O
REMARK SMILES IDX 4 1 3 2 2 3 1 4 5 5 6 6 7 7 9 8 8 9
REMARK H PARENT
REMARK Flexibility Score: inf
ROOT
ATOM      1  C   UNL     1     164.624 169.185 167.641  1.00  0.00     0.000 C 
ENDROOT
BRANCH   1   2
ATOM      2  C   UNL     1     164.975 167.767 168.111  1.00  0.00    -0.000 C 
BRANCH   2   3
ATOM      3  C   UNL     1     165.427 166.895 166.934  1.00  0.00    -0.003 C 
ATOM      4  C   UNL     1     166.720 166.155 167.263  1.00  0.00     0.004 C 
ENDBRANCH   2   3
ENDBRANCH   1   2
BRANCH   1   5
ATOM      5  C   UNL     1     164.388 170.119 168.838  1.00  0.00     0.008 C 
BRANCH   5   6
ATOM      6  C   UNL     1     163.798 171.470 168.409  1.00  0.00     0.075 C 
BRANCH   6   7
ATOM      7  C   UNL     1     164.865 172.513 168.207  1.00  0.00     0.129 C 
ATOM      8  O   UNL     1     165.354 173.078 169.174  1.00  0.00    -0.300 OA
ATOM      9  C   UNL     1     165.351 172.844 166.828  1.00  0.00     0.087 C 
ENDBRANCH   6   7
ENDBRANCH   5   6
ENDBRANCH   1   5
TORSDOF 5
ENDMDL
MODEL 5
REMARK VINA RESULT:    -3.218      8.151     11.021
REMARK INTER + INTRA:          -4.362
REMARK INTER:                  -4.147
REMARK INTRA:                  -0.214
REMARK UNBOUND:                -0.203
REMARK SMILES CCCCCCC(C)=O
REMARK SMILES IDX 4 1 3 2 2 3 1 4 5 5 6 6 7 7 9 8 8 9
REMARK H PARENT
REMARK Flexibility Score: inf
ROOT
ATOM      1  C   UNL     1     161.471 164.477 168.103  1.00  0.00     0.000 C 
ENDROOT
BRANCH   1   2
ATOM      2  C   UNL     1     162.812 164.846 167.456  1.00  0.00    -0.000 C 
BRANCH   2   3
ATOM      3  C   UNL     1     163.851 165.217 168.522  1.00  0.00    -0.003 C 
ATOM      4  C   UNL     1     163.360 164.850 169.919  1.00  0.00     0.004 C 
ENDBRANCH   2   3
ENDBRANCH   1   2
BRANCH   1   5
ATOM      5  C   UNL     1     160.426 164.118 167.035  1.00  0.00     0.008 C 
BRANCH   5   6
ATOM      6  C   UNL     1     159.121 164.907 167.215  1.00  0.00     0.075 C 
BRANCH   6   7
ATOM      7  C   UNL     1     158.451 164.598 168.527  1.00  0.00     0.129 C 
ATOM      8  O   UNL     1     158.158 165.508 169.289  1.00  0.00    -0.300 OA
ATOM      9  C   UNL     1     158.116 163.184 168.894  1.00  0.00     0.087 C 
ENDBRANCH   6   7
ENDBRANCH   5   6
ENDBRANCH   1   5
TORSDOF 5
ENDMDL
MODEL 6
REMARK VINA RESULT:    -3.217      6.434      8.127
REMARK INTER + INTRA:          -4.361
REMARK INTER:                  -4.141
REMARK INTRA:                  -0.220
REMARK UNBOUND:                -0.203
REMARK SMILES CCCCCCC(C)=O
REMARK SMILES IDX 4 1 3 2 2 3 1 4 5 5 6 6 7 7 9 8 8 9
REMARK H PARENT
REMARK Flexibility Score: inf
ROOT
ATOM      1  C   UNL     1     164.485 169.674 168.117  1.00  0.00     0.000 C 
ENDROOT
BRANCH   1   2
ATOM      2  C   UNL     1     164.881 168.354 167.444  1.00  0.00    -0.000 C 
BRANCH   2   3
ATOM      3  C   UNL     1     165.060 167.241 168.482  1.00  0.00    -0.003 C 
ATOM      4  C   UNL     1     164.888 167.778 169.900  1.00  0.00     0.004 C 
ENDBRANCH   2   3
ENDBRANCH   1   2
BRANCH   1   5
ATOM      5  C   UNL     1     164.103 170.733 167.071  1.00  0.00     0.008 C 
BRANCH   5   6
ATOM      6  C   UNL     1     164.922 172.022 167.226  1.00  0.00     0.075 C 
BRANCH   6   7
ATOM      7  C   UNL     1     164.605 172.741 168.511  1.00  0.00     0.129 C 
ATOM      8  O   UNL     1     165.511 173.068 169.263  1.00  0.00    -0.300 OA
ATOM      9  C   UNL     1     163.188 173.081 168.860  1.00  0.00     0.087 C 
ENDBRANCH   6   7
ENDBRANCH   5   6
ENDBRANCH   1   5
TORSDOF 5
ENDMDL
MODEL 7
REMARK VINA RESULT:    -3.112      1.248      1.843
REMARK INTER + INTRA:          -4.224
REMARK INTER:                  -3.981
REMARK INTRA:                  -0.243
REMARK UNBOUND:                -0.203
REMARK SMILES CCCCCCC(C)=O
REMARK SMILES IDX 4 1 3 2 2 3 1 4 5 5 6 6 7 7 9 8 8 9
REMARK H PARENT
REMARK Flexibility Score: inf
ROOT
ATOM      1  C   UNL     1     169.505 166.681 167.021  1.00  0.00     0.000 C 
ENDROOT
BRANCH   1   2
ATOM      2  C   UNL     1     168.871 166.423 168.394  1.00  0.00    -0.000 C 
BRANCH   2   3
ATOM      3  C   UNL     1     167.356 166.219 168.269  1.00  0.00    -0.003 C 
ATOM      4  C   UNL     1     166.973 165.789 166.857  1.00  0.00     0.004 C 
ENDBRANCH   2   3
ENDBRANCH   1   2
BRANCH   1   5
ATOM      5  C   UNL     1     171.037 166.728 167.122  1.00  0.00     0.008 C 
BRANCH   5   6
ATOM      6  C   UNL     1     171.511 167.225 168.495  1.00  0.00     0.075 C 
BRANCH   6   7
ATOM      7  C   UNL     1     172.610 166.364 169.059  1.00  0.00     0.129 C 
ATOM      8  O   UNL     1     173.208 165.587 168.329  1.00  0.00    -0.300 OA
ATOM      9  C   UNL     1     172.993 166.472 170.504  1.00  0.00     0.087 C 
ENDBRANCH   6   7
ENDBRANCH   5   6
ENDBRANCH   1   5
TORSDOF 5
ENDMDL
MODEL 8
REMARK VINA RESULT:    -3.039      6.310      7.804
REMARK INTER + INTRA:          -4.130
REMARK INTER:                  -3.936
REMARK INTRA:                  -0.194
REMARK UNBOUND:                -0.203
REMARK SMILES CCCCCCC(C)=O
REMARK SMILES IDX 4 1 3 2 2 3 1 4 5 5 6 6 7 7 9 8 8 9
REMARK H PARENT
REMARK Flexibility Score: inf
ROOT
ATOM      1  C   UNL     1     166.681 161.464 166.827  1.00  0.00     0.000 C 
ENDROOT
BRANCH   1   2
ATOM      2  C   UNL     1     166.508 162.436 168.001  1.00  0.00    -0.000 C 
BRANCH   2   3
ATOM      3  C   UNL     1     166.001 163.799 167.516  1.00  0.00    -0.003 C 
ATOM      4  C   UNL     1     166.742 164.939 168.206  1.00  0.00     0.004 C 
ENDBRANCH   2   3
ENDBRANCH   1   2
BRANCH   1   5
ATOM      5  C   UNL     1     167.024 160.053 167.326  1.00  0.00     0.008 C 
BRANCH   5   6
ATOM      6  C   UNL     1     166.976 159.953 168.857  1.00  0.00     0.075 C 
BRANCH   6   7
ATOM      7  C   UNL     1     166.217 158.738 169.321  1.00  0.00     0.129 C 
ATOM      8  O   UNL     1     165.627 158.043 168.507  1.00  0.00    -0.300 OA
ATOM      9  C   UNL     1     166.200 158.362 170.771  1.00  0.00     0.087 C 
ENDBRANCH   6   7
ENDBRANCH   5   6
ENDBRANCH   1   5
TORSDOF 5
ENDMDL
MODEL 9
REMARK VINA RESULT:    -2.965      2.757      5.386
REMARK INTER + INTRA:          -4.035
REMARK INTER:                  -3.815
REMARK INTRA:                  -0.219
REMARK UNBOUND:                -0.203
REMARK SMILES CCCCCCC(C)=O
REMARK SMILES IDX 4 1 3 2 2 3 1 4 5 5 6 6 7 7 9 8 8 9
REMARK H PARENT
REMARK Flexibility Score: inf
ROOT
ATOM      1  C   UNL     1     169.150 166.721 169.066  1.00  0.00     0.000 C 
ENDROOT
BRANCH   1   2
ATOM      2  C   UNL     1     170.608 167.114 168.798  1.00  0.00    -0.000 C 
BRANCH   2   3
ATOM      3  C   UNL     1     170.925 167.056 167.299  1.00  0.00    -0.003 C 
ATOM      4  C   UNL     1     172.086 166.108 167.019  1.00  0.00     0.004 C 
ENDBRANCH   2   3
ENDBRANCH   1   2
BRANCH   1   5
ATOM      5  C   UNL     1     168.424 166.374 167.757  1.00  0.00     0.008 C 
BRANCH   5   6
ATOM      6  C   UNL     1     167.016 165.815 168.007  1.00  0.00     0.075 C 
BRANCH   6   7
ATOM      7  C   UNL     1     165.965 166.564 167.232  1.00  0.00     0.129 C 
ATOM      8  O   UNL     1     165.789 166.316 166.049  1.00  0.00    -0.300 OA
ATOM      9  C   UNL     1     165.114 167.596 167.910  1.00  0.00     0.087 C 
ENDBRANCH   6   7
ENDBRANCH   5   6
ENDBRANCH   1   5
TORSDOF 5
ENDMDL
