MODEL 1
REMARK VINA RESULT:     0.000      0.000      0.000
REMARK INTER + INTRA:          -0.193
REMARK INTER:                   0.000
REMARK INTRA:                  -0.193
REMARK UNBOUND:                -0.193
REMARK SMILES O=C([O-])CCC(=O)[O-]
REMARK SMILES IDX 4 1 2 2 1 3 3 4 5 5 6 6 7 7 8 8
REMARK H PARENT
REMARK Flexibility Score: inf
ROOT
ATOM      1  C   UNL     1     180.946 193.897 196.257  1.00  0.00     0.059 C 
ENDROOT
BRANCH   1   2
ATOM      2  C   UNL     1     180.299 193.152 197.382  1.00  0.00     0.042 C 
ATOM      3  O   UNL     1     179.328 192.383 197.158  1.00  0.00    -0.550 OA
ATOM      4  O   UNL     1     180.803 193.268 198.671  1.00  0.00    -0.550 OA
ENDBRANCH   1   2
BRANCH   1   5
ATOM      5  C   UNL     1     181.523 192.921 195.230  1.00  0.00     0.059 C 
BRANCH   5   6
ATOM      6  C   UNL     1     182.642 192.130 195.830  1.00  0.00     0.042 C 
ATOM      7  O   UNL     1     182.589 190.872 195.852  1.00  0.00    -0.550 OA
ATOM      8  O   UNL     1     183.720 192.784 196.411  1.00  0.00    -0.550 OA
ENDBRANCH   5   6
ENDBRANCH   1   5
TORSDOF 3
ENDMDL
MODEL 2
REMARK VINA RESULT:     0.000      5.333      6.473
REMARK INTER + INTRA:          -0.193
REMARK INTER:                   0.000
REMARK INTRA:                  -0.193
REMARK UNBOUND:                -0.193
REMARK SMILES O=C([O-])CCC(=O)[O-]
REMARK SMILES IDX 4 1 2 2 1 3 3 4 5 5 6 6 7 7 8 8
REMARK H PARENT
REMARK Flexibility Score: inf
ROOT
ATOM      1  C   UNL     1     178.656 189.240 196.868  1.00  0.00     0.059 C 
ENDROOT
BRANCH   1   2
ATOM      2  C   UNL     1     177.787 188.304 196.088  1.00  0.00     0.042 C 
ATOM      3  O   UNL     1     177.903 187.060 196.235  1.00  0.00    -0.550 OA
ATOM      4  O   UNL     1     176.814 188.809 195.234  1.00  0.00    -0.550 OA
ENDBRANCH   1   2
BRANCH   1   5
ATOM      5  C   UNL     1     178.424 189.059 198.369  1.00  0.00     0.059 C 
BRANCH   5   6
ATOM      6  C   UNL     1     177.032 189.466 198.737  1.00  0.00     0.042 C 
ATOM      7  O   UNL     1     176.261 188.647 199.302  1.00  0.00    -0.550 OA
ATOM      8  O   UNL     1     176.571 190.735 198.411  1.00  0.00    -0.550 OA
ENDBRANCH   5   6
ENDBRANCH   1   5
TORSDOF 3
ENDMDL
MODEL 3
REMARK VINA RESULT:     0.000      5.618      7.355
REMARK INTER + INTRA:          -0.193
REMARK INTER:                   0.000
REMARK INTRA:                  -0.193
REMARK UNBOUND:                -0.193
REMARK SMILES O=C([O-])CCC(=O)[O-]
REMARK SMILES IDX 4 1 2 2 1 3 3 4 5 5 6 6 7 7 8 8
REMARK H PARENT
REMARK Flexibility Score: inf
ROOT
ATOM      1  C   UNL     1     186.553 193.494 191.263  1.00  0.00     0.059 C 
ENDROOT
BRANCH   1   2
ATOM      2  C   UNL     1     186.381 192.381 190.277  1.00  0.00     0.042 C 
ATOM      3  O   UNL     1     187.033 191.312 190.407  1.00  0.00    -0.550 OA
ATOM      4  O   UNL     1     185.463 192.507 189.242  1.00  0.00    -0.550 OA
ENDBRANCH   1   2
BRANCH   1   5
ATOM      5  C   UNL     1     186.158 193.031 192.666  1.00  0.00     0.059 C 
BRANCH   5   6
ATOM      6  C   UNL     1     184.695 192.721 192.723  1.00  0.00     0.042 C 
ATOM      7  O   UNL     1     184.303 191.577 193.072  1.00  0.00    -0.550 OA
ATOM      8  O   UNL     1     183.767 193.681 192.342  1.00  0.00    -0.550 OA
ENDBRANCH   5   6
ENDBRANCH   1   5
TORSDOF 3
ENDMDL
MODEL 4
REMARK VINA RESULT:     0.000      5.152      6.020
REMARK INTER + INTRA:          -0.193
REMARK INTER:                   0.000
REMARK INTRA:                  -0.193
REMARK UNBOUND:                -0.193
REMARK SMILES O=C([O-])CCC(=O)[O-]
REMARK SMILES IDX 4 1 2 2 1 3 3 4 5 5 6 6 7 7 8 8
REMARK H PARENT
REMARK Flexibility Score: inf
ROOT
ATOM      1  C   UNL     1     177.050 189.752 192.565  1.00  0.00     0.059 C 
ENDROOT
BRANCH   1   2
ATOM      2  C   UNL     1     177.100 188.428 193.263  1.00  0.00     0.042 C 
ATOM      3  O   UNL     1     177.763 187.477 192.771  1.00  0.00    -0.550 OA
ATOM      4  O   UNL     1     176.455 188.261 194.481  1.00  0.00    -0.550 OA
ENDBRANCH   1   2
BRANCH   1   5
ATOM      5  C   UNL     1     178.454 190.348 192.449  1.00  0.00     0.059 C 
BRANCH   5   6
ATOM      6  C   UNL     1     178.999 190.673 193.804  1.00  0.00     0.042 C 
ATOM      7  O   UNL     1     180.085 190.164 194.189  1.00  0.00    -0.550 OA
ATOM      8  O   UNL     1     178.283 191.499 194.660  1.00  0.00    -0.550 OA
ENDBRANCH   5   6
ENDBRANCH   1   5
TORSDOF 3
ENDMDL
MODEL 5
REMARK VINA RESULT:     0.000     12.428     13.217
REMARK INTER + INTRA:          -0.193
REMARK INTER:                   0.000
REMARK INTRA:                  -0.193
REMARK UNBOUND:                -0.193
REMARK SMILES O=C([O-])CCC(=O)[O-]
REMARK SMILES IDX 4 1 2 2 1 3 3 4 5 5 6 6 7 7 8 8
REMARK H PARENT
REMARK Flexibility Score: inf
ROOT
ATOM      1  C   UNL     1     186.984 181.536 189.613  1.00  0.00     0.059 C 
ENDROOT
BRANCH   1   2
ATOM      2  C   UNL     1     185.929 181.514 190.674  1.00  0.00     0.042 C 
ATOM      3  O   UNL     1     186.154 180.953 191.779  1.00  0.00    -0.550 OA
ATOM      4  O   UNL     1     184.716 182.155 190.461  1.00  0.00    -0.550 OA
ENDBRANCH   1   2
BRANCH   1   5
ATOM      5  C   UNL     1     188.230 182.270 190.112  1.00  0.00     0.059 C 
BRANCH   5   6
ATOM      6  C   UNL     1     187.926 183.715 190.351  1.00  0.00     0.042 C 
ATOM      7  O   UNL     1     188.114 184.223 191.487  1.00  0.00    -0.550 OA
ATOM      8  O   UNL     1     187.388 184.489 189.331  1.00  0.00    -0.550 OA
ENDBRANCH   5   6
ENDBRANCH   1   5
TORSDOF 3
ENDMDL
MODEL 6
REMARK VINA RESULT:     0.000     11.550     12.804
REMARK INTER + INTRA:          -0.193
REMARK INTER:                   0.000
REMARK INTRA:                  -0.193
REMARK UNBOUND:                -0.193
REMARK SMILES O=C([O-])CCC(=O)[O-]
REMARK SMILES IDX 4 1 2 2 1 3 3 4 5 5 6 6 7 7 8 8
REMARK H PARENT
REMARK Flexibility Score: inf
ROOT
ATOM      1  C   UNL     1     185.097 192.365 184.538  1.00  0.00     0.059 C 
ENDROOT
BRANCH   1   2
ATOM      2  C   UNL     1     185.236 193.685 183.845  1.00  0.00     0.042 C 
ATOM      3  O   UNL     1     185.053 193.771 182.603  1.00  0.00    -0.550 OA
ATOM      4  O   UNL     1     185.520 194.828 184.581  1.00  0.00    -0.550 OA
ENDBRANCH   1   2
BRANCH   1   5
ATOM      5  C   UNL     1     183.677 191.821 184.372  1.00  0.00     0.059 C 
BRANCH   5   6
ATOM      6  C   UNL     1     182.693 192.703 185.072  1.00  0.00     0.042 C 
ATOM      7  O   UNL     1     181.741 193.223 184.433  1.00  0.00    -0.550 OA
ATOM      8  O   UNL     1     182.855 192.991 186.421  1.00  0.00    -0.550 OA
ENDBRANCH   5   6
ENDBRANCH   1   5
TORSDOF 3
ENDMDL
MODEL 7
REMARK VINA RESULT:     0.000      7.605      8.341
REMARK INTER + INTRA:          -0.193
REMARK INTER:                   0.000
REMARK INTRA:                  -0.193
REMARK UNBOUND:                -0.193
REMARK SMILES O=C([O-])CCC(=O)[O-]
REMARK SMILES IDX 4 1 2 2 1 3 3 4 5 5 6 6 7 7 8 8
REMARK H PARENT
REMARK Flexibility Score: inf
ROOT
ATOM      1  C   UNL     1     180.409 187.132 192.175  1.00  0.00     0.059 C 
ENDROOT
BRANCH   1   2
ATOM      2  C   UNL     1     179.226 186.219 192.093  1.00  0.00     0.042 C 
ATOM      3  O   UNL     1     178.131 186.552 192.615  1.00  0.00    -0.550 OA
ATOM      4  O   UNL     1     179.322 185.022 191.395  1.00  0.00    -0.550 OA
ENDBRANCH   1   2
BRANCH   1   5
ATOM      5  C   UNL     1     180.104 188.466 191.491  1.00  0.00     0.059 C 
BRANCH   5   6
ATOM      6  C   UNL     1     179.903 188.266 190.022  1.00  0.00     0.042 C 
ATOM      7  O   UNL     1     178.825 188.620 189.476  1.00  0.00    -0.550 OA
ATOM      8  O   UNL     1     180.887 187.643 189.265  1.00  0.00    -0.550 OA
ENDBRANCH   5   6
ENDBRANCH   1   5
TORSDOF 3
ENDMDL
MODEL 8
REMARK VINA RESULT:     0.000     14.360     15.151
REMARK INTER + INTRA:          -0.193
REMARK INTER:                   0.000
REMARK INTRA:                  -0.193
REMARK UNBOUND:                -0.193
REMARK SMILES O=C([O-])CCC(=O)[O-]
REMARK SMILES IDX 4 1 2 2 1 3 3 4 5 5 6 6 7 7 8 8
REMARK H PARENT
REMARK Flexibility Score: inf
ROOT
ATOM      1  C   UNL     1     176.171 181.013 187.799  1.00  0.00     0.059 C 
ENDROOT
BRANCH   1   2
ATOM      2  C   UNL     1     176.348 182.392 187.243  1.00  0.00     0.042 C 
ATOM      3  O   UNL     1     176.421 183.382 188.016  1.00  0.00    -0.550 OA
ATOM      4  O   UNL     1     176.483 182.575 185.873  1.00  0.00    -0.550 OA
ENDBRANCH   1   2
BRANCH   1   5
ATOM      5  C   UNL     1     177.348 180.645 188.702  1.00  0.00     0.059 C 
BRANCH   5   6
ATOM      6  C   UNL     1     178.611 180.553 187.906  1.00  0.00     0.042 C 
ATOM      7  O   UNL     1     179.603 181.269 188.205  1.00  0.00    -0.550 OA
ATOM      8  O   UNL     1     178.676 179.713 186.802  1.00  0.00    -0.550 OA
ENDBRANCH   5   6
ENDBRANCH   1   5
TORSDOF 3
ENDMDL
MODEL 9
REMARK VINA RESULT:     0.000     12.245     13.086
REMARK INTER + INTRA:          -0.193
REMARK INTER:                   0.000
REMARK INTRA:                  -0.193
REMARK UNBOUND:                -0.193
REMARK SMILES O=C([O-])CCC(=O)[O-]
REMARK SMILES IDX 4 1 2 2 1 3 3 4 5 5 6 6 7 7 8 8
REMARK H PARENT
REMARK Flexibility Score: inf
ROOT
ATOM      1  C   UNL     1     175.520 184.629 190.509  1.00  0.00     0.059 C 
ENDROOT
BRANCH   1   2
ATOM      2  C   UNL     1     174.522 185.689 190.164  1.00  0.00     0.042 C 
ATOM      3  O   UNL     1     174.422 186.104 188.979  1.00  0.00    -0.550 OA
ATOM      4  O   UNL     1     173.668 186.183 191.141  1.00  0.00    -0.550 OA
ENDBRANCH   1   2
BRANCH   1   5
ATOM      5  C   UNL     1     175.229 183.346 189.730  1.00  0.00     0.059 C 
BRANCH   5   6
ATOM      6  C   UNL     1     173.919 182.761 190.154  1.00  0.00     0.042 C 
ATOM      7  O   UNL     1     173.007 182.566 189.308  1.00  0.00    -0.550 OA
ATOM      8  O   UNL     1     173.687 182.477 191.494  1.00  0.00    -0.550 OA
ENDBRANCH   5   6
ENDBRANCH   1   5
TORSDOF 3
ENDMDL
