MODEL 1
REMARK VINA RESULT:    -3.117      0.000      0.000
REMARK INTER + INTRA:          -3.757
REMARK INTER:                  -3.663
REMARK INTRA:                  -0.094
REMARK UNBOUND:                -0.094
REMARK SMILES O=C([O-])CCC(=O)[O-]
REMARK SMILES IDX 4 1 2 2 1 3 3 4 5 5 6 6 7 7 8 8
REMARK H PARENT
REMARK Flexibility Score: inf
ROOT
ATOM      1  C   UNL     1     193.316 183.265 189.547  1.00  0.00     0.059 C 
ENDROOT
BRANCH   1   2
ATOM      2  C   UNL     1     193.596 182.067 190.403  1.00  0.00     0.042 C 
ATOM      3  O   UNL     1     192.766 181.122 190.462  1.00  0.00    -0.550 OA
ATOM      4  O   UNL     1     194.756 182.013 191.165  1.00  0.00    -0.550 OA
ENDBRANCH   1   2
BRANCH   1   5
ATOM      5  C   UNL     1     192.222 184.149 190.156  1.00  0.00     0.059 C 
BRANCH   5   6
ATOM      6  C   UNL     1     190.878 183.848 189.569  1.00  0.00     0.042 C 
ATOM      7  O   UNL     1     189.829 184.153 190.197  1.00  0.00    -0.550 OA
ATOM      8  O   UNL     1     190.781 183.269 188.310  1.00  0.00    -0.550 OA
ENDBRANCH   5   6
ENDBRANCH   1   5
TORSDOF 3
ENDMDL
MODEL 2
REMARK VINA RESULT:    -3.100      0.627      1.629
REMARK INTER + INTRA:          -3.737
REMARK INTER:                  -3.680
REMARK INTRA:                  -0.058
REMARK UNBOUND:                -0.094
REMARK SMILES O=C([O-])CCC(=O)[O-]
REMARK SMILES IDX 4 1 2 2 1 3 3 4 5 5 6 6 7 7 8 8
REMARK H PARENT
REMARK Flexibility Score: inf
ROOT
ATOM      1  C   UNL     1     193.157 183.253 189.516  1.00  0.00     0.059 C 
ENDROOT
BRANCH   1   2
ATOM      2  C   UNL     1     193.491 182.085 190.393  1.00  0.00     0.042 C 
ATOM      3  O   UNL     1     194.574 182.062 191.033  1.00  0.00    -0.550 OA
ATOM      4  O   UNL     1     192.621 181.004 190.472  1.00  0.00    -0.550 OA
ENDBRANCH   1   2
BRANCH   1   5
ATOM      5  C   UNL     1     192.290 184.281 190.251  1.00  0.00     0.059 C 
BRANCH   5   6
ATOM      6  C   UNL     1     190.952 184.444 189.598  1.00  0.00     0.042 C 
ATOM      7  O   UNL     1     190.872 184.881 188.419  1.00  0.00    -0.550 OA
ATOM      8  O   UNL     1     189.797 184.074 190.274  1.00  0.00    -0.550 OA
ENDBRANCH   5   6
ENDBRANCH   1   5
TORSDOF 3
ENDMDL
MODEL 3
REMARK VINA RESULT:    -3.092      0.156      3.800
REMARK INTER + INTRA:          -3.728
REMARK INTER:                  -3.625
REMARK INTRA:                  -0.103
REMARK UNBOUND:                -0.094
REMARK SMILES O=C([O-])CCC(=O)[O-]
REMARK SMILES IDX 4 1 2 2 1 3 3 4 5 5 6 6 7 7 8 8
REMARK H PARENT
REMARK Flexibility Score: inf
ROOT
ATOM      1  C   UNL     1     192.300 184.169 190.148  1.00  0.00     0.059 C 
ENDROOT
BRANCH   1   2
ATOM      2  C   UNL     1     190.970 183.829 189.546  1.00  0.00     0.042 C 
ATOM      3  O   UNL     1     190.909 183.285 188.413  1.00  0.00    -0.550 OA
ATOM      4  O   UNL     1     189.799 184.150 190.221  1.00  0.00    -0.550 OA
ENDBRANCH   1   2
BRANCH   1   5
ATOM      5  C   UNL     1     193.422 183.308 189.560  1.00  0.00     0.059 C 
BRANCH   5   6
ATOM      6  C   UNL     1     193.755 182.151 190.450  1.00  0.00     0.042 C 
ATOM      7  O   UNL     1     192.981 181.159 190.516  1.00  0.00    -0.550 OA
ATOM      8  O   UNL     1     194.940 182.148 191.176  1.00  0.00    -0.550 OA
ENDBRANCH   5   6
ENDBRANCH   1   5
TORSDOF 3
ENDMDL
MODEL 4
REMARK VINA RESULT:    -3.035     12.437     14.424
REMARK INTER + INTRA:          -3.661
REMARK INTER:                  -3.518
REMARK INTRA:                  -0.143
REMARK UNBOUND:                -0.094
REMARK SMILES O=C([O-])CCC(=O)[O-]
REMARK SMILES IDX 4 1 2 2 1 3 3 4 5 5 6 6 7 7 8 8
REMARK H PARENT
REMARK Flexibility Score: inf
ROOT
ATOM      1  C   UNL     1     186.181 196.226 188.825  1.00  0.00     0.059 C 
ENDROOT
BRANCH   1   2
ATOM      2  C   UNL     1     185.474 196.933 189.941  1.00  0.00     0.042 C 
ATOM      3  O   UNL     1     186.005 197.929 190.498  1.00  0.00    -0.550 OA
ATOM      4  O   UNL     1     184.246 196.466 190.393  1.00  0.00    -0.550 OA
ENDBRANCH   1   2
BRANCH   1   5
ATOM      5  C   UNL     1     186.025 194.705 188.932  1.00  0.00     0.059 C 
BRANCH   5   6
ATOM      6  C   UNL     1     186.751 194.158 190.121  1.00  0.00     0.042 C 
ATOM      7  O   UNL     1     186.120 193.546 191.023  1.00  0.00    -0.550 OA
ATOM      8  O   UNL     1     188.132 194.286 190.215  1.00  0.00    -0.550 OA
ENDBRANCH   5   6
ENDBRANCH   1   5
TORSDOF 3
ENDMDL
MODEL 5
REMARK VINA RESULT:    -3.030     12.451     14.104
REMARK INTER + INTRA:          -3.655
REMARK INTER:                  -3.518
REMARK INTRA:                  -0.137
REMARK UNBOUND:                -0.094
REMARK SMILES O=C([O-])CCC(=O)[O-]
REMARK SMILES IDX 4 1 2 2 1 3 3 4 5 5 6 6 7 7 8 8
REMARK H PARENT
REMARK Flexibility Score: inf
ROOT
ATOM      1  C   UNL     1     186.225 194.808 188.832  1.00  0.00     0.059 C 
ENDROOT
BRANCH   1   2
ATOM      2  C   UNL     1     186.862 194.211 190.051  1.00  0.00     0.042 C 
ATOM      3  O   UNL     1     188.109 194.270 190.208  1.00  0.00    -0.550 OA
ATOM      4  O   UNL     1     186.080 193.555 190.993  1.00  0.00    -0.550 OA
ENDBRANCH   1   2
BRANCH   1   5
ATOM      5  C   UNL     1     186.398 196.330 188.794  1.00  0.00     0.059 C 
BRANCH   5   6
ATOM      6  C   UNL     1     185.640 196.999 189.899  1.00  0.00     0.042 C 
ATOM      7  O   UNL     1     186.120 198.013 190.473  1.00  0.00    -0.550 OA
ATOM      8  O   UNL     1     184.386 196.530 190.268  1.00  0.00    -0.550 OA
ENDBRANCH   5   6
ENDBRANCH   1   5
TORSDOF 3
ENDMDL
MODEL 6
REMARK VINA RESULT:    -2.991     12.268     14.243
REMARK INTER + INTRA:          -3.609
REMARK INTER:                  -3.579
REMARK INTRA:                  -0.030
REMARK UNBOUND:                -0.094
REMARK SMILES O=C([O-])CCC(=O)[O-]
REMARK SMILES IDX 4 1 2 2 1 3 3 4 5 5 6 6 7 7 8 8
REMARK H PARENT
REMARK Flexibility Score: inf
ROOT
ATOM      1  C   UNL     1     186.401 196.012 189.249  1.00  0.00     0.059 C 
ENDROOT
BRANCH   1   2
ATOM      2  C   UNL     1     185.601 196.898 190.155  1.00  0.00     0.042 C 
ATOM      3  O   UNL     1     186.058 198.014 190.515  1.00  0.00    -0.550 OA
ATOM      4  O   UNL     1     184.367 196.473 190.632  1.00  0.00    -0.550 OA
ENDBRANCH   1   2
BRANCH   1   5
ATOM      5  C   UNL     1     186.717 194.667 189.912  1.00  0.00     0.059 C 
BRANCH   5   6
ATOM      6  C   UNL     1     188.080 194.173 189.538  1.00  0.00     0.042 C 
ATOM      7  O   UNL     1     188.232 193.438 188.526  1.00  0.00    -0.550 OA
ATOM      8  O   UNL     1     189.189 194.558 190.281  1.00  0.00    -0.550 OA
ENDBRANCH   5   6
ENDBRANCH   1   5
TORSDOF 3
ENDMDL
MODEL 7
REMARK VINA RESULT:    -2.976      5.739      7.466
REMARK INTER + INTRA:          -3.592
REMARK INTER:                  -3.542
REMARK INTRA:                  -0.050
REMARK UNBOUND:                -0.094
REMARK SMILES O=C([O-])CCC(=O)[O-]
REMARK SMILES IDX 4 1 2 2 1 3 3 4 5 5 6 6 7 7 8 8
REMARK H PARENT
REMARK Flexibility Score: inf
ROOT
ATOM      1  C   UNL     1     198.036 182.365 194.099  1.00  0.00     0.059 C 
ENDROOT
BRANCH   1   2
ATOM      2  C   UNL     1     197.588 182.367 192.669  1.00  0.00     0.042 C 
ATOM      3  O   UNL     1     198.404 182.641 191.750  1.00  0.00    -0.550 OA
ATOM      4  O   UNL     1     196.260 182.106 192.356  1.00  0.00    -0.550 OA
ENDBRANCH   1   2
BRANCH   1   5
ATOM      5  C   UNL     1     197.047 183.112 195.000  1.00  0.00     0.059 C 
BRANCH   5   6
ATOM      6  C   UNL     1     197.665 184.337 195.601  1.00  0.00     0.042 C 
ATOM      7  O   UNL     1     196.948 185.331 195.892  1.00  0.00    -0.550 OA
ATOM      8  O   UNL     1     199.026 184.366 195.879  1.00  0.00    -0.550 OA
ENDBRANCH   5   6
ENDBRANCH   1   5
TORSDOF 3
ENDMDL
MODEL 8
REMARK VINA RESULT:    -2.966     12.565     14.115
REMARK INTER + INTRA:          -3.580
REMARK INTER:                  -3.507
REMARK INTRA:                  -0.073
REMARK UNBOUND:                -0.094
REMARK SMILES O=C([O-])CCC(=O)[O-]
REMARK SMILES IDX 4 1 2 2 1 3 3 4 5 5 6 6 7 7 8 8
REMARK H PARENT
REMARK Flexibility Score: inf
ROOT
ATOM      1  C   UNL     1     187.112 195.745 188.947  1.00  0.00     0.059 C 
ENDROOT
BRANCH   1   2
ATOM      2  C   UNL     1     187.599 194.652 189.850  1.00  0.00     0.042 C 
ATOM      3  O   UNL     1     186.780 193.863 190.389  1.00  0.00    -0.550 OA
ATOM      4  O   UNL     1     188.955 194.531 190.125  1.00  0.00    -0.550 OA
ENDBRANCH   1   2
BRANCH   1   5
ATOM      5  C   UNL     1     185.596 195.935 189.058  1.00  0.00     0.059 C 
BRANCH   5   6
ATOM      6  C   UNL     1     185.235 196.848 190.188  1.00  0.00     0.042 C 
ATOM      7  O   UNL     1     184.244 196.588 190.921  1.00  0.00    -0.550 OA
ATOM      8  O   UNL     1     186.015 197.965 190.459  1.00  0.00    -0.550 OA
ENDBRANCH   5   6
ENDBRANCH   1   5
TORSDOF 3
ENDMDL
MODEL 9
REMARK VINA RESULT:    -2.866     16.664     17.514
REMARK INTER + INTRA:          -3.462
REMARK INTER:                  -3.416
REMARK INTRA:                  -0.046
REMARK UNBOUND:                -0.094
REMARK SMILES O=C([O-])CCC(=O)[O-]
REMARK SMILES IDX 4 1 2 2 1 3 3 4 5 5 6 6 7 7 8 8
REMARK H PARENT
REMARK Flexibility Score: inf
ROOT
ATOM      1  C   UNL     1     180.913 196.439 194.077  1.00  0.00     0.059 C 
ENDROOT
BRANCH   1   2
ATOM      2  C   UNL     1     181.476 196.448 192.689  1.00  0.00     0.042 C 
ATOM      3  O   UNL     1     182.632 196.897 192.477  1.00  0.00    -0.550 OA
ATOM      4  O   UNL     1     180.706 195.997 191.624  1.00  0.00    -0.550 OA
ENDBRANCH   1   2
BRANCH   1   5
ATOM      5  C   UNL     1     181.835 195.702 195.055  1.00  0.00     0.059 C 
BRANCH   5   6
ATOM      6  C   UNL     1     181.132 194.563 195.726  1.00  0.00     0.042 C 
ATOM      7  O   UNL     1     179.880 194.584 195.862  1.00  0.00    -0.550 OA
ATOM      8  O   UNL     1     181.854 193.460 196.164  1.00  0.00    -0.550 OA
ENDBRANCH   5   6
ENDBRANCH   1   5
TORSDOF 3
ENDMDL
