MODEL 1
REMARK VINA RESULT:    -1.504      0.000      0.000
REMARK INTER + INTRA:          -4.329
REMARK INTER:                  -2.735
REMARK INTRA:                  -1.594
REMARK UNBOUND:                -1.594
REMARK SMILES CCCCCCCCCCCCCCCC(=O)[O-]
REMARK SMILES IDX 9 1 10 2 11 3 12 4 13 5 14 6 15 7 16 8 17 9 18 10 8 11 7 12
REMARK SMILES IDX 6 13 5 14 4 15 3 16 2 17 1 18
REMARK H PARENT
REMARK Flexibility Score: inf
ROOT
ATOM      1  C   UNL     1       4.946  -9.993   8.906  1.00  0.00     0.000 C 
ENDROOT
BRANCH   1   2
ATOM      2  C   UNL     1       3.479 -10.118   8.455  1.00  0.00     0.000 C 
BRANCH   2   3
ATOM      3  C   UNL     1       3.321 -10.125   6.928  1.00  0.00     0.000 C 
BRANCH   3   4
ATOM      4  C   UNL     1       4.643  -9.767   6.237  1.00  0.00     0.000 C 
BRANCH   4   5
ATOM      5  C   UNL     1       4.651  -8.296   5.793  1.00  0.00     0.000 C 
BRANCH   5   6
ATOM      6  C   UNL     1       6.039  -7.649   5.913  1.00  0.00     0.006 C 
BRANCH   6   7
ATOM      7  C   UNL     1       5.988  -6.255   6.554  1.00  0.00     0.053 C 
BRANCH   7   8
ATOM      8  C   UNL     1       5.508  -5.243   5.563  1.00  0.00     0.041 C 
ATOM      9  O   UNL     1       5.650  -4.013   5.794  1.00  0.00    -0.550 OA
ATOM     10  O   UNL     1       4.947  -5.656   4.360  1.00  0.00    -0.550 OA
ENDBRANCH   7   8
ENDBRANCH   6   7
ENDBRANCH   5   6
ENDBRANCH   4   5
ENDBRANCH   3   4
ENDBRANCH   2   3
ENDBRANCH   1   2
BRANCH   1  11
ATOM     11  C   UNL     1       5.176  -9.074  10.119  1.00  0.00     0.000 C 
BRANCH  11  12
ATOM     12  C   UNL     1       6.412  -8.175   9.965  1.00  0.00    -0.000 C 
BRANCH  12  13
ATOM     13  C   UNL     1       7.445  -8.819   9.028  1.00  0.00    -0.000 C 
BRANCH  13  14
ATOM     14  C   UNL     1       8.639  -7.896   8.729  1.00  0.00    -0.000 C 
BRANCH  14  15
ATOM     15  C   UNL     1       9.984  -8.618   8.518  1.00  0.00    -0.000 C 
BRANCH  15  16
ATOM     16  C   UNL     1       9.881 -10.033   7.915  1.00  0.00    -0.000 C 
BRANCH  16  17
ATOM     17  C   UNL     1       9.959 -10.088   6.378  1.00  0.00    -0.003 C 
ATOM     18  C   UNL     1       8.583 -10.106   5.714  1.00  0.00     0.004 C 
ENDBRANCH  16  17
ENDBRANCH  15  16
ENDBRANCH  14  15
ENDBRANCH  13  14
ENDBRANCH  12  13
ENDBRANCH  11  12
ENDBRANCH   1  11
TORSDOF 14
ENDMDL
MODEL 2
REMARK VINA RESULT:    -1.429      1.158      1.957
REMARK INTER + INTRA:          -4.192
REMARK INTER:                  -2.584
REMARK INTRA:                  -1.608
REMARK UNBOUND:                -1.594
REMARK SMILES CCCCCCCCCCCCCCCC(=O)[O-]
REMARK SMILES IDX 9 1 10 2 11 3 12 4 13 5 14 6 15 7 16 8 17 9 18 10 8 11 7 12
REMARK SMILES IDX 6 13 5 14 4 15 3 16 2 17 1 18
REMARK H PARENT
REMARK Flexibility Score: inf
ROOT
ATOM      1  C   UNL     1       3.768 -10.029   7.863  1.00  0.00     0.000 C 
ENDROOT
BRANCH   1   2
ATOM      2  C   UNL     1       4.309 -10.021   6.422  1.00  0.00     0.000 C 
BRANCH   2   3
ATOM      3  C   UNL     1       5.840  -9.922   6.358  1.00  0.00     0.000 C 
BRANCH   3   4
ATOM      4  C   UNL     1       6.278  -8.720   5.512  1.00  0.00     0.000 C 
BRANCH   4   5
ATOM      5  C   UNL     1       5.936  -7.398   6.217  1.00  0.00     0.000 C 
BRANCH   5   6
ATOM      6  C   UNL     1       5.247  -6.391   5.284  1.00  0.00     0.006 C 
BRANCH   6   7
ATOM      7  C   UNL     1       5.594  -4.935   5.625  1.00  0.00     0.053 C 
BRANCH   7   8
ATOM      8  C   UNL     1       5.238  -4.033   4.487  1.00  0.00     0.041 C 
ATOM      9  O   UNL     1       6.121  -3.316   3.947  1.00  0.00    -0.550 OA
ATOM     10  O   UNL     1       3.941  -4.019   3.988  1.00  0.00    -0.550 OA
ENDBRANCH   7   8
ENDBRANCH   6   7
ENDBRANCH   5   6
ENDBRANCH   4   5
ENDBRANCH   3   4
ENDBRANCH   2   3
ENDBRANCH   1   2
BRANCH   1  11
ATOM     11  C   UNL     1       4.164  -8.809   8.713  1.00  0.00     0.000 C 
BRANCH  11  12
ATOM     12  C   UNL     1       4.719  -9.194  10.093  1.00  0.00    -0.000 C 
BRANCH  12  13
ATOM     13  C   UNL     1       6.253  -9.275  10.063  1.00  0.00    -0.000 C 
BRANCH  13  14
ATOM     14  C   UNL     1       6.923  -7.893   9.970  1.00  0.00    -0.000 C 
BRANCH  14  15
ATOM     15  C   UNL     1       7.993  -7.762   8.869  1.00  0.00    -0.000 C 
BRANCH  15  16
ATOM     16  C   UNL     1       9.398  -8.266   9.255  1.00  0.00    -0.000 C 
BRANCH  16  17
ATOM     17  C   UNL     1       9.912  -9.450   8.417  1.00  0.00    -0.003 C 
ATOM     18  C   UNL     1       9.646  -9.279   6.922  1.00  0.00     0.004 C 
ENDBRANCH  16  17
ENDBRANCH  15  16
ENDBRANCH  14  15
ENDBRANCH  13  14
ENDBRANCH  12  13
ENDBRANCH  11  12
ENDBRANCH   1  11
TORSDOF 14
ENDMDL
MODEL 3
REMARK VINA RESULT:    -1.306      1.708      5.217
REMARK INTER + INTRA:          -3.969
REMARK INTER:                  -3.238
REMARK INTRA:                  -0.731
REMARK UNBOUND:                -1.594
REMARK SMILES CCCCCCCCCCCCCCCC(=O)[O-]
REMARK SMILES IDX 9 1 10 2 11 3 12 4 13 5 14 6 15 7 16 8 17 9 18 10 8 11 7 12
REMARK SMILES IDX 6 13 5 14 4 15 3 16 2 17 1 18
REMARK H PARENT
REMARK Flexibility Score: inf
ROOT
ATOM      1  C   UNL     1       8.373  -7.398   8.640  1.00  0.00     0.000 C 
ENDROOT
BRANCH   1   2
ATOM      2  C   UNL     1       9.822  -7.805   8.316  1.00  0.00     0.000 C 
BRANCH   2   3
ATOM      3  C   UNL     1       9.918  -9.159   7.598  1.00  0.00     0.000 C 
BRANCH   3   4
ATOM      4  C   UNL     1       8.526  -9.759   7.368  1.00  0.00     0.000 C 
BRANCH   4   5
ATOM      5  C   UNL     1       8.322 -10.124   5.889  1.00  0.00     0.000 C 
BRANCH   5   6
ATOM      6  C   UNL     1       7.059  -9.487   5.291  1.00  0.00     0.006 C 
BRANCH   6   7
ATOM      7  C   UNL     1       6.891  -8.015   5.694  1.00  0.00     0.053 C 
BRANCH   7   8
ATOM      8  C   UNL     1       5.441  -7.659   5.779  1.00  0.00     0.041 C 
ATOM      9  O   UNL     1       5.001  -6.648   5.172  1.00  0.00    -0.550 OA
ATOM     10  O   UNL     1       4.564  -8.471   6.489  1.00  0.00    -0.550 OA
ENDBRANCH   7   8
ENDBRANCH   6   7
ENDBRANCH   5   6
ENDBRANCH   4   5
ENDBRANCH   3   4
ENDBRANCH   2   3
ENDBRANCH   1   2
BRANCH   1  11
ATOM     11  C   UNL     1       7.873  -7.826  10.031  1.00  0.00     0.000 C 
BRANCH  11  12
ATOM     12  C   UNL     1       6.401  -8.267  10.031  1.00  0.00    -0.000 C 
BRANCH  12  13
ATOM     13  C   UNL     1       6.273  -9.751   9.658  1.00  0.00    -0.000 C 
BRANCH  13  14
ATOM     14  C   UNL     1       4.950 -10.076   8.944  1.00  0.00    -0.000 C 
BRANCH  14  15
ATOM     15  C   UNL     1       3.700 -10.051   9.845  1.00  0.00    -0.000 C 
BRANCH  15  16
ATOM     16  C   UNL     1       2.352 -10.124   9.100  1.00  0.00    -0.000 C 
BRANCH  16  17
ATOM     17  C   UNL     1       1.198  -9.364   9.778  1.00  0.00    -0.003 C 
ATOM     18  C   UNL     1      -0.133 -10.110   9.698  1.00  0.00     0.004 C 
ENDBRANCH  16  17
ENDBRANCH  15  16
ENDBRANCH  14  15
ENDBRANCH  13  14
ENDBRANCH  12  13
ENDBRANCH  11  12
ENDBRANCH   1  11
TORSDOF 14
ENDMDL
MODEL 4
REMARK VINA RESULT:    -1.116      2.524      5.183
REMARK INTER + INTRA:          -3.624
REMARK INTER:                  -3.045
REMARK INTRA:                  -0.578
REMARK UNBOUND:                -1.594
REMARK SMILES CCCCCCCCCCCCCCCC(=O)[O-]
REMARK SMILES IDX 9 1 10 2 11 3 12 4 13 5 14 6 15 7 16 8 17 9 18 10 8 11 7 12
REMARK SMILES IDX 6 13 5 14 4 15 3 16 2 17 1 18
REMARK H PARENT
REMARK Flexibility Score: inf
ROOT
ATOM      1  C   UNL     1       3.953  -9.232   7.312  1.00  0.00     0.000 C 
ENDROOT
BRANCH   1   2
ATOM      2  C   UNL     1       2.982  -9.900   8.304  1.00  0.00     0.000 C 
BRANCH   2   3
ATOM      3  C   UNL     1       3.064  -9.302   9.715  1.00  0.00     0.000 C 
BRANCH   3   4
ATOM      4  C   UNL     1       4.490  -8.834  10.033  1.00  0.00     0.000 C 
BRANCH   4   5
ATOM      5  C   UNL     1       5.504  -9.964   9.799  1.00  0.00     0.000 C 
BRANCH   5   6
ATOM      6  C   UNL     1       6.954  -9.518  10.044  1.00  0.00     0.006 C 
BRANCH   6   7
ATOM      7  C   UNL     1       7.922 -10.038   8.972  1.00  0.00     0.053 C 
BRANCH   7   8
ATOM      8  C   UNL     1       8.946  -8.998   8.645  1.00  0.00     0.041 C 
ATOM      9  O   UNL     1       8.972  -7.912   9.282  1.00  0.00    -0.550 OA
ATOM     10  O   UNL     1       9.904  -9.246   7.669  1.00  0.00    -0.550 OA
ENDBRANCH   7   8
ENDBRANCH   6   7
ENDBRANCH   5   6
ENDBRANCH   4   5
ENDBRANCH   3   4
ENDBRANCH   2   3
ENDBRANCH   1   2
BRANCH   1  11
ATOM     11  C   UNL     1       4.401 -10.125   6.141  1.00  0.00     0.000 C 
BRANCH  11  12
ATOM     12  C   UNL     1       5.808  -9.782   5.630  1.00  0.00    -0.000 C 
BRANCH  12  13
ATOM     13  C   UNL     1       6.317  -8.476   6.258  1.00  0.00    -0.000 C 
BRANCH  13  14
ATOM     14  C   UNL     1       5.634  -7.227   5.675  1.00  0.00    -0.000 C 
BRANCH  14  15
ATOM     15  C   UNL     1       5.764  -5.953   6.533  1.00  0.00    -0.000 C 
BRANCH  15  16
ATOM     16  C   UNL     1       5.913  -4.640   5.740  1.00  0.00    -0.000 C 
BRANCH  16  17
ATOM     17  C   UNL     1       5.119  -4.587   4.422  1.00  0.00    -0.003 C 
ATOM     18  C   UNL     1       4.863  -3.160   3.939  1.00  0.00     0.004 C 
ENDBRANCH  16  17
ENDBRANCH  15  16
ENDBRANCH  14  15
ENDBRANCH  13  14
ENDBRANCH  12  13
ENDBRANCH  11  12
ENDBRANCH   1  11
TORSDOF 14
ENDMDL
MODEL 5
REMARK VINA RESULT:    -0.966      2.391      5.522
REMARK INTER + INTRA:          -3.351
REMARK INTER:                  -3.119
REMARK INTRA:                  -0.232
REMARK UNBOUND:                -1.594
REMARK SMILES CCCCCCCCCCCCCCCC(=O)[O-]
REMARK SMILES IDX 9 1 10 2 11 3 12 4 13 5 14 6 15 7 16 8 17 9 18 10 8 11 7 12
REMARK SMILES IDX 6 13 5 14 4 15 3 16 2 17 1 18
REMARK H PARENT
REMARK Flexibility Score: inf
ROOT
ATOM      1  C   UNL     1       7.118  -9.306   5.603  1.00  0.00     0.000 C 
ENDROOT
BRANCH   1   2
ATOM      2  C   UNL     1       8.390 -10.107   5.265  1.00  0.00     0.000 C 
BRANCH   2   3
ATOM      3  C   UNL     1       9.563  -9.791   6.203  1.00  0.00     0.000 C 
BRANCH   3   4
ATOM      4  C   UNL     1       9.130  -9.875   7.673  1.00  0.00     0.000 C 
BRANCH   4   5
ATOM      5  C   UNL     1       9.050  -8.476   8.303  1.00  0.00     0.000 C 
BRANCH   5   6
ATOM      6  C   UNL     1       8.597  -8.513   9.770  1.00  0.00     0.006 C 
BRANCH   6   7
ATOM      7  C   UNL     1       7.551  -9.604  10.038  1.00  0.00     0.053 C 
BRANCH   7   8
ATOM      8  C   UNL     1       6.182  -9.007  10.112  1.00  0.00     0.041 C 
ATOM      9  O   UNL     1       6.035  -7.757  10.124  1.00  0.00    -0.550 OA
ATOM     10  O   UNL     1       5.062  -9.831  10.119  1.00  0.00    -0.550 OA
ENDBRANCH   7   8
ENDBRANCH   6   7
ENDBRANCH   5   6
ENDBRANCH   4   5
ENDBRANCH   3   4
ENDBRANCH   2   3
ENDBRANCH   1   2
BRANCH   1  11
ATOM     11  C   UNL     1       5.991 -10.124   6.257  1.00  0.00     0.000 C 
BRANCH  11  12
ATOM     12  C   UNL     1       4.589  -9.664   5.828  1.00  0.00    -0.000 C 
BRANCH  12  13
ATOM     13  C   UNL     1       4.331  -8.214   6.265  1.00  0.00    -0.000 C 
BRANCH  13  14
ATOM     14  C   UNL     1       5.414  -7.674   7.215  1.00  0.00    -0.000 C 
BRANCH  14  15
ATOM     15  C   UNL     1       5.997  -6.302   6.825  1.00  0.00    -0.000 C 
BRANCH  15  16
ATOM     16  C   UNL     1       5.668  -5.832   5.394  1.00  0.00    -0.000 C 
BRANCH  16  17
ATOM     17  C   UNL     1       5.729  -4.309   5.184  1.00  0.00    -0.003 C 
ATOM     18  C   UNL     1       4.887  -3.838   3.999  1.00  0.00     0.004 C 
ENDBRANCH  16  17
ENDBRANCH  15  16
ENDBRANCH  14  15
ENDBRANCH  13  14
ENDBRANCH  12  13
ENDBRANCH  11  12
ENDBRANCH   1  11
TORSDOF 14
ENDMDL
MODEL 6
REMARK VINA RESULT:    -0.730      1.296      3.520
REMARK INTER + INTRA:          -2.921
REMARK INTER:                  -1.944
REMARK INTRA:                  -0.977
REMARK UNBOUND:                -1.594
REMARK SMILES CCCCCCCCCCCCCCCC(=O)[O-]
REMARK SMILES IDX 9 1 10 2 11 3 12 4 13 5 14 6 15 7 16 8 17 9 18 10 8 11 7 12
REMARK SMILES IDX 6 13 5 14 4 15 3 16 2 17 1 18
REMARK H PARENT
REMARK Flexibility Score: inf
ROOT
ATOM      1  C   UNL     1       7.925  -9.035   6.488  1.00  0.00     0.000 C 
ENDROOT
BRANCH   1   2
ATOM      2  C   UNL     1       6.829 -10.116   6.535  1.00  0.00     0.000 C 
BRANCH   2   3
ATOM      3  C   UNL     1       5.729  -9.899   5.487  1.00  0.00     0.000 C 
BRANCH   3   4
ATOM      4  C   UNL     1       4.793  -8.756   5.900  1.00  0.00     0.000 C 
BRANCH   4   5
ATOM      5  C   UNL     1       5.593  -7.493   6.256  1.00  0.00     0.000 C 
BRANCH   5   6
ATOM      6  C   UNL     1       5.608  -6.462   5.117  1.00  0.00     0.006 C 
BRANCH   6   7
ATOM      7  C   UNL     1       5.438  -5.022   5.621  1.00  0.00     0.053 C 
BRANCH   7   8
ATOM      8  C   UNL     1       5.260  -4.084   4.469  1.00  0.00     0.041 C 
ATOM      9  O   UNL     1       6.263  -3.656   3.840  1.00  0.00    -0.550 OA
ATOM     10  O   UNL     1       3.983  -3.720   4.058  1.00  0.00    -0.550 OA
ENDBRANCH   7   8
ENDBRANCH   6   7
ENDBRANCH   5   6
ENDBRANCH   4   5
ENDBRANCH   3   4
ENDBRANCH   2   3
ENDBRANCH   1   2
BRANCH   1  11
ATOM     11  C   UNL     1       9.257  -9.431   7.150  1.00  0.00     0.000 C 
BRANCH  11  12
ATOM     12  C   UNL     1       9.291  -9.129   8.656  1.00  0.00    -0.000 C 
BRANCH  12  13
ATOM     13  C   UNL     1       8.297  -8.014   9.015  1.00  0.00    -0.000 C 
BRANCH  13  14
ATOM     14  C   UNL     1       7.287  -8.439  10.094  1.00  0.00    -0.000 C 
BRANCH  14  15
ATOM     15  C   UNL     1       6.811  -9.902  10.001  1.00  0.00    -0.000 C 
BRANCH  15  16
ATOM     16  C   UNL     1       5.288 -10.106  10.125  1.00  0.00    -0.000 C 
BRANCH  16  17
ATOM     17  C   UNL     1       4.438  -8.893   9.705  1.00  0.00    -0.003 C 
ATOM     18  C   UNL     1       3.177  -9.289   8.939  1.00  0.00     0.004 C 
ENDBRANCH  16  17
ENDBRANCH  15  16
ENDBRANCH  14  15
ENDBRANCH  13  14
ENDBRANCH  12  13
ENDBRANCH  11  12
ENDBRANCH   1  11
TORSDOF 14
ENDMDL
MODEL 7
REMARK VINA RESULT:    -0.410      2.518      4.728
REMARK INTER + INTRA:          -2.339
REMARK INTER:                  -0.853
REMARK INTRA:                  -1.486
REMARK UNBOUND:                -1.594
REMARK SMILES CCCCCCCCCCCCCCCC(=O)[O-]
REMARK SMILES IDX 9 1 10 2 11 3 12 4 13 5 14 6 15 7 16 8 17 9 18 10 8 11 7 12
REMARK SMILES IDX 6 13 5 14 4 15 3 16 2 17 1 18
REMARK H PARENT
REMARK Flexibility Score: inf
ROOT
ATOM      1  C   UNL     1       5.952  -8.130   5.698  1.00  0.00     0.000 C 
ENDROOT
BRANCH   1   2
ATOM      2  C   UNL     1       5.601  -6.978   6.658  1.00  0.00     0.000 C 
BRANCH   2   3
ATOM      3  C   UNL     1       5.982  -5.599   6.104  1.00  0.00     0.000 C 
BRANCH   3   4
ATOM      4  C   UNL     1       5.229  -5.302   4.801  1.00  0.00     0.000 C 
BRANCH   4   5
ATOM      5  C   UNL     1       5.224  -3.795   4.499  1.00  0.00     0.000 C 
BRANCH   5   6
ATOM      6  C   UNL     1       4.530  -3.460   3.170  1.00  0.00     0.006 C 
BRANCH   6   7
ATOM      7  C   UNL     1       3.011  -3.301   3.321  1.00  0.00     0.053 C 
BRANCH   7   8
ATOM      8  C   UNL     1       2.384  -3.002   1.996  1.00  0.00     0.041 C 
ATOM      9  O   UNL     1       1.131  -3.001   1.874  1.00  0.00    -0.550 OA
ATOM     10  O   UNL     1       3.182  -2.674   0.906  1.00  0.00    -0.550 OA
ENDBRANCH   7   8
ENDBRANCH   6   7
ENDBRANCH   5   6
ENDBRANCH   4   5
ENDBRANCH   3   4
ENDBRANCH   2   3
ENDBRANCH   1   2
BRANCH   1  11
ATOM     11  C   UNL     1       5.188  -9.442   5.950  1.00  0.00     0.000 C 
BRANCH  11  12
ATOM     12  C   UNL     1       3.752  -9.214   6.445  1.00  0.00    -0.000 C 
BRANCH  12  13
ATOM     13  C   UNL     1       3.489  -9.996   7.741  1.00  0.00    -0.000 C 
BRANCH  13  14
ATOM     14  C   UNL     1       3.908  -9.221   9.002  1.00  0.00    -0.000 C 
BRANCH  14  15
ATOM     15  C   UNL     1       5.198  -9.726   9.678  1.00  0.00    -0.000 C 
BRANCH  15  16
ATOM     16  C   UNL     1       6.319  -8.677   9.818  1.00  0.00    -0.000 C 
BRANCH  16  17
ATOM     17  C   UNL     1       7.632  -9.035   9.098  1.00  0.00    -0.003 C 
ATOM     18  C   UNL     1       8.514  -7.816   8.831  1.00  0.00     0.004 C 
ENDBRANCH  16  17
ENDBRANCH  15  16
ENDBRANCH  14  15
ENDBRANCH  13  14
ENDBRANCH  12  13
ENDBRANCH  11  12
ENDBRANCH   1  11
TORSDOF 14
ENDMDL
MODEL 8
REMARK VINA RESULT:    -0.343      3.022      6.196
REMARK INTER + INTRA:          -2.217
REMARK INTER:                  -1.154
REMARK INTRA:                  -1.063
REMARK UNBOUND:                -1.594
REMARK SMILES CCCCCCCCCCCCCCCC(=O)[O-]
REMARK SMILES IDX 9 1 10 2 11 3 12 4 13 5 14 6 15 7 16 8 17 9 18 10 8 11 7 12
REMARK SMILES IDX 6 13 5 14 4 15 3 16 2 17 1 18
REMARK H PARENT
REMARK Flexibility Score: inf
ROOT
ATOM      1  C   UNL     1       4.268  -8.538   6.189  1.00  0.00     0.000 C 
ENDROOT
BRANCH   1   2
ATOM      2  C   UNL     1       4.093  -9.974   6.716  1.00  0.00     0.000 C 
BRANCH   2   3
ATOM      3  C   UNL     1       4.491 -10.122   8.191  1.00  0.00     0.000 C 
BRANCH   3   4
ATOM      4  C   UNL     1       4.124  -8.864   8.989  1.00  0.00     0.000 C 
BRANCH   4   5
ATOM      5  C   UNL     1       5.165  -8.584  10.084  1.00  0.00     0.000 C 
BRANCH   5   6
ATOM      6  C   UNL     1       6.593  -8.945   9.649  1.00  0.00     0.006 C 
BRANCH   6   7
ATOM      7  C   UNL     1       7.408  -7.718   9.218  1.00  0.00     0.053 C 
BRANCH   7   8
ATOM      8  C   UNL     1       8.775  -8.130   8.772  1.00  0.00     0.041 C 
ATOM      9  O   UNL     1       9.782  -7.847   9.473  1.00  0.00    -0.550 OA
ATOM     10  O   UNL     1       8.934  -8.869   7.607  1.00  0.00    -0.550 OA
ENDBRANCH   7   8
ENDBRANCH   6   7
ENDBRANCH   5   6
ENDBRANCH   4   5
ENDBRANCH   3   4
ENDBRANCH   2   3
ENDBRANCH   1   2
BRANCH   1  11
ATOM     11  C   UNL     1       5.725  -8.053   6.094  1.00  0.00     0.000 C 
BRANCH  11  12
ATOM     12  C   UNL     1       5.860  -6.528   6.224  1.00  0.00    -0.000 C 
BRANCH  12  13
ATOM     13  C   UNL     1       5.167  -5.815   5.052  1.00  0.00    -0.000 C 
BRANCH  13  14
ATOM     14  C   UNL     1       5.495  -4.313   4.989  1.00  0.00    -0.000 C 
BRANCH  14  15
ATOM     15  C   UNL     1       5.036  -3.600   3.702  1.00  0.00    -0.000 C 
BRANCH  15  16
ATOM     16  C   UNL     1       3.520  -3.338   3.603  1.00  0.00    -0.000 C 
BRANCH  16  17
ATOM     17  C   UNL     1       3.050  -2.770   2.251  1.00  0.00    -0.003 C 
ATOM     18  C   UNL     1       1.587  -3.089   1.948  1.00  0.00     0.004 C 
ENDBRANCH  16  17
ENDBRANCH  15  16
ENDBRANCH  14  15
ENDBRANCH  13  14
ENDBRANCH  12  13
ENDBRANCH  11  12
ENDBRANCH   1  11
TORSDOF 14
ENDMDL
