MODEL 1
REMARK VINA RESULT:    -4.732      0.000      0.000
REMARK INTER + INTRA:         -15.289
REMARK INTER:                 -11.926
REMARK INTRA:                  -3.363
REMARK UNBOUND:                -3.363
REMARK SMILES CCCCCCCCCCCCCCCCCCCCCCCCCCCC(=O)[O-]
REMARK SMILES IDX 15 1 16 2 17 3 18 4 19 5 20 6 21 7 22 8 23 9 24 10 25 11
REMARK SMILES IDX 26 12 27 13 28 14 29 15 30 16 14 17 13 18 12 19 11 20 10 21
REMARK SMILES IDX 9 22 8 23 7 24 6 25 5 26 4 27 3 28 2 29 1 30
REMARK H PARENT
REMARK Flexibility Score: inf
ROOT
ATOM      1  C   UNL     1     -21.776   8.492  17.479  1.00  0.00     0.000 C 
ENDROOT
BRANCH   1   2
ATOM      2  C   UNL     1     -22.743   7.676  18.357  1.00  0.00     0.000 C 
BRANCH   2   3
ATOM      3  C   UNL     1     -23.194   6.366  17.691  1.00  0.00     0.000 C 
BRANCH   3   4
ATOM      4  C   UNL     1     -24.514   5.825  18.269  1.00  0.00     0.000 C 
BRANCH   4   5
ATOM      5  C   UNL     1     -24.709   6.040  19.783  1.00  0.00     0.000 C 
BRANCH   5   6
ATOM      6  C   UNL     1     -24.951   4.760  20.603  1.00  0.00     0.000 C 
BRANCH   6   7
ATOM      7  C   UNL     1     -23.678   4.254  21.305  1.00  0.00     0.000 C 
BRANCH   7   8
ATOM      8  C   UNL     1     -23.125   2.970  20.664  1.00  0.00     0.000 C 
BRANCH   8   9
ATOM      9  C   UNL     1     -22.059   3.256  19.591  1.00  0.00     0.000 C 
BRANCH   9  10
ATOM     10  C   UNL     1     -20.739   3.766  20.192  1.00  0.00     0.000 C 
BRANCH  10  11
ATOM     11  C   UNL     1     -20.381   5.183  19.720  1.00  0.00     0.000 C 
BRANCH  11  12
ATOM     12  C   UNL     1     -19.054   5.646  20.335  1.00  0.00     0.006 C 
BRANCH  12  13
ATOM     13  C   UNL     1     -18.149   6.284  19.277  1.00  0.00     0.053 C 
BRANCH  13  14
ATOM     14  C   UNL     1     -16.800   5.638  19.286  1.00  0.00     0.041 C 
ATOM     15  O   UNL     1     -16.181   5.446  18.206  1.00  0.00    -0.550 OA
ATOM     16  O   UNL     1     -16.203   5.292  20.491  1.00  0.00    -0.550 OA
ENDBRANCH  13  14
ENDBRANCH  12  13
ENDBRANCH  11  12
ENDBRANCH  10  11
ENDBRANCH   9  10
ENDBRANCH   8   9
ENDBRANCH   7   8
ENDBRANCH   6   7
ENDBRANCH   5   6
ENDBRANCH   4   5
ENDBRANCH   3   4
ENDBRANCH   2   3
ENDBRANCH   1   2
BRANCH   1  17
ATOM     17  C   UNL     1     -20.323   8.559  17.993  1.00  0.00     0.000 C 
BRANCH  17  18
ATOM     18  C   UNL     1     -19.573   9.867  17.669  1.00  0.00     0.000 C 
BRANCH  18  19
ATOM     19  C   UNL     1     -19.849  11.036  18.637  1.00  0.00     0.000 C 
BRANCH  19  20
ATOM     20  C   UNL     1     -19.179  12.367  18.252  1.00  0.00     0.000 C 
BRANCH  20  21
ATOM     21  C   UNL     1     -19.729  12.948  16.939  1.00  0.00     0.000 C 
BRANCH  21  22
ATOM     22  C   UNL     1     -18.772  13.969  16.302  1.00  0.00    -0.000 C 
BRANCH  22  23
ATOM     23  C   UNL     1     -17.868  13.339  15.228  1.00  0.00    -0.000 C 
BRANCH  23  24
ATOM     24  C   UNL     1     -18.528  12.121  14.546  1.00  0.00    -0.000 C 
BRANCH  24  25
ATOM     25  C   UNL     1     -17.528  11.191  13.832  1.00  0.00    -0.000 C 
BRANCH  25  26
ATOM     26  C   UNL     1     -18.063  10.514  12.558  1.00  0.00    -0.000 C 
BRANCH  26  27
ATOM     27  C   UNL     1     -19.597  10.586  12.447  1.00  0.00    -0.000 C 
BRANCH  27  28
ATOM     28  C   UNL     1     -20.263   9.208  12.589  1.00  0.00    -0.000 C 
BRANCH  28  29
ATOM     29  C   UNL     1     -21.060   9.068  13.895  1.00  0.00    -0.003 C 
ATOM     30  C   UNL     1     -21.634  10.412  14.334  1.00  0.00     0.004 C 
ENDBRANCH  28  29
ENDBRANCH  27  28
ENDBRANCH  26  27
ENDBRANCH  25  26
ENDBRANCH  24  25
ENDBRANCH  23  24
ENDBRANCH  22  23
ENDBRANCH  21  22
ENDBRANCH  20  21
ENDBRANCH  19  20
ENDBRANCH  18  19
ENDBRANCH  17  18
ENDBRANCH   1  17
TORSDOF 26
ENDMDL
MODEL 2
REMARK VINA RESULT:    -4.718      1.547      6.780
REMARK INTER + INTRA:         -15.253
REMARK INTER:                 -10.432
REMARK INTRA:                  -4.821
REMARK UNBOUND:                -3.363
REMARK SMILES CCCCCCCCCCCCCCCCCCCCCCCCCCCC(=O)[O-]
REMARK SMILES IDX 15 1 16 2 17 3 18 4 19 5 20 6 21 7 22 8 23 9 24 10 25 11
REMARK SMILES IDX 26 12 27 13 28 14 29 15 30 16 14 17 13 18 12 19 11 20 10 21
REMARK SMILES IDX 9 22 8 23 7 24 6 25 5 26 4 27 3 28 2 29 1 30
REMARK H PARENT
REMARK Flexibility Score: inf
ROOT
ATOM      1  C   UNL     1     -18.776  10.003  14.155  1.00  0.00     0.000 C 
ENDROOT
BRANCH   1   2
ATOM      2  C   UNL     1     -17.728  11.119  13.990  1.00  0.00     0.000 C 
BRANCH   2   3
ATOM      3  C   UNL     1     -18.329  12.528  14.122  1.00  0.00     0.000 C 
BRANCH   3   4
ATOM      4  C   UNL     1     -18.057  13.168  15.495  1.00  0.00     0.000 C 
BRANCH   4   5
ATOM      5  C   UNL     1     -19.142  14.142  15.995  1.00  0.00     0.000 C 
BRANCH   5   6
ATOM      6  C   UNL     1     -19.587  13.937  17.455  1.00  0.00     0.000 C 
BRANCH   6   7
ATOM      7  C   UNL     1     -18.782  12.840  18.173  1.00  0.00     0.000 C 
BRANCH   7   8
ATOM      8  C   UNL     1     -19.645  11.620  18.537  1.00  0.00     0.000 C 
BRANCH   8   9
ATOM      9  C   UNL     1     -19.487  10.463  17.535  1.00  0.00     0.000 C 
BRANCH   9  10
ATOM     10  C   UNL     1     -19.228   9.115  18.225  1.00  0.00     0.000 C 
BRANCH  10  11
ATOM     11  C   UNL     1     -19.735   7.920  17.404  1.00  0.00     0.000 C 
BRANCH  11  12
ATOM     12  C   UNL     1     -19.607   6.615  18.199  1.00  0.00     0.006 C 
BRANCH  12  13
ATOM     13  C   UNL     1     -18.665   6.788  19.394  1.00  0.00     0.053 C 
BRANCH  13  14
ATOM     14  C   UNL     1     -17.427   5.970  19.205  1.00  0.00     0.041 C 
ATOM     15  O   UNL     1     -16.647   5.768  20.173  1.00  0.00    -0.550 OA
ATOM     16  O   UNL     1     -17.159   5.388  17.973  1.00  0.00    -0.550 OA
ENDBRANCH  13  14
ENDBRANCH  12  13
ENDBRANCH  11  12
ENDBRANCH  10  11
ENDBRANCH   9  10
ENDBRANCH   8   9
ENDBRANCH   7   8
ENDBRANCH   6   7
ENDBRANCH   5   6
ENDBRANCH   4   5
ENDBRANCH   3   4
ENDBRANCH   2   3
ENDBRANCH   1   2
BRANCH   1  17
ATOM     17  C   UNL     1     -19.865   9.962  13.062  1.00  0.00     0.000 C 
BRANCH  17  18
ATOM     18  C   UNL     1     -21.292   9.674  13.571  1.00  0.00     0.000 C 
BRANCH  18  19
ATOM     19  C   UNL     1     -21.620  10.253  14.963  1.00  0.00     0.000 C 
BRANCH  19  20
ATOM     20  C   UNL     1     -21.861  11.773  14.990  1.00  0.00     0.000 C 
BRANCH  20  21
ATOM     21  C   UNL     1     -22.624  12.229  16.245  1.00  0.00     0.000 C 
BRANCH  21  22
ATOM     22  C   UNL     1     -23.670  11.199  16.704  1.00  0.00    -0.000 C 
BRANCH  22  23
ATOM     23  C   UNL     1     -24.093  11.402  18.169  1.00  0.00    -0.000 C 
BRANCH  23  24
ATOM     24  C   UNL     1     -23.162  10.665  19.157  1.00  0.00    -0.000 C 
BRANCH  24  25
ATOM     25  C   UNL     1     -22.748   9.257  18.689  1.00  0.00    -0.000 C 
BRANCH  25  26
ATOM     26  C   UNL     1     -23.908   8.262  18.511  1.00  0.00    -0.000 C 
BRANCH  26  27
ATOM     27  C   UNL     1     -23.589   7.154  17.492  1.00  0.00    -0.000 C 
BRANCH  27  28
ATOM     28  C   UNL     1     -23.946   5.753  18.015  1.00  0.00    -0.000 C 
BRANCH  28  29
ATOM     29  C   UNL     1     -22.710   4.945  18.436  1.00  0.00    -0.003 C 
ATOM     30  C   UNL     1     -22.659   4.769  19.950  1.00  0.00     0.004 C 
ENDBRANCH  28  29
ENDBRANCH  27  28
ENDBRANCH  26  27
ENDBRANCH  25  26
ENDBRANCH  24  25
ENDBRANCH  23  24
ENDBRANCH  22  23
ENDBRANCH  21  22
ENDBRANCH  20  21
ENDBRANCH  19  20
ENDBRANCH  18  19
ENDBRANCH  17  18
ENDBRANCH   1  17
TORSDOF 26
ENDMDL
MODEL 3
REMARK VINA RESULT:    -4.697      4.175      8.927
REMARK INTER + INTRA:         -15.200
REMARK INTER:                  -9.823
REMARK INTRA:                  -5.378
REMARK UNBOUND:                -3.363
REMARK SMILES CCCCCCCCCCCCCCCCCCCCCCCCCCCC(=O)[O-]
REMARK SMILES IDX 15 1 16 2 17 3 18 4 19 5 20 6 21 7 22 8 23 9 24 10 25 11
REMARK SMILES IDX 26 12 27 13 28 14 29 15 30 16 14 17 13 18 12 19 11 20 10 21
REMARK SMILES IDX 9 22 8 23 7 24 6 25 5 26 4 27 3 28 2 29 1 30
REMARK H PARENT
REMARK Flexibility Score: inf
ROOT
ATOM      1  C   UNL     1     -20.327  14.514  13.132  1.00  0.00     0.000 C 
ENDROOT
BRANCH   1   2
ATOM      2  C   UNL     1     -20.002  16.013  13.268  1.00  0.00     0.000 C 
BRANCH   2   3
ATOM      3  C   UNL     1     -18.645  16.271  13.942  1.00  0.00     0.000 C 
BRANCH   3   4
ATOM      4  C   UNL     1     -18.696  17.416  14.971  1.00  0.00     0.000 C 
BRANCH   4   5
ATOM      5  C   UNL     1     -20.020  17.544  15.751  1.00  0.00     0.000 C 
BRANCH   5   6
ATOM      6  C   UNL     1     -20.147  16.630  16.983  1.00  0.00     0.000 C 
BRANCH   6   7
ATOM      7  C   UNL     1     -21.294  15.612  16.852  1.00  0.00     0.000 C 
BRANCH   7   8
ATOM      8  C   UNL     1     -20.789  14.161  16.799  1.00  0.00     0.000 C 
BRANCH   8   9
ATOM      9  C   UNL     1     -19.336  14.022  17.287  1.00  0.00     0.000 C 
BRANCH   9  10
ATOM     10  C   UNL     1     -18.443  13.283  16.278  1.00  0.00     0.000 C 
BRANCH  10  11
ATOM     11  C   UNL     1     -19.251  12.452  15.268  1.00  0.00     0.000 C 
BRANCH  11  12
ATOM     12  C   UNL     1     -18.463  11.213  14.824  1.00  0.00     0.006 C 
BRANCH  12  13
ATOM     13  C   UNL     1     -19.292  10.346  13.871  1.00  0.00     0.053 C 
BRANCH  13  14
ATOM     14  C   UNL     1     -18.809  10.508  12.465  1.00  0.00     0.041 C 
ATOM     15  O   UNL     1     -17.598  10.765  12.236  1.00  0.00    -0.550 OA
ATOM     16  O   UNL     1     -19.687  10.327  11.404  1.00  0.00    -0.550 OA
ENDBRANCH  13  14
ENDBRANCH  12  13
ENDBRANCH  11  12
ENDBRANCH  10  11
ENDBRANCH   9  10
ENDBRANCH   8   9
ENDBRANCH   7   8
ENDBRANCH   6   7
ENDBRANCH   5   6
ENDBRANCH   4   5
ENDBRANCH   3   4
ENDBRANCH   2   3
ENDBRANCH   1   2
BRANCH   1  17
ATOM     17  C   UNL     1     -21.805  14.190  12.833  1.00  0.00     0.000 C 
BRANCH  17  18
ATOM     18  C   UNL     1     -22.087  12.725  12.438  1.00  0.00     0.000 C 
BRANCH  18  19
ATOM     19  C   UNL     1     -22.655  11.842  13.568  1.00  0.00     0.000 C 
BRANCH  19  20
ATOM     20  C   UNL     1     -23.125  12.610  14.816  1.00  0.00     0.000 C 
BRANCH  20  21
ATOM     21  C   UNL     1     -24.645  12.840  14.832  1.00  0.00     0.000 C 
BRANCH  21  22
ATOM     22  C   UNL     1     -25.127  13.498  16.136  1.00  0.00    -0.000 C 
BRANCH  22  23
ATOM     23  C   UNL     1     -24.238  13.138  17.340  1.00  0.00    -0.000 C 
BRANCH  23  24
ATOM     24  C   UNL     1     -24.859  12.030  18.217  1.00  0.00    -0.000 C 
BRANCH  24  25
ATOM     25  C   UNL     1     -24.672  10.610  17.649  1.00  0.00    -0.000 C 
BRANCH  25  26
ATOM     26  C   UNL     1     -23.616   9.753  18.369  1.00  0.00    -0.000 C 
BRANCH  26  27
ATOM     27  C   UNL     1     -22.432  10.587  18.892  1.00  0.00    -0.000 C 
BRANCH  27  28
ATOM     28  C   UNL     1     -21.327  10.765  17.839  1.00  0.00    -0.000 C 
BRANCH  28  29
ATOM     29  C   UNL     1     -19.918  10.587  18.423  1.00  0.00    -0.003 C 
ATOM     30  C   UNL     1     -19.331   9.232  18.036  1.00  0.00     0.004 C 
ENDBRANCH  28  29
ENDBRANCH  27  28
ENDBRANCH  26  27
ENDBRANCH  25  26
ENDBRANCH  24  25
ENDBRANCH  23  24
ENDBRANCH  22  23
ENDBRANCH  21  22
ENDBRANCH  20  21
ENDBRANCH  19  20
ENDBRANCH  18  19
ENDBRANCH  17  18
ENDBRANCH   1  17
TORSDOF 26
ENDMDL
MODEL 4
REMARK VINA RESULT:    -4.675      2.559      5.469
REMARK INTER + INTRA:         -15.144
REMARK INTER:                  -9.914
REMARK INTRA:                  -5.230
REMARK UNBOUND:                -3.363
REMARK SMILES CCCCCCCCCCCCCCCCCCCCCCCCCCCC(=O)[O-]
REMARK SMILES IDX 15 1 16 2 17 3 18 4 19 5 20 6 21 7 22 8 23 9 24 10 25 11
REMARK SMILES IDX 26 12 27 13 28 14 29 15 30 16 14 17 13 18 12 19 11 20 10 21
REMARK SMILES IDX 9 22 8 23 7 24 6 25 5 26 4 27 3 28 2 29 1 30
REMARK H PARENT
REMARK Flexibility Score: inf
ROOT
ATOM      1  C   UNL     1     -22.129   8.510  14.814  1.00  0.00     0.000 C 
ENDROOT
BRANCH   1   2
ATOM      2  C   UNL     1     -23.062   9.374  13.944  1.00  0.00     0.000 C 
BRANCH   2   3
ATOM      3  C   UNL     1     -23.944  10.322  14.773  1.00  0.00     0.000 C 
BRANCH   3   4
ATOM      4  C   UNL     1     -23.249  11.656  15.098  1.00  0.00     0.000 C 
BRANCH   4   5
ATOM      5  C   UNL     1     -22.333  11.639  16.338  1.00  0.00     0.000 C 
BRANCH   5   6
ATOM      6  C   UNL     1     -22.950  12.231  17.618  1.00  0.00     0.000 C 
BRANCH   6   7
ATOM      7  C   UNL     1     -23.885  11.244  18.339  1.00  0.00     0.000 C 
BRANCH   7   8
ATOM      8  C   UNL     1     -23.148   9.987  18.832  1.00  0.00     0.000 C 
BRANCH   8   9
ATOM      9  C   UNL     1     -23.672   8.698  18.173  1.00  0.00     0.000 C 
BRANCH   9  10
ATOM     10  C   UNL     1     -22.998   7.435  18.731  1.00  0.00     0.000 C 
BRANCH  10  11
ATOM     11  C   UNL     1     -22.885   6.313  17.687  1.00  0.00     0.000 C 
BRANCH  11  12
ATOM     12  C   UNL     1     -22.765   4.944  18.366  1.00  0.00     0.006 C 
BRANCH  12  13
ATOM     13  C   UNL     1     -22.479   5.094  19.863  1.00  0.00     0.053 C 
BRANCH  13  14
ATOM     14  C   UNL     1     -23.328   4.151  20.655  1.00  0.00     0.041 C 
ATOM     15  O   UNL     1     -23.026   2.931  20.724  1.00  0.00    -0.550 OA
ATOM     16  O   UNL     1     -24.427   4.628  21.357  1.00  0.00    -0.550 OA
ENDBRANCH  13  14
ENDBRANCH  12  13
ENDBRANCH  11  12
ENDBRANCH  10  11
ENDBRANCH   9  10
ENDBRANCH   8   9
ENDBRANCH   7   8
ENDBRANCH   6   7
ENDBRANCH   5   6
ENDBRANCH   4   5
ENDBRANCH   3   4
ENDBRANCH   2   3
ENDBRANCH   1   2
BRANCH   1  17
ATOM     17  C   UNL     1     -20.649   8.508  14.382  1.00  0.00     0.000 C 
BRANCH  17  18
ATOM     18  C   UNL     1     -20.094   9.877  13.937  1.00  0.00     0.000 C 
BRANCH  18  19
ATOM     19  C   UNL     1     -18.606  10.118  14.265  1.00  0.00     0.000 C 
BRANCH  19  20
ATOM     20  C   UNL     1     -18.172  11.595  14.257  1.00  0.00     0.000 C 
BRANCH  20  21
ATOM     21  C   UNL     1     -19.347  12.555  14.006  1.00  0.00     0.000 C 
BRANCH  21  22
ATOM     22  C   UNL     1     -19.403  13.696  15.035  1.00  0.00    -0.000 C 
BRANCH  22  23
ATOM     23  C   UNL     1     -18.531  13.416  16.272  1.00  0.00    -0.000 C 
BRANCH  23  24
ATOM     24  C   UNL     1     -19.347  13.444  17.584  1.00  0.00    -0.000 C 
BRANCH  24  25
ATOM     25  C   UNL     1     -18.862  12.430  18.638  1.00  0.00    -0.000 C 
BRANCH  25  26
ATOM     26  C   UNL     1     -19.677  11.128  18.715  1.00  0.00    -0.000 C 
BRANCH  26  27
ATOM     27  C   UNL     1     -19.253  10.099  17.651  1.00  0.00    -0.000 C 
BRANCH  27  28
ATOM     28  C   UNL     1     -19.714   8.673  17.994  1.00  0.00    -0.000 C 
BRANCH  28  29
ATOM     29  C   UNL     1     -18.591   7.817  18.597  1.00  0.00    -0.003 C 
ATOM     30  C   UNL     1     -19.114   6.450  19.028  1.00  0.00     0.004 C 
ENDBRANCH  28  29
ENDBRANCH  27  28
ENDBRANCH  26  27
ENDBRANCH  25  26
ENDBRANCH  24  25
ENDBRANCH  23  24
ENDBRANCH  22  23
ENDBRANCH  21  22
ENDBRANCH  20  21
ENDBRANCH  19  20
ENDBRANCH  18  19
ENDBRANCH  17  18
ENDBRANCH   1  17
TORSDOF 26
ENDMDL
MODEL 5
REMARK VINA RESULT:    -4.666      5.116      8.617
REMARK INTER + INTRA:         -15.120
REMARK INTER:                  -9.457
REMARK INTRA:                  -5.664
REMARK UNBOUND:                -3.363
REMARK SMILES CCCCCCCCCCCCCCCCCCCCCCCCCCCC(=O)[O-]
REMARK SMILES IDX 15 1 16 2 17 3 18 4 19 5 20 6 21 7 22 8 23 9 24 10 25 11
REMARK SMILES IDX 26 12 27 13 28 14 29 15 30 16 14 17 13 18 12 19 11 20 10 21
REMARK SMILES IDX 9 22 8 23 7 24 6 25 5 26 4 27 3 28 2 29 1 30
REMARK H PARENT
REMARK Flexibility Score: inf
ROOT
ATOM      1  C   UNL     1     -18.522  12.704  15.877  1.00  0.00     0.000 C 
ENDROOT
BRANCH   1   2
ATOM      2  C   UNL     1     -17.898  13.725  14.907  1.00  0.00     0.000 C 
BRANCH   2   3
ATOM      3  C   UNL     1     -18.685  15.044  14.841  1.00  0.00     0.000 C 
BRANCH   3   4
ATOM      4  C   UNL     1     -19.228  15.347  13.432  1.00  0.00     0.000 C 
BRANCH   4   5
ATOM      5  C   UNL     1     -20.756  15.218  13.272  1.00  0.00     0.000 C 
BRANCH   5   6
ATOM      6  C   UNL     1     -21.256  13.831  12.831  1.00  0.00     0.000 C 
BRANCH   6   7
ATOM      7  C   UNL     1     -21.572  12.907  14.021  1.00  0.00     0.000 C 
BRANCH   7   8
ATOM      8  C   UNL     1     -22.824  13.352  14.795  1.00  0.00     0.000 C 
BRANCH   8   9
ATOM      9  C   UNL     1     -22.663  13.198  16.318  1.00  0.00     0.000 C 
BRANCH   9  10
ATOM     10  C   UNL     1     -22.851  14.525  17.069  1.00  0.00     0.000 C 
BRANCH  10  11
ATOM     11  C   UNL     1     -23.137  15.704  16.126  1.00  0.00     0.000 C 
BRANCH  11  12
ATOM     12  C   UNL     1     -22.111  16.827  16.325  1.00  0.00     0.006 C 
BRANCH  12  13
ATOM     13  C   UNL     1     -20.967  16.372  17.236  1.00  0.00     0.053 C 
BRANCH  13  14
ATOM     14  C   UNL     1     -20.296  17.553  17.862  1.00  0.00     0.041 C 
ATOM     15  O   UNL     1     -19.313  18.098  17.295  1.00  0.00    -0.550 OA
ATOM     16  O   UNL     1     -20.788  18.083  19.048  1.00  0.00    -0.550 OA
ENDBRANCH  13  14
ENDBRANCH  12  13
ENDBRANCH  11  12
ENDBRANCH  10  11
ENDBRANCH   9  10
ENDBRANCH   8   9
ENDBRANCH   7   8
ENDBRANCH   6   7
ENDBRANCH   5   6
ENDBRANCH   4   5
ENDBRANCH   3   4
ENDBRANCH   2   3
ENDBRANCH   1   2
BRANCH   1  17
ATOM     17  C   UNL     1     -19.129  13.308  17.160  1.00  0.00     0.000 C 
BRANCH  17  18
ATOM     18  C   UNL     1     -18.975  12.443  18.428  1.00  0.00     0.000 C 
BRANCH  18  19
ATOM     19  C   UNL     1     -20.160  11.501  18.724  1.00  0.00     0.000 C 
BRANCH  19  20
ATOM     20  C   UNL     1     -19.924  10.027  18.350  1.00  0.00     0.000 C 
BRANCH  20  21
ATOM     21  C   UNL     1     -21.066   9.441  17.502  1.00  0.00     0.000 C 
BRANCH  21  22
ATOM     22  C   UNL     1     -21.000   9.895  16.035  1.00  0.00    -0.000 C 
BRANCH  22  23
ATOM     23  C   UNL     1     -19.807   9.281  15.281  1.00  0.00    -0.000 C 
BRANCH  23  24
ATOM     24  C   UNL     1     -20.173   8.866  13.840  1.00  0.00    -0.000 C 
BRANCH  24  25
ATOM     25  C   UNL     1     -19.855   9.942  12.784  1.00  0.00    -0.000 C 
BRANCH  25  26
ATOM     26  C   UNL     1     -20.486   9.705  11.401  1.00  0.00    -0.000 C 
BRANCH  26  27
ATOM     27  C   UNL     1     -21.760  10.540  11.178  1.00  0.00    -0.000 C 
BRANCH  27  28
ATOM     28  C   UNL     1     -23.042   9.758  11.510  1.00  0.00    -0.000 C 
BRANCH  28  29
ATOM     29  C   UNL     1     -23.680  10.202  12.834  1.00  0.00    -0.003 C 
ATOM     30  C   UNL     1     -23.844   9.021  13.787  1.00  0.00     0.004 C 
ENDBRANCH  28  29
ENDBRANCH  27  28
ENDBRANCH  26  27
ENDBRANCH  25  26
ENDBRANCH  24  25
ENDBRANCH  23  24
ENDBRANCH  22  23
ENDBRANCH  21  22
ENDBRANCH  20  21
ENDBRANCH  19  20
ENDBRANCH  18  19
ENDBRANCH  17  18
ENDBRANCH   1  17
TORSDOF 26
ENDMDL
MODEL 6
REMARK VINA RESULT:    -4.660      4.784      7.892
REMARK INTER + INTRA:         -15.107
REMARK INTER:                  -9.270
REMARK INTRA:                  -5.837
REMARK UNBOUND:                -3.363
REMARK SMILES CCCCCCCCCCCCCCCCCCCCCCCCCCCC(=O)[O-]
REMARK SMILES IDX 15 1 16 2 17 3 18 4 19 5 20 6 21 7 22 8 23 9 24 10 25 11
REMARK SMILES IDX 26 12 27 13 28 14 29 15 30 16 14 17 13 18 12 19 11 20 10 21
REMARK SMILES IDX 9 22 8 23 7 24 6 25 5 26 4 27 3 28 2 29 1 30
REMARK H PARENT
REMARK Flexibility Score: inf
ROOT
ATOM      1  C   UNL     1     -18.749  16.739  14.152  1.00  0.00     0.000 C 
ENDROOT
BRANCH   1   2
ATOM      2  C   UNL     1     -18.303  15.269  14.265  1.00  0.00     0.000 C 
BRANCH   2   3
ATOM      3  C   UNL     1     -19.478  14.280  14.181  1.00  0.00     0.000 C 
BRANCH   3   4
ATOM      4  C   UNL     1     -19.348  13.111  15.173  1.00  0.00     0.000 C 
BRANCH   4   5
ATOM      5  C   UNL     1     -18.426  13.369  16.381  1.00  0.00     0.000 C 
BRANCH   5   6
ATOM      6  C   UNL     1     -19.118  13.336  17.756  1.00  0.00     0.000 C 
BRANCH   6   7
ATOM      7  C   UNL     1     -19.138  11.928  18.377  1.00  0.00     0.000 C 
BRANCH   7   8
ATOM      8  C   UNL     1     -20.535  11.286  18.333  1.00  0.00     0.000 C 
BRANCH   8   9
ATOM      9  C   UNL     1     -20.588  10.049  17.419  1.00  0.00     0.000 C 
BRANCH   9  10
ATOM     10  C   UNL     1     -19.191   9.573  16.989  1.00  0.00     0.000 C 
BRANCH  10  11
ATOM     11  C   UNL     1     -18.992   9.616  15.467  1.00  0.00     0.000 C 
BRANCH  11  12
ATOM     12  C   UNL     1     -20.339   9.713  14.740  1.00  0.00     0.006 C 
BRANCH  12  13
ATOM     13  C   UNL     1     -20.192   9.363  13.256  1.00  0.00     0.053 C 
BRANCH  13  14
ATOM     14  C   UNL     1     -19.735  10.558  12.481  1.00  0.00     0.041 C 
ATOM     15  O   UNL     1     -20.529  11.509  12.256  1.00  0.00    -0.550 OA
ATOM     16  O   UNL     1     -18.418  10.644  12.049  1.00  0.00    -0.550 OA
ENDBRANCH  13  14
ENDBRANCH  12  13
ENDBRANCH  11  12
ENDBRANCH  10  11
ENDBRANCH   9  10
ENDBRANCH   8   9
ENDBRANCH   7   8
ENDBRANCH   6   7
ENDBRANCH   5   6
ENDBRANCH   4   5
ENDBRANCH   3   4
ENDBRANCH   2   3
ENDBRANCH   1   2
BRANCH   1  17
ATOM     17  C   UNL     1     -19.994  17.111  14.983  1.00  0.00     0.000 C 
BRANCH  17  18
ATOM     18  C   UNL     1     -19.712  17.484  16.453  1.00  0.00     0.000 C 
BRANCH  18  19
ATOM     19  C   UNL     1     -20.585  16.752  17.493  1.00  0.00     0.000 C 
BRANCH  19  20
ATOM     20  C   UNL     1     -21.495  15.653  16.915  1.00  0.00     0.000 C 
BRANCH  20  21
ATOM     21  C   UNL     1     -22.989  15.947  17.130  1.00  0.00     0.000 C 
BRANCH  21  22
ATOM     22  C   UNL     1     -23.827  15.683  15.868  1.00  0.00    -0.000 C 
BRANCH  22  23
ATOM     23  C   UNL     1     -23.026  14.963  14.769  1.00  0.00    -0.000 C 
BRANCH  23  24
ATOM     24  C   UNL     1     -23.462  13.492  14.592  1.00  0.00    -0.000 C 
BRANCH  24  25
ATOM     25  C   UNL     1     -22.793  12.522  15.584  1.00  0.00    -0.000 C 
BRANCH  25  26
ATOM     26  C   UNL     1     -23.764  11.723  16.470  1.00  0.00    -0.000 C 
BRANCH  26  27
ATOM     27  C   UNL     1     -24.031  12.406  17.823  1.00  0.00    -0.000 C 
BRANCH  27  28
ATOM     28  C   UNL     1     -25.532  12.540  18.130  1.00  0.00    -0.000 C 
BRANCH  28  29
ATOM     29  C   UNL     1     -26.355  12.933  16.894  1.00  0.00    -0.003 C 
ATOM     30  C   UNL     1     -26.949  14.330  17.053  1.00  0.00     0.004 C 
ENDBRANCH  28  29
ENDBRANCH  27  28
ENDBRANCH  26  27
ENDBRANCH  25  26
ENDBRANCH  24  25
ENDBRANCH  23  24
ENDBRANCH  22  23
ENDBRANCH  21  22
ENDBRANCH  20  21
ENDBRANCH  19  20
ENDBRANCH  18  19
ENDBRANCH  17  18
ENDBRANCH   1  17
TORSDOF 26
ENDMDL
MODEL 7
REMARK VINA RESULT:    -4.636      3.470      5.479
REMARK INTER + INTRA:         -15.046
REMARK INTER:                 -12.311
REMARK INTRA:                  -2.735
REMARK UNBOUND:                -3.363
REMARK SMILES CCCCCCCCCCCCCCCCCCCCCCCCCCCC(=O)[O-]
REMARK SMILES IDX 15 1 16 2 17 3 18 4 19 5 20 6 21 7 22 8 23 9 24 10 25 11
REMARK SMILES IDX 26 12 27 13 28 14 29 15 30 16 14 17 13 18 12 19 11 20 10 21
REMARK SMILES IDX 9 22 8 23 7 24 6 25 5 26 4 27 3 28 2 29 1 30
REMARK H PARENT
REMARK Flexibility Score: inf
ROOT
ATOM      1  C   UNL     1     -22.147   6.208  18.745  1.00  0.00     0.000 C 
ENDROOT
BRANCH   1   2
ATOM      2  C   UNL     1     -21.114   5.068  18.665  1.00  0.00     0.000 C 
BRANCH   2   3
ATOM      3  C   UNL     1     -20.507   4.716  20.033  1.00  0.00     0.000 C 
BRANCH   3   4
ATOM      4  C   UNL     1     -19.130   5.364  20.262  1.00  0.00     0.000 C 
BRANCH   4   5
ATOM      5  C   UNL     1     -17.919   4.431  20.059  1.00  0.00     0.000 C 
BRANCH   5   6
ATOM      6  C   UNL     1     -16.572   5.141  19.834  1.00  0.00     0.000 C 
BRANCH   6   7
ATOM      7  C   UNL     1     -16.180   5.216  18.347  1.00  0.00     0.000 C 
BRANCH   7   8
ATOM      8  C   UNL     1     -14.916   4.400  18.031  1.00  0.00     0.000 C 
BRANCH   8   9
ATOM      9  C   UNL     1     -14.778   4.080  16.531  1.00  0.00     0.000 C 
BRANCH   9  10
ATOM     10  C   UNL     1     -15.995   3.323  15.976  1.00  0.00     0.000 C 
BRANCH  10  11
ATOM     11  C   UNL     1     -15.763   2.789  14.554  1.00  0.00     0.000 C 
BRANCH  11  12
ATOM     12  C   UNL     1     -14.298   2.963  14.135  1.00  0.00     0.006 C 
BRANCH  12  13
ATOM     13  C   UNL     1     -14.178   3.892  12.923  1.00  0.00     0.053 C 
BRANCH  13  14
ATOM     14  C   UNL     1     -12.794   3.834  12.357  1.00  0.00     0.041 C 
ATOM     15  O   UNL     1     -12.383   2.785  11.796  1.00  0.00    -0.550 OA
ATOM     16  O   UNL     1     -11.977   4.955  12.404  1.00  0.00    -0.550 OA
ENDBRANCH  13  14
ENDBRANCH  12  13
ENDBRANCH  11  12
ENDBRANCH  10  11
ENDBRANCH   9  10
ENDBRANCH   8   9
ENDBRANCH   7   8
ENDBRANCH   6   7
ENDBRANCH   5   6
ENDBRANCH   4   5
ENDBRANCH   3   4
ENDBRANCH   2   3
ENDBRANCH   1   2
BRANCH   1  17
ATOM     17  C   UNL     1     -21.754   7.500  17.999  1.00  0.00     0.000 C 
BRANCH  17  18
ATOM     18  C   UNL     1     -20.282   7.571  17.544  1.00  0.00     0.000 C 
BRANCH  18  19
ATOM     19  C   UNL     1     -19.385   8.507  18.379  1.00  0.00     0.000 C 
BRANCH  19  20
ATOM     20  C   UNL     1     -19.288   9.950  17.853  1.00  0.00     0.000 C 
BRANCH  20  21
ATOM     21  C   UNL     1     -20.531  10.790  18.193  1.00  0.00     0.000 C 
BRANCH  21  22
ATOM     22  C   UNL     1     -20.526  12.158  17.492  1.00  0.00    -0.000 C 
BRANCH  22  23
ATOM     23  C   UNL     1     -19.124  12.790  17.443  1.00  0.00    -0.000 C 
BRANCH  23  24
ATOM     24  C   UNL     1     -18.948  13.737  16.236  1.00  0.00    -0.000 C 
BRANCH  24  25
ATOM     25  C   UNL     1     -17.744  13.385  15.341  1.00  0.00    -0.000 C 
BRANCH  25  26
ATOM     26  C   UNL     1     -17.839  12.027  14.624  1.00  0.00    -0.000 C 
BRANCH  26  27
ATOM     27  C   UNL     1     -19.140  11.872  13.816  1.00  0.00    -0.000 C 
BRANCH  27  28
ATOM     28  C   UNL     1     -19.355  10.434  13.316  1.00  0.00    -0.000 C 
BRANCH  28  29
ATOM     29  C   UNL     1     -19.849   9.491  14.424  1.00  0.00    -0.003 C 
ATOM     30  C   UNL     1     -21.307   9.098  14.199  1.00  0.00     0.004 C 
ENDBRANCH  28  29
ENDBRANCH  27  28
ENDBRANCH  26  27
ENDBRANCH  25  26
ENDBRANCH  24  25
ENDBRANCH  23  24
ENDBRANCH  22  23
ENDBRANCH  21  22
ENDBRANCH  20  21
ENDBRANCH  19  20
ENDBRANCH  18  19
ENDBRANCH  17  18
ENDBRANCH   1  17
TORSDOF 26
ENDMDL
MODEL 8
REMARK VINA RESULT:    -4.631      2.831      8.322
REMARK INTER + INTRA:         -15.034
REMARK INTER:                 -10.685
REMARK INTRA:                  -4.348
REMARK UNBOUND:                -3.363
REMARK SMILES CCCCCCCCCCCCCCCCCCCCCCCCCCCC(=O)[O-]
REMARK SMILES IDX 15 1 16 2 17 3 18 4 19 5 20 6 21 7 22 8 23 9 24 10 25 11
REMARK SMILES IDX 26 12 27 13 28 14 29 15 30 16 14 17 13 18 12 19 11 20 10 21
REMARK SMILES IDX 9 22 8 23 7 24 6 25 5 26 4 27 3 28 2 29 1 30
REMARK H PARENT
REMARK Flexibility Score: inf
ROOT
ATOM      1  C   UNL     1     -22.625  11.668  15.856  1.00  0.00     0.000 C 
ENDROOT
BRANCH   1   2
ATOM      2  C   UNL     1     -22.108  13.007  15.297  1.00  0.00     0.000 C 
BRANCH   2   3
ATOM      3  C   UNL     1     -21.943  14.084  16.381  1.00  0.00     0.000 C 
BRANCH   3   4
ATOM      4  C   UNL     1     -20.612  14.849  16.267  1.00  0.00     0.000 C 
BRANCH   4   5
ATOM      5  C   UNL     1     -19.526  14.439  17.281  1.00  0.00     0.000 C 
BRANCH   5   6
ATOM      6  C   UNL     1     -18.706  13.194  16.899  1.00  0.00     0.000 C 
BRANCH   6   7
ATOM      7  C   UNL     1     -17.933  13.373  15.580  1.00  0.00     0.000 C 
BRANCH   7   8
ATOM      8  C   UNL     1     -18.064  12.155  14.651  1.00  0.00     0.000 C 
BRANCH   8   9
ATOM      9  C   UNL     1     -18.893  11.020  15.278  1.00  0.00     0.000 C 
BRANCH   9  10
ATOM     10  C   UNL     1     -19.516  10.092  14.223  1.00  0.00     0.000 C 
BRANCH  10  11
ATOM     11  C   UNL     1     -19.882  10.831  12.926  1.00  0.00     0.000 C 
BRANCH  11  12
ATOM     12  C   UNL     1     -19.527   9.986  11.696  1.00  0.00     0.006 C 
BRANCH  12  13
ATOM     13  C   UNL     1     -20.770   9.692  10.851  1.00  0.00     0.053 C 
BRANCH  13  14
ATOM     14  C   UNL     1     -21.333   8.351  11.199  1.00  0.00     0.041 C 
ATOM     15  O   UNL     1     -22.440   7.985  10.723  1.00  0.00    -0.550 OA
ATOM     16  O   UNL     1     -20.612   7.484  12.010  1.00  0.00    -0.550 OA
ENDBRANCH  13  14
ENDBRANCH  12  13
ENDBRANCH  11  12
ENDBRANCH  10  11
ENDBRANCH   9  10
ENDBRANCH   8   9
ENDBRANCH   7   8
ENDBRANCH   6   7
ENDBRANCH   5   6
ENDBRANCH   4   5
ENDBRANCH   3   4
ENDBRANCH   2   3
ENDBRANCH   1   2
BRANCH   1  17
ATOM     17  C   UNL     1     -23.224  11.741  17.276  1.00  0.00     0.000 C 
BRANCH  17  18
ATOM     18  C   UNL     1     -22.563  10.812  18.314  1.00  0.00     0.000 C 
BRANCH  18  19
ATOM     19  C   UNL     1     -21.114  11.183  18.693  1.00  0.00     0.000 C 
BRANCH  19  20
ATOM     20  C   UNL     1     -20.078  10.070  18.455  1.00  0.00     0.000 C 
BRANCH  20  21
ATOM     21  C   UNL     1     -20.702   8.799  17.854  1.00  0.00     0.000 C 
BRANCH  21  22
ATOM     22  C   UNL     1     -19.685   7.654  17.715  1.00  0.00    -0.000 C 
BRANCH  22  23
ATOM     23  C   UNL     1     -18.369   7.942  18.458  1.00  0.00    -0.000 C 
BRANCH  23  24
ATOM     24  C   UNL     1     -17.907   6.747  19.319  1.00  0.00    -0.000 C 
BRANCH  24  25
ATOM     25  C   UNL     1     -19.066   5.932  19.924  1.00  0.00    -0.000 C 
BRANCH  25  26
ATOM     26  C   UNL     1     -19.110   4.452  19.507  1.00  0.00    -0.000 C 
BRANCH  26  27
ATOM     27  C   UNL     1     -20.528   3.981  19.138  1.00  0.00    -0.000 C 
BRANCH  27  28
ATOM     28  C   UNL     1     -21.504   4.070  20.323  1.00  0.00    -0.000 C 
BRANCH  28  29
ATOM     29  C   UNL     1     -22.777   4.861  19.983  1.00  0.00    -0.003 C 
ATOM     30  C   UNL     1     -22.604   5.646  18.686  1.00  0.00     0.004 C 
ENDBRANCH  28  29
ENDBRANCH  27  28
ENDBRANCH  26  27
ENDBRANCH  25  26
ENDBRANCH  24  25
ENDBRANCH  23  24
ENDBRANCH  22  23
ENDBRANCH  21  22
ENDBRANCH  20  21
ENDBRANCH  19  20
ENDBRANCH  18  19
ENDBRANCH  17  18
ENDBRANCH   1  17
TORSDOF 26
ENDMDL
MODEL 9
REMARK VINA RESULT:    -4.614      3.594      7.461
REMARK INTER + INTRA:         -14.991
REMARK INTER:                  -9.522
REMARK INTRA:                  -5.469
REMARK UNBOUND:                -3.363
REMARK SMILES CCCCCCCCCCCCCCCCCCCCCCCCCCCC(=O)[O-]
REMARK SMILES IDX 15 1 16 2 17 3 18 4 19 5 20 6 21 7 22 8 23 9 24 10 25 11
REMARK SMILES IDX 26 12 27 13 28 14 29 15 30 16 14 17 13 18 12 19 11 20 10 21
REMARK SMILES IDX 9 22 8 23 7 24 6 25 5 26 4 27 3 28 2 29 1 30
REMARK H PARENT
REMARK Flexibility Score: inf
ROOT
ATOM      1  C   UNL     1     -22.210  12.749  13.705  1.00  0.00     0.000 C 
ENDROOT
BRANCH   1   2
ATOM      2  C   UNL     1     -21.541  11.378  13.920  1.00  0.00     0.000 C 
BRANCH   2   3
ATOM      3  C   UNL     1     -20.420  11.096  12.906  1.00  0.00     0.000 C 
BRANCH   3   4
ATOM      4  C   UNL     1     -19.289  10.231  13.492  1.00  0.00     0.000 C 
BRANCH   4   5
ATOM      5  C   UNL     1     -18.388  10.935  14.527  1.00  0.00     0.000 C 
BRANCH   5   6
ATOM      6  C   UNL     1     -18.019  12.392  14.194  1.00  0.00     0.000 C 
BRANCH   6   7
ATOM      7  C   UNL     1     -17.963  13.291  15.442  1.00  0.00     0.000 C 
BRANCH   7   8
ATOM      8  C   UNL     1     -19.338  13.452  16.113  1.00  0.00     0.000 C 
BRANCH   8   9
ATOM      9  C   UNL     1     -19.286  13.209  17.632  1.00  0.00     0.000 C 
BRANCH   9  10
ATOM     10  C   UNL     1     -19.107  11.725  17.986  1.00  0.00     0.000 C 
BRANCH  10  11
ATOM     11  C   UNL     1     -20.282  11.163  18.801  1.00  0.00     0.000 C 
BRANCH  11  12
ATOM     12  C   UNL     1     -20.988  10.035  18.040  1.00  0.00     0.006 C 
BRANCH  12  13
ATOM     13  C   UNL     1     -20.002   9.265  17.156  1.00  0.00     0.053 C 
BRANCH  13  14
ATOM     14  C   UNL     1     -19.399   8.127  17.916  1.00  0.00     0.041 C 
ATOM     15  O   UNL     1     -18.174   8.136  18.206  1.00  0.00    -0.550 OA
ATOM     16  O   UNL     1     -20.200   7.078  18.348  1.00  0.00    -0.550 OA
ENDBRANCH  13  14
ENDBRANCH  12  13
ENDBRANCH  11  12
ENDBRANCH  10  11
ENDBRANCH   9  10
ENDBRANCH   8   9
ENDBRANCH   7   8
ENDBRANCH   6   7
ENDBRANCH   5   6
ENDBRANCH   4   5
ENDBRANCH   3   4
ENDBRANCH   2   3
ENDBRANCH   1   2
BRANCH   1  17
ATOM     17  C   UNL     1     -21.464  13.697  12.744  1.00  0.00     0.000 C 
BRANCH  17  18
ATOM     18  C   UNL     1     -22.014  15.137  12.685  1.00  0.00     0.000 C 
BRANCH  18  19
ATOM     19  C   UNL     1     -21.094  16.214  13.296  1.00  0.00     0.000 C 
BRANCH  19  20
ATOM     20  C   UNL     1     -19.596  15.860  13.299  1.00  0.00     0.000 C 
BRANCH  20  21
ATOM     21  C   UNL     1     -18.771  16.785  14.209  1.00  0.00     0.000 C 
BRANCH  21  22
ATOM     22  C   UNL     1     -19.420  18.168  14.385  1.00  0.00    -0.000 C 
BRANCH  22  23
ATOM     23  C   UNL     1     -19.733  18.488  15.857  1.00  0.00    -0.000 C 
BRANCH  23  24
ATOM     24  C   UNL     1     -19.543  17.263  16.778  1.00  0.00    -0.000 C 
BRANCH  24  25
ATOM     25  C   UNL     1     -20.522  17.221  17.967  1.00  0.00    -0.000 C 
BRANCH  25  26
ATOM     26  C   UNL     1     -21.973  16.859  17.604  1.00  0.00    -0.000 C 
BRANCH  26  27
ATOM     27  C   UNL     1     -22.073  15.557  16.788  1.00  0.00    -0.000 C 
BRANCH  27  28
ATOM     28  C   UNL     1     -23.527  15.170  16.473  1.00  0.00    -0.000 C 
BRANCH  28  29
ATOM     29  C   UNL     1     -24.084  14.121  17.447  1.00  0.00    -0.003 C 
ATOM     30  C   UNL     1     -23.291  12.820  17.364  1.00  0.00     0.004 C 
ENDBRANCH  28  29
ENDBRANCH  27  28
ENDBRANCH  26  27
ENDBRANCH  25  26
ENDBRANCH  24  25
ENDBRANCH  23  24
ENDBRANCH  22  23
ENDBRANCH  21  22
ENDBRANCH  20  21
ENDBRANCH  19  20
ENDBRANCH  18  19
ENDBRANCH  17  18
ENDBRANCH   1  17
TORSDOF 26
ENDMDL
