MODEL 1
REMARK VINA RESULT:    -2.240      0.000      0.000
REMARK INTER + INTRA:          -2.514
REMARK INTER:                  -2.502
REMARK INTRA:                  -0.011
REMARK UNBOUND:                -0.011
REMARK SMILES CCCC(=O)[O-]
REMARK SMILES IDX 3 1 4 2 5 3 6 4 2 5 1 6
REMARK H PARENT
REMARK Flexibility Score: inf
ROOT
ATOM      1  C   UNL     1       6.176   5.054   0.343  1.00  0.00     0.052 C 
ENDROOT
BRANCH   1   2
ATOM      2  C   UNL     1       7.673   5.015   0.356  1.00  0.00     0.041 C 
ATOM      3  O   UNL     1       8.322   5.816   1.079  1.00  0.00    -0.550 OA
ATOM      4  O   UNL     1       8.351   4.070  -0.404  1.00  0.00    -0.550 OA
ENDBRANCH   1   2
BRANCH   1   5
ATOM      5  C   UNL     1       5.611   5.607   1.657  1.00  0.00     0.003 C 
ATOM      6  C   UNL     1       4.334   4.889   2.091  1.00  0.00     0.004 C 
ENDBRANCH   1   5
TORSDOF 2
ENDMDL
MODEL 2
REMARK VINA RESULT:    -2.218      7.531      8.395
REMARK INTER + INTRA:          -2.488
REMARK INTER:                  -2.483
REMARK INTRA:                  -0.006
REMARK UNBOUND:                -0.011
REMARK SMILES CCCC(=O)[O-]
REMARK SMILES IDX 3 1 4 2 5 3 6 4 2 5 1 6
REMARK H PARENT
REMARK Flexibility Score: inf
ROOT
ATOM      1  C   UNL     1       4.047   1.021  -5.566  1.00  0.00     0.052 C 
ENDROOT
BRANCH   1   2
ATOM      2  C   UNL     1       3.052   1.914  -4.891  1.00  0.00     0.041 C 
ATOM      3  O   UNL     1       2.897   1.862  -3.642  1.00  0.00    -0.550 OA
ATOM      4  O   UNL     1       2.320   2.829  -5.637  1.00  0.00    -0.550 OA
ENDBRANCH   1   2
BRANCH   1   5
ATOM      5  C   UNL     1       4.993   1.812  -6.477  1.00  0.00     0.003 C 
ATOM      6  C   UNL     1       6.337   1.111  -6.671  1.00  0.00     0.004 C 
ENDBRANCH   1   5
TORSDOF 2
ENDMDL
MODEL 3
REMARK VINA RESULT:    -2.161     10.349     10.829
REMARK INTER + INTRA:          -2.425
REMARK INTER:                  -2.390
REMARK INTRA:                  -0.035
REMARK UNBOUND:                -0.011
REMARK SMILES CCCC(=O)[O-]
REMARK SMILES IDX 3 1 4 2 5 3 6 4 2 5 1 6
REMARK H PARENT
REMARK Flexibility Score: inf
ROOT
ATOM      1  C   UNL     1      -2.605   5.335  -1.515  1.00  0.00     0.052 C 
ENDROOT
BRANCH   1   2
ATOM      2  C   UNL     1      -3.962   5.590  -2.098  1.00  0.00     0.041 C 
ATOM      3  O   UNL     1      -4.384   4.887  -3.054  1.00  0.00    -0.550 OA
ATOM      4  O   UNL     1      -4.773   6.582  -1.562  1.00  0.00    -0.550 OA
ENDBRANCH   1   2
BRANCH   1   5
ATOM      5  C   UNL     1      -2.665   4.327  -0.361  1.00  0.00     0.003 C 
ATOM      6  C   UNL     1      -2.493   4.994   1.003  1.00  0.00     0.004 C 
ENDBRANCH   1   5
TORSDOF 2
ENDMDL
MODEL 4
REMARK VINA RESULT:    -2.119      7.234      7.750
REMARK INTER + INTRA:          -2.378
REMARK INTER:                  -2.334
REMARK INTRA:                  -0.044
REMARK UNBOUND:                -0.011
REMARK SMILES CCCC(=O)[O-]
REMARK SMILES IDX 3 1 4 2 5 3 6 4 2 5 1 6
REMARK H PARENT
REMARK Flexibility Score: inf
ROOT
ATOM      1  C   UNL     1       3.835   1.837  -6.495  1.00  0.00     0.052 C 
ENDROOT
BRANCH   1   2
ATOM      2  C   UNL     1       5.061   2.695  -6.570  1.00  0.00     0.041 C 
ATOM      3  O   UNL     1       4.958   3.949  -6.576  1.00  0.00    -0.550 OA
ATOM      4  O   UNL     1       6.319   2.107  -6.599  1.00  0.00    -0.550 OA
ENDBRANCH   1   2
BRANCH   1   5
ATOM      5  C   UNL     1       3.669   1.204  -5.108  1.00  0.00     0.003 C 
ATOM      6  C   UNL     1       2.876   2.095  -4.153  1.00  0.00     0.004 C 
ENDBRANCH   1   5
TORSDOF 2
ENDMDL
MODEL 5
REMARK VINA RESULT:    -2.102      8.888      9.448
REMARK INTER + INTRA:          -2.359
REMARK INTER:                  -2.297
REMARK INTRA:                  -0.062
REMARK UNBOUND:                -0.011
REMARK SMILES CCCC(=O)[O-]
REMARK SMILES IDX 3 1 4 2 5 3 6 4 2 5 1 6
REMARK H PARENT
REMARK Flexibility Score: inf
ROOT
ATOM      1  C   UNL     1      -3.070   5.172  -1.529  1.00  0.00     0.052 C 
ENDROOT
BRANCH   1   2
ATOM      2  C   UNL     1      -2.042   6.207  -1.872  1.00  0.00     0.041 C 
ATOM      3  O   UNL     1      -0.852   5.867  -2.100  1.00  0.00    -0.550 OA
ATOM      4  O   UNL     1      -2.408   7.543  -1.972  1.00  0.00    -0.550 OA
ENDBRANCH   1   2
BRANCH   1   5
ATOM      5  C   UNL     1      -2.599   4.260  -0.390  1.00  0.00     0.003 C 
ATOM      6  C   UNL     1      -2.488   5.001   0.941  1.00  0.00     0.004 C 
ENDBRANCH   1   5
TORSDOF 2
ENDMDL
MODEL 6
REMARK VINA RESULT:    -2.074      8.097      8.697
REMARK INTER + INTRA:          -2.328
REMARK INTER:                  -2.263
REMARK INTRA:                  -0.066
REMARK UNBOUND:                -0.011
REMARK SMILES CCCC(=O)[O-]
REMARK SMILES IDX 3 1 4 2 5 3 6 4 2 5 1 6
REMARK H PARENT
REMARK Flexibility Score: inf
ROOT
ATOM      1  C   UNL     1       3.619   1.178  -5.167  1.00  0.00     0.052 C 
ENDROOT
BRANCH   1   2
ATOM      2  C   UNL     1       2.914   1.090  -6.486  1.00  0.00     0.041 C 
ATOM      3  O   UNL     1       3.551   1.262  -7.559  1.00  0.00    -0.550 OA
ATOM      4  O   UNL     1       1.560   0.784  -6.531  1.00  0.00    -0.550 OA
ENDBRANCH   1   2
BRANCH   1   5
ATOM      5  C   UNL     1       2.896   2.122  -4.200  1.00  0.00     0.003 C 
ATOM      6  C   UNL     1       2.813   3.551  -4.733  1.00  0.00     0.004 C 
ENDBRANCH   1   5
TORSDOF 2
ENDMDL
MODEL 7
REMARK VINA RESULT:    -2.004      9.106      9.504
REMARK INTER + INTRA:          -2.250
REMARK INTER:                  -2.242
REMARK INTRA:                  -0.008
REMARK UNBOUND:                -0.011
REMARK SMILES CCCC(=O)[O-]
REMARK SMILES IDX 3 1 4 2 5 3 6 4 2 5 1 6
REMARK H PARENT
REMARK Flexibility Score: inf
ROOT
ATOM      1  C   UNL     1      -2.751   5.980   0.504  1.00  0.00     0.052 C 
ENDROOT
BRANCH   1   2
ATOM      2  C   UNL     1      -2.465   5.125  -0.693  1.00  0.00     0.041 C 
ATOM      3  O   UNL     1      -1.669   5.525  -1.582  1.00  0.00    -0.550 OA
ATOM      4  O   UNL     1      -3.053   3.872  -0.808  1.00  0.00    -0.550 OA
ENDBRANCH   1   2
BRANCH   1   5
ATOM      5  C   UNL     1      -2.361   5.276   1.810  1.00  0.00     0.003 C 
ATOM      6  C   UNL     1      -3.058   5.881   3.028  1.00  0.00     0.004 C 
ENDBRANCH   1   5
TORSDOF 2
ENDMDL
MODEL 8
REMARK VINA RESULT:    -1.984      5.193      6.083
REMARK INTER + INTRA:          -2.228
REMARK INTER:                  -2.211
REMARK INTRA:                  -0.017
REMARK UNBOUND:                -0.011
REMARK SMILES CCCC(=O)[O-]
REMARK SMILES IDX 3 1 4 2 5 3 6 4 2 5 1 6
REMARK H PARENT
REMARK Flexibility Score: inf
ROOT
ATOM      1  C   UNL     1       3.057   3.175   3.339  1.00  0.00     0.052 C 
ENDROOT
BRANCH   1   2
ATOM      2  C   UNL     1       2.145   3.081   4.524  1.00  0.00     0.041 C 
ATOM      3  O   UNL     1       1.505   4.093   4.914  1.00  0.00    -0.550 OA
ATOM      4  O   UNL     1       1.976   1.867   5.177  1.00  0.00    -0.550 OA
ENDBRANCH   1   2
BRANCH   1   5
ATOM      5  C   UNL     1       4.021   4.362   3.458  1.00  0.00     0.003 C 
ATOM      6  C   UNL     1       4.364   4.972   2.099  1.00  0.00     0.004 C 
ENDBRANCH   1   5
TORSDOF 2
ENDMDL
MODEL 9
REMARK VINA RESULT:    -1.942     10.226     10.757
REMARK INTER + INTRA:          -2.181
REMARK INTER:                  -2.176
REMARK INTRA:                  -0.005
REMARK UNBOUND:                -0.011
REMARK SMILES CCCC(=O)[O-]
REMARK SMILES IDX 3 1 4 2 5 3 6 4 2 5 1 6
REMARK H PARENT
REMARK Flexibility Score: inf
ROOT
ATOM      1  C   UNL     1       4.830  -4.766  -4.074  1.00  0.00     0.052 C 
ENDROOT
BRANCH   1   2
ATOM      2  C   UNL     1       5.107  -3.364  -4.524  1.00  0.00     0.041 C 
ATOM      3  O   UNL     1       6.053  -2.709  -4.015  1.00  0.00    -0.550 OA
ATOM      4  O   UNL     1       4.339  -2.794  -5.532  1.00  0.00    -0.550 OA
ENDBRANCH   1   2
BRANCH   1   5
ATOM      5  C   UNL     1       3.450  -4.888  -3.416  1.00  0.00     0.003 C 
ATOM      6  C   UNL     1       3.360  -6.084  -2.470  1.00  0.00     0.004 C 
ENDBRANCH   1   5
TORSDOF 2
ENDMDL
