MODEL 1
REMARK VINA RESULT:    -4.514      0.000      0.000
REMARK INTER + INTRA:          -9.181
REMARK INTER:                  -7.944
REMARK INTRA:                  -1.237
REMARK UNBOUND:                -1.237
REMARK SMILES CCCCCCCCCCCCCCC(=O)[O-]
REMARK SMILES IDX 9 1 10 2 11 3 12 4 13 5 14 6 15 7 16 8 17 9 8 10 7 11 6 12
REMARK SMILES IDX 5 13 4 14 3 15 2 16 1 17
REMARK H PARENT
REMARK Flexibility Score: inf
ROOT
ATOM      1  C   UNL     1      -0.703   4.017  -4.626  1.00  0.00     0.000 C 
ENDROOT
BRANCH   1   2
ATOM      2  C   UNL     1       0.506   3.703  -5.522  1.00  0.00     0.000 C 
BRANCH   2   3
ATOM      3  C   UNL     1       1.838   4.144  -4.891  1.00  0.00     0.000 C 
BRANCH   3   4
ATOM      4  C   UNL     1       2.007   3.653  -3.441  1.00  0.00     0.000 C 
BRANCH   4   5
ATOM      5  C   UNL     1       2.304   2.150  -3.292  1.00  0.00     0.006 C 
BRANCH   5   6
ATOM      6  C   UNL     1       3.687   1.757  -3.828  1.00  0.00     0.053 C 
BRANCH   6   7
ATOM      7  C   UNL     1       4.764   2.421  -3.030  1.00  0.00     0.041 C 
ATOM      8  O   UNL     1       4.961   2.089  -1.832  1.00  0.00    -0.550 OA
ATOM      9  O   UNL     1       5.584   3.372  -3.625  1.00  0.00    -0.550 OA
ENDBRANCH   6   7
ENDBRANCH   5   6
ENDBRANCH   4   5
ENDBRANCH   3   4
ENDBRANCH   2   3
ENDBRANCH   1   2
BRANCH   1  10
ATOM     10  C   UNL     1      -1.458   2.750  -4.188  1.00  0.00     0.000 C 
BRANCH  10  11
ATOM     11  C   UNL     1      -1.441   2.551  -2.664  1.00  0.00    -0.000 C 
BRANCH  11  12
ATOM     12  C   UNL     1      -2.854   2.512  -2.056  1.00  0.00    -0.000 C 
BRANCH  12  13
ATOM     13  C   UNL     1      -3.953   2.773  -3.099  1.00  0.00    -0.000 C 
BRANCH  13  14
ATOM     14  C   UNL     1      -4.927   1.593  -3.240  1.00  0.00    -0.000 C 
BRANCH  14  15
ATOM     15  C   UNL     1      -4.343   0.503  -4.146  1.00  0.00    -0.000 C 
BRANCH  15  16
ATOM     16  C   UNL     1      -3.835  -0.684  -3.321  1.00  0.00    -0.003 C 
ATOM     17  C   UNL     1      -4.115  -2.007  -4.030  1.00  0.00     0.004 C 
ENDBRANCH  15  16
ENDBRANCH  14  15
ENDBRANCH  13  14
ENDBRANCH  12  13
ENDBRANCH  11  12
ENDBRANCH  10  11
ENDBRANCH   1  10
TORSDOF 13
ENDMDL
MODEL 2
REMARK VINA RESULT:    -4.505      1.227      2.352
REMARK INTER + INTRA:          -9.166
REMARK INTER:                  -7.409
REMARK INTRA:                  -1.757
REMARK UNBOUND:                -1.237
REMARK SMILES CCCCCCCCCCCCCCC(=O)[O-]
REMARK SMILES IDX 9 1 10 2 11 3 12 4 13 5 14 6 15 7 16 8 17 9 8 10 7 11 6 12
REMARK SMILES IDX 5 13 4 14 3 15 2 16 1 17
REMARK H PARENT
REMARK Flexibility Score: inf
ROOT
ATOM      1  C   UNL     1      -2.168   2.208  -2.912  1.00  0.00     0.000 C 
ENDROOT
BRANCH   1   2
ATOM      2  C   UNL     1      -2.232   2.241  -4.448  1.00  0.00     0.000 C 
BRANCH   2   3
ATOM      3  C   UNL     1      -1.053   3.010  -5.070  1.00  0.00     0.000 C 
BRANCH   3   4
ATOM      4  C   UNL     1      -0.078   3.567  -4.017  1.00  0.00     0.000 C 
BRANCH   4   5
ATOM      5  C   UNL     1       1.389   3.134  -4.192  1.00  0.00     0.006 C 
BRANCH   5   6
ATOM      6  C   UNL     1       1.905   2.282  -3.026  1.00  0.00     0.053 C 
BRANCH   6   7
ATOM      7  C   UNL     1       3.346   1.933  -3.232  1.00  0.00     0.041 C 
ATOM      8  O   UNL     1       4.144   1.940  -2.258  1.00  0.00    -0.550 OA
ATOM      9  O   UNL     1       3.795   1.551  -4.489  1.00  0.00    -0.550 OA
ENDBRANCH   6   7
ENDBRANCH   5   6
ENDBRANCH   4   5
ENDBRANCH   3   4
ENDBRANCH   2   3
ENDBRANCH   1   2
BRANCH   1  10
ATOM     10  C   UNL     1      -3.523   2.531  -2.259  1.00  0.00     0.000 C 
BRANCH  10  11
ATOM     11  C   UNL     1      -4.460   3.308  -3.198  1.00  0.00    -0.000 C 
BRANCH  11  12
ATOM     12  C   UNL     1      -5.934   2.898  -3.037  1.00  0.00    -0.000 C 
BRANCH  12  13
ATOM     13  C   UNL     1      -6.191   1.441  -3.454  1.00  0.00    -0.000 C 
BRANCH  13  14
ATOM     14  C   UNL     1      -5.837   1.176  -4.925  1.00  0.00    -0.000 C 
BRANCH  14  15
ATOM     15  C   UNL     1      -4.891  -0.024  -5.055  1.00  0.00    -0.000 C 
BRANCH  15  16
ATOM     16  C   UNL     1      -4.833  -0.822  -3.748  1.00  0.00    -0.003 C 
ATOM     17  C   UNL     1      -3.404  -1.256  -3.431  1.00  0.00     0.004 C 
ENDBRANCH  15  16
ENDBRANCH  14  15
ENDBRANCH  13  14
ENDBRANCH  12  13
ENDBRANCH  11  12
ENDBRANCH  10  11
ENDBRANCH   1  10
TORSDOF 13
ENDMDL
MODEL 3
REMARK VINA RESULT:    -4.343      3.520      7.191
REMARK INTER + INTRA:          -8.881
REMARK INTER:                  -7.700
REMARK INTRA:                  -1.181
REMARK UNBOUND:                -1.237
REMARK SMILES CCCCCCCCCCCCCCC(=O)[O-]
REMARK SMILES IDX 9 1 10 2 11 3 12 4 13 5 14 6 15 7 16 8 17 9 8 10 7 11 6 12
REMARK SMILES IDX 5 13 4 14 3 15 2 16 1 17
REMARK H PARENT
REMARK Flexibility Score: inf
ROOT
ATOM      1  C   UNL     1      -2.984   2.366  -2.219  1.00  0.00     0.000 C 
ENDROOT
BRANCH   1   2
ATOM      2  C   UNL     1      -3.966   3.031  -3.197  1.00  0.00     0.000 C 
BRANCH   2   3
ATOM      3  C   UNL     1      -5.017   2.045  -3.737  1.00  0.00     0.000 C 
BRANCH   3   4
ATOM      4  C   UNL     1      -4.410   0.952  -4.636  1.00  0.00     0.000 C 
BRANCH   4   5
ATOM      5  C   UNL     1      -4.646  -0.491  -4.158  1.00  0.00     0.006 C 
BRANCH   5   6
ATOM      6  C   UNL     1      -3.466  -1.059  -3.360  1.00  0.00     0.053 C 
BRANCH   6   7
ATOM      7  C   UNL     1      -3.443  -2.553  -3.452  1.00  0.00     0.041 C 
ATOM      8  O   UNL     1      -4.414  -3.229  -3.022  1.00  0.00    -0.550 OA
ATOM      9  O   UNL     1      -2.370  -3.195  -4.058  1.00  0.00    -0.550 OA
ENDBRANCH   6   7
ENDBRANCH   5   6
ENDBRANCH   4   5
ENDBRANCH   3   4
ENDBRANCH   2   3
ENDBRANCH   1   2
BRANCH   1  10
ATOM     10  C   UNL     1      -1.514   2.646  -2.578  1.00  0.00     0.000 C 
BRANCH  10  11
ATOM     11  C   UNL     1      -1.273   2.676  -4.096  1.00  0.00    -0.000 C 
BRANCH  11  12
ATOM     12  C   UNL     1      -0.125   3.619  -4.495  1.00  0.00    -0.000 C 
BRANCH  12  13
ATOM     13  C   UNL     1       0.652   4.150  -3.280  1.00  0.00    -0.000 C 
BRANCH  13  14
ATOM     14  C   UNL     1       2.128   3.723  -3.289  1.00  0.00    -0.000 C 
BRANCH  14  15
ATOM     15  C   UNL     1       2.258   2.196  -3.242  1.00  0.00    -0.000 C 
BRANCH  15  16
ATOM     16  C   UNL     1       3.568   1.737  -3.892  1.00  0.00    -0.003 C 
ATOM     17  C   UNL     1       4.744   2.591  -3.424  1.00  0.00     0.004 C 
ENDBRANCH  15  16
ENDBRANCH  14  15
ENDBRANCH  13  14
ENDBRANCH  12  13
ENDBRANCH  11  12
ENDBRANCH  10  11
ENDBRANCH   1  10
TORSDOF 13
ENDMDL
MODEL 4
REMARK VINA RESULT:    -4.331      1.967      2.380
REMARK INTER + INTRA:          -8.858
REMARK INTER:                  -7.656
REMARK INTRA:                  -1.203
REMARK UNBOUND:                -1.237
REMARK SMILES CCCCCCCCCCCCCCC(=O)[O-]
REMARK SMILES IDX 9 1 10 2 11 3 12 4 13 5 14 6 15 7 16 8 17 9 8 10 7 11 6 12
REMARK SMILES IDX 5 13 4 14 3 15 2 16 1 17
REMARK H PARENT
REMARK Flexibility Score: inf
ROOT
ATOM      1  C   UNL     1      -0.740   3.046  -4.466  1.00  0.00     0.000 C 
ENDROOT
BRANCH   1   2
ATOM      2  C   UNL     1       0.234   2.976  -3.279  1.00  0.00     0.000 C 
BRANCH   2   3
ATOM      3  C   UNL     1       1.697   3.186  -3.705  1.00  0.00     0.000 C 
BRANCH   3   4
ATOM      4  C   UNL     1       2.626   2.048  -3.242  1.00  0.00     0.000 C 
BRANCH   4   5
ATOM      5  C   UNL     1       3.684   1.611  -4.271  1.00  0.00     0.006 C 
BRANCH   5   6
ATOM      6  C   UNL     1       4.173   2.766  -5.154  1.00  0.00     0.053 C 
BRANCH   6   7
ATOM      7  C   UNL     1       3.907   2.469  -6.596  1.00  0.00     0.041 C 
ATOM      8  O   UNL     1       4.333   1.403  -7.113  1.00  0.00    -0.550 OA
ATOM      9  O   UNL     1       3.145   3.347  -7.357  1.00  0.00    -0.550 OA
ENDBRANCH   6   7
ENDBRANCH   5   6
ENDBRANCH   4   5
ENDBRANCH   3   4
ENDBRANCH   2   3
ENDBRANCH   1   2
BRANCH   1  10
ATOM     10  C   UNL     1      -2.037   2.258  -4.212  1.00  0.00     0.000 C 
BRANCH  10  11
ATOM     11  C   UNL     1      -2.274   1.978  -2.720  1.00  0.00    -0.000 C 
BRANCH  11  12
ATOM     12  C   UNL     1      -3.576   2.610  -2.197  1.00  0.00    -0.000 C 
BRANCH  12  13
ATOM     13  C   UNL     1      -4.419   3.238  -3.319  1.00  0.00    -0.000 C 
BRANCH  13  14
ATOM     14  C   UNL     1      -5.853   2.690  -3.359  1.00  0.00    -0.000 C 
BRANCH  14  15
ATOM     15  C   UNL     1      -5.856   1.156  -3.354  1.00  0.00    -0.000 C 
BRANCH  15  16
ATOM     16  C   UNL     1      -5.338   0.602  -4.686  1.00  0.00    -0.003 C 
ATOM     17  C   UNL     1      -4.428  -0.603  -4.464  1.00  0.00     0.004 C 
ENDBRANCH  15  16
ENDBRANCH  14  15
ENDBRANCH  13  14
ENDBRANCH  12  13
ENDBRANCH  11  12
ENDBRANCH  10  11
ENDBRANCH   1  10
TORSDOF 13
ENDMDL
MODEL 5
REMARK VINA RESULT:    -4.309      3.807      7.694
REMARK INTER + INTRA:          -8.820
REMARK INTER:                  -8.106
REMARK INTRA:                  -0.714
REMARK UNBOUND:                -1.237
REMARK SMILES CCCCCCCCCCCCCCC(=O)[O-]
REMARK SMILES IDX 9 1 10 2 11 3 12 4 13 5 14 6 15 7 16 8 17 9 8 10 7 11 6 12
REMARK SMILES IDX 5 13 4 14 3 15 2 16 1 17
REMARK H PARENT
REMARK Flexibility Score: inf
ROOT
ATOM      1  C   UNL     1      -1.140   2.842  -3.633  1.00  0.00     0.000 C 
ENDROOT
BRANCH   1   2
ATOM      2  C   UNL     1      -2.182   2.327  -2.628  1.00  0.00     0.000 C 
BRANCH   2   3
ATOM      3  C   UNL     1      -3.623   2.476  -3.145  1.00  0.00     0.000 C 
BRANCH   3   4
ATOM      4  C   UNL     1      -4.384   1.139  -3.198  1.00  0.00     0.000 C 
BRANCH   4   5
ATOM      5  C   UNL     1      -3.496  -0.111  -3.337  1.00  0.00     0.006 C 
BRANCH   5   6
ATOM      6  C   UNL     1      -4.194  -1.261  -4.075  1.00  0.00     0.053 C 
BRANCH   6   7
ATOM      7  C   UNL     1      -3.686  -2.581  -3.584  1.00  0.00     0.041 C 
ATOM      8  O   UNL     1      -2.506  -2.939  -3.839  1.00  0.00    -0.550 OA
ATOM      9  O   UNL     1      -4.499  -3.392  -2.803  1.00  0.00    -0.550 OA
ENDBRANCH   6   7
ENDBRANCH   5   6
ENDBRANCH   4   5
ENDBRANCH   3   4
ENDBRANCH   2   3
ENDBRANCH   1   2
BRANCH   1  10
ATOM     10  C   UNL     1       0.155   3.316  -2.949  1.00  0.00     0.000 C 
BRANCH  10  11
ATOM     11  C   UNL     1       1.403   3.058  -3.808  1.00  0.00    -0.000 C 
BRANCH  11  12
ATOM     12  C   UNL     1       2.325   1.983  -3.207  1.00  0.00    -0.000 C 
BRANCH  12  13
ATOM     13  C   UNL     1       3.603   1.770  -4.034  1.00  0.00    -0.000 C 
BRANCH  13  14
ATOM     14  C   UNL     1       4.376   3.076  -4.274  1.00  0.00    -0.000 C 
BRANCH  14  15
ATOM     15  C   UNL     1       4.772   3.217  -5.748  1.00  0.00    -0.000 C 
BRANCH  15  16
ATOM     16  C   UNL     1       3.756   2.519  -6.660  1.00  0.00    -0.003 C 
ATOM     17  C   UNL     1       4.456   1.634  -7.687  1.00  0.00     0.004 C 
ENDBRANCH  15  16
ENDBRANCH  14  15
ENDBRANCH  13  14
ENDBRANCH  12  13
ENDBRANCH  11  12
ENDBRANCH  10  11
ENDBRANCH   1  10
TORSDOF 13
ENDMDL
MODEL 6
REMARK VINA RESULT:    -4.277      1.586      2.811
REMARK INTER + INTRA:          -8.765
REMARK INTER:                  -7.044
REMARK INTRA:                  -1.721
REMARK UNBOUND:                -1.237
REMARK SMILES CCCCCCCCCCCCCCC(=O)[O-]
REMARK SMILES IDX 9 1 10 2 11 3 12 4 13 5 14 6 15 7 16 8 17 9 8 10 7 11 6 12
REMARK SMILES IDX 5 13 4 14 3 15 2 16 1 17
REMARK H PARENT
REMARK Flexibility Score: inf
ROOT
ATOM      1  C   UNL     1      -0.222   3.081  -2.882  1.00  0.00     0.000 C 
ENDROOT
BRANCH   1   2
ATOM      2  C   UNL     1       0.121   3.353  -4.356  1.00  0.00     0.000 C 
BRANCH   2   3
ATOM      3  C   UNL     1       1.227   4.410  -4.518  1.00  0.00     0.000 C 
BRANCH   3   4
ATOM      4  C   UNL     1       2.313   3.992  -5.527  1.00  0.00     0.000 C 
BRANCH   4   5
ATOM      5  C   UNL     1       3.158   2.776  -5.108  1.00  0.00     0.006 C 
BRANCH   5   6
ATOM      6  C   UNL     1       4.154   3.096  -3.986  1.00  0.00     0.053 C 
BRANCH   6   7
ATOM      7  C   UNL     1       3.881   2.245  -2.786  1.00  0.00     0.041 C 
ATOM      8  O   UNL     1       2.858   1.512  -2.749  1.00  0.00    -0.550 OA
ATOM      9  O   UNL     1       4.782   2.224  -1.729  1.00  0.00    -0.550 OA
ENDBRANCH   6   7
ENDBRANCH   5   6
ENDBRANCH   4   5
ENDBRANCH   3   4
ENDBRANCH   2   3
ENDBRANCH   1   2
BRANCH   1  10
ATOM     10  C   UNL     1      -1.305   2.000  -2.718  1.00  0.00     0.000 C 
BRANCH  10  11
ATOM     11  C   UNL     1      -2.634   2.571  -2.200  1.00  0.00    -0.000 C 
BRANCH  11  12
ATOM     12  C   UNL     1      -3.851   2.039  -2.977  1.00  0.00    -0.000 C 
BRANCH  12  13
ATOM     13  C   UNL     1      -3.461   1.014  -4.054  1.00  0.00    -0.000 C 
BRANCH  13  14
ATOM     14  C   UNL     1      -3.891   1.445  -5.464  1.00  0.00    -0.000 C 
BRANCH  14  15
ATOM     15  C   UNL     1      -2.919   2.479  -6.043  1.00  0.00    -0.000 C 
BRANCH  15  16
ATOM     16  C   UNL     1      -3.608   3.834  -6.238  1.00  0.00    -0.003 C 
ATOM     17  C   UNL     1      -3.093   4.863  -5.236  1.00  0.00     0.004 C 
ENDBRANCH  15  16
ENDBRANCH  14  15
ENDBRANCH  13  14
ENDBRANCH  12  13
ENDBRANCH  11  12
ENDBRANCH  10  11
ENDBRANCH   1  10
TORSDOF 13
ENDMDL
MODEL 7
REMARK VINA RESULT:    -4.273      1.527      2.370
REMARK INTER + INTRA:          -8.758
REMARK INTER:                  -7.024
REMARK INTRA:                  -1.734
REMARK UNBOUND:                -1.237
REMARK SMILES CCCCCCCCCCCCCCC(=O)[O-]
REMARK SMILES IDX 9 1 10 2 11 3 12 4 13 5 14 6 15 7 16 8 17 9 8 10 7 11 6 12
REMARK SMILES IDX 5 13 4 14 3 15 2 16 1 17
REMARK H PARENT
REMARK Flexibility Score: inf
ROOT
ATOM      1  C   UNL     1      -0.449   3.707  -5.437  1.00  0.00     0.000 C 
ENDROOT
BRANCH   1   2
ATOM      2  C   UNL     1       0.587   3.800  -6.569  1.00  0.00     0.000 C 
BRANCH   2   3
ATOM      3  C   UNL     1       1.948   4.327  -6.080  1.00  0.00     0.000 C 
BRANCH   3   4
ATOM      4  C   UNL     1       3.063   3.268  -6.153  1.00  0.00     0.000 C 
BRANCH   4   5
ATOM      5  C   UNL     1       4.197   3.443  -5.127  1.00  0.00     0.006 C 
BRANCH   5   6
ATOM      6  C   UNL     1       3.686   3.575  -3.687  1.00  0.00     0.053 C 
BRANCH   6   7
ATOM      7  C   UNL     1       3.815   2.270  -2.965  1.00  0.00     0.041 C 
ATOM      8  O   UNL     1       2.828   1.494  -2.878  1.00  0.00    -0.550 OA
ATOM      9  O   UNL     1       5.040   1.890  -2.431  1.00  0.00    -0.550 OA
ENDBRANCH   6   7
ENDBRANCH   5   6
ENDBRANCH   4   5
ENDBRANCH   3   4
ENDBRANCH   2   3
ENDBRANCH   1   2
BRANCH   1  10
ATOM     10  C   UNL     1      -0.025   4.492  -4.184  1.00  0.00     0.000 C 
BRANCH  10  11
ATOM     11  C   UNL     1       0.010   3.615  -2.922  1.00  0.00    -0.000 C 
BRANCH  11  12
ATOM     12  C   UNL     1      -0.886   2.371  -3.040  1.00  0.00    -0.000 C 
BRANCH  12  13
ATOM     13  C   UNL     1      -2.210   2.521  -2.272  1.00  0.00    -0.000 C 
BRANCH  13  14
ATOM     14  C   UNL     1      -3.438   2.461  -3.193  1.00  0.00    -0.000 C 
BRANCH  14  15
ATOM     15  C   UNL     1      -3.369   1.243  -4.122  1.00  0.00    -0.000 C 
BRANCH  15  16
ATOM     16  C   UNL     1      -3.708   1.633  -5.565  1.00  0.00    -0.003 C 
ATOM     17  C   UNL     1      -4.105   3.103  -5.659  1.00  0.00     0.004 C 
ENDBRANCH  15  16
ENDBRANCH  14  15
ENDBRANCH  13  14
ENDBRANCH  12  13
ENDBRANCH  11  12
ENDBRANCH  10  11
ENDBRANCH   1  10
TORSDOF 13
ENDMDL
MODEL 8
REMARK VINA RESULT:    -4.259      1.190      2.348
REMARK INTER + INTRA:          -8.732
REMARK INTER:                  -7.287
REMARK INTRA:                  -1.445
REMARK UNBOUND:                -1.237
REMARK SMILES CCCCCCCCCCCCCCC(=O)[O-]
REMARK SMILES IDX 9 1 10 2 11 3 12 4 13 5 14 6 15 7 16 8 17 9 8 10 7 11 6 12
REMARK SMILES IDX 5 13 4 14 3 15 2 16 1 17
REMARK H PARENT
REMARK Flexibility Score: inf
ROOT
ATOM      1  C   UNL     1       0.356   3.753  -6.481  1.00  0.00     0.000 C 
ENDROOT
BRANCH   1   2
ATOM      2  C   UNL     1       1.256   4.796  -5.799  1.00  0.00     0.000 C 
BRANCH   2   3
ATOM      3  C   UNL     1       2.441   4.156  -5.056  1.00  0.00     0.000 C 
BRANCH   3   4
ATOM      4  C   UNL     1       2.063   3.640  -3.656  1.00  0.00     0.000 C 
BRANCH   4   5
ATOM      5  C   UNL     1       2.434   2.172  -3.379  1.00  0.00     0.006 C 
BRANCH   5   6
ATOM      6  C   UNL     1       3.833   1.802  -3.889  1.00  0.00     0.053 C 
BRANCH   6   7
ATOM      7  C   UNL     1       4.885   2.461  -3.053  1.00  0.00     0.041 C 
ATOM      8  O   UNL     1       5.632   3.342  -3.555  1.00  0.00    -0.550 OA
ATOM      9  O   UNL     1       5.007   2.138  -1.708  1.00  0.00    -0.550 OA
ENDBRANCH   6   7
ENDBRANCH   5   6
ENDBRANCH   4   5
ENDBRANCH   3   4
ENDBRANCH   2   3
ENDBRANCH   1   2
BRANCH   1  10
ATOM     10  C   UNL     1      -1.106   4.219  -6.593  1.00  0.00     0.000 C 
BRANCH  10  11
ATOM     11  C   UNL     1      -1.908   3.961  -5.307  1.00  0.00    -0.000 C 
BRANCH  11  12
ATOM     12  C   UNL     1      -1.475   2.672  -4.587  1.00  0.00    -0.000 C 
BRANCH  12  13
ATOM     13  C   UNL     1      -1.346   2.860  -3.067  1.00  0.00    -0.000 C 
BRANCH  13  14
ATOM     14  C   UNL     1      -2.561   2.319  -2.299  1.00  0.00    -0.000 C 
BRANCH  14  15
ATOM     15  C   UNL     1      -3.307   1.263  -3.124  1.00  0.00    -0.000 C 
BRANCH  15  16
ATOM     16  C   UNL     1      -4.767   1.671  -3.348  1.00  0.00    -0.003 C 
ATOM     17  C   UNL     1      -5.094   2.970  -2.616  1.00  0.00     0.004 C 
ENDBRANCH  15  16
ENDBRANCH  14  15
ENDBRANCH  13  14
ENDBRANCH  12  13
ENDBRANCH  11  12
ENDBRANCH  10  11
ENDBRANCH   1  10
TORSDOF 13
ENDMDL
MODEL 9
REMARK VINA RESULT:    -4.223      1.757      2.502
REMARK INTER + INTRA:          -8.669
REMARK INTER:                  -6.863
REMARK INTRA:                  -1.806
REMARK UNBOUND:                -1.237
REMARK SMILES CCCCCCCCCCCCCCC(=O)[O-]
REMARK SMILES IDX 9 1 10 2 11 3 12 4 13 5 14 6 15 7 16 8 17 9 8 10 7 11 6 12
REMARK SMILES IDX 5 13 4 14 3 15 2 16 1 17
REMARK H PARENT
REMARK Flexibility Score: inf
ROOT
ATOM      1  C   UNL     1      -2.664   2.762  -6.469  1.00  0.00     0.000 C 
ENDROOT
BRANCH   1   2
ATOM      2  C   UNL     1      -1.345   3.542  -6.348  1.00  0.00     0.000 C 
BRANCH   2   3
ATOM      3  C   UNL     1      -0.453   3.018  -5.209  1.00  0.00     0.000 C 
BRANCH   3   4
ATOM      4  C   UNL     1      -0.342   4.004  -4.032  1.00  0.00     0.000 C 
BRANCH   4   5
ATOM      5  C   UNL     1       0.766   3.683  -3.014  1.00  0.00     0.006 C 
BRANCH   5   6
ATOM      6  C   UNL     1       2.177   3.835  -3.597  1.00  0.00     0.053 C 
BRANCH   6   7
ATOM      7  C   UNL     1       2.905   2.528  -3.548  1.00  0.00     0.041 C 
ATOM      8  O   UNL     1       2.418   1.555  -2.915  1.00  0.00    -0.550 OA
ATOM      9  O   UNL     1       4.098   2.371  -4.244  1.00  0.00    -0.550 OA
ENDBRANCH   6   7
ENDBRANCH   5   6
ENDBRANCH   4   5
ENDBRANCH   3   4
ENDBRANCH   2   3
ENDBRANCH   1   2
BRANCH   1  10
ATOM     10  C   UNL     1      -3.884   3.687  -6.623  1.00  0.00     0.000 C 
BRANCH  10  11
ATOM     11  C   UNL     1      -4.891   3.532  -5.472  1.00  0.00    -0.000 C 
BRANCH  11  12
ATOM     12  C   UNL     1      -4.327   4.007  -4.122  1.00  0.00    -0.000 C 
BRANCH  12  13
ATOM     13  C   UNL     1      -4.537   2.978  -2.999  1.00  0.00    -0.000 C 
BRANCH  13  14
ATOM     14  C   UNL     1      -3.215   2.488  -2.390  1.00  0.00    -0.000 C 
BRANCH  14  15
ATOM     15  C   UNL     1      -2.719   1.222  -3.099  1.00  0.00    -0.000 C 
BRANCH  15  16
ATOM     16  C   UNL     1      -3.887   0.446  -3.719  1.00  0.00    -0.003 C 
ATOM     17  C   UNL     1      -3.817  -1.035  -3.356  1.00  0.00     0.004 C 
ENDBRANCH  15  16
ENDBRANCH  14  15
ENDBRANCH  13  14
ENDBRANCH  12  13
ENDBRANCH  11  12
ENDBRANCH  10  11
ENDBRANCH   1  10
TORSDOF 13
ENDMDL
