MODEL 1
REMARK VINA RESULT:    -4.304      0.000      0.000
REMARK INTER + INTRA:          -5.927
REMARK INTER:                  -5.939
REMARK INTRA:                   0.012
REMARK UNBOUND:                 0.012
REMARK SMILES O=C([O-])[C@H]1O[C@@H](Oc2cc3oc(-c4ccccc4)cc(=O)c3c(O)c2O)[C@H](O)[C@@H](O)[C@@H]1O
REMARK SMILES IDX 7 1 6 2 4 3 31 4 5 5 29 6 27 7 2 8 1 9 3 10 32 11 30 13
REMARK SMILES IDX 28 15 8 17 25 18 9 19 23 20 10 21 22 22 11 23 20 24 12 25
REMARK SMILES IDX 19 26 21 27 26 28 24 30 13 32 14 33 18 34 15 35 17 36 16 37
REMARK H PARENT 32 12 30 14 28 16 26 29 24 31
REMARK Flexibility Score: inf
ROOT
ATOM      1  O   UNL     1     -12.376   6.595   6.745  1.00  0.00    -0.458 OA
ENDROOT
BRANCH   1   2
ATOM      2  C   UNL     1     -12.874   5.462   6.018  1.00  0.00     0.339 C 
ATOM      3  C   UNL     1     -11.582   3.876   7.240  1.00  0.00     0.199 C 
ATOM      4  C   UNL     1     -10.652   3.591   6.025  1.00  0.00     0.180 C 
ATOM      5  O   UNL     1     -12.882   4.305   6.844  1.00  0.00    -0.328 OA
ATOM      6  C   UNL     1     -10.660   4.740   5.000  1.00  0.00     0.181 C 
ATOM      7  C   UNL     1     -12.097   5.221   4.708  1.00  0.00     0.214 C 
BRANCH   3   8
ATOM      8  C   UNL     1     -10.982   4.779   8.296  1.00  0.00     0.073 C 
ATOM      9  O   UNL     1     -11.736   5.351   9.125  1.00  0.00    -0.547 OA
ATOM     10  O   UNL     1      -9.606   4.940   8.412  1.00  0.00    -0.547 OA
ENDBRANCH   3   8
BRANCH   4  11
ATOM     11  O   UNL     1     -10.988   2.372   5.404  1.00  0.00    -0.387 OA
ATOM     12  H   UNL     1     -10.203   2.056   4.886  1.00  0.00     0.211 HD
ENDBRANCH   4  11
BRANCH   6  13
ATOM     13  O   UNL     1      -9.880   5.801   5.487  1.00  0.00    -0.387 OA
ATOM     14  H   UNL     1      -8.954   5.458   5.591  1.00  0.00     0.211 HD
ENDBRANCH   6  13
BRANCH   7  15
ATOM     15  O   UNL     1     -12.783   4.271   3.936  1.00  0.00    -0.384 OA
ATOM     16  H   UNL     1     -12.384   3.385   4.146  1.00  0.00     0.211 HD
ENDBRANCH   7  15
ENDBRANCH   1   2
BRANCH   1  17
ATOM     17  C   UNL     1     -11.951   7.821   6.205  1.00  0.00     0.172 A 
ATOM     18  C   UNL     1     -12.743   8.607   5.337  1.00  0.00     0.201 A 
ATOM     19  C   UNL     1     -10.684   8.267   6.577  1.00  0.00     0.098 A 
ATOM     20  C   UNL     1     -12.203   9.791   4.769  1.00  0.00     0.176 A 
ATOM     21  C   UNL     1     -10.154   9.445   6.056  1.00  0.00     0.146 A 
ATOM     22  C   UNL     1     -10.903  10.217   5.140  1.00  0.00     0.111 A 
ATOM     23  O   UNL     1      -8.935   9.821   6.425  1.00  0.00    -0.456 OA
ATOM     24  C   UNL     1     -10.294  11.383   4.626  1.00  0.00     0.197 A 
ATOM     25  C   UNL     1      -8.337  10.920   5.970  1.00  0.00     0.138 A 
ATOM     26  C   UNL     1      -9.007  11.732   5.039  1.00  0.00     0.100 A 
ATOM     27  O   UNL     1     -10.886  12.125   3.796  1.00  0.00    -0.289 OA
BRANCH  18  28
ATOM     28  O   UNL     1     -14.058   8.216   5.084  1.00  0.00    -0.502 OA
ATOM     29  H   UNL     1     -14.845   8.849   5.043  1.00  0.00     0.293 HD
ENDBRANCH  18  28
BRANCH  20  30
ATOM     30  O   UNL     1     -12.925  10.544   3.836  1.00  0.00    -0.504 OA
ATOM     31  H   UNL     1     -13.935  10.578   3.790  1.00  0.00     0.293 HD
ENDBRANCH  20  30
BRANCH  25  32
ATOM     32  C   UNL     1      -6.968  11.238   6.450  1.00  0.00     0.017 A 
ATOM     33  C   UNL     1      -5.859  10.893   5.655  1.00  0.00     0.012 A 
ATOM     34  C   UNL     1      -6.742  11.850   7.701  1.00  0.00     0.012 A 
ATOM     35  C   UNL     1      -4.559  11.173   6.087  1.00  0.00     0.001 A 
ATOM     36  C   UNL     1      -5.439  12.125   8.129  1.00  0.00     0.001 A 
ATOM     37  C   UNL     1      -4.349  11.790   7.322  1.00  0.00     0.000 A 
ENDBRANCH  25  32
ENDBRANCH   1  17
TORSDOF 9
ENDMDL
MODEL 2
REMARK VINA RESULT:    -2.710      0.972      2.353
REMARK INTER + INTRA:          -3.727
REMARK INTER:                  -3.463
REMARK INTRA:                  -0.264
REMARK UNBOUND:                 0.012
REMARK SMILES O=C([O-])[C@H]1O[C@@H](Oc2cc3oc(-c4ccccc4)cc(=O)c3c(O)c2O)[C@H](O)[C@@H](O)[C@@H]1O
REMARK SMILES IDX 7 1 6 2 4 3 31 4 5 5 29 6 27 7 2 8 1 9 3 10 32 11 30 13
REMARK SMILES IDX 28 15 8 17 25 18 9 19 23 20 10 21 22 22 11 23 20 24 12 25
REMARK SMILES IDX 19 26 21 27 26 28 24 30 13 32 14 33 18 34 15 35 17 36 16 37
REMARK H PARENT 32 12 30 14 28 16 26 29 24 31
REMARK Flexibility Score: inf
ROOT
ATOM      1  O   UNL     1     -11.467   6.503   7.234  1.00  0.00    -0.458 OA
ENDROOT
BRANCH   1   2
ATOM      2  C   UNL     1     -10.541   5.496   7.668  1.00  0.00     0.339 C 
ATOM      3  C   UNL     1     -10.627   4.273   5.624  1.00  0.00     0.199 C 
ATOM      4  C   UNL     1     -11.411   3.097   6.277  1.00  0.00     0.180 C 
ATOM      5  O   UNL     1      -9.815   4.976   6.561  1.00  0.00    -0.328 OA
ATOM      6  C   UNL     1     -12.144   3.526   7.562  1.00  0.00     0.181 C 
ATOM      7  C   UNL     1     -11.232   4.375   8.472  1.00  0.00     0.214 C 
BRANCH   3   8
ATOM      8  C   UNL     1     -11.474   5.210   4.790  1.00  0.00     0.073 C 
ATOM      9  O   UNL     1     -10.939   6.207   4.240  1.00  0.00    -0.547 OA
ATOM     10  O   UNL     1     -12.822   4.957   4.563  1.00  0.00    -0.547 OA
ENDBRANCH   3   8
BRANCH   4  11
ATOM     11  O   UNL     1     -10.561   2.003   6.534  1.00  0.00    -0.387 OA
ATOM     12  H   UNL     1     -10.333   1.573   5.669  1.00  0.00     0.211 HD
ENDBRANCH   4  11
BRANCH   6  13
ATOM     13  O   UNL     1     -13.298   4.247   7.217  1.00  0.00    -0.387 OA
ATOM     14  H   UNL     1     -14.074   3.750   7.588  1.00  0.00     0.211 HD
ENDBRANCH   6  13
BRANCH   7  15
ATOM     15  O   UNL     1     -10.252   3.569   9.070  1.00  0.00    -0.384 OA
ATOM     16  H   UNL     1     -10.646   2.662   9.173  1.00  0.00     0.211 HD
ENDBRANCH   7  15
ENDBRANCH   1   2
BRANCH   1  17
ATOM     17  C   UNL     1     -11.150   7.749   6.668  1.00  0.00     0.172 A 
ATOM     18  C   UNL     1     -12.074   8.535   5.943  1.00  0.00     0.201 A 
ATOM     19  C   UNL     1      -9.850   8.216   6.860  1.00  0.00     0.098 A 
ATOM     20  C   UNL     1     -11.647   9.743   5.330  1.00  0.00     0.176 A 
ATOM     21  C   UNL     1      -9.425   9.416   6.296  1.00  0.00     0.146 A 
ATOM     22  C   UNL     1     -10.315  10.190   5.518  1.00  0.00     0.111 A 
ATOM     23  O   UNL     1      -8.172   9.812   6.492  1.00  0.00    -0.456 OA
ATOM     24  C   UNL     1      -9.810  11.380   4.948  1.00  0.00     0.197 A 
ATOM     25  C   UNL     1      -7.669  10.933   5.980  1.00  0.00     0.138 A 
ATOM     26  C   UNL     1      -8.483  11.749   5.178  1.00  0.00     0.100 A 
ATOM     27  O   UNL     1     -10.532  12.125   4.232  1.00  0.00    -0.289 OA
BRANCH  18  28
ATOM     28  O   UNL     1     -13.405   8.119   5.876  1.00  0.00    -0.502 OA
ATOM     29  H   UNL     1     -13.929   8.017   5.017  1.00  0.00     0.293 HD
ENDBRANCH  18  28
BRANCH  20  30
ATOM     30  O   UNL     1     -12.512  10.498   4.532  1.00  0.00    -0.504 OA
ATOM     31  H   UNL     1     -13.519  10.412   4.542  1.00  0.00     0.293 HD
ENDBRANCH  20  30
BRANCH  25  32
ATOM     32  C   UNL     1      -6.251  11.271   6.264  1.00  0.00     0.017 A 
ATOM     33  C   UNL     1      -5.269  11.003   5.291  1.00  0.00     0.012 A 
ATOM     34  C   UNL     1      -5.851  11.828   7.496  1.00  0.00     0.012 A 
ATOM     35  C   UNL     1      -3.926  11.305   5.535  1.00  0.00     0.001 A 
ATOM     36  C   UNL     1      -4.504  12.124   7.736  1.00  0.00     0.001 A 
ATOM     37  C   UNL     1      -3.544  11.866   6.755  1.00  0.00     0.000 A 
ENDBRANCH  25  32
ENDBRANCH   1  17
TORSDOF 9
ENDMDL
MODEL 3
REMARK VINA RESULT:    -2.294      1.301      2.650
REMARK INTER + INTRA:          -3.154
REMARK INTER:                  -4.228
REMARK INTRA:                   1.074
REMARK UNBOUND:                 0.012
REMARK SMILES O=C([O-])[C@H]1O[C@@H](Oc2cc3oc(-c4ccccc4)cc(=O)c3c(O)c2O)[C@H](O)[C@@H](O)[C@@H]1O
REMARK SMILES IDX 7 1 6 2 4 3 31 4 5 5 29 6 27 7 2 8 1 9 3 10 32 11 30 13
REMARK SMILES IDX 28 15 8 17 25 18 9 19 23 20 10 21 22 22 11 23 20 24 12 25
REMARK SMILES IDX 19 26 21 27 26 28 24 30 13 32 14 33 18 34 15 35 17 36 16 37
REMARK H PARENT 32 12 30 14 28 16 26 29 24 31
REMARK Flexibility Score: inf
ROOT
ATOM      1  O   UNL     1     -10.061   5.700   5.652  1.00  0.00    -0.458 OA
ENDROOT
BRANCH   1   2
ATOM      2  C   UNL     1      -9.715   4.829   6.739  1.00  0.00     0.339 C 
ATOM      3  C   UNL     1     -11.795   3.665   6.712  1.00  0.00     0.199 C 
ATOM      4  C   UNL     1     -12.252   4.306   8.055  1.00  0.00     0.180 C 
ATOM      5  O   UNL     1     -10.377   3.577   6.604  1.00  0.00    -0.328 OA
ATOM      6  C   UNL     1     -11.506   5.618   8.361  1.00  0.00     0.181 C 
ATOM      7  C   UNL     1      -9.990   5.471   8.114  1.00  0.00     0.214 C 
BRANCH   3   8
ATOM      8  C   UNL     1     -12.423   4.273   5.476  1.00  0.00     0.073 C 
ATOM      9  O   UNL     1     -13.492   4.927   5.582  1.00  0.00    -0.547 OA
ATOM     10  O   UNL     1     -11.808   4.180   4.232  1.00  0.00    -0.547 OA
ENDBRANCH   3   8
BRANCH   4  11
ATOM     11  O   UNL     1     -12.114   3.398   9.123  1.00  0.00    -0.387 OA
ATOM     12  H   UNL     1     -11.952   2.493   8.747  1.00  0.00     0.211 HD
ENDBRANCH   4  11
BRANCH   6  13
ATOM     13  O   UNL     1     -12.034   6.647   7.564  1.00  0.00    -0.387 OA
ATOM     14  H   UNL     1     -13.015   6.659   7.716  1.00  0.00     0.211 HD
ENDBRANCH   6  13
BRANCH   7  15
ATOM     15  O   UNL     1      -9.406   4.681   9.115  1.00  0.00    -0.384 OA
ATOM     16  H   UNL     1      -8.588   4.275   8.722  1.00  0.00     0.211 HD
ENDBRANCH   7  15
ENDBRANCH   1   2
BRANCH   1  17
ATOM     17  C   UNL     1     -10.000   7.104   5.647  1.00  0.00     0.172 A 
ATOM     18  C   UNL     1     -11.135   7.934   5.499  1.00  0.00     0.201 A 
ATOM     19  C   UNL     1      -8.742   7.679   5.813  1.00  0.00     0.098 A 
ATOM     20  C   UNL     1     -10.973   9.342   5.417  1.00  0.00     0.176 A 
ATOM     21  C   UNL     1      -8.571   9.061   5.771  1.00  0.00     0.146 A 
ATOM     22  C   UNL     1      -9.682   9.908   5.564  1.00  0.00     0.111 A 
ATOM     23  O   UNL     1      -7.350   9.564   5.916  1.00  0.00    -0.456 OA
ATOM     24  C   UNL     1      -9.435  11.297   5.501  1.00  0.00     0.197 A 
ATOM     25  C   UNL     1      -7.084  10.867   5.874  1.00  0.00     0.138 A 
ATOM     26  C   UNL     1      -8.132  11.776   5.653  1.00  0.00     0.100 A 
ATOM     27  O   UNL     1     -10.366  12.125   5.310  1.00  0.00    -0.289 OA
BRANCH  18  28
ATOM     28  O   UNL     1     -12.400   7.346   5.471  1.00  0.00    -0.502 OA
ATOM     29  H   UNL     1     -13.081   7.488   4.736  1.00  0.00     0.293 HD
ENDBRANCH  18  28
BRANCH  20  30
ATOM     30  O   UNL     1     -12.063  10.186   5.181  1.00  0.00    -0.504 OA
ATOM     31  H   UNL     1     -12.008  11.195   5.153  1.00  0.00     0.293 HD
ENDBRANCH  20  30
BRANCH  25  32
ATOM     32  C   UNL     1      -5.678  11.313   6.045  1.00  0.00     0.017 A 
ATOM     33  C   UNL     1      -4.831  11.374   4.922  1.00  0.00     0.012 A 
ATOM     34  C   UNL     1      -5.153  11.651   7.310  1.00  0.00     0.012 A 
ATOM     35  C   UNL     1      -3.501  11.784   5.056  1.00  0.00     0.001 A 
ATOM     36  C   UNL     1      -3.820  12.056   7.439  1.00  0.00     0.001 A 
ATOM     37  C   UNL     1      -2.996  12.125   6.313  1.00  0.00     0.000 A 
ENDBRANCH  25  32
ENDBRANCH   1  17
TORSDOF 9
ENDMDL
