MODEL 1
REMARK VINA RESULT:    -3.250      0.000      0.000
REMARK INTER + INTRA:          -7.262
REMARK INTER:                  -5.909
REMARK INTRA:                  -1.353
REMARK UNBOUND:                -1.353
REMARK SMILES CCCCCCCCCCCCCCCC(=O)[O-]
REMARK SMILES IDX 9 1 10 2 11 3 12 4 13 5 14 6 15 7 16 8 17 9 18 10 8 11 7 12
REMARK SMILES IDX 6 13 5 14 4 15 3 16 2 17 1 18
REMARK H PARENT
REMARK Flexibility Score: inf
ROOT
ATOM      1  C   UNL     1      39.767 -32.089  10.152  1.00  0.00     0.000 C 
ENDROOT
BRANCH   1   2
ATOM      2  C   UNL     1      41.030 -32.032  11.026  1.00  0.00     0.000 C 
BRANCH   2   3
ATOM      3  C   UNL     1      41.414 -30.595  11.416  1.00  0.00     0.000 C 
BRANCH   3   4
ATOM      4  C   UNL     1      42.902 -30.293  11.177  1.00  0.00     0.000 C 
BRANCH   4   5
ATOM      5  C   UNL     1      43.499 -31.261  10.144  1.00  0.00     0.000 C 
BRANCH   5   6
ATOM      6  C   UNL     1      44.944 -31.674  10.477  1.00  0.00     0.006 C 
BRANCH   6   7
ATOM      7  C   UNL     1      45.134 -32.224  11.900  1.00  0.00     0.053 C 
BRANCH   7   8
ATOM      8  C   UNL     1      45.043 -33.719  11.942  1.00  0.00     0.041 C 
ATOM      9  O   UNL     1      46.065 -34.408  12.196  1.00  0.00    -0.550 OA
ATOM     10  O   UNL     1      43.837 -34.351  11.667  1.00  0.00    -0.550 OA
ENDBRANCH   7   8
ENDBRANCH   6   7
ENDBRANCH   5   6
ENDBRANCH   4   5
ENDBRANCH   3   4
ENDBRANCH   2   3
ENDBRANCH   1   2
BRANCH   1  11
ATOM     11  C   UNL     1      39.082 -30.718   9.999  1.00  0.00     0.000 C 
BRANCH  11  12
ATOM     12  C   UNL     1      37.774 -30.547  10.799  1.00  0.00    -0.000 C 
BRANCH  12  13
ATOM     13  C   UNL     1      37.126 -29.152  10.701  1.00  0.00    -0.000 C 
BRANCH  13  14
ATOM     14  C   UNL     1      35.587 -29.156  10.627  1.00  0.00    -0.000 C 
BRANCH  14  15
ATOM     15  C   UNL     1      35.000 -29.179   9.201  1.00  0.00    -0.000 C 
BRANCH  15  16
ATOM     16  C   UNL     1      34.822 -30.582   8.593  1.00  0.00    -0.000 C 
BRANCH  16  17
ATOM     17  C   UNL     1      35.893 -30.918   7.544  1.00  0.00    -0.003 C 
ATOM     18  C   UNL     1      36.456 -29.650   6.908  1.00  0.00     0.004 C 
ENDBRANCH  16  17
ENDBRANCH  15  16
ENDBRANCH  14  15
ENDBRANCH  13  14
ENDBRANCH  12  13
ENDBRANCH  11  12
ENDBRANCH   1  11
TORSDOF 14
ENDMDL
MODEL 2
REMARK VINA RESULT:    -3.249      1.314      2.116
REMARK INTER + INTRA:          -7.260
REMARK INTER:                  -6.044
REMARK INTRA:                  -1.216
REMARK UNBOUND:                -1.353
REMARK SMILES CCCCCCCCCCCCCCCC(=O)[O-]
REMARK SMILES IDX 9 1 10 2 11 3 12 4 13 5 14 6 15 7 16 8 17 9 18 10 8 11 7 12
REMARK SMILES IDX 6 13 5 14 4 15 3 16 2 17 1 18
REMARK H PARENT
REMARK Flexibility Score: inf
ROOT
ATOM      1  C   UNL     1      41.191 -31.823  10.204  1.00  0.00     0.000 C 
ENDROOT
BRANCH   1   2
ATOM      2  C   UNL     1      41.794 -30.409  10.157  1.00  0.00     0.000 C 
BRANCH   2   3
ATOM      3  C   UNL     1      43.331 -30.424  10.151  1.00  0.00     0.000 C 
BRANCH   3   4
ATOM      4  C   UNL     1      43.932 -30.201  11.548  1.00  0.00     0.000 C 
BRANCH   4   5
ATOM      5  C   UNL     1      45.283 -30.921  11.684  1.00  0.00     0.000 C 
BRANCH   5   6
ATOM      6  C   UNL     1      45.307 -31.930  12.847  1.00  0.00     0.006 C 
BRANCH   6   7
ATOM      7  C   UNL     1      45.662 -33.367  12.433  1.00  0.00     0.053 C 
BRANCH   7   8
ATOM      8  C   UNL     1      44.472 -34.117  11.919  1.00  0.00     0.041 C 
ATOM      9  O   UNL     1      44.013 -33.868  10.774  1.00  0.00    -0.550 OA
ATOM     10  O   UNL     1      43.848 -35.065  12.719  1.00  0.00    -0.550 OA
ENDBRANCH   7   8
ENDBRANCH   6   7
ENDBRANCH   5   6
ENDBRANCH   4   5
ENDBRANCH   3   4
ENDBRANCH   2   3
ENDBRANCH   1   2
BRANCH   1  11
ATOM     11  C   UNL     1      40.566 -32.162  11.570  1.00  0.00     0.000 C 
BRANCH  11  12
ATOM     12  C   UNL     1      39.549 -31.129  12.099  1.00  0.00    -0.000 C 
BRANCH  12  13
ATOM     13  C   UNL     1      38.158 -31.184  11.439  1.00  0.00    -0.000 C 
BRANCH  13  14
ATOM     14  C   UNL     1      37.746 -29.903  10.688  1.00  0.00    -0.000 C 
BRANCH  14  15
ATOM     15  C   UNL     1      37.873 -29.976   9.152  1.00  0.00    -0.000 C 
BRANCH  15  16
ATOM     16  C   UNL     1      36.652 -29.457   8.373  1.00  0.00    -0.000 C 
BRANCH  16  17
ATOM     17  C   UNL     1      35.640 -30.565   8.043  1.00  0.00    -0.003 C 
ATOM     18  C   UNL     1      34.452 -30.527   9.000  1.00  0.00     0.004 C 
ENDBRANCH  16  17
ENDBRANCH  15  16
ENDBRANCH  14  15
ENDBRANCH  13  14
ENDBRANCH  12  13
ENDBRANCH  11  12
ENDBRANCH   1  11
TORSDOF 14
ENDMDL
MODEL 3
REMARK VINA RESULT:    -3.212      2.018      3.909
REMARK INTER + INTRA:          -7.193
REMARK INTER:                  -5.038
REMARK INTRA:                  -2.155
REMARK UNBOUND:                -1.353
REMARK SMILES CCCCCCCCCCCCCCCC(=O)[O-]
REMARK SMILES IDX 9 1 10 2 11 3 12 4 13 5 14 6 15 7 16 8 17 9 18 10 8 11 7 12
REMARK SMILES IDX 6 13 5 14 4 15 3 16 2 17 1 18
REMARK H PARENT
REMARK Flexibility Score: inf
ROOT
ATOM      1  C   UNL     1      43.773 -29.399   9.542  1.00  0.00     0.000 C 
ENDROOT
BRANCH   1   2
ATOM      2  C   UNL     1      44.757 -30.579   9.485  1.00  0.00     0.000 C 
BRANCH   2   3
ATOM      3  C   UNL     1      45.927 -30.420  10.470  1.00  0.00     0.000 C 
BRANCH   3   4
ATOM      4  C   UNL     1      45.598 -29.471  11.634  1.00  0.00     0.000 C 
BRANCH   4   5
ATOM      5  C   UNL     1      44.886 -30.223  12.769  1.00  0.00     0.000 C 
BRANCH   5   6
ATOM      6  C   UNL     1      45.459 -31.633  13.002  1.00  0.00     0.006 C 
BRANCH   6   7
ATOM      7  C   UNL     1      44.421 -32.763  12.906  1.00  0.00     0.053 C 
BRANCH   7   8
ATOM      8  C   UNL     1      44.831 -33.823  11.931  1.00  0.00     0.041 C 
ATOM      9  O   UNL     1      44.127 -34.055  10.913  1.00  0.00    -0.550 OA
ATOM     10  O   UNL     1      45.972 -34.580  12.165  1.00  0.00    -0.550 OA
ENDBRANCH   7   8
ENDBRANCH   6   7
ENDBRANCH   5   6
ENDBRANCH   4   5
ENDBRANCH   3   4
ENDBRANCH   2   3
ENDBRANCH   1   2
BRANCH   1  11
ATOM     11  C   UNL     1      42.403 -29.791  10.126  1.00  0.00     0.000 C 
BRANCH  11  12
ATOM     12  C   UNL     1      42.053 -31.290  10.026  1.00  0.00    -0.000 C 
BRANCH  12  13
ATOM     13  C   UNL     1      41.412 -31.897  11.289  1.00  0.00    -0.000 C 
BRANCH  13  14
ATOM     14  C   UNL     1      41.028 -30.874  12.376  1.00  0.00    -0.000 C 
BRANCH  14  15
ATOM     15  C   UNL     1      39.532 -30.498  12.421  1.00  0.00    -0.000 C 
BRANCH  15  16
ATOM     16  C   UNL     1      38.626 -31.322  11.490  1.00  0.00    -0.000 C 
BRANCH  16  17
ATOM     17  C   UNL     1      37.805 -30.448  10.530  1.00  0.00    -0.003 C 
ATOM     18  C   UNL     1      38.713 -29.582   9.662  1.00  0.00     0.004 C 
ENDBRANCH  16  17
ENDBRANCH  15  16
ENDBRANCH  14  15
ENDBRANCH  13  14
ENDBRANCH  12  13
ENDBRANCH  11  12
ENDBRANCH   1  11
TORSDOF 14
ENDMDL
MODEL 4
REMARK VINA RESULT:    -3.157      3.800      8.301
REMARK INTER + INTRA:          -7.094
REMARK INTER:                  -5.546
REMARK INTRA:                  -1.548
REMARK UNBOUND:                -1.353
REMARK SMILES CCCCCCCCCCCCCCCC(=O)[O-]
REMARK SMILES IDX 9 1 10 2 11 3 12 4 13 5 14 6 15 7 16 8 17 9 18 10 8 11 7 12
REMARK SMILES IDX 6 13 5 14 4 15 3 16 2 17 1 18
REMARK H PARENT
REMARK Flexibility Score: inf
ROOT
ATOM      1  C   UNL     1      42.392 -29.790   9.762  1.00  0.00     0.000 C 
ENDROOT
BRANCH   1   2
ATOM      2  C   UNL     1      42.022 -30.874  10.788  1.00  0.00     0.000 C 
BRANCH   2   3
ATOM      3  C   UNL     1      40.870 -31.772  10.308  1.00  0.00     0.000 C 
BRANCH   3   4
ATOM      4  C   UNL     1      39.884 -32.124  11.433  1.00  0.00     0.000 C 
BRANCH   4   5
ATOM      5  C   UNL     1      38.540 -31.409  11.227  1.00  0.00     0.000 C 
BRANCH   5   6
ATOM      6  C   UNL     1      38.581 -30.378  10.085  1.00  0.00     0.006 C 
BRANCH   6   7
ATOM      7  C   UNL     1      37.570 -30.640   8.957  1.00  0.00     0.053 C 
BRANCH   7   8
ATOM      8  C   UNL     1      36.437 -29.661   8.977  1.00  0.00     0.041 C 
ATOM      9  O   UNL     1      36.112 -29.046   7.928  1.00  0.00    -0.550 OA
ATOM     10  O   UNL     1      35.762 -29.402  10.163  1.00  0.00    -0.550 OA
ENDBRANCH   7   8
ENDBRANCH   6   7
ENDBRANCH   5   6
ENDBRANCH   4   5
ENDBRANCH   3   4
ENDBRANCH   2   3
ENDBRANCH   1   2
BRANCH   1  11
ATOM     11  C   UNL     1      43.914 -29.617   9.597  1.00  0.00     0.000 C 
BRANCH  11  12
ATOM     12  C   UNL     1      44.740 -30.909   9.759  1.00  0.00    -0.000 C 
BRANCH  12  13
ATOM     13  C   UNL     1      45.929 -30.807  10.735  1.00  0.00    -0.000 C 
BRANCH  13  14
ATOM     14  C   UNL     1      45.545 -30.480  12.192  1.00  0.00    -0.000 C 
BRANCH  14  15
ATOM     15  C   UNL     1      44.998 -31.671  13.007  1.00  0.00    -0.000 C 
BRANCH  15  16
ATOM     16  C   UNL     1      45.763 -32.993  12.819  1.00  0.00    -0.000 C 
BRANCH  16  17
ATOM     17  C   UNL     1      44.835 -34.214  12.741  1.00  0.00    -0.003 C 
ATOM     18  C   UNL     1      43.862 -34.091  11.572  1.00  0.00     0.004 C 
ENDBRANCH  16  17
ENDBRANCH  15  16
ENDBRANCH  14  15
ENDBRANCH  13  14
ENDBRANCH  12  13
ENDBRANCH  11  12
ENDBRANCH   1  11
TORSDOF 14
ENDMDL
MODEL 5
REMARK VINA RESULT:    -3.103      3.742      8.150
REMARK INTER + INTRA:          -6.996
REMARK INTER:                  -5.516
REMARK INTRA:                  -1.479
REMARK UNBOUND:                -1.353
REMARK SMILES CCCCCCCCCCCCCCCC(=O)[O-]
REMARK SMILES IDX 9 1 10 2 11 3 12 4 13 5 14 6 15 7 16 8 17 9 18 10 8 11 7 12
REMARK SMILES IDX 6 13 5 14 4 15 3 16 2 17 1 18
REMARK H PARENT
REMARK Flexibility Score: inf
ROOT
ATOM      1  C   UNL     1      41.587 -32.647  12.417  1.00  0.00     0.000 C 
ENDROOT
BRANCH   1   2
ATOM      2  C   UNL     1      41.845 -31.247  11.837  1.00  0.00     0.000 C 
BRANCH   2   3
ATOM      3  C   UNL     1      40.910 -30.913  10.663  1.00  0.00     0.000 C 
BRANCH   3   4
ATOM      4  C   UNL     1      39.485 -31.450  10.867  1.00  0.00     0.000 C 
BRANCH   4   5
ATOM      5  C   UNL     1      38.610 -31.164   9.636  1.00  0.00     0.000 C 
BRANCH   5   6
ATOM      6  C   UNL     1      37.728 -29.914   9.809  1.00  0.00     0.006 C 
BRANCH   6   7
ATOM      7  C   UNL     1      37.032 -29.447   8.521  1.00  0.00     0.053 C 
BRANCH   7   8
ATOM      8  C   UNL     1      36.022 -30.441   8.034  1.00  0.00     0.041 C 
ATOM      9  O   UNL     1      36.230 -31.089   6.975  1.00  0.00    -0.550 OA
ATOM     10  O   UNL     1      34.834 -30.624   8.731  1.00  0.00    -0.550 OA
ENDBRANCH   7   8
ENDBRANCH   6   7
ENDBRANCH   5   6
ENDBRANCH   4   5
ENDBRANCH   3   4
ENDBRANCH   2   3
ENDBRANCH   1   2
BRANCH   1  11
ATOM     11  C   UNL     1      42.853 -33.292  13.010  1.00  0.00     0.000 C 
BRANCH  11  12
ATOM     12  C   UNL     1      43.682 -34.136  12.021  1.00  0.00    -0.000 C 
BRANCH  12  13
ATOM     13  C   UNL     1      45.119 -33.634  11.778  1.00  0.00    -0.000 C 
BRANCH  13  14
ATOM     14  C   UNL     1      45.457 -32.287  12.448  1.00  0.00    -0.000 C 
BRANCH  14  15
ATOM     15  C   UNL     1      45.629 -31.100  11.479  1.00  0.00    -0.000 C 
BRANCH  15  16
ATOM     16  C   UNL     1      45.027 -31.311  10.079  1.00  0.00    -0.000 C 
BRANCH  16  17
ATOM     17  C   UNL     1      44.792 -29.994   9.325  1.00  0.00    -0.003 C 
ATOM     18  C   UNL     1      44.310 -28.898  10.270  1.00  0.00     0.004 C 
ENDBRANCH  16  17
ENDBRANCH  15  16
ENDBRANCH  14  15
ENDBRANCH  13  14
ENDBRANCH  12  13
ENDBRANCH  11  12
ENDBRANCH   1  11
TORSDOF 14
ENDMDL
MODEL 6
REMARK VINA RESULT:    -3.092      1.815      2.644
REMARK INTER + INTRA:          -6.975
REMARK INTER:                  -5.686
REMARK INTRA:                  -1.288
REMARK UNBOUND:                -1.353
REMARK SMILES CCCCCCCCCCCCCCCC(=O)[O-]
REMARK SMILES IDX 9 1 10 2 11 3 12 4 13 5 14 6 15 7 16 8 17 9 18 10 8 11 7 12
REMARK SMILES IDX 6 13 5 14 4 15 3 16 2 17 1 18
REMARK H PARENT
REMARK Flexibility Score: inf
ROOT
ATOM      1  C   UNL     1      40.798 -31.920  10.467  1.00  0.00     0.000 C 
ENDROOT
BRANCH   1   2
ATOM      2  C   UNL     1      42.130 -32.007  11.229  1.00  0.00     0.000 C 
BRANCH   2   3
ATOM      3  C   UNL     1      41.975 -32.642  12.621  1.00  0.00     0.000 C 
BRANCH   3   4
ATOM      4  C   UNL     1      43.035 -33.718  12.904  1.00  0.00     0.000 C 
BRANCH   4   5
ATOM      5  C   UNL     1      43.877 -34.001  11.651  1.00  0.00     0.000 C 
BRANCH   5   6
ATOM      6  C   UNL     1      45.383 -33.783  11.882  1.00  0.00     0.006 C 
BRANCH   6   7
ATOM      7  C   UNL     1      45.716 -32.635  12.849  1.00  0.00     0.053 C 
BRANCH   7   8
ATOM      8  C   UNL     1      45.553 -31.292  12.207  1.00  0.00     0.041 C 
ATOM      9  O   UNL     1      45.806 -31.139  10.984  1.00  0.00    -0.550 OA
ATOM     10  O   UNL     1      45.155 -30.200  12.969  1.00  0.00    -0.550 OA
ENDBRANCH   7   8
ENDBRANCH   6   7
ENDBRANCH   5   6
ENDBRANCH   4   5
ENDBRANCH   3   4
ENDBRANCH   2   3
ENDBRANCH   1   2
BRANCH   1  11
ATOM     11  C   UNL     1      39.582 -32.258  11.349  1.00  0.00     0.000 C 
BRANCH  11  12
ATOM     12  C   UNL     1      38.532 -31.135  11.475  1.00  0.00    -0.000 C 
BRANCH  12  13
ATOM     13  C   UNL     1      39.040 -29.723  11.121  1.00  0.00    -0.000 C 
BRANCH  13  14
ATOM     14  C   UNL     1      38.441 -29.123   9.834  1.00  0.00    -0.000 C 
BRANCH  14  15
ATOM     15  C   UNL     1      37.597 -30.099   8.989  1.00  0.00    -0.000 C 
BRANCH  15  16
ATOM     16  C   UNL     1      36.483 -29.442   8.156  1.00  0.00    -0.000 C 
BRANCH  16  17
ATOM     17  C   UNL     1      35.217 -29.152   8.976  1.00  0.00    -0.003 C 
ATOM     18  C   UNL     1      34.249 -30.331   8.928  1.00  0.00     0.004 C 
ENDBRANCH  16  17
ENDBRANCH  15  16
ENDBRANCH  14  15
ENDBRANCH  13  14
ENDBRANCH  12  13
ENDBRANCH  11  12
ENDBRANCH   1  11
TORSDOF 14
ENDMDL
MODEL 7
REMARK VINA RESULT:    -3.035      3.648      8.542
REMARK INTER + INTRA:          -6.871
REMARK INTER:                  -5.697
REMARK INTRA:                  -1.174
REMARK UNBOUND:                -1.353
REMARK SMILES CCCCCCCCCCCCCCCC(=O)[O-]
REMARK SMILES IDX 9 1 10 2 11 3 12 4 13 5 14 6 15 7 16 8 17 9 18 10 8 11 7 12
REMARK SMILES IDX 6 13 5 14 4 15 3 16 2 17 1 18
REMARK H PARENT
REMARK Flexibility Score: inf
ROOT
ATOM      1  C   UNL     1      41.350 -31.346  10.466  1.00  0.00     0.000 C 
ENDROOT
BRANCH   1   2
ATOM      2  C   UNL     1      39.816 -31.434  10.414  1.00  0.00     0.000 C 
BRANCH   2   3
ATOM      3  C   UNL     1      39.172 -30.175   9.811  1.00  0.00     0.000 C 
BRANCH   3   4
ATOM      4  C   UNL     1      38.215 -29.472  10.787  1.00  0.00     0.000 C 
BRANCH   4   5
ATOM      5  C   UNL     1      37.009 -30.368  11.111  1.00  0.00     0.000 C 
BRANCH   5   6
ATOM      6  C   UNL     1      35.668 -29.733  10.701  1.00  0.00     0.006 C 
BRANCH   6   7
ATOM      7  C   UNL     1      35.632 -29.201   9.259  1.00  0.00     0.053 C 
BRANCH   7   8
ATOM      8  C   UNL     1      35.440 -30.298   8.258  1.00  0.00     0.041 C 
ATOM      9  O   UNL     1      34.462 -31.084   8.359  1.00  0.00    -0.550 OA
ATOM     10  O   UNL     1      36.361 -30.475   7.233  1.00  0.00    -0.550 OA
ENDBRANCH   7   8
ENDBRANCH   6   7
ENDBRANCH   5   6
ENDBRANCH   4   5
ENDBRANCH   3   4
ENDBRANCH   2   3
ENDBRANCH   1   2
BRANCH   1  11
ATOM     11  C   UNL     1      41.877 -29.925  10.190  1.00  0.00     0.000 C 
BRANCH  11  12
ATOM     12  C   UNL     1      43.392 -29.832   9.913  1.00  0.00    -0.000 C 
BRANCH  12  13
ATOM     13  C   UNL     1      44.121 -31.185   9.802  1.00  0.00    -0.000 C 
BRANCH  13  14
ATOM     14  C   UNL     1      45.366 -31.325  10.700  1.00  0.00    -0.000 C 
BRANCH  14  15
ATOM     15  C   UNL     1      45.075 -31.434  12.210  1.00  0.00    -0.000 C 
BRANCH  15  16
ATOM     16  C   UNL     1      45.508 -32.758  12.863  1.00  0.00    -0.000 C 
BRANCH  16  17
ATOM     17  C   UNL     1      45.219 -33.981  11.980  1.00  0.00    -0.003 C 
ATOM     18  C   UNL     1      43.783 -34.465  12.163  1.00  0.00     0.004 C 
ENDBRANCH  16  17
ENDBRANCH  15  16
ENDBRANCH  14  15
ENDBRANCH  13  14
ENDBRANCH  12  13
ENDBRANCH  11  12
ENDBRANCH   1  11
TORSDOF 14
ENDMDL
MODEL 8
REMARK VINA RESULT:    -2.996      1.712      2.192
REMARK INTER + INTRA:          -6.801
REMARK INTER:                  -5.166
REMARK INTRA:                  -1.635
REMARK UNBOUND:                -1.353
REMARK SMILES CCCCCCCCCCCCCCCC(=O)[O-]
REMARK SMILES IDX 9 1 10 2 11 3 12 4 13 5 14 6 15 7 16 8 17 9 18 10 8 11 7 12
REMARK SMILES IDX 6 13 5 14 4 15 3 16 2 17 1 18
REMARK H PARENT
REMARK Flexibility Score: inf
ROOT
ATOM      1  C   UNL     1      38.896 -31.193   9.811  1.00  0.00     0.000 C 
ENDROOT
BRANCH   1   2
ATOM      2  C   UNL     1      40.106 -32.029  10.257  1.00  0.00     0.000 C 
BRANCH   2   3
ATOM      3  C   UNL     1      40.226 -32.126  11.787  1.00  0.00     0.000 C 
BRANCH   3   4
ATOM      4  C   UNL     1      41.619 -31.724  12.300  1.00  0.00     0.000 C 
BRANCH   4   5
ATOM      5  C   UNL     1      42.462 -32.967  12.623  1.00  0.00     0.000 C 
BRANCH   5   6
ATOM      6  C   UNL     1      43.846 -32.940  11.948  1.00  0.00     0.006 C 
BRANCH   6   7
ATOM      7  C   UNL     1      43.833 -32.446  10.493  1.00  0.00     0.053 C 
BRANCH   7   8
ATOM      8  C   UNL     1      44.863 -31.387  10.248  1.00  0.00     0.041 C 
ATOM      9  O   UNL     1      45.671 -31.067  11.157  1.00  0.00    -0.550 OA
ATOM     10  O   UNL     1      44.906 -30.728   9.025  1.00  0.00    -0.550 OA
ENDBRANCH   7   8
ENDBRANCH   6   7
ENDBRANCH   5   6
ENDBRANCH   4   5
ENDBRANCH   3   4
ENDBRANCH   2   3
ENDBRANCH   1   2
BRANCH   1  11
ATOM     11  C   UNL     1      39.069 -29.690  10.097  1.00  0.00     0.000 C 
BRANCH  11  12
ATOM     12  C   UNL     1      38.030 -29.083  11.062  1.00  0.00    -0.000 C 
BRANCH  12  13
ATOM     13  C   UNL     1      36.929 -30.054  11.533  1.00  0.00    -0.000 C 
BRANCH  13  14
ATOM     14  C   UNL     1      35.495 -29.645  11.143  1.00  0.00    -0.000 C 
BRANCH  14  15
ATOM     15  C   UNL     1      35.077 -30.017   9.706  1.00  0.00    -0.000 C 
BRANCH  15  16
ATOM     16  C   UNL     1      35.438 -28.976   8.633  1.00  0.00    -0.000 C 
BRANCH  16  17
ATOM     17  C   UNL     1      36.343 -29.544   7.530  1.00  0.00    -0.003 C 
ATOM     18  C   UNL     1      36.150 -31.051   7.383  1.00  0.00     0.004 C 
ENDBRANCH  16  17
ENDBRANCH  15  16
ENDBRANCH  14  15
ENDBRANCH  13  14
ENDBRANCH  12  13
ENDBRANCH  11  12
ENDBRANCH   1  11
TORSDOF 14
ENDMDL
MODEL 9
REMARK VINA RESULT:    -2.871      3.919      8.024
REMARK INTER + INTRA:          -6.573
REMARK INTER:                  -5.079
REMARK INTRA:                  -1.493
REMARK UNBOUND:                -1.353
REMARK SMILES CCCCCCCCCCCCCCCC(=O)[O-]
REMARK SMILES IDX 9 1 10 2 11 3 12 4 13 5 14 6 15 7 16 8 17 9 18 10 8 11 7 12
REMARK SMILES IDX 6 13 5 14 4 15 3 16 2 17 1 18
REMARK H PARENT
REMARK Flexibility Score: inf
ROOT
ATOM      1  C   UNL     1      39.756 -32.189  11.701  1.00  0.00     0.000 C 
ENDROOT
BRANCH   1   2
ATOM      2  C   UNL     1      38.329 -31.637  11.859  1.00  0.00     0.000 C 
BRANCH   2   3
ATOM      3  C   UNL     1      38.274 -30.398  12.768  1.00  0.00     0.000 C 
BRANCH   3   4
ATOM      4  C   UNL     1      37.233 -29.367  12.302  1.00  0.00     0.000 C 
BRANCH   4   5
ATOM      5  C   UNL     1      36.312 -29.966  11.228  1.00  0.00     0.000 C 
BRANCH   5   6
ATOM      6  C   UNL     1      36.326 -29.162   9.915  1.00  0.00     0.006 C 
BRANCH   6   7
ATOM      7  C   UNL     1      37.022 -29.874   8.743  1.00  0.00     0.053 C 
BRANCH   7   8
ATOM      8  C   UNL     1      36.048 -30.330   7.701  1.00  0.00     0.041 C 
ATOM      9  O   UNL     1      36.269 -30.102   6.484  1.00  0.00    -0.550 OA
ATOM     10  O   UNL     1      34.877 -30.976   8.079  1.00  0.00    -0.550 OA
ENDBRANCH   7   8
ENDBRANCH   6   7
ENDBRANCH   5   6
ENDBRANCH   4   5
ENDBRANCH   3   4
ENDBRANCH   2   3
ENDBRANCH   1   2
BRANCH   1  11
ATOM     11  C   UNL     1      40.644 -31.913  12.928  1.00  0.00     0.000 C 
BRANCH  11  12
ATOM     12  C   UNL     1      41.891 -31.048  12.652  1.00  0.00    -0.000 C 
BRANCH  12  13
ATOM     13  C   UNL     1      41.954 -30.423  11.244  1.00  0.00    -0.000 C 
BRANCH  13  14
ATOM     14  C   UNL     1      42.810 -31.203  10.227  1.00  0.00    -0.000 C 
BRANCH  14  15
ATOM     15  C   UNL     1      44.043 -31.916  10.819  1.00  0.00    -0.000 C 
BRANCH  15  16
ATOM     16  C   UNL     1      43.998 -33.453  10.757  1.00  0.00    -0.000 C 
BRANCH  16  17
ATOM     17  C   UNL     1      43.992 -34.106  12.147  1.00  0.00    -0.003 C 
ATOM     18  C   UNL     1      44.866 -33.326  13.125  1.00  0.00     0.004 C 
ENDBRANCH  16  17
ENDBRANCH  15  16
ENDBRANCH  14  15
ENDBRANCH  13  14
ENDBRANCH  12  13
ENDBRANCH  11  12
ENDBRANCH   1  11
TORSDOF 14
ENDMDL
