MODEL 1
REMARK VINA RESULT:    -8.019      0.000      0.000
REMARK INTER + INTRA:          -9.712
REMARK INTER:                  -9.425
REMARK INTRA:                  -0.286
REMARK UNBOUND:                -0.286
REMARK SMILES O=c1cc(-c2ccc(O)c(O)c2)oc2cc(O)cc(O)c12
REMARK SMILES IDX 4 1 3 2 2 3 1 4 21 5 19 6 18 7 16 8 15 9 14 10 13 11 5 12
REMARK SMILES IDX 6 13 7 14 8 15 12 16 10 17 9 18 11 20 20 22 17 24
REMARK H PARENT 9 19 11 21 20 23 17 25
REMARK Flexibility Score: inf
ROOT
ATOM      1  C   UNL     1      17.549  22.571  40.330  1.00  0.00     0.138 A 
ATOM      2  C   UNL     1      17.207  23.619  39.466  1.00  0.00     0.100 A 
ATOM      3  C   UNL     1      16.086  24.404  39.742  1.00  0.00     0.197 A 
ATOM      4  O   UNL     1      15.841  25.377  38.983  1.00  0.00    -0.289 OA
ATOM      5  C   UNL     1      15.287  24.114  40.874  1.00  0.00     0.107 A 
ATOM      6  C   UNL     1      14.100  24.820  41.232  1.00  0.00     0.134 A 
ATOM      7  C   UNL     1      13.455  24.519  42.438  1.00  0.00     0.093 A 
ATOM      8  C   UNL     1      13.922  23.497  43.269  1.00  0.00     0.123 A 
ATOM      9  C   UNL     1      15.049  22.767  42.902  1.00  0.00     0.094 A 
ATOM     10  C   UNL     1      15.734  23.065  41.721  1.00  0.00     0.146 A 
ATOM     11  O   UNL     1      16.814  22.354  41.416  1.00  0.00    -0.456 OA
ENDROOT
BRANCH   1  12
ATOM     12  C   UNL     1      18.730  21.705  40.083  1.00  0.00     0.021 A 
ATOM     13  C   UNL     1      18.783  20.377  40.547  1.00  0.00     0.016 A 
ATOM     14  C   UNL     1      19.912  19.588  40.310  1.00  0.00     0.051 A 
ATOM     15  C   UNL     1      21.008  20.111  39.613  1.00  0.00     0.157 A 
ATOM     16  C   UNL     1      19.841  22.227  39.396  1.00  0.00     0.062 A 
ATOM     17  C   UNL     1      20.972  21.439  39.156  1.00  0.00     0.158 A 
BRANCH  15  18
ATOM     18  O   UNL     1      22.131  19.320  39.377  1.00  0.00    -0.504 OA
ATOM     19  H   UNL     1      22.972  19.411  39.936  1.00  0.00     0.293 HD
ENDBRANCH  15  18
BRANCH  17  20
ATOM     20  O   UNL     1      22.048  21.991  38.463  1.00  0.00    -0.504 OA
ATOM     21  H   UNL     1      22.448  22.887  38.715  1.00  0.00     0.293 HD
ENDBRANCH  17  20
ENDBRANCH   1  12
BRANCH   6  22
ATOM     22  O   UNL     1      13.502  25.800  40.433  1.00  0.00    -0.507 OA
ATOM     23  H   UNL     1      13.998  26.547  39.970  1.00  0.00     0.293 HD
ENDBRANCH   6  22
BRANCH   8  24
ATOM     24  O   UNL     1      13.265  23.194  44.460  1.00  0.00    -0.508 OA
ATOM     25  H   UNL     1      12.944  22.255  44.666  1.00  0.00     0.293 HD
ENDBRANCH   8  24
TORSDOF 5
ENDMDL
MODEL 2
REMARK VINA RESULT:    -8.008      1.482      7.311
REMARK INTER + INTRA:          -9.699
REMARK INTER:                  -9.433
REMARK INTRA:                  -0.266
REMARK UNBOUND:                -0.286
REMARK SMILES O=c1cc(-c2ccc(O)c(O)c2)oc2cc(O)cc(O)c12
REMARK SMILES IDX 4 1 3 2 2 3 1 4 21 5 19 6 18 7 16 8 15 9 14 10 13 11 5 12
REMARK SMILES IDX 6 13 7 14 8 15 12 16 10 17 9 18 11 20 20 22 17 24
REMARK H PARENT 9 19 11 21 20 23 17 25
REMARK Flexibility Score: inf
ROOT
ATOM      1  C   UNL     1      16.687  22.379  41.180  1.00  0.00     0.138 A 
ATOM      2  C   UNL     1      16.768  20.981  41.144  1.00  0.00     0.100 A 
ATOM      3  C   UNL     1      17.924  20.369  40.655  1.00  0.00     0.197 A 
ATOM      4  O   UNL     1      17.992  19.113  40.695  1.00  0.00    -0.289 OA
ATOM      5  C   UNL     1      18.990  21.164  40.171  1.00  0.00     0.107 A 
ATOM      6  C   UNL     1      20.199  20.649  39.614  1.00  0.00     0.134 A 
ATOM      7  C   UNL     1      21.232  21.531  39.274  1.00  0.00     0.093 A 
ATOM      8  C   UNL     1      21.076  22.913  39.417  1.00  0.00     0.123 A 
ATOM      9  C   UNL     1      19.881  23.427  39.911  1.00  0.00     0.094 A 
ATOM     10  C   UNL     1      18.843  22.572  40.290  1.00  0.00     0.146 A 
ATOM     11  O   UNL     1      17.724  23.103  40.770  1.00  0.00    -0.456 OA
ENDROOT
BRANCH   1  12
ATOM     12  C   UNL     1      15.482  23.082  41.688  1.00  0.00     0.021 A 
ATOM     13  C   UNL     1      14.782  24.015  40.899  1.00  0.00     0.016 A 
ATOM     14  C   UNL     1      13.657  24.670  41.408  1.00  0.00     0.051 A 
ATOM     15  C   UNL     1      13.216  24.412  42.711  1.00  0.00     0.157 A 
ATOM     16  C   UNL     1      15.041  22.839  43.001  1.00  0.00     0.062 A 
ATOM     17  C   UNL     1      13.914  23.493  43.512  1.00  0.00     0.158 A 
BRANCH  15  18
ATOM     18  O   UNL     1      12.093  25.066  43.213  1.00  0.00    -0.504 OA
ATOM     19  H   UNL     1      12.175  25.867  43.829  1.00  0.00     0.293 HD
ENDBRANCH  15  18
BRANCH  17  20
ATOM     20  O   UNL     1      13.504  23.217  44.815  1.00  0.00    -0.504 OA
ATOM     21  H   UNL     1      13.736  22.348  45.281  1.00  0.00     0.293 HD
ENDBRANCH  17  20
ENDBRANCH   1  12
BRANCH   6  22
ATOM     22  O   UNL     1      20.423  19.294  39.351  1.00  0.00    -0.507 OA
ATOM     23  H   UNL     1      19.716  18.640  39.051  1.00  0.00     0.293 HD
ENDBRANCH   6  22
BRANCH   8  24
ATOM     24  O   UNL     1      22.105  23.783  39.062  1.00  0.00    -0.508 OA
ATOM     25  H   UNL     1      22.579  23.709  38.169  1.00  0.00     0.293 HD
ENDBRANCH   8  24
TORSDOF 5
ENDMDL
MODEL 3
REMARK VINA RESULT:    -7.760      1.465      6.878
REMARK INTER + INTRA:          -9.407
REMARK INTER:                  -9.094
REMARK INTRA:                  -0.313
REMARK UNBOUND:                -0.286
REMARK SMILES O=c1cc(-c2ccc(O)c(O)c2)oc2cc(O)cc(O)c12
REMARK SMILES IDX 4 1 3 2 2 3 1 4 21 5 19 6 18 7 16 8 15 9 14 10 13 11 5 12
REMARK SMILES IDX 6 13 7 14 8 15 12 16 10 17 9 18 11 20 20 22 17 24
REMARK H PARENT 9 19 11 21 20 23 17 25
REMARK Flexibility Score: inf
ROOT
ATOM      1  C   UNL     1      16.210  23.235  40.915  1.00  0.00     0.138 A 
ATOM      2  C   UNL     1      16.586  24.090  39.870  1.00  0.00     0.100 A 
ATOM      3  C   UNL     1      17.706  23.781  39.095  1.00  0.00     0.197 A 
ATOM      4  O   UNL     1      17.983  24.533  38.125  1.00  0.00    -0.289 OA
ATOM      5  C   UNL     1      18.469  22.625  39.391  1.00  0.00     0.107 A 
ATOM      6  C   UNL     1      19.652  22.233  38.695  1.00  0.00     0.134 A 
ATOM      7  C   UNL     1      20.258  21.009  39.002  1.00  0.00     0.093 A 
ATOM      8  C   UNL     1      19.757  20.191  40.018  1.00  0.00     0.123 A 
ATOM      9  C   UNL     1      18.635  20.591  40.739  1.00  0.00     0.094 A 
ATOM     10  C   UNL     1      17.988  21.791  40.435  1.00  0.00     0.146 A 
ATOM     11  O   UNL     1      16.911  22.128  41.137  1.00  0.00    -0.456 OA
ENDROOT
BRANCH   1  12
ATOM     12  C   UNL     1      15.029  23.516  41.770  1.00  0.00     0.021 A 
ATOM     13  C   UNL     1      14.031  24.428  41.376  1.00  0.00     0.016 A 
ATOM     14  C   UNL     1      12.935  24.681  42.206  1.00  0.00     0.051 A 
ATOM     15  C   UNL     1      12.820  24.036  43.443  1.00  0.00     0.157 A 
ATOM     16  C   UNL     1      14.912  22.883  43.020  1.00  0.00     0.062 A 
ATOM     17  C   UNL     1      13.816  23.134  43.853  1.00  0.00     0.158 A 
BRANCH  15  18
ATOM     18  O   UNL     1      11.725  24.290  44.267  1.00  0.00    -0.504 OA
ATOM     19  H   UNL     1      11.052  23.566  44.495  1.00  0.00     0.293 HD
ENDBRANCH  15  18
BRANCH  17  20
ATOM     20  O   UNL     1      13.733  22.478  45.080  1.00  0.00    -0.504 OA
ATOM     21  H   UNL     1      12.868  22.423  45.604  1.00  0.00     0.293 HD
ENDBRANCH  17  20
ENDBRANCH   1  12
BRANCH   6  22
ATOM     22  O   UNL     1      20.281  23.015  37.722  1.00  0.00    -0.507 OA
ATOM     23  H   UNL     1      21.208  22.850  37.360  1.00  0.00     0.293 HD
ENDBRANCH   6  22
BRANCH   8  24
ATOM     24  O   UNL     1      20.377  18.981  40.326  1.00  0.00    -0.508 OA
ATOM     25  H   UNL     1      21.279  18.949  40.785  1.00  0.00     0.293 HD
ENDBRANCH   8  24
TORSDOF 5
ENDMDL
MODEL 4
REMARK VINA RESULT:    -7.759      1.714      7.052
REMARK INTER + INTRA:          -9.405
REMARK INTER:                  -9.088
REMARK INTRA:                  -0.317
REMARK UNBOUND:                -0.286
REMARK SMILES O=c1cc(-c2ccc(O)c(O)c2)oc2cc(O)cc(O)c12
REMARK SMILES IDX 4 1 3 2 2 3 1 4 21 5 19 6 18 7 16 8 15 9 14 10 13 11 5 12
REMARK SMILES IDX 6 13 7 14 8 15 12 16 10 17 9 18 11 20 20 22 17 24
REMARK H PARENT 9 19 11 21 20 23 17 25
REMARK Flexibility Score: inf
ROOT
ATOM      1  C   UNL     1      14.909  23.732  41.706  1.00  0.00     0.138 A 
ATOM      2  C   UNL     1      14.991  24.675  40.673  1.00  0.00     0.100 A 
ATOM      3  C   UNL     1      15.999  24.563  39.714  1.00  0.00     0.197 A 
ATOM      4  O   UNL     1      16.009  25.388  38.764  1.00  0.00    -0.289 OA
ATOM      5  C   UNL     1      16.949  23.518  39.812  1.00  0.00     0.107 A 
ATOM      6  C   UNL     1      18.044  23.330  38.915  1.00  0.00     0.134 A 
ATOM      7  C   UNL     1      18.852  22.193  39.043  1.00  0.00     0.093 A 
ATOM      8  C   UNL     1      18.640  21.270  40.070  1.00  0.00     0.123 A 
ATOM      9  C   UNL     1      17.607  21.473  40.982  1.00  0.00     0.094 A 
ATOM     10  C   UNL     1      16.763  22.580  40.862  1.00  0.00     0.146 A 
ATOM     11  O   UNL     1      15.781  22.729  41.744  1.00  0.00    -0.456 OA
ENDROOT
BRANCH   1  12
ATOM     12  C   UNL     1      13.858  23.804  42.752  1.00  0.00     0.021 A 
ATOM     13  C   UNL     1      12.792  24.719  42.667  1.00  0.00     0.016 A 
ATOM     14  C   UNL     1      11.821  24.772  43.672  1.00  0.00     0.051 A 
ATOM     15  C   UNL     1      11.903  23.920  44.780  1.00  0.00     0.157 A 
ATOM     16  C   UNL     1      13.939  22.961  43.875  1.00  0.00     0.062 A 
ATOM     17  C   UNL     1      12.968  23.012  44.882  1.00  0.00     0.158 A 
BRANCH  15  18
ATOM     18  O   UNL     1      10.932  23.975  45.779  1.00  0.00    -0.504 OA
ATOM     19  H   UNL     1       9.944  23.890  45.565  1.00  0.00     0.293 HD
ENDBRANCH  15  18
BRANCH  17  20
ATOM     20  O   UNL     1      13.080  22.153  45.974  1.00  0.00    -0.504 OA
ATOM     21  H   UNL     1      13.515  21.241  45.900  1.00  0.00     0.293 HD
ENDBRANCH  17  20
ENDBRANCH   1  12
BRANCH   6  22
ATOM     22  O   UNL     1      18.393  24.235  37.908  1.00  0.00    -0.507 OA
ATOM     23  H   UNL     1      17.897  25.088  37.702  1.00  0.00     0.293 HD
ENDBRANCH   6  22
BRANCH   8  24
ATOM     24  O   UNL     1      19.459  20.150  40.198  1.00  0.00    -0.508 OA
ATOM     25  H   UNL     1      20.063  20.022  41.002  1.00  0.00     0.293 HD
ENDBRANCH   8  24
TORSDOF 5
ENDMDL
MODEL 5
REMARK VINA RESULT:    -7.748      2.236      7.311
REMARK INTER + INTRA:          -9.393
REMARK INTER:                  -9.087
REMARK INTRA:                  -0.306
REMARK UNBOUND:                -0.286
REMARK SMILES O=c1cc(-c2ccc(O)c(O)c2)oc2cc(O)cc(O)c12
REMARK SMILES IDX 4 1 3 2 2 3 1 4 21 5 19 6 18 7 16 8 15 9 14 10 13 11 5 12
REMARK SMILES IDX 6 13 7 14 8 15 12 16 10 17 9 18 11 20 20 22 17 24
REMARK H PARENT 9 19 11 21 20 23 17 25
REMARK Flexibility Score: inf
ROOT
ATOM      1  C   UNL     1      13.976  23.870  42.673  1.00  0.00     0.138 A 
ATOM      2  C   UNL     1      13.732  24.940  41.803  1.00  0.00     0.100 A 
ATOM      3  C   UNL     1      14.533  25.106  40.671  1.00  0.00     0.197 A 
ATOM      4  O   UNL     1      14.250  26.039  39.875  1.00  0.00    -0.289 OA
ATOM      5  C   UNL     1      15.602  24.210  40.429  1.00  0.00     0.107 A 
ATOM      6  C   UNL     1      16.508  24.305  39.330  1.00  0.00     0.134 A 
ATOM      7  C   UNL     1      17.456  23.295  39.129  1.00  0.00     0.093 A 
ATOM      8  C   UNL     1      17.570  22.225  40.020  1.00  0.00     0.123 A 
ATOM      9  C   UNL     1      16.726  22.152  41.125  1.00  0.00     0.094 A 
ATOM     10  C   UNL     1      15.747  23.127  41.335  1.00  0.00     0.146 A 
ATOM     11  O   UNL     1      14.952  23.011  42.394  1.00  0.00    -0.456 OA
ENDROOT
BRANCH   1  12
ATOM     12  C   UNL     1      13.157  23.648  43.892  1.00  0.00     0.021 A 
ATOM     13  C   UNL     1      12.578  24.719  44.599  1.00  0.00     0.016 A 
ATOM     14  C   UNL     1      11.820  24.481  45.749  1.00  0.00     0.051 A 
ATOM     15  C   UNL     1      11.633  23.175  46.216  1.00  0.00     0.157 A 
ATOM     16  C   UNL     1      12.975  22.340  44.375  1.00  0.00     0.062 A 
ATOM     17  C   UNL     1      12.216  22.099  45.526  1.00  0.00     0.158 A 
BRANCH  15  18
ATOM     18  O   UNL     1      10.875  22.942  47.362  1.00  0.00    -0.504 OA
ATOM     19  H   UNL     1      10.698  23.675  48.040  1.00  0.00     0.293 HD
ENDBRANCH  15  18
BRANCH  17  20
ATOM     20  O   UNL     1      12.052  20.787  45.967  1.00  0.00    -0.504 OA
ATOM     21  H   UNL     1      12.748  20.071  45.798  1.00  0.00     0.293 HD
ENDBRANCH  17  20
ENDBRANCH   1  12
BRANCH   6  22
ATOM     22  O   UNL     1      16.535  25.375  38.430  1.00  0.00    -0.507 OA
ATOM     23  H   UNL     1      16.795  26.321  38.665  1.00  0.00     0.293 HD
ENDBRANCH   6  22
BRANCH   8  24
ATOM     24  O   UNL     1      18.527  21.233  39.820  1.00  0.00    -0.508 OA
ATOM     25  H   UNL     1      18.280  20.250  39.812  1.00  0.00     0.293 HD
ENDBRANCH   8  24
TORSDOF 5
ENDMDL
MODEL 6
REMARK VINA RESULT:    -7.622      1.690      2.490
REMARK INTER + INTRA:          -9.245
REMARK INTER:                  -8.962
REMARK INTRA:                  -0.283
REMARK UNBOUND:                -0.286
REMARK SMILES O=c1cc(-c2ccc(O)c(O)c2)oc2cc(O)cc(O)c12
REMARK SMILES IDX 4 1 3 2 2 3 1 4 21 5 19 6 18 7 16 8 15 9 14 10 13 11 5 12
REMARK SMILES IDX 6 13 7 14 8 15 12 16 10 17 9 18 11 20 20 22 17 24
REMARK H PARENT 9 19 11 21 20 23 17 25
REMARK Flexibility Score: inf
ROOT
ATOM      1  C   UNL     1      15.721  23.334  41.025  1.00  0.00     0.138 A 
ATOM      2  C   UNL     1      15.039  24.478  40.589  1.00  0.00     0.100 A 
ATOM      3  C   UNL     1      14.024  25.020  41.378  1.00  0.00     0.197 A 
ATOM      4  O   UNL     1      13.474  26.083  40.990  1.00  0.00    -0.289 OA
ATOM      5  C   UNL     1      13.670  24.393  42.597  1.00  0.00     0.107 A 
ATOM      6  C   UNL     1      12.625  24.834  43.463  1.00  0.00     0.134 A 
ATOM      7  C   UNL     1      12.442  24.202  44.700  1.00  0.00     0.093 A 
ATOM      8  C   UNL     1      13.228  23.109  45.074  1.00  0.00     0.123 A 
ATOM      9  C   UNL     1      14.215  22.639  44.212  1.00  0.00     0.094 A 
ATOM     10  C   UNL     1      14.444  23.268  42.986  1.00  0.00     0.146 A 
ATOM     11  O   UNL     1      15.406  22.796  42.200  1.00  0.00    -0.456 OA
ENDROOT
BRANCH   1  12
ATOM     12  C   UNL     1      16.808  22.715  40.225  1.00  0.00     0.021 A 
ATOM     13  C   UNL     1      17.028  21.324  40.229  1.00  0.00     0.016 A 
ATOM     14  C   UNL     1      18.066  20.770  39.474  1.00  0.00     0.051 A 
ATOM     15  C   UNL     1      18.903  21.592  38.710  1.00  0.00     0.157 A 
ATOM     16  C   UNL     1      17.661  23.534  39.466  1.00  0.00     0.062 A 
ATOM     17  C   UNL     1      18.701  22.981  38.708  1.00  0.00     0.158 A 
BRANCH  15  18
ATOM     18  O   UNL     1      19.936  21.035  37.957  1.00  0.00    -0.504 OA
ATOM     19  H   UNL     1      20.845  20.842  38.363  1.00  0.00     0.293 HD
ENDBRANCH  15  18
BRANCH  17  20
ATOM     20  O   UNL     1      19.519  23.828  37.962  1.00  0.00    -0.504 OA
ATOM     21  H   UNL     1      19.187  24.305  37.132  1.00  0.00     0.293 HD
ENDBRANCH  17  20
ENDBRANCH   1  12
BRANCH   6  22
ATOM     22  O   UNL     1      11.730  25.861  43.148  1.00  0.00    -0.507 OA
ATOM     23  H   UNL     1      11.565  26.218  42.219  1.00  0.00     0.293 HD
ENDBRANCH   6  22
BRANCH   8  24
ATOM     24  O   UNL     1      13.027  22.478  46.300  1.00  0.00    -0.508 OA
ATOM     25  H   UNL     1      13.528  21.633  46.550  1.00  0.00     0.293 HD
ENDBRANCH   8  24
TORSDOF 5
ENDMDL
MODEL 7
REMARK VINA RESULT:    -7.271      1.381      7.193
REMARK INTER + INTRA:          -8.832
REMARK INTER:                  -8.538
REMARK INTRA:                  -0.294
REMARK UNBOUND:                -0.286
REMARK SMILES O=c1cc(-c2ccc(O)c(O)c2)oc2cc(O)cc(O)c12
REMARK SMILES IDX 4 1 3 2 2 3 1 4 21 5 19 6 18 7 16 8 15 9 14 10 13 11 5 12
REMARK SMILES IDX 6 13 7 14 8 15 12 16 10 17 9 18 11 20 20 22 17 24
REMARK H PARENT 9 19 11 21 20 23 17 25
REMARK Flexibility Score: inf
ROOT
ATOM      1  C   UNL     1      16.724  22.441  41.200  1.00  0.00     0.138 A 
ATOM      2  C   UNL     1      16.768  21.041  41.186  1.00  0.00     0.100 A 
ATOM      3  C   UNL     1      17.900  20.390  40.692  1.00  0.00     0.197 A 
ATOM      4  O   UNL     1      17.936  19.134  40.752  1.00  0.00    -0.289 OA
ATOM      5  C   UNL     1      18.980  21.149  40.181  1.00  0.00     0.107 A 
ATOM      6  C   UNL     1      20.167  20.594  39.615  1.00  0.00     0.134 A 
ATOM      7  C   UNL     1      21.218  21.443  39.247  1.00  0.00     0.093 A 
ATOM      8  C   UNL     1      21.101  22.830  39.370  1.00  0.00     0.123 A 
ATOM      9  C   UNL     1      19.926  23.384  39.871  1.00  0.00     0.094 A 
ATOM     10  C   UNL     1      18.872  22.562  40.278  1.00  0.00     0.146 A 
ATOM     11  O   UNL     1      17.774  23.131  40.764  1.00  0.00    -0.456 OA
ENDROOT
BRANCH   1  12
ATOM     12  C   UNL     1      15.545  23.184  41.713  1.00  0.00     0.021 A 
ATOM     13  C   UNL     1      14.873  22.785  42.884  1.00  0.00     0.016 A 
ATOM     14  C   UNL     1      13.759  23.497  43.338  1.00  0.00     0.051 A 
ATOM     15  C   UNL     1      13.293  24.611  42.629  1.00  0.00     0.157 A 
ATOM     16  C   UNL     1      15.062  24.295  40.999  1.00  0.00     0.062 A 
ATOM     17  C   UNL     1      13.947  25.010  41.452  1.00  0.00     0.158 A 
BRANCH  15  18
ATOM     18  O   UNL     1      12.182  25.318  43.086  1.00  0.00    -0.504 OA
ATOM     19  H   UNL     1      12.162  26.332  43.087  1.00  0.00     0.293 HD
ENDBRANCH  15  18
BRANCH  17  20
ATOM     20  O   UNL     1      13.506  26.112  40.721  1.00  0.00    -0.504 OA
ATOM     21  H   UNL     1      12.526  26.361  40.661  1.00  0.00     0.293 HD
ENDBRANCH  17  20
ENDBRANCH   1  12
BRANCH   6  22
ATOM     22  O   UNL     1      20.352  19.230  39.372  1.00  0.00    -0.507 OA
ATOM     23  H   UNL     1      20.582  18.830  38.475  1.00  0.00     0.293 HD
ENDBRANCH   6  22
BRANCH   8  24
ATOM     24  O   UNL     1      22.146  23.667  38.986  1.00  0.00    -0.508 OA
ATOM     25  H   UNL     1      22.390  23.800  38.011  1.00  0.00     0.293 HD
ENDBRANCH   8  24
TORSDOF 5
ENDMDL
MODEL 8
REMARK VINA RESULT:    -5.820      1.361      6.900
REMARK INTER + INTRA:          -7.127
REMARK INTER:                  -6.811
REMARK INTRA:                  -0.316
REMARK UNBOUND:                -0.286
REMARK SMILES O=c1cc(-c2ccc(O)c(O)c2)oc2cc(O)cc(O)c12
REMARK SMILES IDX 4 1 3 2 2 3 1 4 21 5 19 6 18 7 16 8 15 9 14 10 13 11 5 12
REMARK SMILES IDX 6 13 7 14 8 15 12 16 10 17 9 18 11 20 20 22 17 24
REMARK H PARENT 9 19 11 21 20 23 17 25
REMARK Flexibility Score: inf
ROOT
ATOM      1  C   UNL     1      16.856  23.599  40.338  1.00  0.00     0.138 A 
ATOM      2  C   UNL     1      17.331  24.405  39.295  1.00  0.00     0.100 A 
ATOM      3  C   UNL     1      18.481  24.026  38.599  1.00  0.00     0.197 A 
ATOM      4  O   UNL     1      18.847  24.736  37.627  1.00  0.00    -0.289 OA
ATOM      5  C   UNL     1      19.174  22.850  38.973  1.00  0.00     0.107 A 
ATOM      6  C   UNL     1      20.378  22.388  38.362  1.00  0.00     0.134 A 
ATOM      7  C   UNL     1      20.912  21.149  38.739  1.00  0.00     0.093 A 
ATOM      8  C   UNL     1      20.316  20.385  39.746  1.00  0.00     0.123 A 
ATOM      9  C   UNL     1      19.171  20.852  40.385  1.00  0.00     0.094 A 
ATOM     10  C   UNL     1      18.596  22.069  40.009  1.00  0.00     0.146 A 
ATOM     11  O   UNL     1      17.495  22.471  40.634  1.00  0.00    -0.456 OA
ENDROOT
BRANCH   1  12
ATOM     12  C   UNL     1      15.639  23.955  41.111  1.00  0.00     0.021 A 
ATOM     13  C   UNL     1      14.774  24.984  40.696  1.00  0.00     0.016 A 
ATOM     14  C   UNL     1      13.641  25.305  41.449  1.00  0.00     0.051 A 
ATOM     15  C   UNL     1      13.357  24.610  42.631  1.00  0.00     0.157 A 
ATOM     16  C   UNL     1      15.354  23.271  42.307  1.00  0.00     0.062 A 
ATOM     17  C   UNL     1      14.220  23.590  43.062  1.00  0.00     0.158 A 
BRANCH  15  18
ATOM     18  O   UNL     1      12.225  24.932  43.378  1.00  0.00    -0.504 OA
ATOM     19  H   UNL     1      12.060  24.528  44.293  1.00  0.00     0.293 HD
ENDBRANCH  15  18
BRANCH  17  20
ATOM     20  O   UNL     1      13.968  22.882  44.237  1.00  0.00    -0.504 OA
ATOM     21  H   UNL     1      13.324  22.101  44.267  1.00  0.00     0.293 HD
ENDBRANCH  17  20
ENDBRANCH   1  12
BRANCH   6  22
ATOM     22  O   UNL     1      21.098  23.113  37.407  1.00  0.00    -0.507 OA
ATOM     23  H   UNL     1      21.120  22.904  36.421  1.00  0.00     0.293 HD
ENDBRANCH   6  22
BRANCH   8  24
ATOM     24  O   UNL     1      20.864  19.160  40.125  1.00  0.00    -0.508 OA
ATOM     25  H   UNL     1      20.377  18.287  39.958  1.00  0.00     0.293 HD
ENDBRANCH   8  24
TORSDOF 5
ENDMDL
