MODEL 1
REMARK VINA RESULT:    -4.041      0.000      0.000
REMARK INTER + INTRA:          -5.648
REMARK INTER:                  -5.458
REMARK INTRA:                  -0.190
REMARK UNBOUND:                -0.190
REMARK SMILES CCCCCCCC(=O)[O-]
REMARK SMILES IDX 5 1 6 2 7 3 8 4 9 5 10 6 4 7 3 8 2 9 1 10
REMARK H PARENT
REMARK Flexibility Score: inf
ROOT
ATOM      1  C   UNL     1     -31.471 -22.563 -33.923  1.00  0.00     0.000 C 
ENDROOT
BRANCH   1   2
ATOM      2  C   UNL     1     -31.062 -21.181 -33.366  1.00  0.00     0.006 C 
BRANCH   2   3
ATOM      3  C   UNL     1     -29.891 -21.248 -32.374  1.00  0.00     0.053 C 
BRANCH   3   4
ATOM      4  C   UNL     1     -30.353 -21.634 -31.002  1.00  0.00     0.041 C 
ATOM      5  O   UNL     1     -30.712 -20.751 -30.180  1.00  0.00    -0.550 OA
ATOM      6  O   UNL     1     -30.365 -22.972 -30.623  1.00  0.00    -0.550 OA
ENDBRANCH   3   4
ENDBRANCH   2   3
ENDBRANCH   1   2
BRANCH   1   7
ATOM      7  C   UNL     1     -32.515 -22.490 -35.050  1.00  0.00     0.000 C 
BRANCH   7   8
ATOM      8  C   UNL     1     -32.473 -23.710 -35.980  1.00  0.00    -0.000 C 
BRANCH   8   9
ATOM      9  C   UNL     1     -31.178 -23.732 -36.800  1.00  0.00    -0.003 C 
ATOM     10  C   UNL     1     -31.193 -24.864 -37.823  1.00  0.00     0.004 C 
ENDBRANCH   8   9
ENDBRANCH   7   8
ENDBRANCH   1   7
TORSDOF 6
ENDMDL
MODEL 2
REMARK VINA RESULT:    -4.011      0.579      1.230
REMARK INTER + INTRA:          -5.607
REMARK INTER:                  -5.379
REMARK INTRA:                  -0.228
REMARK UNBOUND:                -0.190
REMARK SMILES CCCCCCCC(=O)[O-]
REMARK SMILES IDX 5 1 6 2 7 3 8 4 9 5 10 6 4 7 3 8 2 9 1 10
REMARK H PARENT
REMARK Flexibility Score: inf
ROOT
ATOM      1  C   UNL     1     -31.019 -21.186 -33.436  1.00  0.00     0.000 C 
ENDROOT
BRANCH   1   2
ATOM      2  C   UNL     1     -29.548 -21.168 -32.966  1.00  0.00     0.006 C 
BRANCH   2   3
ATOM      3  C   UNL     1     -29.371 -20.607 -31.547  1.00  0.00     0.053 C 
BRANCH   3   4
ATOM      4  C   UNL     1     -30.269 -21.297 -30.565  1.00  0.00     0.041 C 
ATOM      5  O   UNL     1     -30.995 -20.624 -29.787  1.00  0.00    -0.550 OA
ATOM      6  O   UNL     1     -30.288 -22.685 -30.495  1.00  0.00    -0.550 OA
ENDBRANCH   3   4
ENDBRANCH   2   3
ENDBRANCH   1   2
BRANCH   1   7
ATOM      7  C   UNL     1     -31.506 -22.572 -33.889  1.00  0.00     0.000 C 
BRANCH   7   8
ATOM      8  C   UNL     1     -32.366 -22.516 -35.159  1.00  0.00    -0.000 C 
BRANCH   8   9
ATOM      9  C   UNL     1     -32.229 -23.808 -35.973  1.00  0.00    -0.003 C 
ATOM     10  C   UNL     1     -31.165 -23.665 -37.058  1.00  0.00     0.004 C 
ENDBRANCH   8   9
ENDBRANCH   7   8
ENDBRANCH   1   7
TORSDOF 6
ENDMDL
MODEL 3
REMARK VINA RESULT:    -3.872      1.029      1.247
REMARK INTER + INTRA:          -5.421
REMARK INTER:                  -5.234
REMARK INTRA:                  -0.186
REMARK UNBOUND:                -0.190
REMARK SMILES CCCCCCCC(=O)[O-]
REMARK SMILES IDX 5 1 6 2 7 3 8 4 9 5 10 6 4 7 3 8 2 9 1 10
REMARK H PARENT
REMARK Flexibility Score: inf
ROOT
ATOM      1  C   UNL     1     -31.501 -22.629 -34.062  1.00  0.00     0.000 C 
ENDROOT
BRANCH   1   2
ATOM      2  C   UNL     1     -31.074 -21.322 -33.358  1.00  0.00     0.006 C 
BRANCH   2   3
ATOM      3  C   UNL     1     -29.572 -21.267 -33.040  1.00  0.00     0.053 C 
BRANCH   3   4
ATOM      4  C   UNL     1     -29.316 -20.683 -31.683  1.00  0.00     0.041 C 
ATOM      5  O   UNL     1     -28.294 -19.978 -31.477  1.00  0.00    -0.550 OA
ATOM      6  O   UNL     1     -30.199 -20.937 -30.639  1.00  0.00    -0.550 OA
ENDBRANCH   3   4
ENDBRANCH   2   3
ENDBRANCH   1   2
BRANCH   1   7
ATOM      7  C   UNL     1     -32.548 -22.421 -35.168  1.00  0.00     0.000 C 
BRANCH   7   8
ATOM      8  C   UNL     1     -32.619 -23.598 -36.151  1.00  0.00    -0.000 C 
BRANCH   8   9
ATOM      9  C   UNL     1     -31.386 -23.628 -37.062  1.00  0.00    -0.003 C 
ATOM     10  C   UNL     1     -31.244 -24.981 -37.752  1.00  0.00     0.004 C 
ENDBRANCH   8   9
ENDBRANCH   7   8
ENDBRANCH   1   7
TORSDOF 6
ENDMDL
MODEL 4
REMARK VINA RESULT:    -3.763      3.914      5.979
REMARK INTER + INTRA:          -5.273
REMARK INTER:                  -5.113
REMARK INTRA:                  -0.160
REMARK UNBOUND:                -0.190
REMARK SMILES CCCCCCCC(=O)[O-]
REMARK SMILES IDX 5 1 6 2 7 3 8 4 9 5 10 6 4 7 3 8 2 9 1 10
REMARK H PARENT
REMARK Flexibility Score: inf
ROOT
ATOM      1  C   UNL     1     -32.398 -22.404 -34.898  1.00  0.00     0.000 C 
ENDROOT
BRANCH   1   2
ATOM      2  C   UNL     1     -32.409 -23.592 -35.887  1.00  0.00     0.006 C 
BRANCH   2   3
ATOM      3  C   UNL     1     -31.149 -23.664 -36.762  1.00  0.00     0.053 C 
BRANCH   3   4
ATOM      4  C   UNL     1     -31.402 -24.418 -38.032  1.00  0.00     0.041 C 
ATOM      5  O   UNL     1     -31.809 -23.814 -39.059  1.00  0.00    -0.550 OA
ATOM      6  O   UNL     1     -31.207 -25.794 -38.075  1.00  0.00    -0.550 OA
ENDBRANCH   3   4
ENDBRANCH   2   3
ENDBRANCH   1   2
BRANCH   1   7
ATOM      7  C   UNL     1     -31.368 -22.553 -33.766  1.00  0.00     0.000 C 
BRANCH   7   8
ATOM      8  C   UNL     1     -30.911 -21.203 -33.195  1.00  0.00    -0.000 C 
BRANCH   8   9
ATOM      9  C   UNL     1     -29.857 -21.399 -32.100  1.00  0.00    -0.003 C 
ATOM     10  C   UNL     1     -30.394 -22.267 -30.966  1.00  0.00     0.004 C 
ENDBRANCH   8   9
ENDBRANCH   7   8
ENDBRANCH   1   7
TORSDOF 6
ENDMDL
MODEL 5
REMARK VINA RESULT:    -3.738      3.543      5.637
REMARK INTER + INTRA:          -5.239
REMARK INTER:                  -5.025
REMARK INTRA:                  -0.214
REMARK UNBOUND:                -0.190
REMARK SMILES CCCCCCCC(=O)[O-]
REMARK SMILES IDX 5 1 6 2 7 3 8 4 9 5 10 6 4 7 3 8 2 9 1 10
REMARK H PARENT
REMARK Flexibility Score: inf
ROOT
ATOM      1  C   UNL     1     -31.490 -22.771 -34.244  1.00  0.00     0.000 C 
ENDROOT
BRANCH   1   2
ATOM      2  C   UNL     1     -32.522 -22.662 -35.389  1.00  0.00     0.006 C 
BRANCH   2   3
ATOM      3  C   UNL     1     -32.603 -23.929 -36.255  1.00  0.00     0.053 C 
BRANCH   3   4
ATOM      4  C   UNL     1     -31.606 -23.897 -37.373  1.00  0.00     0.041 C 
ATOM      5  O   UNL     1     -31.399 -22.831 -38.010  1.00  0.00    -0.550 OA
ATOM      6  O   UNL     1     -30.920 -25.054 -37.726  1.00  0.00    -0.550 OA
ENDBRANCH   3   4
ENDBRANCH   2   3
ENDBRANCH   1   2
BRANCH   1   7
ATOM      7  C   UNL     1     -31.236 -21.441 -33.514  1.00  0.00     0.000 C 
BRANCH   7   8
ATOM      8  C   UNL     1     -30.617 -21.634 -32.123  1.00  0.00    -0.000 C 
BRANCH   8   9
ATOM      9  C   UNL     1     -29.197 -21.061 -32.068  1.00  0.00    -0.003 C 
ATOM     10  C   UNL     1     -28.977 -20.028 -33.170  1.00  0.00     0.004 C 
ENDBRANCH   8   9
ENDBRANCH   7   8
ENDBRANCH   1   7
TORSDOF 6
ENDMDL
MODEL 6
REMARK VINA RESULT:    -3.667      3.064      5.831
REMARK INTER + INTRA:          -5.144
REMARK INTER:                  -4.901
REMARK INTRA:                  -0.243
REMARK UNBOUND:                -0.190
REMARK SMILES CCCCCCCC(=O)[O-]
REMARK SMILES IDX 5 1 6 2 7 3 8 4 9 5 10 6 4 7 3 8 2 9 1 10
REMARK H PARENT
REMARK Flexibility Score: inf
ROOT
ATOM      1  C   UNL     1     -30.991 -21.214 -33.355  1.00  0.00     0.000 C 
ENDROOT
BRANCH   1   2
ATOM      2  C   UNL     1     -31.433 -22.578 -33.930  1.00  0.00     0.006 C 
BRANCH   2   3
ATOM      3  C   UNL     1     -32.569 -22.464 -34.958  1.00  0.00     0.053 C 
BRANCH   3   4
ATOM      4  C   UNL     1     -32.329 -23.346 -36.146  1.00  0.00     0.041 C 
ATOM      5  O   UNL     1     -31.155 -23.593 -36.526  1.00  0.00    -0.550 OA
ATOM      6  O   UNL     1     -33.406 -23.878 -36.846  1.00  0.00    -0.550 OA
ENDBRANCH   3   4
ENDBRANCH   2   3
ENDBRANCH   1   2
BRANCH   1   7
ATOM      7  C   UNL     1     -29.526 -21.187 -32.887  1.00  0.00     0.000 C 
BRANCH   7   8
ATOM      8  C   UNL     1     -29.354 -20.535 -31.508  1.00  0.00    -0.000 C 
BRANCH   8   9
ATOM      9  C   UNL     1     -30.365 -21.099 -30.504  1.00  0.00    -0.003 C 
ATOM     10  C   UNL     1     -31.202 -19.985 -29.880  1.00  0.00     0.004 C 
ENDBRANCH   8   9
ENDBRANCH   7   8
ENDBRANCH   1   7
TORSDOF 6
ENDMDL
MODEL 7
REMARK VINA RESULT:    -3.618      3.521      4.847
REMARK INTER + INTRA:          -5.077
REMARK INTER:                  -4.866
REMARK INTRA:                  -0.211
REMARK UNBOUND:                -0.190
REMARK SMILES CCCCCCCC(=O)[O-]
REMARK SMILES IDX 5 1 6 2 7 3 8 4 9 5 10 6 4 7 3 8 2 9 1 10
REMARK H PARENT
REMARK Flexibility Score: inf
ROOT
ATOM      1  C   UNL     1     -31.134 -23.931 -37.066  1.00  0.00     0.000 C 
ENDROOT
BRANCH   1   2
ATOM      2  C   UNL     1     -32.316 -23.967 -36.072  1.00  0.00     0.006 C 
BRANCH   2   3
ATOM      3  C   UNL     1     -32.440 -22.689 -35.228  1.00  0.00     0.053 C 
BRANCH   3   4
ATOM      4  C   UNL     1     -33.357 -21.692 -35.869  1.00  0.00     0.041 C 
ATOM      5  O   UNL     1     -34.062 -22.022 -36.859  1.00  0.00    -0.550 OA
ATOM      6  O   UNL     1     -33.417 -20.390 -35.385  1.00  0.00    -0.550 OA
ENDBRANCH   3   4
ENDBRANCH   2   3
ENDBRANCH   1   2
BRANCH   1   7
ATOM      7  C   UNL     1     -31.081 -25.145 -38.007  1.00  0.00     0.000 C 
BRANCH   7   8
ATOM      8  C   UNL     1     -32.395 -25.939 -38.029  1.00  0.00    -0.000 C 
BRANCH   8   9
ATOM      9  C   UNL     1     -32.181 -27.339 -38.615  1.00  0.00    -0.003 C 
ATOM     10  C   UNL     1     -33.471 -28.153 -38.583  1.00  0.00     0.004 C 
ENDBRANCH   8   9
ENDBRANCH   7   8
ENDBRANCH   1   7
TORSDOF 6
ENDMDL
MODEL 8
REMARK VINA RESULT:    -3.565      5.263      6.973
REMARK INTER + INTRA:          -5.006
REMARK INTER:                  -4.799
REMARK INTRA:                  -0.207
REMARK UNBOUND:                -0.190
REMARK SMILES CCCCCCCC(=O)[O-]
REMARK SMILES IDX 5 1 6 2 7 3 8 4 9 5 10 6 4 7 3 8 2 9 1 10
REMARK H PARENT
REMARK Flexibility Score: inf
ROOT
ATOM      1  C   UNL     1     -31.235 -24.316 -37.225  1.00  0.00     0.000 C 
ENDROOT
BRANCH   1   2
ATOM      2  C   UNL     1     -31.375 -25.607 -38.062  1.00  0.00     0.006 C 
BRANCH   2   3
ATOM      3  C   UNL     1     -32.727 -26.311 -37.870  1.00  0.00     0.053 C 
BRANCH   3   4
ATOM      4  C   UNL     1     -32.721 -27.688 -38.461  1.00  0.00     0.041 C 
ATOM      5  O   UNL     1     -31.637 -28.225 -38.808  1.00  0.00    -0.550 OA
ATOM      6  O   UNL     1     -33.917 -28.371 -38.647  1.00  0.00    -0.550 OA
ENDBRANCH   3   4
ENDBRANCH   2   3
ENDBRANCH   1   2
BRANCH   1   7
ATOM      7  C   UNL     1     -32.379 -24.105 -36.219  1.00  0.00     0.000 C 
BRANCH   7   8
ATOM      8  C   UNL     1     -32.061 -23.030 -35.171  1.00  0.00    -0.000 C 
BRANCH   8   9
ATOM      9  C   UNL     1     -33.020 -21.841 -35.295  1.00  0.00    -0.003 C 
ATOM     10  C   UNL     1     -33.689 -21.812 -36.666  1.00  0.00     0.004 C 
ENDBRANCH   8   9
ENDBRANCH   7   8
ENDBRANCH   1   7
TORSDOF 6
ENDMDL
MODEL 9
REMARK VINA RESULT:    -3.407      1.719      2.614
REMARK INTER + INTRA:          -4.792
REMARK INTER:                  -4.648
REMARK INTRA:                  -0.145
REMARK UNBOUND:                -0.190
REMARK SMILES CCCCCCCC(=O)[O-]
REMARK SMILES IDX 5 1 6 2 7 3 8 4 9 5 10 6 4 7 3 8 2 9 1 10
REMARK H PARENT
REMARK Flexibility Score: inf
ROOT
ATOM      1  C   UNL     1     -32.093 -23.790 -35.785  1.00  0.00     0.000 C 
ENDROOT
BRANCH   1   2
ATOM      2  C   UNL     1     -32.090 -22.476 -34.972  1.00  0.00     0.006 C 
BRANCH   2   3
ATOM      3  C   UNL     1     -31.378 -22.602 -33.617  1.00  0.00     0.053 C 
BRANCH   3   4
ATOM      4  C   UNL     1     -30.688 -21.327 -33.235  1.00  0.00     0.041 C 
ATOM      5  O   UNL     1     -31.341 -20.255 -33.143  1.00  0.00    -0.550 OA
ATOM      6  O   UNL     1     -29.318 -21.322 -33.002  1.00  0.00    -0.550 OA
ENDBRANCH   3   4
ENDBRANCH   2   3
ENDBRANCH   1   2
BRANCH   1   7
ATOM      7  C   UNL     1     -31.644 -23.613 -37.245  1.00  0.00     0.000 C 
BRANCH   7   8
ATOM      8  C   UNL     1     -31.247 -24.938 -37.911  1.00  0.00    -0.000 C 
BRANCH   8   9
ATOM      9  C   UNL     1     -32.384 -25.961 -37.820  1.00  0.00    -0.003 C 
ATOM     10  C   UNL     1     -32.087 -27.193 -38.670  1.00  0.00     0.004 C 
ENDBRANCH   8   9
ENDBRANCH   7   8
ENDBRANCH   1   7
TORSDOF 6
ENDMDL
