MODEL 1
REMARK VINA RESULT:     2.079      0.000      0.000
REMARK INTER + INTRA:           3.074
REMARK INTER:                   3.902
REMARK INTRA:                  -0.828
REMARK UNBOUND:                -0.828
REMARK SMILES O=C([O-])CCCCCCCCCCCCCCC(=O)[O-]
REMARK SMILES IDX 10 1 9 2 8 3 7 4 6 5 5 6 4 7 2 8 1 9 3 10 11 11 12 12 13 13
REMARK SMILES IDX 14 14 15 15 16 16 17 17 18 18 19 19 20 20
REMARK H PARENT
REMARK Flexibility Score: inf
ROOT
ATOM      1  C   UNL     1      92.817  15.519 118.501  1.00  0.00     0.000 C 
ENDROOT
BRANCH   1   2
ATOM      2  C   UNL     1      94.319  15.781 118.742  1.00  0.00     0.000 C 
BRANCH   2   3
ATOM      3  C   UNL     1      94.711  16.031 120.210  1.00  0.00     0.000 C 
BRANCH   3   4
ATOM      4  C   UNL     1      94.785  14.765 121.085  1.00  0.00     0.000 C 
BRANCH   4   5
ATOM      5  C   UNL     1      94.736  13.450 120.278  1.00  0.00     0.000 C 
BRANCH   5   6
ATOM      6  C   UNL     1      94.253  12.259 121.124  1.00  0.00     0.006 C 
BRANCH   6   7
ATOM      7  C   UNL     1      92.725  12.118 121.112  1.00  0.00     0.053 C 
BRANCH   7   8
ATOM      8  C   UNL     1      92.297  10.741 120.706  1.00  0.00     0.041 C 
ATOM      9  O   UNL     1      91.094  10.510 120.414  1.00  0.00    -0.550 OA
ATOM     10  O   UNL     1      93.234   9.719 120.620  1.00  0.00    -0.550 OA
ENDBRANCH   7   8
ENDBRANCH   6   7
ENDBRANCH   5   6
ENDBRANCH   4   5
ENDBRANCH   3   4
ENDBRANCH   2   3
ENDBRANCH   1   2
BRANCH   1  11
ATOM     11  C   UNL     1      91.861  16.408 119.316  1.00  0.00     0.000 C 
BRANCH  11  12
ATOM     12  C   UNL     1      92.066  17.907 119.052  1.00  0.00     0.000 C 
BRANCH  12  13
ATOM     13  C   UNL     1      91.601  18.743 120.252  1.00  0.00     0.000 C 
BRANCH  13  14
ATOM     14  C   UNL     1      90.510  18.043 121.084  1.00  0.00     0.000 C 
BRANCH  14  15
ATOM     15  C   UNL     1      89.151  18.768 121.125  1.00  0.00     0.000 C 
BRANCH  15  16
ATOM     16  C   UNL     1      87.938  17.917 120.704  1.00  0.00     0.006 C 
BRANCH  16  17
ATOM     17  C   UNL     1      86.590  18.656 120.810  1.00  0.00     0.053 C 
BRANCH  17  18
ATOM     18  C   UNL     1      85.415  17.737 120.665  1.00  0.00     0.041 C 
ATOM     19  O   UNL     1      85.568  16.581 120.187  1.00  0.00    -0.550 OA
ATOM     20  O   UNL     1      84.145  18.167 121.025  1.00  0.00    -0.550 OA
ENDBRANCH  17  18
ENDBRANCH  16  17
ENDBRANCH  15  16
ENDBRANCH  14  15
ENDBRANCH  13  14
ENDBRANCH  12  13
ENDBRANCH  11  12
ENDBRANCH   1  11
TORSDOF 15
ENDMDL
MODEL 2
REMARK VINA RESULT:     3.340      3.626      9.761
REMARK INTER + INTRA:           5.441
REMARK INTER:                   5.724
REMARK INTRA:                  -0.282
REMARK UNBOUND:                -0.828
REMARK SMILES O=C([O-])CCCCCCCCCCCCCCC(=O)[O-]
REMARK SMILES IDX 10 1 9 2 8 3 7 4 6 5 5 6 4 7 2 8 1 9 3 10 11 11 12 12 13 13
REMARK SMILES IDX 14 14 15 15 16 16 17 17 18 18 19 19 20 20
REMARK H PARENT
REMARK Flexibility Score: inf
ROOT
ATOM      1  C   UNL     1      88.706  17.929 120.089  1.00  0.00     0.000 C 
ENDROOT
BRANCH   1   2
ATOM      2  C   UNL     1      87.273  18.501 120.054  1.00  0.00     0.000 C 
BRANCH   2   3
ATOM      3  C   UNL     1      86.292  17.868 121.057  1.00  0.00     0.000 C 
BRANCH   3   4
ATOM      4  C   UNL     1      85.257  16.912 120.435  1.00  0.00     0.000 C 
BRANCH   4   5
ATOM      5  C   UNL     1      83.794  17.349 120.658  1.00  0.00     0.000 C 
BRANCH   5   6
ATOM      6  C   UNL     1      83.203  18.074 119.436  1.00  0.00     0.006 C 
BRANCH   6   7
ATOM      7  C   UNL     1      81.896  17.430 118.955  1.00  0.00     0.053 C 
BRANCH   7   8
ATOM      8  C   UNL     1      81.445  18.000 117.645  1.00  0.00     0.041 C 
ATOM      9  O   UNL     1      81.739  19.184 117.333  1.00  0.00    -0.550 OA
ATOM     10  O   UNL     1      80.727  17.212 116.755  1.00  0.00    -0.550 OA
ENDBRANCH   7   8
ENDBRANCH   6   7
ENDBRANCH   5   6
ENDBRANCH   4   5
ENDBRANCH   3   4
ENDBRANCH   2   3
ENDBRANCH   1   2
BRANCH   1  11
ATOM     11  C   UNL     1      89.678  18.660 121.032  1.00  0.00     0.000 C 
BRANCH  11  12
ATOM     12  C   UNL     1      91.050  17.975 121.125  1.00  0.00     0.000 C 
BRANCH  12  13
ATOM     13  C   UNL     1      91.725  17.912 119.747  1.00  0.00     0.000 C 
BRANCH  13  14
ATOM     14  C   UNL     1      93.148  17.326 119.802  1.00  0.00     0.000 C 
BRANCH  14  15
ATOM     15  C   UNL     1      93.304  15.926 119.178  1.00  0.00     0.000 C 
BRANCH  15  16
ATOM     16  C   UNL     1      94.597  15.177 119.553  1.00  0.00     0.006 C 
BRANCH  16  17
ATOM     17  C   UNL     1      95.541  15.979 120.468  1.00  0.00     0.053 C 
BRANCH  17  18
ATOM     18  C   UNL     1      96.521  16.812 119.699  1.00  0.00     0.041 C 
ATOM     19  O   UNL     1      96.235  17.222 118.542  1.00  0.00    -0.550 OA
ATOM     20  O   UNL     1      97.764  17.107 120.242  1.00  0.00    -0.550 OA
ENDBRANCH  17  18
ENDBRANCH  16  17
ENDBRANCH  15  16
ENDBRANCH  14  15
ENDBRANCH  13  14
ENDBRANCH  12  13
ENDBRANCH  11  12
ENDBRANCH   1  11
TORSDOF 15
ENDMDL
