MODEL 1
REMARK VINA RESULT:    -4.758      0.000      0.000
REMARK INTER + INTRA:         -10.949
REMARK INTER:                  -8.652
REMARK INTRA:                  -2.297
REMARK UNBOUND:                -2.297
REMARK SMILES CCCCCC=CCC=CCCCCCCCC(=O)[O-]
REMARK SMILES IDX 11 1 12 2 13 3 14 4 15 5 16 6 17 7 18 8 19 9 20 10 10 11
REMARK SMILES IDX 9 12 8 13 7 14 6 15 5 16 4 17 3 18 2 19 1 20
REMARK H PARENT
REMARK Flexibility Score: inf
ROOT
ATOM      1  C   UNL     1      -4.467  -6.502   6.734  1.00  0.00     0.027 C 
ENDROOT
BRANCH   1   2
ATOM      2  C   UNL     1      -4.847  -5.981   5.339  1.00  0.00     0.004 C 
BRANCH   2   3
ATOM      3  C   UNL     1      -5.540  -7.061   4.491  1.00  0.00     0.000 C 
BRANCH   3   4
ATOM      4  C   UNL     1      -5.813  -8.346   5.289  1.00  0.00     0.000 C 
BRANCH   4   5
ATOM      5  C   UNL     1      -5.079  -9.564   4.703  1.00  0.00     0.000 C 
BRANCH   5   6
ATOM      6  C   UNL     1      -4.116  -9.180   3.567  1.00  0.00     0.006 C 
BRANCH   6   7
ATOM      7  C   UNL     1      -2.763  -9.894   3.680  1.00  0.00     0.053 C 
BRANCH   7   8
ATOM      8  C   UNL     1      -1.692  -8.924   4.068  1.00  0.00     0.041 C 
ATOM      9  O   UNL     1      -1.856  -8.156   5.051  1.00  0.00    -0.550 OA
ATOM     10  O   UNL     1      -0.490  -8.902   3.370  1.00  0.00    -0.550 OA
ENDBRANCH   7   8
ENDBRANCH   6   7
ENDBRANCH   5   6
ENDBRANCH   4   5
ENDBRANCH   3   4
ENDBRANCH   2   3
ENDBRANCH   1   2
BRANCH   1  11
ATOM     11  C   UNL     1      -5.013  -5.631   7.834  1.00  0.00    -0.031 C 
ATOM     12  C   UNL     1      -4.410  -4.488   8.190  1.00  0.00    -0.027 C 
BRANCH  12  13
ATOM     13  C   UNL     1      -4.952  -3.626   9.296  1.00  0.00     0.054 C 
BRANCH  13  14
ATOM     14  C   UNL     1      -5.997  -2.673   8.786  1.00  0.00    -0.027 C 
ATOM     15  C   UNL     1      -6.097  -2.377   7.481  1.00  0.00    -0.031 C 
BRANCH  15  16
ATOM     16  C   UNL     1      -7.150  -1.434   6.967  1.00  0.00     0.027 C 
BRANCH  16  17
ATOM     17  C   UNL     1      -8.106  -2.144   6.001  1.00  0.00     0.004 C 
BRANCH  17  18
ATOM     18  C   UNL     1      -7.456  -3.403   5.409  1.00  0.00     0.000 C 
BRANCH  18  19
ATOM     19  C   UNL     1      -8.369  -4.635   5.492  1.00  0.00    -0.003 C 
ATOM     20  C   UNL     1      -8.481  -5.195   6.911  1.00  0.00     0.004 C 
ENDBRANCH  18  19
ENDBRANCH  17  18
ENDBRANCH  16  17
ENDBRANCH  15  16
ENDBRANCH  13  14
ENDBRANCH  12  13
ENDBRANCH   1  11
TORSDOF 14
ENDMDL
MODEL 2
REMARK VINA RESULT:    -4.604      3.479      7.375
REMARK INTER + INTRA:         -10.670
REMARK INTER:                  -8.402
REMARK INTRA:                  -2.268
REMARK UNBOUND:                -2.297
REMARK SMILES CCCCCC=CCC=CCCCCCCCC(=O)[O-]
REMARK SMILES IDX 11 1 12 2 13 3 14 4 15 5 16 6 17 7 18 8 19 9 20 10 10 11
REMARK SMILES IDX 9 12 8 13 7 14 6 15 5 16 4 17 3 18 2 19 1 20
REMARK H PARENT
REMARK Flexibility Score: inf
ROOT
ATOM      1  C   UNL     1      -4.285  -5.095   7.811  1.00  0.00     0.027 C 
ENDROOT
BRANCH   1   2
ATOM      2  C   UNL     1      -5.230  -5.579   8.921  1.00  0.00     0.004 C 
BRANCH   2   3
ATOM      3  C   UNL     1      -5.785  -4.411   9.755  1.00  0.00     0.000 C 
BRANCH   3   4
ATOM      4  C   UNL     1      -6.936  -3.680   9.045  1.00  0.00     0.000 C 
BRANCH   4   5
ATOM      5  C   UNL     1      -6.595  -2.212   8.740  1.00  0.00     0.000 C 
BRANCH   5   6
ATOM      6  C   UNL     1      -6.218  -1.990   7.265  1.00  0.00     0.006 C 
BRANCH   6   7
ATOM      7  C   UNL     1      -7.418  -2.151   6.324  1.00  0.00     0.053 C 
BRANCH   7   8
ATOM      8  C   UNL     1      -7.789  -0.833   5.719  1.00  0.00     0.041 C 
ATOM      9  O   UNL     1      -8.375   0.040   6.410  1.00  0.00    -0.550 OA
ATOM     10  O   UNL     1      -7.444  -0.552   4.402  1.00  0.00    -0.550 OA
ENDBRANCH   7   8
ENDBRANCH   6   7
ENDBRANCH   5   6
ENDBRANCH   4   5
ENDBRANCH   3   4
ENDBRANCH   2   3
ENDBRANCH   1   2
BRANCH   1  11
ATOM     11  C   UNL     1      -4.680  -5.624   6.458  1.00  0.00    -0.031 C 
ATOM     12  C   UNL     1      -5.919  -5.456   5.972  1.00  0.00    -0.027 C 
BRANCH  12  13
ATOM     13  C   UNL     1      -6.313  -5.994   4.625  1.00  0.00     0.054 C 
BRANCH  13  14
ATOM     14  C   UNL     1      -5.766  -7.378   4.407  1.00  0.00    -0.027 C 
ATOM     15  C   UNL     1      -6.313  -8.450   5.001  1.00  0.00    -0.031 C 
BRANCH  15  16
ATOM     16  C   UNL     1      -5.775  -9.835   4.773  1.00  0.00     0.027 C 
BRANCH  16  17
ATOM     17  C   UNL     1      -4.245  -9.860   4.877  1.00  0.00     0.004 C 
BRANCH  17  18
ATOM     18  C   UNL     1      -3.793  -9.766   6.342  1.00  0.00     0.000 C 
BRANCH  18  19
ATOM     19  C   UNL     1      -2.680  -8.729   6.551  1.00  0.00    -0.003 C 
ATOM     20  C   UNL     1      -2.197  -8.104   5.241  1.00  0.00     0.004 C 
ENDBRANCH  18  19
ENDBRANCH  17  18
ENDBRANCH  16  17
ENDBRANCH  15  16
ENDBRANCH  13  14
ENDBRANCH  12  13
ENDBRANCH   1  11
TORSDOF 14
ENDMDL
MODEL 3
REMARK VINA RESULT:    -4.584      1.478      3.538
REMARK INTER + INTRA:         -10.634
REMARK INTER:                  -8.643
REMARK INTRA:                  -1.991
REMARK UNBOUND:                -2.297
REMARK SMILES CCCCCC=CCC=CCCCCCCCC(=O)[O-]
REMARK SMILES IDX 11 1 12 2 13 3 14 4 15 5 16 6 17 7 18 8 19 9 20 10 10 11
REMARK SMILES IDX 9 12 8 13 7 14 6 15 5 16 4 17 3 18 2 19 1 20
REMARK H PARENT
REMARK Flexibility Score: inf
ROOT
ATOM      1  C   UNL     1      -5.430  -3.117   9.127  1.00  0.00     0.027 C 
ENDROOT
BRANCH   1   2
ATOM      2  C   UNL     1      -6.035  -4.486   9.472  1.00  0.00     0.004 C 
BRANCH   2   3
ATOM      3  C   UNL     1      -5.083  -5.642   9.117  1.00  0.00     0.000 C 
BRANCH   3   4
ATOM      4  C   UNL     1      -4.550  -5.539   7.679  1.00  0.00     0.000 C 
BRANCH   4   5
ATOM      5  C   UNL     1      -4.379  -6.919   7.020  1.00  0.00     0.000 C 
BRANCH   5   6
ATOM      6  C   UNL     1      -3.328  -6.908   5.897  1.00  0.00     0.006 C 
BRANCH   6   7
ATOM      7  C   UNL     1      -2.367  -8.100   5.983  1.00  0.00     0.053 C 
BRANCH   7   8
ATOM      8  C   UNL     1      -2.205  -8.739   4.640  1.00  0.00     0.041 C 
ATOM      9  O   UNL     1      -3.150  -9.398   4.132  1.00  0.00    -0.550 OA
ATOM     10  O   UNL     1      -1.024  -8.567   3.927  1.00  0.00    -0.550 OA
ENDBRANCH   7   8
ENDBRANCH   6   7
ENDBRANCH   5   6
ENDBRANCH   4   5
ENDBRANCH   3   4
ENDBRANCH   2   3
ENDBRANCH   1   2
BRANCH   1  11
ATOM     11  C   UNL     1      -6.343  -2.295   8.257  1.00  0.00    -0.031 C 
ATOM     12  C   UNL     1      -6.704  -2.705   7.033  1.00  0.00    -0.027 C 
BRANCH  12  13
ATOM     13  C   UNL     1      -7.609  -1.877   6.163  1.00  0.00     0.054 C 
BRANCH  13  14
ATOM     14  C   UNL     1      -8.253  -2.713   5.092  1.00  0.00    -0.027 C 
ATOM     15  C   UNL     1      -7.738  -3.896   4.721  1.00  0.00    -0.031 C 
BRANCH  15  16
ATOM     16  C   UNL     1      -8.390  -4.738   3.660  1.00  0.00     0.027 C 
BRANCH  16  17
ATOM     17  C   UNL     1      -8.280  -6.232   3.993  1.00  0.00     0.004 C 
BRANCH  17  18
ATOM     18  C   UNL     1      -7.581  -6.444   5.343  1.00  0.00     0.000 C 
BRANCH  18  19
ATOM     19  C   UNL     1      -8.548  -6.904   6.444  1.00  0.00    -0.003 C 
ATOM     20  C   UNL     1      -8.782  -5.836   7.513  1.00  0.00     0.004 C 
ENDBRANCH  18  19
ENDBRANCH  17  18
ENDBRANCH  16  17
ENDBRANCH  15  16
ENDBRANCH  13  14
ENDBRANCH  12  13
ENDBRANCH   1  11
TORSDOF 14
ENDMDL
MODEL 4
REMARK VINA RESULT:    -4.575      1.125      2.223
REMARK INTER + INTRA:         -10.617
REMARK INTER:                  -8.522
REMARK INTRA:                  -2.095
REMARK UNBOUND:                -2.297
REMARK SMILES CCCCCC=CCC=CCCCCCCCC(=O)[O-]
REMARK SMILES IDX 11 1 12 2 13 3 14 4 15 5 16 6 17 7 18 8 19 9 20 10 10 11
REMARK SMILES IDX 9 12 8 13 7 14 6 15 5 16 4 17 3 18 2 19 1 20
REMARK H PARENT
REMARK Flexibility Score: inf
ROOT
ATOM      1  C   UNL     1      -5.544  -6.108   4.670  1.00  0.00     0.027 C 
ENDROOT
BRANCH   1   2
ATOM      2  C   UNL     1      -6.973  -6.607   4.408  1.00  0.00     0.004 C 
BRANCH   2   3
ATOM      3  C   UNL     1      -7.126  -8.105   4.722  1.00  0.00     0.000 C 
BRANCH   3   4
ATOM      4  C   UNL     1      -5.914  -8.927   4.254  1.00  0.00     0.000 C 
BRANCH   4   5
ATOM      5  C   UNL     1      -5.374  -9.851   5.358  1.00  0.00     0.000 C 
BRANCH   5   6
ATOM      6  C   UNL     1      -3.839  -9.943   5.349  1.00  0.00     0.006 C 
BRANCH   6   7
ATOM      7  C   UNL     1      -3.219  -9.270   4.118  1.00  0.00     0.053 C 
BRANCH   7   8
ATOM      8  C   UNL     1      -1.912  -8.634   4.471  1.00  0.00     0.041 C 
ATOM      9  O   UNL     1      -0.925  -8.738   3.697  1.00  0.00    -0.550 OA
ATOM     10  O   UNL     1      -1.796  -7.886   5.637  1.00  0.00    -0.550 OA
ENDBRANCH   7   8
ENDBRANCH   6   7
ENDBRANCH   5   6
ENDBRANCH   4   5
ENDBRANCH   3   4
ENDBRANCH   2   3
ENDBRANCH   1   2
BRANCH   1  11
ATOM     11  C   UNL     1      -5.322  -5.752   6.116  1.00  0.00    -0.031 C 
ATOM     12  C   UNL     1      -4.650  -6.564   6.944  1.00  0.00    -0.027 C 
BRANCH  12  13
ATOM     13  C   UNL     1      -4.439  -6.210   8.390  1.00  0.00     0.054 C 
BRANCH  13  14
ATOM     14  C   UNL     1      -5.488  -5.250   8.878  1.00  0.00    -0.027 C 
ATOM     15  C   UNL     1      -5.193  -3.971   9.156  1.00  0.00    -0.031 C 
BRANCH  15  16
ATOM     16  C   UNL     1      -6.244  -3.007   9.631  1.00  0.00     0.027 C 
BRANCH  16  17
ATOM     17  C   UNL     1      -6.666  -2.049   8.509  1.00  0.00     0.004 C 
BRANCH  17  18
ATOM     18  C   UNL     1      -7.701  -2.708   7.585  1.00  0.00     0.000 C 
BRANCH  18  19
ATOM     19  C   UNL     1      -7.256  -2.724   6.116  1.00  0.00    -0.003 C 
ATOM     20  C   UNL     1      -8.339  -3.251   5.173  1.00  0.00     0.004 C 
ENDBRANCH  18  19
ENDBRANCH  17  18
ENDBRANCH  16  17
ENDBRANCH  15  16
ENDBRANCH  13  14
ENDBRANCH  12  13
ENDBRANCH   1  11
TORSDOF 14
ENDMDL
MODEL 5
REMARK VINA RESULT:    -4.544      3.925      6.633
REMARK INTER + INTRA:         -10.560
REMARK INTER:                  -8.136
REMARK INTRA:                  -2.424
REMARK UNBOUND:                -2.297
REMARK SMILES CCCCCC=CCC=CCCCCCCCC(=O)[O-]
REMARK SMILES IDX 11 1 12 2 13 3 14 4 15 5 16 6 17 7 18 8 19 9 20 10 10 11
REMARK SMILES IDX 9 12 8 13 7 14 6 15 5 16 4 17 3 18 2 19 1 20
REMARK H PARENT
REMARK Flexibility Score: inf
ROOT
ATOM      1  C   UNL     1      -6.403  -5.610   4.376  1.00  0.00     0.027 C 
ENDROOT
BRANCH   1   2
ATOM      2  C   UNL     1      -7.881  -5.408   4.744  1.00  0.00     0.004 C 
BRANCH   2   3
ATOM      3  C   UNL     1      -8.045  -4.742   6.121  1.00  0.00     0.000 C 
BRANCH   3   4
ATOM      4  C   UNL     1      -9.055  -3.583   6.094  1.00  0.00     0.000 C 
BRANCH   4   5
ATOM      5  C   UNL     1      -9.586  -3.306   4.677  1.00  0.00     0.000 C 
BRANCH   5   6
ATOM      6  C   UNL     1      -9.882  -1.815   4.442  1.00  0.00     0.006 C 
BRANCH   6   7
ATOM      7  C   UNL     1      -9.437  -0.937   5.618  1.00  0.00     0.053 C 
BRANCH   7   8
ATOM      8  C   UNL     1      -8.352  -0.000   5.190  1.00  0.00     0.041 C 
ATOM      9  O   UNL     1      -7.504  -0.361   4.333  1.00  0.00    -0.550 OA
ATOM     10  O   UNL     1      -8.306   1.290   5.704  1.00  0.00    -0.550 OA
ENDBRANCH   7   8
ENDBRANCH   6   7
ENDBRANCH   5   6
ENDBRANCH   4   5
ENDBRANCH   3   4
ENDBRANCH   2   3
ENDBRANCH   1   2
BRANCH   1  11
ATOM     11  C   UNL     1      -5.486  -5.351   5.542  1.00  0.00    -0.031 C 
ATOM     12  C   UNL     1      -4.727  -6.323   6.067  1.00  0.00    -0.027 C 
BRANCH  12  13
ATOM     13  C   UNL     1      -3.820  -6.065   7.238  1.00  0.00     0.054 C 
BRANCH  13  14
ATOM     14  C   UNL     1      -4.441  -5.099   8.209  1.00  0.00    -0.027 C 
ATOM     15  C   UNL     1      -5.288  -5.513   9.164  1.00  0.00    -0.031 C 
BRANCH  15  16
ATOM     16  C   UNL     1      -5.899  -4.550  10.143  1.00  0.00     0.027 C 
BRANCH  16  17
ATOM     17  C   UNL     1      -5.586  -3.098   9.763  1.00  0.00     0.004 C 
BRANCH  17  18
ATOM     18  C   UNL     1      -6.868  -2.253   9.716  1.00  0.00     0.000 C 
BRANCH  18  19
ATOM     19  C   UNL     1      -7.045  -1.522   8.377  1.00  0.00    -0.003 C 
ATOM     20  C   UNL     1      -6.000  -1.928   7.337  1.00  0.00     0.004 C 
ENDBRANCH  18  19
ENDBRANCH  17  18
ENDBRANCH  16  17
ENDBRANCH  15  16
ENDBRANCH  13  14
ENDBRANCH  12  13
ENDBRANCH   1  11
TORSDOF 14
ENDMDL
MODEL 6
REMARK VINA RESULT:    -4.467      1.851      3.372
REMARK INTER + INTRA:         -10.420
REMARK INTER:                  -7.713
REMARK INTRA:                  -2.707
REMARK UNBOUND:                -2.297
REMARK SMILES CCCCCC=CCC=CCCCCCCCC(=O)[O-]
REMARK SMILES IDX 11 1 12 2 13 3 14 4 15 5 16 6 17 7 18 8 19 9 20 10 10 11
REMARK SMILES IDX 9 12 8 13 7 14 6 15 5 16 4 17 3 18 2 19 1 20
REMARK H PARENT
REMARK Flexibility Score: inf
ROOT
ATOM      1  C   UNL     1      -4.964  -3.545   9.255  1.00  0.00     0.027 C 
ENDROOT
BRANCH   1   2
ATOM      2  C   UNL     1      -4.795  -4.844   8.454  1.00  0.00     0.004 C 
BRANCH   2   3
ATOM      3  C   UNL     1      -6.120  -5.617   8.325  1.00  0.00     0.000 C 
BRANCH   3   4
ATOM      4  C   UNL     1      -6.647  -5.636   6.881  1.00  0.00     0.000 C 
BRANCH   4   5
ATOM      5  C   UNL     1      -5.678  -4.960   5.897  1.00  0.00     0.000 C 
BRANCH   5   6
ATOM      6  C   UNL     1      -5.280  -5.885   4.735  1.00  0.00     0.006 C 
BRANCH   6   7
ATOM      7  C   UNL     1      -4.951  -7.307   5.205  1.00  0.00     0.053 C 
BRANCH   7   8
ATOM      8  C   UNL     1      -3.656  -7.324   5.954  1.00  0.00     0.041 C 
ATOM      9  O   UNL     1      -3.520  -8.054   6.971  1.00  0.00    -0.550 OA
ATOM     10  O   UNL     1      -2.582  -6.568   5.501  1.00  0.00    -0.550 OA
ENDBRANCH   7   8
ENDBRANCH   6   7
ENDBRANCH   5   6
ENDBRANCH   4   5
ENDBRANCH   3   4
ENDBRANCH   2   3
ENDBRANCH   1   2
BRANCH   1  11
ATOM     11  C   UNL     1      -5.653  -2.470   8.457  1.00  0.00    -0.031 C 
ATOM     12  C   UNL     1      -6.847  -1.981   8.821  1.00  0.00    -0.027 C 
BRANCH  12  13
ATOM     13  C   UNL     1      -7.537  -0.915   8.016  1.00  0.00     0.054 C 
BRANCH  13  14
ATOM     14  C   UNL     1      -7.689  -1.327   6.578  1.00  0.00    -0.027 C 
ATOM     15  C   UNL     1      -8.400  -2.412   6.231  1.00  0.00    -0.031 C 
BRANCH  15  16
ATOM     16  C   UNL     1      -8.563  -2.817   4.792  1.00  0.00     0.027 C 
BRANCH  16  17
ATOM     17  C   UNL     1      -9.334  -4.138   4.672  1.00  0.00     0.004 C 
BRANCH  17  18
ATOM     18  C   UNL     1      -8.707  -5.045   3.604  1.00  0.00     0.000 C 
BRANCH  18  19
ATOM     19  C   UNL     1      -8.804  -6.535   3.963  1.00  0.00    -0.003 C 
ATOM     20  C   UNL     1      -9.712  -6.798   5.165  1.00  0.00     0.004 C 
ENDBRANCH  18  19
ENDBRANCH  17  18
ENDBRANCH  16  17
ENDBRANCH  15  16
ENDBRANCH  13  14
ENDBRANCH  12  13
ENDBRANCH   1  11
TORSDOF 14
ENDMDL
MODEL 7
REMARK VINA RESULT:    -4.439      1.365      3.366
REMARK INTER + INTRA:         -10.370
REMARK INTER:                  -8.655
REMARK INTRA:                  -1.715
REMARK UNBOUND:                -2.297
REMARK SMILES CCCCCC=CCC=CCCCCCCCC(=O)[O-]
REMARK SMILES IDX 11 1 12 2 13 3 14 4 15 5 16 6 17 7 18 8 19 9 20 10 10 11
REMARK SMILES IDX 9 12 8 13 7 14 6 15 5 16 4 17 3 18 2 19 1 20
REMARK H PARENT
REMARK Flexibility Score: inf
ROOT
ATOM      1  C   UNL     1      -8.307  -4.745   4.010  1.00  0.00     0.027 C 
ENDROOT
BRANCH   1   2
ATOM      2  C   UNL     1      -7.630  -6.111   4.192  1.00  0.00     0.004 C 
BRANCH   2   3
ATOM      3  C   UNL     1      -6.584  -6.090   5.320  1.00  0.00     0.000 C 
BRANCH   3   4
ATOM      4  C   UNL     1      -6.367  -7.478   5.944  1.00  0.00     0.000 C 
BRANCH   4   5
ATOM      5  C   UNL     1      -6.275  -8.587   4.882  1.00  0.00     0.000 C 
BRANCH   5   6
ATOM      6  C   UNL     1      -4.860  -8.726   4.298  1.00  0.00     0.006 C 
BRANCH   6   7
ATOM      7  C   UNL     1      -3.802  -8.978   5.380  1.00  0.00     0.053 C 
BRANCH   7   8
ATOM      8  C   UNL     1      -2.611  -8.100   5.161  1.00  0.00     0.041 C 
ATOM      9  O   UNL     1      -2.619  -6.906   5.561  1.00  0.00    -0.550 OA
ATOM     10  O   UNL     1      -1.470  -8.615   4.556  1.00  0.00    -0.550 OA
ENDBRANCH   7   8
ENDBRANCH   6   7
ENDBRANCH   5   6
ENDBRANCH   4   5
ENDBRANCH   3   4
ENDBRANCH   2   3
ENDBRANCH   1   2
BRANCH   1  11
ATOM     11  C   UNL     1      -7.773  -3.714   4.968  1.00  0.00    -0.031 C 
ATOM     12  C   UNL     1      -8.295  -2.481   5.037  1.00  0.00    -0.027 C 
BRANCH  12  13
ATOM     13  C   UNL     1      -7.753  -1.450   5.988  1.00  0.00     0.054 C 
BRANCH  13  14
ATOM     14  C   UNL     1      -7.743  -1.961   7.402  1.00  0.00    -0.027 C 
ATOM     15  C   UNL     1      -6.674  -1.801   8.197  1.00  0.00    -0.031 C 
BRANCH  15  16
ATOM     16  C   UNL     1      -6.668  -2.300   9.615  1.00  0.00     0.027 C 
BRANCH  16  17
ATOM     17  C   UNL     1      -5.609  -3.392   9.815  1.00  0.00     0.004 C 
BRANCH  17  18
ATOM     18  C   UNL     1      -6.172  -4.776   9.458  1.00  0.00     0.000 C 
BRANCH  18  19
ATOM     19  C   UNL     1      -5.117  -5.701   8.836  1.00  0.00    -0.003 C 
ATOM     20  C   UNL     1      -4.134  -4.956   7.931  1.00  0.00     0.004 C 
ENDBRANCH  18  19
ENDBRANCH  17  18
ENDBRANCH  16  17
ENDBRANCH  15  16
ENDBRANCH  13  14
ENDBRANCH  12  13
ENDBRANCH   1  11
TORSDOF 14
ENDMDL
MODEL 8
REMARK VINA RESULT:    -4.434      3.010      6.546
REMARK INTER + INTRA:         -10.360
REMARK INTER:                  -7.949
REMARK INTRA:                  -2.412
REMARK UNBOUND:                -2.297
REMARK SMILES CCCCCC=CCC=CCCCCCCCC(=O)[O-]
REMARK SMILES IDX 11 1 12 2 13 3 14 4 15 5 16 6 17 7 18 8 19 9 20 10 10 11
REMARK SMILES IDX 9 12 8 13 7 14 6 15 5 16 4 17 3 18 2 19 1 20
REMARK H PARENT
REMARK Flexibility Score: inf
ROOT
ATOM      1  C   UNL     1      -4.485  -6.158   8.545  1.00  0.00     0.027 C 
ENDROOT
BRANCH   1   2
ATOM      2  C   UNL     1      -4.335  -4.703   8.077  1.00  0.00     0.004 C 
BRANCH   2   3
ATOM      3  C   UNL     1      -4.867  -3.705   9.120  1.00  0.00     0.000 C 
BRANCH   3   4
ATOM      4  C   UNL     1      -6.098  -4.242   9.869  1.00  0.00     0.000 C 
BRANCH   4   5
ATOM      5  C   UNL     1      -7.403  -3.580   9.396  1.00  0.00     0.000 C 
BRANCH   5   6
ATOM      6  C   UNL     1      -7.184  -2.146   8.886  1.00  0.00     0.006 C 
BRANCH   6   7
ATOM      7  C   UNL     1      -8.009  -1.839   7.629  1.00  0.00     0.053 C 
BRANCH   7   8
ATOM      8  C   UNL     1      -7.108  -1.603   6.458  1.00  0.00     0.041 C 
ATOM      9  O   UNL     1      -5.901  -1.957   6.504  1.00  0.00    -0.550 OA
ATOM     10  O   UNL     1      -7.615  -1.032   5.297  1.00  0.00    -0.550 OA
ENDBRANCH   7   8
ENDBRANCH   6   7
ENDBRANCH   5   6
ENDBRANCH   4   5
ENDBRANCH   3   4
ENDBRANCH   2   3
ENDBRANCH   1   2
BRANCH   1  11
ATOM     11  C   UNL     1      -4.452  -7.131   7.396  1.00  0.00    -0.031 C 
ATOM     12  C   UNL     1      -3.663  -6.933   6.330  1.00  0.00    -0.027 C 
BRANCH  12  13
ATOM     13  C   UNL     1      -3.640  -7.901   5.180  1.00  0.00     0.054 C 
BRANCH  13  14
ATOM     14  C   UNL     1      -4.978  -7.976   4.500  1.00  0.00    -0.027 C 
ATOM     15  C   UNL     1      -6.009  -8.634   5.053  1.00  0.00    -0.031 C 
BRANCH  15  16
ATOM     16  C   UNL     1      -7.352  -8.699   4.380  1.00  0.00     0.027 C 
BRANCH  16  17
ATOM     17  C   UNL     1      -8.116  -7.378   4.539  1.00  0.00     0.004 C 
BRANCH  17  18
ATOM     18  C   UNL     1      -8.184  -6.956   6.014  1.00  0.00     0.000 C 
BRANCH  18  19
ATOM     19  C   UNL     1      -7.593  -5.560   6.257  1.00  0.00    -0.003 C 
ATOM     20  C   UNL     1      -6.940  -4.966   5.007  1.00  0.00     0.004 C 
ENDBRANCH  18  19
ENDBRANCH  17  18
ENDBRANCH  16  17
ENDBRANCH  15  16
ENDBRANCH  13  14
ENDBRANCH  12  13
ENDBRANCH   1  11
TORSDOF 14
ENDMDL
MODEL 9
REMARK VINA RESULT:    -4.429      2.439      3.761
REMARK INTER + INTRA:         -10.350
REMARK INTER:                  -8.419
REMARK INTRA:                  -1.931
REMARK UNBOUND:                -2.297
REMARK SMILES CCCCCC=CCC=CCCCCCCCC(=O)[O-]
REMARK SMILES IDX 11 1 12 2 13 3 14 4 15 5 16 6 17 7 18 8 19 9 20 10 10 11
REMARK SMILES IDX 9 12 8 13 7 14 6 15 5 16 4 17 3 18 2 19 1 20
REMARK H PARENT
REMARK Flexibility Score: inf
ROOT
ATOM      1  C   UNL     1      -3.040  -7.042   5.820  1.00  0.00     0.027 C 
ENDROOT
BRANCH   1   2
ATOM      2  C   UNL     1      -2.739  -8.449   5.285  1.00  0.00     0.004 C 
BRANCH   2   3
ATOM      3  C   UNL     1      -4.012  -9.306   5.169  1.00  0.00     0.000 C 
BRANCH   3   4
ATOM      4  C   UNL     1      -4.891  -8.889   3.978  1.00  0.00     0.000 C 
BRANCH   4   5
ATOM      5  C   UNL     1      -6.386  -8.861   4.337  1.00  0.00     0.000 C 
BRANCH   5   6
ATOM      6  C   UNL     1      -6.783  -7.587   5.101  1.00  0.00     0.006 C 
BRANCH   6   7
ATOM      7  C   UNL     1      -6.332  -6.309   4.382  1.00  0.00     0.053 C 
BRANCH   7   8
ATOM      8  C   UNL     1      -6.516  -5.118   5.269  1.00  0.00     0.041 C 
ATOM      9  O   UNL     1      -5.661  -4.195   5.278  1.00  0.00    -0.550 OA
ATOM     10  O   UNL     1      -7.659  -5.005   6.052  1.00  0.00    -0.550 OA
ENDBRANCH   7   8
ENDBRANCH   6   7
ENDBRANCH   5   6
ENDBRANCH   4   5
ENDBRANCH   3   4
ENDBRANCH   2   3
ENDBRANCH   1   2
BRANCH   1  11
ATOM     11  C   UNL     1      -3.822  -7.078   7.106  1.00  0.00    -0.031 C 
ATOM     12  C   UNL     1      -4.145  -5.956   7.765  1.00  0.00    -0.027 C 
BRANCH  12  13
ATOM     13  C   UNL     1      -4.917  -5.996   9.054  1.00  0.00     0.054 C 
BRANCH  13  14
ATOM     14  C   UNL     1      -5.770  -4.770   9.219  1.00  0.00    -0.027 C 
ATOM     15  C   UNL     1      -5.488  -3.627   8.574  1.00  0.00    -0.031 C 
BRANCH  15  16
ATOM     16  C   UNL     1      -6.348  -2.404   8.729  1.00  0.00     0.027 C 
BRANCH  16  17
ATOM     17  C   UNL     1      -6.423  -1.609   7.419  1.00  0.00     0.004 C 
BRANCH  17  18
ATOM     18  C   UNL     1      -7.672  -0.715   7.389  1.00  0.00     0.000 C 
BRANCH  18  19
ATOM     19  C   UNL     1      -8.134  -0.395   5.960  1.00  0.00    -0.003 C 
ATOM     20  C   UNL     1      -8.372  -1.650   5.118  1.00  0.00     0.004 C 
ENDBRANCH  18  19
ENDBRANCH  17  18
ENDBRANCH  16  17
ENDBRANCH  15  16
ENDBRANCH  13  14
ENDBRANCH  12  13
ENDBRANCH   1  11
TORSDOF 14
ENDMDL
