MODEL 1
REMARK VINA RESULT:    -4.284      0.000      0.000
REMARK INTER + INTRA:          -5.702
REMARK INTER:                  -5.536
REMARK INTRA:                  -0.166
REMARK UNBOUND:                -0.166
REMARK SMILES CCCCCCC(=O)[O-]
REMARK SMILES IDX 5 1 6 2 7 3 8 4 9 5 4 6 3 7 2 8 1 9
REMARK H PARENT
REMARK Flexibility Score: inf
ROOT
ATOM      1  C   UNL     1    -105.077 -86.263  37.321  1.00  0.00     0.006 C 
ENDROOT
BRANCH   1   2
ATOM      2  C   UNL     1    -105.129 -87.417  36.312  1.00  0.00     0.053 C 
BRANCH   2   3
ATOM      3  C   UNL     1    -105.888 -87.008  35.089  1.00  0.00     0.041 C 
ATOM      4  O   UNL     1    -106.618 -87.840  34.488  1.00  0.00    -0.550 OA
ATOM      5  O   UNL     1    -105.749 -85.722  34.582  1.00  0.00    -0.550 OA
ENDBRANCH   2   3
ENDBRANCH   1   2
BRANCH   1   6
ATOM      6  C   UNL     1    -104.181 -86.567  38.536  1.00  0.00     0.000 C 
BRANCH   6   7
ATOM      7  C   UNL     1    -104.363 -85.615  39.731  1.00  0.00    -0.000 C 
BRANCH   7   8
ATOM      8  C   UNL     1    -105.464 -84.569  39.501  1.00  0.00    -0.003 C 
ATOM      9  C   UNL     1    -104.899 -83.153  39.563  1.00  0.00     0.004 C 
ENDBRANCH   7   8
ENDBRANCH   6   7
ENDBRANCH   1   6
TORSDOF 5
ENDMDL
MODEL 2
REMARK VINA RESULT:    -4.208      3.353      4.075
REMARK INTER + INTRA:          -5.605
REMARK INTER:                  -5.220
REMARK INTRA:                  -0.385
REMARK UNBOUND:                -0.166
REMARK SMILES CCCCCCC(=O)[O-]
REMARK SMILES IDX 5 1 6 2 7 3 8 4 9 5 4 6 3 7 2 8 1 9
REMARK H PARENT
REMARK Flexibility Score: inf
ROOT
ATOM      1  C   UNL     1    -104.941 -85.469  38.996  1.00  0.00     0.006 C 
ENDROOT
BRANCH   1   2
ATOM      2  C   UNL     1    -103.794 -86.019  39.852  1.00  0.00     0.053 C 
BRANCH   2   3
ATOM      3  C   UNL     1    -102.548 -86.153  39.033  1.00  0.00     0.041 C 
ATOM      4  O   UNL     1    -101.778 -87.135  39.207  1.00  0.00    -0.550 OA
ATOM      5  O   UNL     1    -102.211 -85.169  38.114  1.00  0.00    -0.550 OA
ENDBRANCH   2   3
ENDBRANCH   1   2
BRANCH   1   6
ATOM      6  C   UNL     1    -105.534 -84.163  39.555  1.00  0.00     0.000 C 
BRANCH   6   7
ATOM      7  C   UNL     1    -104.977 -82.875  38.922  1.00  0.00    -0.000 C 
BRANCH   7   8
ATOM      8  C   UNL     1    -104.291 -81.955  39.943  1.00  0.00    -0.003 C 
ATOM      9  C   UNL     1    -102.841 -82.375  40.174  1.00  0.00     0.004 C 
ENDBRANCH   7   8
ENDBRANCH   6   7
ENDBRANCH   1   6
TORSDOF 5
ENDMDL
MODEL 3
REMARK VINA RESULT:    -4.171      2.388      3.305
REMARK INTER + INTRA:          -5.557
REMARK INTER:                  -5.369
REMARK INTRA:                  -0.188
REMARK UNBOUND:                -0.166
REMARK SMILES CCCCCCC(=O)[O-]
REMARK SMILES IDX 5 1 6 2 7 3 8 4 9 5 4 6 3 7 2 8 1 9
REMARK H PARENT
REMARK Flexibility Score: inf
ROOT
ATOM      1  C   UNL     1    -105.140 -85.088  39.468  1.00  0.00     0.006 C 
ENDROOT
BRANCH   1   2
ATOM      2  C   UNL     1    -105.026 -85.582  38.021  1.00  0.00     0.053 C 
BRANCH   2   3
ATOM      3  C   UNL     1    -104.482 -86.975  37.984  1.00  0.00     0.041 C 
ATOM      4  O   UNL     1    -104.990 -87.835  37.217  1.00  0.00    -0.550 OA
ATOM      5  O   UNL     1    -103.446 -87.339  38.834  1.00  0.00    -0.550 OA
ENDBRANCH   2   3
ENDBRANCH   1   2
BRANCH   1   6
ATOM      6  C   UNL     1    -105.357 -83.567  39.568  1.00  0.00     0.000 C 
BRANCH   6   7
ATOM      7  C   UNL     1    -104.247 -82.711  38.933  1.00  0.00    -0.000 C 
BRANCH   7   8
ATOM      8  C   UNL     1    -103.255 -82.156  39.965  1.00  0.00    -0.003 C 
ATOM      9  C   UNL     1    -102.135 -83.155  40.244  1.00  0.00     0.004 C 
ENDBRANCH   7   8
ENDBRANCH   6   7
ENDBRANCH   1   6
TORSDOF 5
ENDMDL
MODEL 4
REMARK VINA RESULT:    -4.164      1.046      1.603
REMARK INTER + INTRA:          -5.547
REMARK INTER:                  -5.284
REMARK INTRA:                  -0.264
REMARK UNBOUND:                -0.166
REMARK SMILES CCCCCCC(=O)[O-]
REMARK SMILES IDX 5 1 6 2 7 3 8 4 9 5 4 6 3 7 2 8 1 9
REMARK H PARENT
REMARK Flexibility Score: inf
ROOT
ATOM      1  C   UNL     1    -104.271 -86.519  38.421  1.00  0.00     0.006 C 
ENDROOT
BRANCH   1   2
ATOM      2  C   UNL     1    -104.850 -85.871  37.157  1.00  0.00     0.053 C 
BRANCH   2   3
ATOM      3  C   UNL     1    -105.269 -86.921  36.177  1.00  0.00     0.041 C 
ATOM      4  O   UNL     1    -105.148 -88.141  36.465  1.00  0.00    -0.550 OA
ATOM      5  O   UNL     1    -105.746 -86.553  34.926  1.00  0.00    -0.550 OA
ENDBRANCH   2   3
ENDBRANCH   1   2
BRANCH   1   6
ATOM      6  C   UNL     1    -104.423 -85.634  39.672  1.00  0.00     0.000 C 
BRANCH   6   7
ATOM      7  C   UNL     1    -105.490 -84.530  39.561  1.00  0.00    -0.000 C 
BRANCH   7   8
ATOM      8  C   UNL     1    -104.903 -83.117  39.681  1.00  0.00    -0.003 C 
ATOM      9  C   UNL     1    -103.377 -83.149  39.650  1.00  0.00     0.004 C 
ENDBRANCH   7   8
ENDBRANCH   6   7
ENDBRANCH   1   6
TORSDOF 5
ENDMDL
MODEL 5
REMARK VINA RESULT:    -4.144      1.674      2.911
REMARK INTER + INTRA:          -5.521
REMARK INTER:                  -5.179
REMARK INTRA:                  -0.342
REMARK UNBOUND:                -0.166
REMARK SMILES CCCCCCC(=O)[O-]
REMARK SMILES IDX 5 1 6 2 7 3 8 4 9 5 4 6 3 7 2 8 1 9
REMARK H PARENT
REMARK Flexibility Score: inf
ROOT
ATOM      1  C   UNL     1    -104.741 -85.504  39.708  1.00  0.00     0.006 C 
ENDROOT
BRANCH   1   2
ATOM      2  C   UNL     1    -103.885 -85.776  38.465  1.00  0.00     0.053 C 
BRANCH   2   3
ATOM      3  C   UNL     1    -104.692 -86.480  37.419  1.00  0.00     0.041 C 
ATOM      4  O   UNL     1    -105.180 -85.834  36.455  1.00  0.00    -0.550 OA
ATOM      5  O   UNL     1    -104.946 -87.840  37.537  1.00  0.00    -0.550 OA
ENDBRANCH   2   3
ENDBRANCH   1   2
BRANCH   1   6
ATOM      6  C   UNL     1    -105.555 -84.202  39.604  1.00  0.00     0.000 C 
BRANCH   6   7
ATOM      7  C   UNL     1    -104.830 -83.037  38.908  1.00  0.00    -0.000 C 
BRANCH   7   8
ATOM      8  C   UNL     1    -104.156 -82.075  39.897  1.00  0.00    -0.003 C 
ATOM      9  C   UNL     1    -102.668 -82.385  40.040  1.00  0.00     0.004 C 
ENDBRANCH   7   8
ENDBRANCH   6   7
ENDBRANCH   1   6
TORSDOF 5
ENDMDL
MODEL 6
REMARK VINA RESULT:    -4.103      2.806      4.823
REMARK INTER + INTRA:          -5.469
REMARK INTER:                  -5.152
REMARK INTRA:                  -0.317
REMARK UNBOUND:                -0.166
REMARK SMILES CCCCCCC(=O)[O-]
REMARK SMILES IDX 5 1 6 2 7 3 8 4 9 5 4 6 3 7 2 8 1 9
REMARK H PARENT
REMARK Flexibility Score: inf
ROOT
ATOM      1  C   UNL     1    -105.399 -84.511  39.435  1.00  0.00     0.006 C 
ENDROOT
BRANCH   1   2
ATOM      2  C   UNL     1    -104.832 -83.100  39.638  1.00  0.00     0.053 C 
BRANCH   2   3
ATOM      3  C   UNL     1    -103.477 -82.986  39.013  1.00  0.00     0.041 C 
ATOM      4  O   UNL     1    -102.472 -82.720  39.724  1.00  0.00    -0.550 OA
ATOM      5  O   UNL     1    -103.331 -83.124  37.639  1.00  0.00    -0.550 OA
ENDBRANCH   2   3
ENDBRANCH   1   2
BRANCH   1   6
ATOM      6  C   UNL     1    -104.410 -85.619  39.841  1.00  0.00     0.000 C 
BRANCH   6   7
ATOM      7  C   UNL     1    -104.062 -86.618  38.723  1.00  0.00    -0.000 C 
BRANCH   7   8
ATOM      8  C   UNL     1    -104.893 -86.405  37.450  1.00  0.00    -0.003 C 
ATOM      9  C   UNL     1    -105.064 -87.712  36.679  1.00  0.00     0.004 C 
ENDBRANCH   7   8
ENDBRANCH   6   7
ENDBRANCH   1   6
TORSDOF 5
ENDMDL
MODEL 7
REMARK VINA RESULT:    -4.083      2.428      3.093
REMARK INTER + INTRA:          -5.443
REMARK INTER:                  -5.230
REMARK INTRA:                  -0.213
REMARK UNBOUND:                -0.166
REMARK SMILES CCCCCCC(=O)[O-]
REMARK SMILES IDX 5 1 6 2 7 3 8 4 9 5 4 6 3 7 2 8 1 9
REMARK H PARENT
REMARK Flexibility Score: inf
ROOT
ATOM      1  C   UNL     1    -105.129 -85.251  39.257  1.00  0.00     0.006 C 
ENDROOT
BRANCH   1   2
ATOM      2  C   UNL     1    -105.059 -85.715  37.797  1.00  0.00     0.053 C 
BRANCH   2   3
ATOM      3  C   UNL     1    -104.608 -87.139  37.722  1.00  0.00     0.041 C 
ATOM      4  O   UNL     1    -103.805 -87.596  38.578  1.00  0.00    -0.550 OA
ATOM      5  O   UNL     1    -105.035 -87.949  36.678  1.00  0.00    -0.550 OA
ENDBRANCH   2   3
ENDBRANCH   1   2
BRANCH   1   6
ATOM      6  C   UNL     1    -104.303 -83.980  39.524  1.00  0.00     0.000 C 
BRANCH   6   7
ATOM      7  C   UNL     1    -102.819 -84.227  39.851  1.00  0.00    -0.000 C 
BRANCH   7   8
ATOM      8  C   UNL     1    -102.021 -82.928  40.030  1.00  0.00    -0.003 C 
ATOM      9  C   UNL     1    -102.950 -81.733  40.227  1.00  0.00     0.004 C 
ENDBRANCH   7   8
ENDBRANCH   6   7
ENDBRANCH   1   6
TORSDOF 5
ENDMDL
MODEL 8
REMARK VINA RESULT:    -4.066      3.235      4.733
REMARK INTER + INTRA:          -5.420
REMARK INTER:                  -5.167
REMARK INTRA:                  -0.253
REMARK UNBOUND:                -0.166
REMARK SMILES CCCCCCC(=O)[O-]
REMARK SMILES IDX 5 1 6 2 7 3 8 4 9 5 4 6 3 7 2 8 1 9
REMARK H PARENT
REMARK Flexibility Score: inf
ROOT
ATOM      1  C   UNL     1    -104.520 -85.627  39.581  1.00  0.00     0.006 C 
ENDROOT
BRANCH   1   2
ATOM      2  C   UNL     1    -105.506 -84.462  39.439  1.00  0.00     0.053 C 
BRANCH   2   3
ATOM      3  C   UNL     1    -104.777 -83.156  39.443  1.00  0.00     0.041 C 
ATOM      4  O   UNL     1    -103.594 -83.092  39.868  1.00  0.00    -0.550 OA
ATOM      5  O   UNL     1    -105.422 -81.999  39.024  1.00  0.00    -0.550 OA
ENDBRANCH   2   3
ENDBRANCH   1   2
BRANCH   1   6
ATOM      6  C   UNL     1    -104.017 -86.157  38.225  1.00  0.00     0.000 C 
BRANCH   6   7
ATOM      7  C   UNL     1    -104.639 -87.492  37.779  1.00  0.00    -0.000 C 
BRANCH   7   8
ATOM      8  C   UNL     1    -105.365 -87.393  36.430  1.00  0.00    -0.003 C 
ATOM      9  C   UNL     1    -105.129 -86.033  35.777  1.00  0.00     0.004 C 
ENDBRANCH   7   8
ENDBRANCH   6   7
ENDBRANCH   1   6
TORSDOF 5
ENDMDL
MODEL 9
REMARK VINA RESULT:    -4.062      3.050      4.909
REMARK INTER + INTRA:          -5.415
REMARK INTER:                  -5.205
REMARK INTRA:                  -0.210
REMARK UNBOUND:                -0.166
REMARK SMILES CCCCCCC(=O)[O-]
REMARK SMILES IDX 5 1 6 2 7 3 8 4 9 5 4 6 3 7 2 8 1 9
REMARK H PARENT
REMARK Flexibility Score: inf
ROOT
ATOM      1  C   UNL     1    -104.973 -85.085  39.160  1.00  0.00     0.006 C 
ENDROOT
BRANCH   1   2
ATOM      2  C   UNL     1    -103.618 -85.420  39.795  1.00  0.00     0.053 C 
BRANCH   2   3
ATOM      3  C   UNL     1    -102.565 -84.473  39.312  1.00  0.00     0.041 C 
ATOM      4  O   UNL     1    -102.406 -83.359  39.878  1.00  0.00    -0.550 OA
ATOM      5  O   UNL     1    -101.793 -84.798  38.204  1.00  0.00    -0.550 OA
ENDBRANCH   2   3
ENDBRANCH   1   2
BRANCH   1   6
ATOM      6  C   UNL     1    -105.123 -85.647  37.734  1.00  0.00     0.000 C 
BRANCH   6   7
ATOM      7  C   UNL     1    -104.789 -87.142  37.588  1.00  0.00    -0.000 C 
BRANCH   7   8
ATOM      8  C   UNL     1    -105.286 -87.741  36.265  1.00  0.00    -0.003 C 
ATOM      9  C   UNL     1    -105.366 -86.675  35.175  1.00  0.00     0.004 C 
ENDBRANCH   7   8
ENDBRANCH   6   7
ENDBRANCH   1   6
TORSDOF 5
ENDMDL
