MODEL 1
REMARK VINA RESULT:    -3.897      0.000      0.000
REMARK INTER + INTRA:          -6.492
REMARK INTER:                  -5.947
REMARK INTRA:                  -0.544
REMARK UNBOUND:                -0.544
REMARK SMILES CCCCCCCCCC=CC(=O)[O-]
REMARK SMILES IDX 7 1 8 2 9 3 10 4 11 5 12 6 13 7 14 8 6 9 5 10 4 11 3 12 2 13
REMARK SMILES IDX 1 14
REMARK H PARENT
REMARK Flexibility Score: inf
ROOT
ATOM      1  C   UNL     1      61.909  30.600  61.453  1.00  0.00     0.000 C 
ENDROOT
BRANCH   1   2
ATOM      2  C   UNL     1      63.446  30.616  61.587  1.00  0.00     0.004 C 
BRANCH   2   3
ATOM      3  C   UNL     1      64.087  29.315  61.078  1.00  0.00     0.027 C 
BRANCH   3   4
ATOM      4  C   UNL     1      65.529  29.524  60.715  1.00  0.00    -0.025 C 
ATOM      5  C   UNL     1      66.479  28.664  61.100  1.00  0.00     0.020 C 
BRANCH   5   6
ATOM      6  C   UNL     1      67.899  28.858  60.767  1.00  0.00     0.064 C 
ATOM      7  O   UNL     1      68.810  28.405  61.510  1.00  0.00    -0.545 OA
ATOM      8  O   UNL     1      68.241  29.550  59.613  1.00  0.00    -0.545 OA
ENDBRANCH   5   6
ENDBRANCH   3   4
ENDBRANCH   2   3
ENDBRANCH   1   2
BRANCH   1   9
ATOM      9  C   UNL     1      61.313  31.953  61.026  1.00  0.00     0.000 C 
BRANCH   9  10
ATOM     10  C   UNL     1      62.366  32.922  60.471  1.00  0.00     0.000 C 
BRANCH  10  11
ATOM     11  C   UNL     1      61.834  34.362  60.455  1.00  0.00    -0.000 C 
BRANCH  11  12
ATOM     12  C   UNL     1      62.830  35.375  61.047  1.00  0.00    -0.000 C 
BRANCH  12  13
ATOM     13  C   UNL     1      64.210  34.795  61.399  1.00  0.00    -0.003 C 
ATOM     14  C   UNL     1      65.249  35.872  61.710  1.00  0.00     0.004 C 
ENDBRANCH  12  13
ENDBRANCH  11  12
ENDBRANCH  10  11
ENDBRANCH   9  10
ENDBRANCH   1   9
TORSDOF 9
ENDMDL
MODEL 2
REMARK VINA RESULT:    -3.848      2.282      3.340
REMARK INTER + INTRA:          -6.417
REMARK INTER:                  -5.332
REMARK INTRA:                  -1.085
REMARK UNBOUND:                -0.544
REMARK SMILES CCCCCCCCCC=CC(=O)[O-]
REMARK SMILES IDX 7 1 8 2 9 3 10 4 11 5 12 6 13 7 14 8 6 9 5 10 4 11 3 12 2 13
REMARK SMILES IDX 1 14
REMARK H PARENT
REMARK Flexibility Score: inf
ROOT
ATOM      1  C   UNL     1      61.846  32.337  59.606  1.00  0.00     0.000 C 
ENDROOT
BRANCH   1   2
ATOM      2  C   UNL     1      61.341  32.273  61.063  1.00  0.00     0.004 C 
BRANCH   2   3
ATOM      3  C   UNL     1      61.031  30.834  61.507  1.00  0.00     0.027 C 
BRANCH   3   4
ATOM      4  C   UNL     1      62.285  30.016  61.614  1.00  0.00    -0.025 C 
ATOM      5  C   UNL     1      62.492  28.946  60.837  1.00  0.00     0.020 C 
BRANCH   5   6
ATOM      6  C   UNL     1      63.708  28.123  60.935  1.00  0.00     0.064 C 
ATOM      7  O   UNL     1      63.641  26.866  60.978  1.00  0.00    -0.545 OA
ATOM      8  O   UNL     1      64.949  28.743  60.980  1.00  0.00    -0.545 OA
ENDBRANCH   5   6
ENDBRANCH   3   4
ENDBRANCH   2   3
ENDBRANCH   1   2
BRANCH   1   9
ATOM      9  C   UNL     1      63.211  33.031  59.457  1.00  0.00     0.000 C 
BRANCH   9  10
ATOM     10  C   UNL     1      64.035  33.015  60.752  1.00  0.00     0.000 C 
BRANCH  10  11
ATOM     11  C   UNL     1      64.308  34.442  61.247  1.00  0.00    -0.000 C 
BRANCH  11  12
ATOM     12  C   UNL     1      63.588  35.515  60.411  1.00  0.00    -0.000 C 
BRANCH  12  13
ATOM     13  C   UNL     1      62.451  36.249  61.141  1.00  0.00    -0.003 C 
ATOM     14  C   UNL     1      61.083  36.021  60.499  1.00  0.00     0.004 C 
ENDBRANCH  12  13
ENDBRANCH  11  12
ENDBRANCH  10  11
ENDBRANCH   9  10
ENDBRANCH   1   9
TORSDOF 9
ENDMDL
MODEL 3
REMARK VINA RESULT:    -3.833     13.189     14.812
REMARK INTER + INTRA:          -6.395
REMARK INTER:                  -4.967
REMARK INTRA:                  -1.428
REMARK UNBOUND:                -0.544
REMARK SMILES CCCCCCCCCC=CC(=O)[O-]
REMARK SMILES IDX 7 1 8 2 9 3 10 4 11 5 12 6 13 7 14 8 6 9 5 10 4 11 3 12 2 13
REMARK SMILES IDX 1 14
REMARK H PARENT
REMARK Flexibility Score: inf
ROOT
ATOM      1  C   UNL     1      59.418  28.597  50.307  1.00  0.00     0.000 C 
ENDROOT
BRANCH   1   2
ATOM      2  C   UNL     1      58.000  29.089  49.950  1.00  0.00     0.004 C 
BRANCH   2   3
ATOM      3  C   UNL     1      56.990  28.814  51.076  1.00  0.00     0.027 C 
BRANCH   3   4
ATOM      4  C   UNL     1      55.690  28.302  50.527  1.00  0.00    -0.025 C 
ATOM      5  C   UNL     1      55.552  27.034  50.122  1.00  0.00     0.020 C 
BRANCH   5   6
ATOM      6  C   UNL     1      54.291  26.515  49.568  1.00  0.00     0.064 C 
ATOM      7  O   UNL     1      54.202  25.329  49.152  1.00  0.00    -0.545 OA
ATOM      8  O   UNL     1      53.181  27.346  49.504  1.00  0.00    -0.545 OA
ENDBRANCH   5   6
ENDBRANCH   3   4
ENDBRANCH   2   3
ENDBRANCH   1   2
BRANCH   1   9
ATOM      9  C   UNL     1      60.043  27.688  49.235  1.00  0.00     0.000 C 
BRANCH   9  10
ATOM     10  C   UNL     1      60.257  26.248  49.721  1.00  0.00     0.000 C 
BRANCH  10  11
ATOM     11  C   UNL     1      58.915  25.544  49.963  1.00  0.00    -0.000 C 
BRANCH  11  12
ATOM     12  C   UNL     1      58.868  24.786  51.302  1.00  0.00    -0.000 C 
BRANCH  12  13
ATOM     13  C   UNL     1      58.055  25.479  52.409  1.00  0.00    -0.003 C 
ATOM     14  C   UNL     1      58.895  26.429  53.261  1.00  0.00     0.004 C 
ENDBRANCH  12  13
ENDBRANCH  11  12
ENDBRANCH  10  11
ENDBRANCH   9  10
ENDBRANCH   1   9
TORSDOF 9
ENDMDL
MODEL 4
REMARK VINA RESULT:    -3.779      3.296      5.039
REMARK INTER + INTRA:          -6.311
REMARK INTER:                  -4.648
REMARK INTRA:                  -1.664
REMARK UNBOUND:                -0.544
REMARK SMILES CCCCCCCCCC=CC(=O)[O-]
REMARK SMILES IDX 7 1 8 2 9 3 10 4 11 5 12 6 13 7 14 8 6 9 5 10 4 11 3 12 2 13
REMARK SMILES IDX 1 14
REMARK H PARENT
REMARK Flexibility Score: inf
ROOT
ATOM      1  C   UNL     1      63.797  29.259  60.347  1.00  0.00     0.000 C 
ENDROOT
BRANCH   1   2
ATOM      2  C   UNL     1      64.666  30.500  60.642  1.00  0.00     0.004 C 
BRANCH   2   3
ATOM      3  C   UNL     1      64.843  31.393  59.404  1.00  0.00     0.027 C 
BRANCH   3   4
ATOM      4  C   UNL     1      64.534  32.828  59.719  1.00  0.00    -0.025 C 
ATOM      5  C   UNL     1      64.428  33.259  60.982  1.00  0.00     0.020 C 
BRANCH   5   6
ATOM      6  C   UNL     1      64.113  34.658  61.313  1.00  0.00     0.064 C 
ATOM      7  O   UNL     1      64.968  35.407  61.858  1.00  0.00    -0.545 OA
ATOM      8  O   UNL     1      62.853  35.161  61.021  1.00  0.00    -0.545 OA
ENDBRANCH   5   6
ENDBRANCH   3   4
ENDBRANCH   2   3
ENDBRANCH   1   2
BRANCH   1   9
ATOM      9  C   UNL     1      62.678  29.030  61.377  1.00  0.00     0.000 C 
BRANCH   9  10
ATOM     10  C   UNL     1      62.194  30.330  62.034  1.00  0.00     0.000 C 
BRANCH  10  11
ATOM     11  C   UNL     1      60.876  30.806  61.407  1.00  0.00    -0.000 C 
BRANCH  11  12
ATOM     12  C   UNL     1      60.994  32.190  60.745  1.00  0.00    -0.000 C 
BRANCH  12  13
ATOM     13  C   UNL     1      60.980  32.175  59.206  1.00  0.00    -0.003 C 
ATOM     14  C   UNL     1      60.711  30.787  58.625  1.00  0.00     0.004 C 
ENDBRANCH  12  13
ENDBRANCH  11  12
ENDBRANCH  10  11
ENDBRANCH   9  10
ENDBRANCH   1   9
TORSDOF 9
ENDMDL
MODEL 5
REMARK VINA RESULT:    -3.707     12.808     14.139
REMARK INTER + INTRA:          -6.201
REMARK INTER:                  -4.959
REMARK INTRA:                  -1.242
REMARK UNBOUND:                -0.544
REMARK SMILES CCCCCCCCCC=CC(=O)[O-]
REMARK SMILES IDX 7 1 8 2 9 3 10 4 11 5 12 6 13 7 14 8 6 9 5 10 4 11 3 12 2 13
REMARK SMILES IDX 1 14
REMARK H PARENT
REMARK Flexibility Score: inf
ROOT
ATOM      1  C   UNL     1      58.188  29.117  50.686  1.00  0.00     0.000 C 
ENDROOT
BRANCH   1   2
ATOM      2  C   UNL     1      58.877  28.806  49.341  1.00  0.00     0.004 C 
BRANCH   2   3
ATOM      3  C   UNL     1      60.178  28.008  49.527  1.00  0.00     0.027 C 
BRANCH   3   4
ATOM      4  C   UNL     1      59.908  26.531  49.566  1.00  0.00    -0.025 C 
ATOM      5  C   UNL     1      60.121  25.810  50.673  1.00  0.00     0.020 C 
BRANCH   5   6
ATOM      6  C   UNL     1      59.877  24.360  50.728  1.00  0.00     0.064 C 
ATOM      7  O   UNL     1      60.402  23.578  49.892  1.00  0.00    -0.545 OA
ATOM      8  O   UNL     1      59.053  23.845  51.720  1.00  0.00    -0.545 OA
ENDBRANCH   5   6
ENDBRANCH   3   4
ENDBRANCH   2   3
ENDBRANCH   1   2
BRANCH   1   9
ATOM      9  C   UNL     1      56.798  28.473  50.830  1.00  0.00     0.000 C 
BRANCH   9  10
ATOM     10  C   UNL     1      56.805  27.227  51.727  1.00  0.00     0.000 C 
BRANCH  10  11
ATOM     11  C   UNL     1      56.384  25.979  50.939  1.00  0.00    -0.000 C 
BRANCH  11  12
ATOM     12  C   UNL     1      55.669  26.318  49.618  1.00  0.00    -0.000 C 
BRANCH  12  13
ATOM     13  C   UNL     1      54.336  25.582  49.397  1.00  0.00    -0.003 C 
ATOM     14  C   UNL     1      53.607  25.261  50.702  1.00  0.00     0.004 C 
ENDBRANCH  12  13
ENDBRANCH  11  12
ENDBRANCH  10  11
ENDBRANCH   9  10
ENDBRANCH   1   9
TORSDOF 9
ENDMDL
MODEL 6
REMARK VINA RESULT:    -3.673      3.118      5.923
REMARK INTER + INTRA:          -6.150
REMARK INTER:                  -5.231
REMARK INTRA:                  -0.918
REMARK UNBOUND:                -0.544
REMARK SMILES CCCCCCCCCC=CC(=O)[O-]
REMARK SMILES IDX 7 1 8 2 9 3 10 4 11 5 12 6 13 7 14 8 6 9 5 10 4 11 3 12 2 13
REMARK SMILES IDX 1 14
REMARK H PARENT
REMARK Flexibility Score: inf
ROOT
ATOM      1  C   UNL     1      61.185  31.221  61.570  1.00  0.00     0.000 C 
ENDROOT
BRANCH   1   2
ATOM      2  C   UNL     1      60.691  31.420  60.122  1.00  0.00     0.004 C 
BRANCH   2   3
ATOM      3  C   UNL     1      61.532  32.457  59.360  1.00  0.00     0.027 C 
BRANCH   3   4
ATOM      4  C   UNL     1      61.942  33.589  60.256  1.00  0.00    -0.025 C 
ATOM      5  C   UNL     1      63.216  33.989  60.340  1.00  0.00     0.020 C 
BRANCH   5   6
ATOM      6  C   UNL     1      63.642  35.088  61.221  1.00  0.00     0.064 C 
ATOM      7  O   UNL     1      64.742  35.043  61.834  1.00  0.00    -0.545 OA
ATOM      8  O   UNL     1      62.817  36.193  61.380  1.00  0.00    -0.545 OA
ENDBRANCH   5   6
ENDBRANCH   3   4
ENDBRANCH   2   3
ENDBRANCH   1   2
BRANCH   1   9
ATOM      9  C   UNL     1      62.161  30.042  61.732  1.00  0.00     0.000 C 
BRANCH   9  10
ATOM     10  C   UNL     1      63.633  30.467  61.635  1.00  0.00     0.000 C 
BRANCH  10  11
ATOM     11  C   UNL     1      64.285  29.908  60.363  1.00  0.00    -0.000 C 
BRANCH  11  12
ATOM     12  C   UNL     1      64.328  28.370  60.338  1.00  0.00    -0.000 C 
BRANCH  12  13
ATOM     13  C   UNL     1      65.709  27.757  60.627  1.00  0.00    -0.003 C 
ATOM     14  C   UNL     1      66.760  28.802  61.002  1.00  0.00     0.004 C 
ENDBRANCH  12  13
ENDBRANCH  11  12
ENDBRANCH  10  11
ENDBRANCH   9  10
ENDBRANCH   1   9
TORSDOF 9
ENDMDL
MODEL 7
REMARK VINA RESULT:    -3.635      3.721      5.892
REMARK INTER + INTRA:          -6.092
REMARK INTER:                  -4.741
REMARK INTRA:                  -1.351
REMARK UNBOUND:                -0.544
REMARK SMILES CCCCCCCCCC=CC(=O)[O-]
REMARK SMILES IDX 7 1 8 2 9 3 10 4 11 5 12 6 13 7 14 8 6 9 5 10 4 11 3 12 2 13
REMARK SMILES IDX 1 14
REMARK H PARENT
REMARK Flexibility Score: inf
ROOT
ATOM      1  C   UNL     1      62.210  29.745  61.807  1.00  0.00     0.000 C 
ENDROOT
BRANCH   1   2
ATOM      2  C   UNL     1      61.228  30.917  61.602  1.00  0.00     0.004 C 
BRANCH   2   3
ATOM      3  C   UNL     1      61.561  31.741  60.348  1.00  0.00     0.027 C 
BRANCH   3   4
ATOM      4  C   UNL     1      61.497  33.214  60.633  1.00  0.00    -0.025 C 
ATOM      5  C   UNL     1      62.599  33.972  60.650  1.00  0.00     0.020 C 
BRANCH   5   6
ATOM      6  C   UNL     1      62.561  35.414  60.940  1.00  0.00     0.064 C 
ATOM      7  O   UNL     1      63.585  36.024  61.347  1.00  0.00    -0.545 OA
ATOM      8  O   UNL     1      61.375  36.114  60.761  1.00  0.00    -0.545 OA
ENDBRANCH   5   6
ENDBRANCH   3   4
ENDBRANCH   2   3
ENDBRANCH   1   2
BRANCH   1   9
ATOM      9  C   UNL     1      63.686  30.138  61.621  1.00  0.00     0.000 C 
BRANCH   9  10
ATOM     10  C   UNL     1      64.480  29.112  60.799  1.00  0.00     0.000 C 
BRANCH  10  11
ATOM     11  C   UNL     1      65.322  29.806  59.720  1.00  0.00    -0.000 C 
BRANCH  11  12
ATOM     12  C   UNL     1      65.169  31.337  59.731  1.00  0.00    -0.000 C 
BRANCH  12  13
ATOM     13  C   UNL     1      64.787  31.959  58.377  1.00  0.00    -0.003 C 
ATOM     14  C   UNL     1      63.909  31.043  57.525  1.00  0.00     0.004 C 
ENDBRANCH  12  13
ENDBRANCH  11  12
ENDBRANCH  10  11
ENDBRANCH   9  10
ENDBRANCH   1   9
TORSDOF 9
ENDMDL
MODEL 8
REMARK VINA RESULT:    -3.623      2.133      3.664
REMARK INTER + INTRA:          -6.073
REMARK INTER:                  -4.709
REMARK INTRA:                  -1.364
REMARK UNBOUND:                -0.544
REMARK SMILES CCCCCCCCCC=CC(=O)[O-]
REMARK SMILES IDX 7 1 8 2 9 3 10 4 11 5 12 6 13 7 14 8 6 9 5 10 4 11 3 12 2 13
REMARK SMILES IDX 1 14
REMARK H PARENT
REMARK Flexibility Score: inf
ROOT
ATOM      1  C   UNL     1      61.175  34.030  59.319  1.00  0.00     0.000 C 
ENDROOT
BRANCH   1   2
ATOM      2  C   UNL     1      61.130  32.507  59.567  1.00  0.00     0.004 C 
BRANCH   2   3
ATOM      3  C   UNL     1      61.130  32.163  61.065  1.00  0.00     0.027 C 
BRANCH   3   4
ATOM      4  C   UNL     1      61.857  30.876  61.326  1.00  0.00    -0.025 C 
ATOM      5  C   UNL     1      63.114  30.684  60.909  1.00  0.00     0.020 C 
BRANCH   5   6
ATOM      6  C   UNL     1      63.840  29.426  61.142  1.00  0.00     0.064 C 
ATOM      7  O   UNL     1      65.099  29.393  61.152  1.00  0.00    -0.545 OA
ATOM      8  O   UNL     1      63.124  28.255  61.356  1.00  0.00    -0.545 OA
ENDBRANCH   5   6
ENDBRANCH   3   4
ENDBRANCH   2   3
ENDBRANCH   1   2
BRANCH   1   9
ATOM      9  C   UNL     1      61.352  34.858  60.604  1.00  0.00     0.000 C 
BRANCH   9  10
ATOM     10  C   UNL     1      62.402  35.968  60.460  1.00  0.00     0.000 C 
BRANCH  10  11
ATOM     11  C   UNL     1      63.609  35.705  61.370  1.00  0.00    -0.000 C 
BRANCH  11  12
ATOM     12  C   UNL     1      64.401  34.448  60.967  1.00  0.00    -0.000 C 
BRANCH  12  13
ATOM     13  C   UNL     1      64.931  34.454  59.523  1.00  0.00    -0.003 C 
ATOM     14  C   UNL     1      64.820  33.091  58.839  1.00  0.00     0.004 C 
ENDBRANCH  12  13
ENDBRANCH  11  12
ENDBRANCH  10  11
ENDBRANCH   9  10
ENDBRANCH   1   9
TORSDOF 9
ENDMDL
MODEL 9
REMARK VINA RESULT:    -3.587     11.985     12.913
REMARK INTER + INTRA:          -6.018
REMARK INTER:                  -4.599
REMARK INTRA:                  -1.419
REMARK UNBOUND:                -0.544
REMARK SMILES CCCCCCCCCC=CC(=O)[O-]
REMARK SMILES IDX 7 1 8 2 9 3 10 4 11 5 12 6 13 7 14 8 6 9 5 10 4 11 3 12 2 13
REMARK SMILES IDX 1 14
REMARK H PARENT
REMARK Flexibility Score: inf
ROOT
ATOM      1  C   UNL     1      56.336  25.809  51.491  1.00  0.00     0.000 C 
ENDROOT
BRANCH   1   2
ATOM      2  C   UNL     1      57.838  25.459  51.538  1.00  0.00     0.004 C 
BRANCH   2   3
ATOM      3  C   UNL     1      58.480  25.469  50.141  1.00  0.00     0.027 C 
BRANCH   3   4
ATOM      4  C   UNL     1      59.975  25.573  50.231  1.00  0.00    -0.025 C 
ATOM      5  C   UNL     1      60.643  26.577  49.649  1.00  0.00     0.020 C 
BRANCH   5   6
ATOM      6  C   UNL     1      62.108  26.691  49.713  1.00  0.00     0.064 C 
ATOM      7  O   UNL     1      62.824  25.710  50.052  1.00  0.00    -0.545 OA
ATOM      8  O   UNL     1      62.713  27.899  49.394  1.00  0.00    -0.545 OA
ENDBRANCH   5   6
ENDBRANCH   3   4
ENDBRANCH   2   3
ENDBRANCH   1   2
BRANCH   1   9
ATOM      9  C   UNL     1      55.860  26.298  50.112  1.00  0.00     0.000 C 
BRANCH   9  10
ATOM     10  C   UNL     1      55.192  27.679  50.165  1.00  0.00     0.000 C 
BRANCH  10  11
ATOM     11  C   UNL     1      56.076  28.690  50.908  1.00  0.00    -0.000 C 
BRANCH  11  12
ATOM     12  C   UNL     1      57.404  28.972  50.183  1.00  0.00    -0.000 C 
BRANCH  12  13
ATOM     13  C   UNL     1      58.607  29.223  51.109  1.00  0.00    -0.003 C 
ATOM     14  C   UNL     1      58.270  29.040  52.588  1.00  0.00     0.004 C 
ENDBRANCH  12  13
ENDBRANCH  11  12
ENDBRANCH  10  11
ENDBRANCH   9  10
ENDBRANCH   1   9
TORSDOF 9
ENDMDL
