MODEL 1
REMARK VINA RESULT:    -4.234      0.000      0.000
REMARK INTER + INTRA:          -5.413
REMARK INTER:                  -5.100
REMARK INTRA:                  -0.313
REMARK UNBOUND:                -0.313
REMARK SMILES NC(=O)C[C@@H]([NH3+])C(=O)[O-]
REMARK SMILES IDX 4 1 5 2 6 3 7 7 8 8 9 9 2 10 3 11 1 12
REMARK H PARENT 6 4 6 5 6 6 1 13 1 14
REMARK Flexibility Score: inf
ROOT
ATOM      1  C   UNL     1     -13.024 -27.375 -13.706  1.00  0.00     0.171 C 
ENDROOT
BRANCH   1   2
ATOM      2  C   UNL     1     -13.984 -27.208 -12.511  1.00  0.00     0.237 C 
BRANCH   2   3
ATOM      3  N   UNL     1     -14.574 -25.863 -12.480  1.00  0.00    -0.350 N 
ATOM      4  H   UNL     1     -13.874 -25.177 -12.115  1.00  0.00     0.345 HD
ATOM      5  H   UNL     1     -14.840 -25.565 -13.446  1.00  0.00     0.345 HD
ATOM      6  H   UNL     1     -15.424 -25.844 -11.869  1.00  0.00     0.345 HD
ENDBRANCH   2   3
BRANCH   2   7
ATOM      7  C   UNL     1     -15.071 -28.247 -12.586  1.00  0.00     0.100 C 
ATOM      8  O   UNL     1     -15.016 -29.274 -11.859  1.00  0.00    -0.544 OA
ATOM      9  O   UNL     1     -16.132 -28.089 -13.471  1.00  0.00    -0.544 OA
ENDBRANCH   2   7
ENDBRANCH   1   2
BRANCH   1  10
ATOM     10  C   UNL     1     -13.631 -26.867 -14.981  1.00  0.00     0.223 C 
ATOM     11  O   UNL     1     -13.769 -25.627 -15.159  1.00  0.00    -0.275 OA
ATOM     12  N   UNL     1     -14.026 -27.778 -16.006  1.00  0.00    -0.369 N 
ATOM     13  H   UNL     1     -14.436 -27.422 -16.898  1.00  0.00     0.159 HD
ATOM     14  H   UNL     1     -13.907 -28.807 -15.877  1.00  0.00     0.159 HD
ENDBRANCH   1  10
TORSDOF 4
ENDMDL
MODEL 2
REMARK VINA RESULT:    -4.230      7.144      8.033
REMARK INTER + INTRA:          -5.408
REMARK INTER:                  -5.033
REMARK INTRA:                  -0.375
REMARK UNBOUND:                -0.313
REMARK SMILES NC(=O)C[C@@H]([NH3+])C(=O)[O-]
REMARK SMILES IDX 4 1 5 2 6 3 7 7 8 8 9 9 2 10 3 11 1 12
REMARK H PARENT 6 4 6 5 6 6 1 13 1 14
REMARK Flexibility Score: inf
ROOT
ATOM      1  C   UNL     1     -14.154 -34.701 -14.435  1.00  0.00     0.171 C 
ENDROOT
BRANCH   1   2
ATOM      2  C   UNL     1     -14.863 -35.947 -13.868  1.00  0.00     0.237 C 
BRANCH   2   3
ATOM      3  N   UNL     1     -15.323 -35.724 -12.491  1.00  0.00    -0.350 N 
ATOM      4  H   UNL     1     -15.142 -36.577 -11.914  1.00  0.00     0.345 HD
ATOM      5  H   UNL     1     -14.798 -34.929 -12.062  1.00  0.00     0.345 HD
ATOM      6  H   UNL     1     -16.347 -35.508 -12.472  1.00  0.00     0.345 HD
ENDBRANCH   2   3
BRANCH   2   7
ATOM      7  C   UNL     1     -16.028 -36.310 -14.750  1.00  0.00     0.100 C 
ATOM      8  O   UNL     1     -16.068 -35.910 -15.943  1.00  0.00    -0.544 OA
ATOM      9  O   UNL     1     -17.076 -37.074 -14.248  1.00  0.00    -0.544 OA
ENDBRANCH   2   7
ENDBRANCH   1   2
BRANCH   1  10
ATOM     10  C   UNL     1     -14.901 -33.440 -14.108  1.00  0.00     0.223 C 
ATOM     11  O   UNL     1     -14.885 -32.989 -12.932  1.00  0.00    -0.275 OA
ATOM     12  N   UNL     1     -15.606 -32.735 -15.128  1.00  0.00    -0.369 N 
ATOM     13  H   UNL     1     -16.114 -31.851 -14.903  1.00  0.00     0.159 HD
ATOM     14  H   UNL     1     -15.618 -33.090 -16.110  1.00  0.00     0.159 HD
ENDBRANCH   1  10
TORSDOF 4
ENDMDL
MODEL 3
REMARK VINA RESULT:    -4.211      7.444      8.243
REMARK INTER + INTRA:          -5.386
REMARK INTER:                  -5.087
REMARK INTRA:                  -0.299
REMARK UNBOUND:                -0.313
REMARK SMILES NC(=O)C[C@@H]([NH3+])C(=O)[O-]
REMARK SMILES IDX 4 1 5 2 6 3 7 7 8 8 9 9 2 10 3 11 1 12
REMARK H PARENT 6 4 6 5 6 6 1 13 1 14
REMARK Flexibility Score: inf
ROOT
ATOM      1  C   UNL     1     -14.517 -34.452 -14.271  1.00  0.00     0.171 C 
ENDROOT
BRANCH   1   2
ATOM      2  C   UNL     1     -15.127 -35.793 -14.727  1.00  0.00     0.237 C 
BRANCH   2   3
ATOM      3  N   UNL     1     -16.335 -35.586 -15.535  1.00  0.00    -0.350 N 
ATOM      4  H   UNL     1     -16.129 -34.926 -16.320  1.00  0.00     0.345 HD
ATOM      5  H   UNL     1     -16.648 -36.492 -15.953  1.00  0.00     0.345 HD
ATOM      6  H   UNL     1     -17.110 -35.193 -14.951  1.00  0.00     0.345 HD
ENDBRANCH   2   3
BRANCH   2   7
ATOM      7  C   UNL     1     -14.106 -36.571 -15.513  1.00  0.00     0.100 C 
ATOM      8  O   UNL     1     -13.140 -37.125 -14.924  1.00  0.00    -0.544 OA
ATOM      9  O   UNL     1     -14.212 -36.670 -16.896  1.00  0.00    -0.544 OA
ENDBRANCH   2   7
ENDBRANCH   1   2
BRANCH   1  10
ATOM     10  C   UNL     1     -14.849 -33.340 -15.224  1.00  0.00     0.223 C 
ATOM     11  O   UNL     1     -14.421 -33.380 -16.408  1.00  0.00    -0.275 OA
ATOM     12  N   UNL     1     -15.670 -32.251 -14.804  1.00  0.00    -0.369 N 
ATOM     13  H   UNL     1     -15.910 -31.485 -15.471  1.00  0.00     0.159 HD
ATOM     14  H   UNL     1     -16.041 -32.209 -13.829  1.00  0.00     0.159 HD
ENDBRANCH   1  10
TORSDOF 4
ENDMDL
MODEL 4
REMARK VINA RESULT:    -4.186      7.013      8.156
REMARK INTER + INTRA:          -5.355
REMARK INTER:                  -5.069
REMARK INTRA:                  -0.286
REMARK UNBOUND:                -0.313
REMARK SMILES NC(=O)C[C@@H]([NH3+])C(=O)[O-]
REMARK SMILES IDX 4 1 5 2 6 3 7 7 8 8 9 9 2 10 3 11 1 12
REMARK H PARENT 6 4 6 5 6 6 1 13 1 14
REMARK Flexibility Score: inf
ROOT
ATOM      1  C   UNL     1     -15.267 -35.671 -13.666  1.00  0.00     0.171 C 
ENDROOT
BRANCH   1   2
ATOM      2  C   UNL     1     -14.708 -34.389 -14.315  1.00  0.00     0.237 C 
BRANCH   2   3
ATOM      3  N   UNL     1     -15.267 -34.178 -15.656  1.00  0.00    -0.350 N 
ATOM      4  H   UNL     1     -16.239 -33.796 -15.580  1.00  0.00     0.345 HD
ATOM      5  H   UNL     1     -14.691 -33.482 -16.181  1.00  0.00     0.345 HD
ATOM      6  H   UNL     1     -15.293 -35.076 -16.193  1.00  0.00     0.345 HD
ENDBRANCH   2   3
BRANCH   2   7
ATOM      7  C   UNL     1     -15.010 -33.204 -13.436  1.00  0.00     0.100 C 
ATOM      8  O   UNL     1     -14.807 -33.268 -12.195  1.00  0.00    -0.544 OA
ATOM      9  O   UNL     1     -15.530 -32.038 -13.986  1.00  0.00    -0.544 OA
ENDBRANCH   2   7
ENDBRANCH   1   2
BRANCH   1  10
ATOM     10  C   UNL     1     -15.712 -36.667 -14.698  1.00  0.00     0.223 C 
ATOM     11  O   UNL     1     -14.880 -37.125 -15.526  1.00  0.00    -0.275 OA
ATOM     12  N   UNL     1     -17.064 -37.120 -14.728  1.00  0.00    -0.369 N 
ATOM     13  H   UNL     1     -17.369 -37.822 -15.438  1.00  0.00     0.159 HD
ATOM     14  H   UNL     1     -17.762 -36.757 -14.041  1.00  0.00     0.159 HD
ENDBRANCH   1  10
TORSDOF 4
ENDMDL
MODEL 5
REMARK VINA RESULT:    -4.155      1.805      3.220
REMARK INTER + INTRA:          -5.318
REMARK INTER:                  -4.911
REMARK INTRA:                  -0.407
REMARK UNBOUND:                -0.313
REMARK SMILES NC(=O)C[C@@H]([NH3+])C(=O)[O-]
REMARK SMILES IDX 4 1 5 2 6 3 7 7 8 8 9 9 2 10 3 11 1 12
REMARK H PARENT 6 4 6 5 6 6 1 13 1 14
REMARK Flexibility Score: inf
ROOT
ATOM      1  C   UNL     1     -16.077 -27.551 -13.591  1.00  0.00     0.171 C 
ENDROOT
BRANCH   1   2
ATOM      2  C   UNL     1     -14.985 -26.523 -13.950  1.00  0.00     0.237 C 
BRANCH   2   3
ATOM      3  N   UNL     1     -14.397 -25.922 -12.746  1.00  0.00    -0.350 N 
ATOM      4  H   UNL     1     -14.777 -26.393 -11.892  1.00  0.00     0.345 HD
ATOM      5  H   UNL     1     -13.361 -26.052 -12.748  1.00  0.00     0.345 HD
ATOM      6  H   UNL     1     -14.614 -24.899 -12.698  1.00  0.00     0.345 HD
ENDBRANCH   2   3
BRANCH   2   7
ATOM      7  C   UNL     1     -13.913 -27.190 -14.771  1.00  0.00     0.100 C 
ATOM      8  O   UNL     1     -12.701 -27.062 -14.454  1.00  0.00    -0.544 OA
ATOM      9  O   UNL     1     -14.253 -27.936 -15.894  1.00  0.00    -0.544 OA
ENDBRANCH   2   7
ENDBRANCH   1   2
BRANCH   1  10
ATOM     10  C   UNL     1     -15.497 -28.772 -12.938  1.00  0.00     0.223 C 
ATOM     11  O   UNL     1     -15.053 -28.702 -11.761  1.00  0.00    -0.275 OA
ATOM     12  N   UNL     1     -15.471 -30.018 -13.632  1.00  0.00    -0.369 N 
ATOM     13  H   UNL     1     -15.079 -30.870 -13.172  1.00  0.00     0.159 HD
ATOM     14  H   UNL     1     -15.845 -30.094 -14.604  1.00  0.00     0.159 HD
ENDBRANCH   1  10
TORSDOF 4
ENDMDL
MODEL 6
REMARK VINA RESULT:    -4.122      1.805      2.103
REMARK INTER + INTRA:          -5.278
REMARK INTER:                  -4.991
REMARK INTRA:                  -0.288
REMARK UNBOUND:                -0.313
REMARK SMILES NC(=O)C[C@@H]([NH3+])C(=O)[O-]
REMARK SMILES IDX 4 1 5 2 6 3 7 7 8 8 9 9 2 10 3 11 1 12
REMARK H PARENT 6 4 6 5 6 6 1 13 1 14
REMARK Flexibility Score: inf
ROOT
ATOM      1  C   UNL     1     -14.026 -28.297 -13.432  1.00  0.00     0.171 C 
ENDROOT
BRANCH   1   2
ATOM      2  C   UNL     1     -15.341 -28.766 -12.777  1.00  0.00     0.237 C 
BRANCH   2   3
ATOM      3  N   UNL     1     -16.432 -28.839 -13.757  1.00  0.00    -0.350 N 
ATOM      4  H   UNL     1     -16.076 -28.575 -14.705  1.00  0.00     0.345 HD
ATOM      5  H   UNL     1     -16.799 -29.816 -13.814  1.00  0.00     0.345 HD
ATOM      6  H   UNL     1     -17.213 -28.194 -13.492  1.00  0.00     0.345 HD
ENDBRANCH   2   3
BRANCH   2   7
ATOM      7  C   UNL     1     -15.133 -30.111 -12.133  1.00  0.00     0.100 C 
ATOM      8  O   UNL     1     -14.064 -30.359 -11.516  1.00  0.00    -0.544 OA
ATOM      9  O   UNL     1     -16.112 -31.093 -12.230  1.00  0.00    -0.544 OA
ENDBRANCH   2   7
ENDBRANCH   1   2
BRANCH   1  10
ATOM     10  C   UNL     1     -14.280 -27.373 -14.588  1.00  0.00     0.223 C 
ATOM     11  O   UNL     1     -14.883 -26.283 -14.398  1.00  0.00    -0.275 OA
ATOM     12  N   UNL     1     -13.819 -27.709 -15.896  1.00  0.00    -0.369 N 
ATOM     13  H   UNL     1     -13.985 -27.060 -16.696  1.00  0.00     0.159 HD
ATOM     14  H   UNL     1     -13.308 -28.604 -16.066  1.00  0.00     0.159 HD
ENDBRANCH   1  10
TORSDOF 4
ENDMDL
MODEL 7
REMARK VINA RESULT:    -4.118      1.900      3.850
REMARK INTER + INTRA:          -5.273
REMARK INTER:                  -5.176
REMARK INTRA:                  -0.097
REMARK UNBOUND:                -0.313
REMARK SMILES NC(=O)C[C@@H]([NH3+])C(=O)[O-]
REMARK SMILES IDX 4 1 5 2 6 3 7 7 8 8 9 9 2 10 3 11 1 12
REMARK H PARENT 6 4 6 5 6 6 1 13 1 14
REMARK Flexibility Score: inf
ROOT
ATOM      1  C   UNL     1     -15.723 -28.329 -13.777  1.00  0.00     0.171 C 
ENDROOT
BRANCH   1   2
ATOM      2  C   UNL     1     -14.365 -27.921 -14.384  1.00  0.00     0.237 C 
BRANCH   2   3
ATOM      3  N   UNL     1     -14.302 -28.234 -15.818  1.00  0.00    -0.350 N 
ATOM      4  H   UNL     1     -15.069 -27.734 -16.324  1.00  0.00     0.345 HD
ATOM      5  H   UNL     1     -13.392 -27.909 -16.216  1.00  0.00     0.345 HD
ATOM      6  H   UNL     1     -14.399 -29.263 -15.977  1.00  0.00     0.345 HD
ENDBRANCH   2   3
BRANCH   2   7
ATOM      7  C   UNL     1     -14.136 -26.449 -14.165  1.00  0.00     0.100 C 
ATOM      8  O   UNL     1     -13.954 -25.683 -15.148  1.00  0.00    -0.544 OA
ATOM      9  O   UNL     1     -14.107 -25.928 -12.876  1.00  0.00    -0.544 OA
ENDBRANCH   2   7
ENDBRANCH   1   2
BRANCH   1  10
ATOM     10  C   UNL     1     -15.622 -29.613 -13.005  1.00  0.00     0.223 C 
ATOM     11  O   UNL     1     -15.188 -29.601 -11.823  1.00  0.00    -0.275 OA
ATOM     12  N   UNL     1     -16.042 -30.843 -13.593  1.00  0.00    -0.369 N 
ATOM     13  H   UNL     1     -15.984 -31.733 -13.050  1.00  0.00     0.159 HD
ATOM     14  H   UNL     1     -16.416 -30.867 -14.568  1.00  0.00     0.159 HD
ENDBRANCH   1  10
TORSDOF 4
ENDMDL
MODEL 8
REMARK VINA RESULT:    -4.117      7.207      8.002
REMARK INTER + INTRA:          -5.272
REMARK INTER:                  -5.015
REMARK INTRA:                  -0.257
REMARK UNBOUND:                -0.313
REMARK SMILES NC(=O)C[C@@H]([NH3+])C(=O)[O-]
REMARK SMILES IDX 4 1 5 2 6 3 7 7 8 8 9 9 2 10 3 11 1 12
REMARK H PARENT 6 4 6 5 6 6 1 13 1 14
REMARK Flexibility Score: inf
ROOT
ATOM      1  C   UNL     1     -13.726 -35.759 -14.758  1.00  0.00     0.171 C 
ENDROOT
BRANCH   1   2
ATOM      2  C   UNL     1     -15.013 -35.295 -14.048  1.00  0.00     0.237 C 
BRANCH   2   3
ATOM      3  N   UNL     1     -15.203 -35.994 -12.770  1.00  0.00    -0.350 N 
ATOM      4  H   UNL     1     -14.638 -35.527 -12.023  1.00  0.00     0.345 HD
ATOM      5  H   UNL     1     -16.207 -35.952 -12.484  1.00  0.00     0.345 HD
ATOM      6  H   UNL     1     -14.909 -36.995 -12.847  1.00  0.00     0.345 HD
ENDBRANCH   2   3
BRANCH   2   7
ATOM      7  C   UNL     1     -14.958 -33.808 -13.822  1.00  0.00     0.100 C 
ATOM      8  O   UNL     1     -14.629 -33.350 -12.695  1.00  0.00    -0.544 OA
ATOM      9  O   UNL     1     -15.285 -32.930 -14.849  1.00  0.00    -0.544 OA
ENDBRANCH   2   7
ENDBRANCH   1   2
BRANCH   1  10
ATOM     10  C   UNL     1     -13.886 -35.765 -16.251  1.00  0.00     0.223 C 
ATOM     11  O   UNL     1     -14.231 -36.823 -16.840  1.00  0.00    -0.275 OA
ATOM     12  N   UNL     1     -13.678 -34.570 -17.003  1.00  0.00    -0.369 N 
ATOM     13  H   UNL     1     -13.802 -34.572 -18.040  1.00  0.00     0.159 HD
ATOM     14  H   UNL     1     -13.402 -33.683 -16.527  1.00  0.00     0.159 HD
ENDBRANCH   1  10
TORSDOF 4
ENDMDL
MODEL 9
REMARK VINA RESULT:    -4.082      1.774      2.628
REMARK INTER + INTRA:          -5.230
REMARK INTER:                  -4.889
REMARK INTRA:                  -0.341
REMARK UNBOUND:                -0.313
REMARK SMILES NC(=O)C[C@@H]([NH3+])C(=O)[O-]
REMARK SMILES IDX 4 1 5 2 6 3 7 7 8 8 9 9 2 10 3 11 1 12
REMARK H PARENT 6 4 6 5 6 6 1 13 1 14
REMARK Flexibility Score: inf
ROOT
ATOM      1  C   UNL     1     -15.228 -27.377 -12.729  1.00  0.00     0.171 C 
ENDROOT
BRANCH   1   2
ATOM      2  C   UNL     1     -15.634 -28.615 -13.553  1.00  0.00     0.237 C 
BRANCH   2   3
ATOM      3  N   UNL     1     -14.795 -28.762 -14.750  1.00  0.00    -0.350 N 
ATOM      4  H   UNL     1     -14.995 -27.984 -15.421  1.00  0.00     0.345 HD
ATOM      5  H   UNL     1     -13.785 -28.707 -14.489  1.00  0.00     0.345 HD
ATOM      6  H   UNL     1     -14.979 -29.678 -15.222  1.00  0.00     0.345 HD
ENDBRANCH   2   3
BRANCH   2   7
ATOM      7  C   UNL     1     -15.534 -29.848 -12.696  1.00  0.00     0.100 C 
ATOM      8  O   UNL     1     -16.242 -30.858 -12.953  1.00  0.00    -0.544 OA
ATOM      9  O   UNL     1     -14.672 -29.876 -11.605  1.00  0.00    -0.544 OA
ENDBRANCH   2   7
ENDBRANCH   1   2
BRANCH   1  10
ATOM     10  C   UNL     1     -13.981 -26.737 -13.266  1.00  0.00     0.223 C 
ATOM     11  O   UNL     1     -12.866 -27.300 -13.102  1.00  0.00    -0.275 OA
ATOM     12  N   UNL     1     -14.054 -25.508 -13.988  1.00  0.00    -0.369 N 
ATOM     13  H   UNL     1     -13.188 -25.071 -14.373  1.00  0.00     0.159 HD
ATOM     14  H   UNL     1     -14.972 -25.036 -14.143  1.00  0.00     0.159 HD
ENDBRANCH   1  10
TORSDOF 4
ENDMDL
