MODEL 1
REMARK VINA RESULT:    39.900      0.000      0.000
REMARK INTER + INTRA:          48.183
REMARK INTER:                  48.064
REMARK INTRA:                   0.118
REMARK UNBOUND:                 0.118
REMARK SMILES O=c1c(O)c(-c2ccc(O)c(O)c2)oc2cc(O)cc(O)c12
REMARK SMILES IDX 5 1 3 2 2 3 1 4 22 5 20 6 19 7 17 8 16 9 15 10 14 11 6 12
REMARK SMILES IDX 7 13 8 14 9 15 13 16 11 17 10 18 12 20 4 22 21 24 18 26
REMARK H PARENT 10 19 12 21 4 23 21 25 18 27
REMARK Flexibility Score: inf
ROOT
ATOM      1  C   UNL     1      18.413  41.529  10.737  1.00  0.00     0.180 A 
ATOM      2  C   UNL     1      18.807  40.398   9.996  1.00  0.00     0.208 A 
ATOM      3  C   UNL     1      17.817  39.557   9.465  1.00  0.00     0.238 A 
ATOM      4  O   UNL     1      18.158  38.536   8.808  1.00  0.00    -0.285 OA
ATOM      5  C   UNL     1      16.457  39.870   9.665  1.00  0.00     0.111 A 
ATOM      6  C   UNL     1      15.397  39.076   9.161  1.00  0.00     0.134 A 
ATOM      7  C   UNL     1      14.069  39.459   9.396  1.00  0.00     0.093 A 
ATOM      8  C   UNL     1      13.778  40.616  10.121  1.00  0.00     0.123 A 
ATOM      9  C   UNL     1      14.820  41.404  10.623  1.00  0.00     0.094 A 
ATOM     10  C   UNL     1      16.150  41.038  10.401  1.00  0.00     0.146 A 
ATOM     11  O   UNL     1      17.121  41.801  10.893  1.00  0.00    -0.452 OA
ENDROOT
BRANCH   1  12
ATOM     12  C   UNL     1      19.398  42.454  11.345  1.00  0.00     0.025 A 
ATOM     13  C   UNL     1      19.125  43.830  11.375  1.00  0.00     0.016 A 
ATOM     14  C   UNL     1      20.030  44.719  11.962  1.00  0.00     0.051 A 
ATOM     15  C   UNL     1      21.213  44.241  12.541  1.00  0.00     0.157 A 
ATOM     16  C   UNL     1      20.577  41.977  11.946  1.00  0.00     0.062 A 
ATOM     17  C   UNL     1      21.485  42.868  12.536  1.00  0.00     0.158 A 
BRANCH  15  18
ATOM     18  O   UNL     1      22.119  45.124  13.125  1.00  0.00    -0.504 OA
ATOM     19  H   UNL     1      22.776  45.657  12.567  1.00  0.00     0.293 HD
ENDBRANCH  15  18
BRANCH  17  20
ATOM     20  O   UNL     1      22.655  42.394  13.125  1.00  0.00    -0.504 OA
ATOM     21  H   UNL     1      22.644  41.916  14.019  1.00  0.00     0.293 HD
ENDBRANCH  17  20
ENDBRANCH   1  12
BRANCH   2  22
ATOM     22  O   UNL     1      20.161  40.139   9.769  1.00  0.00    -0.502 OA
ATOM     23  H   UNL     1      20.818  40.866   9.516  1.00  0.00     0.293 HD
ENDBRANCH   2  22
BRANCH   6  24
ATOM     24  O   UNL     1      15.655  37.915   8.431  1.00  0.00    -0.507 OA
ATOM     25  H   UNL     1      16.594  37.662   8.144  1.00  0.00     0.293 HD
ENDBRANCH   6  24
BRANCH   8  26
ATOM     26  O   UNL     1      12.449  40.975  10.338  1.00  0.00    -0.508 OA
ATOM     27  H   UNL     1      12.010  41.723   9.815  1.00  0.00     0.293 HD
ENDBRANCH   8  26
TORSDOF 6
ENDMDL
