MODEL 1
REMARK VINA RESULT:    -5.462      0.000      0.000
REMARK INTER + INTRA:          -8.864
REMARK INTER:                  -7.697
REMARK INTRA:                  -1.167
REMARK UNBOUND:                -1.167
REMARK SMILES OCC1=C[C@@H](O)[C@H]2C=CO[C@@H](O[C@H]3O[C@H](CO)[C@H](O)[C@H](O)[C@H]3O)[C@H]12
REMARK SMILES IDX 12 1 11 2 8 3 9 4 7 5 10 6 24 7 5 8 3 9 4 10 6 11 2 13 1 14
REMARK SMILES IDX 13 16 22 17 14 18 20 19 15 20 18 21 23 22 21 24 16 26 17 27
REMARK SMILES IDX 19 29
REMARK H PARENT 6 12 1 15 23 23 21 25 17 28 19 30
REMARK Flexibility Score: inf
ROOT
ATOM      1  O   UNL     1      58.885  -2.515   1.372  1.00  0.00    -0.310 OA
ENDROOT
BRANCH   1   2
ATOM      2  C   UNL     1      59.367  -2.894   2.647  1.00  0.00     0.316 C 
ATOM      3  C   UNL     1      61.578  -4.220   4.010  1.00  0.00     0.018 C 
ATOM      4  C   UNL     1      61.739  -2.979   3.524  1.00  0.00     0.186 C 
ATOM      5  C   UNL     1      60.193  -4.783   3.994  1.00  0.00     0.061 C 
ATOM      6  O   UNL     1      60.669  -2.306   2.883  1.00  0.00    -0.472 OA
ATOM      7  C   UNL     1      59.527  -4.418   2.679  1.00  0.00     0.096 C 
ATOM      8  C   UNL     1      59.951  -6.286   4.111  1.00  0.00     0.145 C 
ATOM      9  C   UNL     1      58.335  -5.313   2.694  1.00  0.00    -0.036 C 
ATOM     10  C   UNL     1      58.617  -6.405   3.417  1.00  0.00     0.007 C 
BRANCH   8  11
ATOM     11  O   UNL     1      60.930  -7.009   3.415  1.00  0.00    -0.388 OA
ATOM     12  H   UNL     1      60.749  -6.866   2.449  1.00  0.00     0.211 HD
ENDBRANCH   8  11
BRANCH   9  13
ATOM     13  C   UNL     1      57.162  -5.198   1.766  1.00  0.00     0.187 C 
BRANCH  13  14
ATOM     14  O   UNL     1      56.277  -4.229   2.252  1.00  0.00    -0.392 OA
ATOM     15  H   UNL     1      55.612  -4.716   2.805  1.00  0.00     0.211 HD
ENDBRANCH  13  14
ENDBRANCH   9  13
ENDBRANCH   1   2
BRANCH   1  16
ATOM     16  C   UNL     1      58.686  -1.110   1.295  1.00  0.00     0.286 C 
ATOM     17  C   UNL     1      57.174  -0.793   1.253  1.00  0.00     0.202 C 
ATOM     18  O   UNL     1      59.359  -0.548   0.174  1.00  0.00    -0.341 OA
ATOM     19  C   UNL     1      56.563  -1.256  -0.078  1.00  0.00     0.179 C 
ATOM     20  C   UNL     1      58.868  -1.078  -1.048  1.00  0.00     0.178 C 
ATOM     21  C   UNL     1      57.385  -0.701  -1.257  1.00  0.00     0.177 C 
BRANCH  17  22
ATOM     22  O   UNL     1      56.515  -1.432   2.315  1.00  0.00    -0.385 OA
ATOM     23  H   UNL     1      56.285  -2.346   2.003  1.00  0.00     0.211 HD
ENDBRANCH  17  22
BRANCH  19  24
ATOM     24  O   UNL     1      55.230  -0.820  -0.158  1.00  0.00    -0.387 OA
ATOM     25  H   UNL     1      54.922  -1.015  -1.082  1.00  0.00     0.211 HD
ENDBRANCH  19  24
BRANCH  20  26
ATOM     26  C   UNL     1      59.753  -0.588  -2.203  1.00  0.00     0.191 C 
BRANCH  26  27
ATOM     27  O   UNL     1      58.988  -0.365  -3.354  1.00  0.00    -0.394 OA
ATOM     28  H   UNL     1      58.523  -1.220  -3.547  1.00  0.00     0.210 HD
ENDBRANCH  26  27
ENDBRANCH  20  26
BRANCH  21  29
ATOM     29  O   UNL     1      57.247   0.697  -1.330  1.00  0.00    -0.387 OA
ATOM     30  H   UNL     1      57.683   0.986  -2.174  1.00  0.00     0.211 HD
ENDBRANCH  21  29
ENDBRANCH   1  16
TORSDOF 10
ENDMDL
MODEL 2
REMARK VINA RESULT:    -5.387      2.157      4.252
REMARK INTER + INTRA:          -8.759
REMARK INTER:                  -7.440
REMARK INTRA:                  -1.319
REMARK UNBOUND:                -1.167
REMARK SMILES OCC1=C[C@@H](O)[C@H]2C=CO[C@@H](O[C@H]3O[C@H](CO)[C@H](O)[C@H](O)[C@H]3O)[C@H]12
REMARK SMILES IDX 12 1 11 2 8 3 9 4 7 5 10 6 24 7 5 8 3 9 4 10 6 11 2 13 1 14
REMARK SMILES IDX 13 16 22 17 14 18 20 19 15 20 18 21 23 22 21 24 16 26 17 27
REMARK SMILES IDX 19 29
REMARK H PARENT 6 12 1 15 23 23 21 25 17 28 19 30
REMARK Flexibility Score: inf
ROOT
ATOM      1  O   UNL     1      59.081  -2.676   1.160  1.00  0.00    -0.310 OA
ENDROOT
BRANCH   1   2
ATOM      2  C   UNL     1      58.453  -3.761   1.814  1.00  0.00     0.316 C 
ATOM      3  C   UNL     1      57.261  -6.386   1.372  1.00  0.00     0.018 C 
ATOM      4  C   UNL     1      58.596  -6.243   1.343  1.00  0.00     0.186 C 
ATOM      5  C   UNL     1      56.461  -5.209   1.829  1.00  0.00     0.061 C 
ATOM      6  O   UNL     1      59.197  -4.981   1.583  1.00  0.00    -0.472 OA
ATOM      7  C   UNL     1      57.051  -3.946   1.225  1.00  0.00     0.096 C 
ATOM      8  C   UNL     1      54.972  -5.095   1.508  1.00  0.00     0.145 C 
ATOM      9  C   UNL     1      55.968  -2.957   1.496  1.00  0.00    -0.036 C 
ATOM     10  C   UNL     1      54.794  -3.599   1.554  1.00  0.00     0.007 C 
BRANCH   8  11
ATOM     11  O   UNL     1      54.696  -5.581   0.222  1.00  0.00    -0.388 OA
ATOM     12  H   UNL     1      53.838  -6.076   0.289  1.00  0.00     0.211 HD
ENDBRANCH   8  11
BRANCH   9  13
ATOM     13  C   UNL     1      56.109  -1.470   1.359  1.00  0.00     0.187 C 
BRANCH  13  14
ATOM     14  O   UNL     1      55.313  -1.022   0.300  1.00  0.00    -0.392 OA
ATOM     15  H   UNL     1      55.608  -0.095   0.107  1.00  0.00     0.211 HD
ENDBRANCH  13  14
ENDBRANCH   9  13
ENDBRANCH   1   2
BRANCH   1  16
ATOM     16  C   UNL     1      59.470  -3.028  -0.161  1.00  0.00     0.286 C 
ATOM     17  C   UNL     1      60.995  -2.840  -0.328  1.00  0.00     0.202 C 
ATOM     18  O   UNL     1      58.752  -2.279  -1.135  1.00  0.00    -0.341 OA
ATOM     19  C   UNL     1      61.362  -1.349  -0.295  1.00  0.00     0.179 C 
ATOM     20  C   UNL     1      59.004  -0.888  -1.013  1.00  0.00     0.178 C 
ATOM     21  C   UNL     1      60.489  -0.569  -1.297  1.00  0.00     0.177 C 
BRANCH  17  22
ATOM     22  O   UNL     1      61.682  -3.512   0.696  1.00  0.00    -0.385 OA
ATOM     23  H   UNL     1      62.108  -2.816   1.261  1.00  0.00     0.211 HD
ENDBRANCH  17  22
BRANCH  19  24
ATOM     24  O   UNL     1      62.724  -1.195  -0.604  1.00  0.00    -0.387 OA
ATOM     25  H   UNL     1      63.138  -2.094  -0.522  1.00  0.00     0.211 HD
ENDBRANCH  19  24
BRANCH  20  26
ATOM     26  C   UNL     1      58.063  -0.120  -1.951  1.00  0.00     0.191 C 
BRANCH  26  27
ATOM     27  O   UNL     1      57.189   0.694  -1.220  1.00  0.00    -0.394 OA
ATOM     28  H   UNL     1      57.748   1.409  -0.819  1.00  0.00     0.210 HD
ENDBRANCH  26  27
ENDBRANCH  20  26
BRANCH  21  29
ATOM     29  O   UNL     1      60.818  -0.934  -2.614  1.00  0.00    -0.387 OA
ATOM     30  H   UNL     1      61.549  -0.329  -2.907  1.00  0.00     0.211 HD
ENDBRANCH  21  29
ENDBRANCH   1  16
TORSDOF 10
ENDMDL
MODEL 3
REMARK VINA RESULT:    -5.378      1.619      2.227
REMARK INTER + INTRA:          -8.746
REMARK INTER:                  -7.511
REMARK INTRA:                  -1.235
REMARK UNBOUND:                -1.167
REMARK SMILES OCC1=C[C@@H](O)[C@H]2C=CO[C@@H](O[C@H]3O[C@H](CO)[C@H](O)[C@H](O)[C@H]3O)[C@H]12
REMARK SMILES IDX 12 1 11 2 8 3 9 4 7 5 10 6 24 7 5 8 3 9 4 10 6 11 2 13 1 14
REMARK SMILES IDX 13 16 22 17 14 18 20 19 15 20 18 21 23 22 21 24 16 26 17 27
REMARK SMILES IDX 19 29
REMARK H PARENT 6 12 1 15 23 23 21 25 17 28 19 30
REMARK Flexibility Score: inf
ROOT
ATOM      1  O   UNL     1      58.350  -3.022   0.904  1.00  0.00    -0.310 OA
ENDROOT
BRANCH   1   2
ATOM      2  C   UNL     1      58.516  -3.734   2.115  1.00  0.00     0.316 C 
ATOM      3  C   UNL     1      59.421  -6.272   3.230  1.00  0.00     0.018 C 
ATOM      4  C   UNL     1      60.319  -5.371   2.801  1.00  0.00     0.186 C 
ATOM      5  C   UNL     1      57.993  -5.834   3.291  1.00  0.00     0.061 C 
ATOM      6  O   UNL     1      59.901  -4.120   2.282  1.00  0.00    -0.472 OA
ATOM      7  C   UNL     1      57.676  -5.014   2.053  1.00  0.00     0.096 C 
ATOM      8  C   UNL     1      56.857  -6.853   3.344  1.00  0.00     0.145 C 
ATOM      9  C   UNL     1      56.187  -4.957   2.111  1.00  0.00    -0.036 C 
ATOM     10  C   UNL     1      55.732  -6.043   2.750  1.00  0.00     0.007 C 
BRANCH   8  11
ATOM     11  O   UNL     1      57.139  -7.964   2.536  1.00  0.00    -0.388 OA
ATOM     12  H   UNL     1      57.275  -7.613   1.617  1.00  0.00     0.211 HD
ENDBRANCH   8  11
BRANCH   9  13
ATOM     13  C   UNL     1      55.329  -4.046   1.284  1.00  0.00     0.187 C 
BRANCH  13  14
ATOM     14  O   UNL     1      55.365  -2.755   1.823  1.00  0.00    -0.392 OA
ATOM     15  H   UNL     1      55.299  -2.866   2.807  1.00  0.00     0.211 HD
ENDBRANCH  13  14
ENDBRANCH   9  13
ENDBRANCH   1   2
BRANCH   1  16
ATOM     16  C   UNL     1      59.119  -1.827   0.902  1.00  0.00     0.286 C 
ATOM     17  C   UNL     1      58.208  -0.615   0.600  1.00  0.00     0.202 C 
ATOM     18  O   UNL     1      60.196  -1.901  -0.025  1.00  0.00    -0.341 OA
ATOM     19  C   UNL     1      57.716  -0.658  -0.854  1.00  0.00     0.179 C 
ATOM     20  C   UNL     1      59.730  -2.066  -1.355  1.00  0.00     0.178 C 
ATOM     21  C   UNL     1      58.911  -0.837  -1.810  1.00  0.00     0.177 C 
BRANCH  17  22
ATOM     22  O   UNL     1      57.103  -0.612   1.466  1.00  0.00    -0.385 OA
ATOM     23  H   UNL     1      56.562   0.189   1.238  1.00  0.00     0.211 HD
ENDBRANCH  17  22
BRANCH  19  24
ATOM     24  O   UNL     1      57.022   0.527  -1.150  1.00  0.00    -0.387 OA
ATOM     25  H   UNL     1      57.646   1.276  -0.960  1.00  0.00     0.211 HD
ENDBRANCH  19  24
BRANCH  20  26
ATOM     26  C   UNL     1      60.925  -2.334  -2.280  1.00  0.00     0.191 C 
BRANCH  26  27
ATOM     27  O   UNL     1      60.698  -1.796  -3.553  1.00  0.00    -0.394 OA
ATOM     28  H   UNL     1      60.988  -0.848  -3.508  1.00  0.00     0.210 HD
ENDBRANCH  26  27
ENDBRANCH  20  26
BRANCH  21  29
ATOM     29  O   UNL     1      59.720   0.313  -1.797  1.00  0.00    -0.387 OA
ATOM     30  H   UNL     1      60.491   0.117  -1.203  1.00  0.00     0.211 HD
ENDBRANCH  21  29
ENDBRANCH   1  16
TORSDOF 10
ENDMDL
MODEL 4
REMARK VINA RESULT:    -5.230      1.895      3.409
REMARK INTER + INTRA:          -8.538
REMARK INTER:                  -7.522
REMARK INTRA:                  -1.016
REMARK UNBOUND:                -1.167
REMARK SMILES OCC1=C[C@@H](O)[C@H]2C=CO[C@@H](O[C@H]3O[C@H](CO)[C@H](O)[C@H](O)[C@H]3O)[C@H]12
REMARK SMILES IDX 12 1 11 2 8 3 9 4 7 5 10 6 24 7 5 8 3 9 4 10 6 11 2 13 1 14
REMARK SMILES IDX 13 16 22 17 14 18 20 19 15 20 18 21 23 22 21 24 16 26 17 27
REMARK SMILES IDX 19 29
REMARK H PARENT 6 12 1 15 23 23 21 25 17 28 19 30
REMARK Flexibility Score: inf
ROOT
ATOM      1  O   UNL     1      58.050  -2.706   0.617  1.00  0.00    -0.310 OA
ENDROOT
BRANCH   1   2
ATOM      2  C   UNL     1      57.954  -4.116   0.556  1.00  0.00     0.316 C 
ATOM      3  C   UNL     1      56.229  -6.373   1.215  1.00  0.00     0.018 C 
ATOM      4  C   UNL     1      55.935  -5.589   0.165  1.00  0.00     0.186 C 
ATOM      5  C   UNL     1      57.552  -6.155   1.877  1.00  0.00     0.061 C 
ATOM      6  O   UNL     1      56.775  -4.504  -0.189  1.00  0.00    -0.472 OA
ATOM      7  C   UNL     1      57.812  -4.662   1.980  1.00  0.00     0.096 C 
ATOM      8  C   UNL     1      57.819  -6.662   3.292  1.00  0.00     0.145 C 
ATOM      9  C   UNL     1      58.959  -4.629   2.932  1.00  0.00    -0.036 C 
ATOM     10  C   UNL     1      58.897  -5.703   3.730  1.00  0.00     0.007 C 
BRANCH   8  11
ATOM     11  O   UNL     1      56.682  -6.520   4.100  1.00  0.00    -0.388 OA
ATOM     12  H   UNL     1      56.094  -5.863   3.643  1.00  0.00     0.211 HD
ENDBRANCH   8  11
BRANCH   9  13
ATOM     13  C   UNL     1      59.816  -3.428   3.203  1.00  0.00     0.187 C 
BRANCH  13  14
ATOM     14  O   UNL     1      59.000  -2.322   3.464  1.00  0.00    -0.392 OA
ATOM     15  H   UNL     1      59.127  -1.700   2.702  1.00  0.00     0.211 HD
ENDBRANCH  13  14
ENDBRANCH   9  13
ENDBRANCH   1   2
BRANCH   1  16
ATOM     16  C   UNL     1      59.113  -2.227  -0.195  1.00  0.00     0.286 C 
ATOM     17  C   UNL     1      59.276  -0.702  -0.004  1.00  0.00     0.202 C 
ATOM     18  O   UNL     1      58.910  -2.552  -1.566  1.00  0.00    -0.341 OA
ATOM     19  C   UNL     1      58.078   0.049  -0.604  1.00  0.00     0.179 C 
ATOM     20  C   UNL     1      57.730  -1.951  -2.076  1.00  0.00     0.178 C 
ATOM     21  C   UNL     1      57.841  -0.411  -2.055  1.00  0.00     0.177 C 
BRANCH  17  22
ATOM     22  O   UNL     1      59.383  -0.393   1.362  1.00  0.00    -0.385 OA
ATOM     23  H   UNL     1      58.869   0.443   1.508  1.00  0.00     0.211 HD
ENDBRANCH  17  22
BRANCH  19  24
ATOM     24  O   UNL     1      58.321   1.432  -0.558  1.00  0.00    -0.387 OA
ATOM     25  H   UNL     1      58.944   1.636  -1.304  1.00  0.00     0.211 HD
ENDBRANCH  19  24
BRANCH  20  26
ATOM     26  C   UNL     1      57.458  -2.489  -3.488  1.00  0.00     0.191 C 
BRANCH  26  27
ATOM     27  O   UNL     1      56.085  -2.664  -3.697  1.00  0.00    -0.394 OA
ATOM     28  H   UNL     1      55.988  -3.520  -4.188  1.00  0.00     0.210 HD
ENDBRANCH  26  27
ENDBRANCH  20  26
BRANCH  21  29
ATOM     29  O   UNL     1      58.904   0.007  -2.877  1.00  0.00    -0.387 OA
ATOM     30  H   UNL     1      59.269  -0.807  -3.312  1.00  0.00     0.211 HD
ENDBRANCH  21  29
ENDBRANCH   1  16
TORSDOF 10
ENDMDL
MODEL 5
REMARK VINA RESULT:    -5.223      2.592      5.241
REMARK INTER + INTRA:          -8.528
REMARK INTER:                  -7.408
REMARK INTRA:                  -1.120
REMARK UNBOUND:                -1.167
REMARK SMILES OCC1=C[C@@H](O)[C@H]2C=CO[C@@H](O[C@H]3O[C@H](CO)[C@H](O)[C@H](O)[C@H]3O)[C@H]12
REMARK SMILES IDX 12 1 11 2 8 3 9 4 7 5 10 6 24 7 5 8 3 9 4 10 6 11 2 13 1 14
REMARK SMILES IDX 13 16 22 17 14 18 20 19 15 20 18 21 23 22 21 24 16 26 17 27
REMARK SMILES IDX 19 29
REMARK H PARENT 6 12 1 15 23 23 21 25 17 28 19 30
REMARK Flexibility Score: inf
ROOT
ATOM      1  O   UNL     1      58.763  -1.813  -0.347  1.00  0.00    -0.310 OA
ENDROOT
BRANCH   1   2
ATOM      2  C   UNL     1      59.693  -1.784  -1.413  1.00  0.00     0.316 C 
ATOM      3  C   UNL     1      60.611  -3.257  -3.756  1.00  0.00     0.018 C 
ATOM      4  C   UNL     1      59.449  -2.585  -3.800  1.00  0.00     0.186 C 
ATOM      5  C   UNL     1      61.473  -3.047  -2.553  1.00  0.00     0.061 C 
ATOM      6  O   UNL     1      58.998  -1.840  -2.682  1.00  0.00    -0.472 OA
ATOM      7  C   UNL     1      60.594  -3.019  -1.315  1.00  0.00     0.096 C 
ATOM      8  C   UNL     1      62.573  -4.041  -2.187  1.00  0.00     0.145 C 
ATOM      9  C   UNL     1      61.610  -3.143  -0.230  1.00  0.00    -0.036 C 
ATOM     10  C   UNL     1      62.674  -3.805  -0.701  1.00  0.00     0.007 C 
BRANCH   8  11
ATOM     11  O   UNL     1      62.166  -5.358  -2.445  1.00  0.00    -0.388 OA
ATOM     12  H   UNL     1      61.405  -5.541  -1.835  1.00  0.00     0.211 HD
ENDBRANCH   8  11
BRANCH   9  13
ATOM     13  C   UNL     1      61.345  -2.902   1.227  1.00  0.00     0.187 C 
BRANCH  13  14
ATOM     14  O   UNL     1      61.146  -1.534   1.444  1.00  0.00    -0.392 OA
ATOM     15  H   UNL     1      60.935  -1.142   0.557  1.00  0.00     0.211 HD
ENDBRANCH  13  14
ENDBRANCH   9  13
ENDBRANCH   1   2
BRANCH   1  16
ATOM     16  C   UNL     1      57.495  -2.281  -0.784  1.00  0.00     0.286 C 
ATOM     17  C   UNL     1      56.385  -1.314  -0.312  1.00  0.00     0.202 C 
ATOM     18  O   UNL     1      57.244  -3.608  -0.333  1.00  0.00    -0.341 OA
ATOM     19  C   UNL     1      56.222  -1.384   1.214  1.00  0.00     0.179 C 
ATOM     20  C   UNL     1      57.218  -3.681   1.084  1.00  0.00     0.178 C 
ATOM     21  C   UNL     1      56.051  -2.849   1.659  1.00  0.00     0.177 C 
BRANCH  17  22
ATOM     22  O   UNL     1      56.697   0.002  -0.687  1.00  0.00    -0.385 OA
ATOM     23  H   UNL     1      55.890   0.551  -0.507  1.00  0.00     0.211 HD
ENDBRANCH  17  22
BRANCH  19  24
ATOM     24  O   UNL     1      55.109  -0.619   1.601  1.00  0.00    -0.387 OA
ATOM     25  H   UNL     1      54.418  -0.746   0.899  1.00  0.00     0.211 HD
ENDBRANCH  19  24
BRANCH  20  26
ATOM     26  C   UNL     1      57.140  -5.153   1.512  1.00  0.00     0.191 C 
BRANCH  26  27
ATOM     27  O   UNL     1      56.454  -5.281   2.726  1.00  0.00    -0.394 OA
ATOM     28  H   UNL     1      55.538  -4.939   2.563  1.00  0.00     0.210 HD
ENDBRANCH  26  27
ENDBRANCH  20  26
BRANCH  21  29
ATOM     29  O   UNL     1      54.823  -3.357   1.198  1.00  0.00    -0.387 OA
ATOM     30  H   UNL     1      54.113  -2.946   1.757  1.00  0.00     0.211 HD
ENDBRANCH  21  29
ENDBRANCH   1  16
TORSDOF 10
ENDMDL
MODEL 6
REMARK VINA RESULT:    -5.166      3.277      6.661
REMARK INTER + INTRA:          -8.447
REMARK INTER:                  -7.223
REMARK INTRA:                  -1.224
REMARK UNBOUND:                -1.167
REMARK SMILES OCC1=C[C@@H](O)[C@H]2C=CO[C@@H](O[C@H]3O[C@H](CO)[C@H](O)[C@H](O)[C@H]3O)[C@H]12
REMARK SMILES IDX 12 1 11 2 8 3 9 4 7 5 10 6 24 7 5 8 3 9 4 10 6 11 2 13 1 14
REMARK SMILES IDX 13 16 22 17 14 18 20 19 15 20 18 21 23 22 21 24 16 26 17 27
REMARK SMILES IDX 19 29
REMARK H PARENT 6 12 1 15 23 23 21 25 17 28 19 30
REMARK Flexibility Score: inf
ROOT
ATOM      1  O   UNL     1      58.478  -2.661  -1.812  1.00  0.00    -0.310 OA
ENDROOT
BRANCH   1   2
ATOM      2  C   UNL     1      58.259  -2.623  -3.209  1.00  0.00     0.316 C 
ATOM      3  C   UNL     1      57.327  -4.207  -5.473  1.00  0.00     0.018 C 
ATOM      4  C   UNL     1      56.442  -3.708  -4.596  1.00  0.00     0.186 C 
ATOM      5  C   UNL     1      58.745  -3.751  -5.343  1.00  0.00     0.061 C 
ATOM      6  O   UNL     1      56.871  -2.912  -3.504  1.00  0.00    -0.472 OA
ATOM      7  C   UNL     1      59.116  -3.706  -3.871  1.00  0.00     0.096 C 
ATOM      8  C   UNL     1      59.890  -4.540  -5.975  1.00  0.00     0.145 C 
ATOM      9  C   UNL     1      60.599  -3.571  -3.945  1.00  0.00    -0.036 C 
ATOM     10  C   UNL     1      61.033  -4.131  -5.082  1.00  0.00     0.007 C 
BRANCH   8  11
ATOM     11  O   UNL     1      59.663  -5.921  -5.876  1.00  0.00    -0.388 OA
ATOM     12  H   UNL     1      60.304  -6.355  -6.496  1.00  0.00     0.211 HD
ENDBRANCH   8  11
BRANCH   9  13
ATOM     13  C   UNL     1      61.488  -3.210  -2.792  1.00  0.00     0.187 C 
BRANCH  13  14
ATOM     14  O   UNL     1      61.365  -1.843  -2.520  1.00  0.00    -0.392 OA
ATOM     15  H   UNL     1      61.784  -1.371  -3.286  1.00  0.00     0.211 HD
ENDBRANCH  13  14
ENDBRANCH   9  13
ENDBRANCH   1   2
BRANCH   1  16
ATOM     16  C   UNL     1      57.709  -1.670  -1.144  1.00  0.00     0.286 C 
ATOM     17  C   UNL     1      58.630  -0.794  -0.263  1.00  0.00     0.202 C 
ATOM     18  O   UNL     1      56.664  -2.251  -0.372  1.00  0.00    -0.341 OA
ATOM     19  C   UNL     1      59.171  -1.605   0.924  1.00  0.00     0.179 C 
ATOM     20  C   UNL     1      57.176  -3.098   0.646  1.00  0.00     0.178 C 
ATOM     21  C   UNL     1      58.009  -2.292   1.667  1.00  0.00     0.177 C 
BRANCH  17  22
ATOM     22  O   UNL     1      59.705  -0.305  -1.022  1.00  0.00    -0.385 OA
ATOM     23  H   UNL     1      59.656  -0.748  -1.909  1.00  0.00     0.211 HD
ENDBRANCH  17  22
BRANCH  19  24
ATOM     24  O   UNL     1      59.875  -0.752   1.791  1.00  0.00    -0.387 OA
ATOM     25  H   UNL     1      59.331  -0.677   2.619  1.00  0.00     0.211 HD
ENDBRANCH  19  24
BRANCH  20  26
ATOM     26  C   UNL     1      56.013  -3.843   1.315  1.00  0.00     0.191 C 
BRANCH  26  27
ATOM     27  O   UNL     1      54.868  -3.037   1.361  1.00  0.00    -0.394 OA
ATOM     28  H   UNL     1      54.110  -3.647   1.554  1.00  0.00     0.210 HD
ENDBRANCH  26  27
ENDBRANCH  20  26
BRANCH  21  29
ATOM     29  O   UNL     1      57.200  -1.331   2.299  1.00  0.00    -0.387 OA
ATOM     30  H   UNL     1      56.471  -1.824   2.758  1.00  0.00     0.211 HD
ENDBRANCH  21  29
ENDBRANCH   1  16
TORSDOF 10
ENDMDL
MODEL 7
REMARK VINA RESULT:    -5.165      2.185      3.935
REMARK INTER + INTRA:          -8.445
REMARK INTER:                  -7.143
REMARK INTRA:                  -1.303
REMARK UNBOUND:                -1.167
REMARK SMILES OCC1=C[C@@H](O)[C@H]2C=CO[C@@H](O[C@H]3O[C@H](CO)[C@H](O)[C@H](O)[C@H]3O)[C@H]12
REMARK SMILES IDX 12 1 11 2 8 3 9 4 7 5 10 6 24 7 5 8 3 9 4 10 6 11 2 13 1 14
REMARK SMILES IDX 13 16 22 17 14 18 20 19 15 20 18 21 23 22 21 24 16 26 17 27
REMARK SMILES IDX 19 29
REMARK H PARENT 6 12 1 15 23 23 21 25 17 28 19 30
REMARK Flexibility Score: inf
ROOT
ATOM      1  O   UNL     1      60.316  -1.214   0.185  1.00  0.00    -0.310 OA
ENDROOT
BRANCH   1   2
ATOM      2  C   UNL     1      61.569  -1.866   0.107  1.00  0.00     0.316 C 
ATOM      3  C   UNL     1      62.899  -4.266  -0.881  1.00  0.00     0.018 C 
ATOM      4  C   UNL     1      62.542  -3.297  -1.739  1.00  0.00     0.186 C 
ATOM      5  C   UNL     1      62.765  -3.967   0.578  1.00  0.00     0.061 C 
ATOM      6  O   UNL     1      61.920  -2.110  -1.276  1.00  0.00    -0.472 OA
ATOM      7  C   UNL     1      61.462  -3.223   0.811  1.00  0.00     0.096 C 
ATOM      8  C   UNL     1      62.726  -5.089   1.613  1.00  0.00     0.145 C 
ATOM      9  C   UNL     1      61.337  -3.309   2.295  1.00  0.00    -0.036 C 
ATOM     10  C   UNL     1      61.964  -4.412   2.724  1.00  0.00     0.007 C 
BRANCH   8  11
ATOM     11  O   UNL     1      62.008  -6.193   1.130  1.00  0.00    -0.388 OA
ATOM     12  H   UNL     1      61.532  -5.883   0.317  1.00  0.00     0.211 HD
ENDBRANCH   8  11
BRANCH   9  13
ATOM     13  C   UNL     1      60.372  -2.513   3.123  1.00  0.00     0.187 C 
BRANCH  13  14
ATOM     14  O   UNL     1      60.782  -1.175   3.160  1.00  0.00    -0.392 OA
ATOM     15  H   UNL     1      61.774  -1.192   3.180  1.00  0.00     0.211 HD
ENDBRANCH  13  14
ENDBRANCH   9  13
ENDBRANCH   1   2
BRANCH   1  16
ATOM     16  C   UNL     1      59.397  -1.753  -0.756  1.00  0.00     0.286 C 
ATOM     17  C   UNL     1      58.808  -0.619  -1.626  1.00  0.00     0.202 C 
ATOM     18  O   UNL     1      58.366  -2.493  -0.113  1.00  0.00    -0.341 OA
ATOM     19  C   UNL     1      57.888   0.281  -0.789  1.00  0.00     0.179 C 
ATOM     20  C   UNL     1      57.598  -1.674   0.755  1.00  0.00     0.178 C 
ATOM     21  C   UNL     1      56.852  -0.577  -0.038  1.00  0.00     0.177 C 
BRANCH  17  22
ATOM     22  O   UNL     1      59.842   0.156  -2.178  1.00  0.00    -0.385 OA
ATOM     23  H   UNL     1      59.514   1.092  -2.206  1.00  0.00     0.211 HD
ENDBRANCH  17  22
BRANCH  19  24
ATOM     24  O   UNL     1      57.245   1.205  -1.630  1.00  0.00    -0.387 OA
ATOM     25  H   UNL     1      56.421   1.494  -1.157  1.00  0.00     0.211 HD
ENDBRANCH  19  24
BRANCH  20  26
ATOM     26  C   UNL     1      56.635  -2.556   1.561  1.00  0.00     0.191 C 
BRANCH  26  27
ATOM     27  O   UNL     1      55.537  -1.810   2.009  1.00  0.00    -0.394 OA
ATOM     28  H   UNL     1      55.093  -1.457   1.195  1.00  0.00     0.210 HD
ENDBRANCH  26  27
ENDBRANCH  20  26
BRANCH  21  29
ATOM     29  O   UNL     1      55.956  -1.166  -0.948  1.00  0.00    -0.387 OA
ATOM     30  H   UNL     1      56.471  -1.360  -1.775  1.00  0.00     0.211 HD
ENDBRANCH  21  29
ENDBRANCH   1  16
TORSDOF 10
ENDMDL
MODEL 8
REMARK VINA RESULT:    -5.110      3.364      4.417
REMARK INTER + INTRA:          -8.369
REMARK INTER:                  -7.400
REMARK INTRA:                  -0.969
REMARK UNBOUND:                -1.167
REMARK SMILES OCC1=C[C@@H](O)[C@H]2C=CO[C@@H](O[C@H]3O[C@H](CO)[C@H](O)[C@H](O)[C@H]3O)[C@H]12
REMARK SMILES IDX 12 1 11 2 8 3 9 4 7 5 10 6 24 7 5 8 3 9 4 10 6 11 2 13 1 14
REMARK SMILES IDX 13 16 22 17 14 18 20 19 15 20 18 21 23 22 21 24 16 26 17 27
REMARK SMILES IDX 19 29
REMARK H PARENT 6 12 1 15 23 23 21 25 17 28 19 30
REMARK Flexibility Score: inf
ROOT
ATOM      1  O   UNL     1      57.570  -2.263  -1.105  1.00  0.00    -0.310 OA
ENDROOT
BRANCH   1   2
ATOM      2  C   UNL     1      57.696  -3.556  -0.545  1.00  0.00     0.316 C 
ATOM      3  C   UNL     1      56.710  -6.294  -0.738  1.00  0.00     0.018 C 
ATOM      4  C   UNL     1      57.569  -5.825  -1.657  1.00  0.00     0.186 C 
ATOM      5  C   UNL     1      56.456  -5.432   0.458  1.00  0.00     0.061 C 
ATOM      6  O   UNL     1      58.082  -4.506  -1.566  1.00  0.00    -0.472 OA
ATOM      7  C   UNL     1      56.334  -3.987   0.008  1.00  0.00     0.096 C 
ATOM      8  C   UNL     1      55.221  -5.639   1.331  1.00  0.00     0.145 C 
ATOM      9  C   UNL     1      55.764  -3.347   1.228  1.00  0.00    -0.036 C 
ATOM     10  C   UNL     1      55.059  -4.258   1.911  1.00  0.00     0.007 C 
BRANCH   8  11
ATOM     11  O   UNL     1      54.105  -5.976   0.552  1.00  0.00    -0.388 OA
ATOM     12  H   UNL     1      54.257  -5.575  -0.343  1.00  0.00     0.211 HD
ENDBRANCH   8  11
BRANCH   9  13
ATOM     13  C   UNL     1      55.679  -1.867   1.462  1.00  0.00     0.187 C 
BRANCH  13  14
ATOM     14  O   UNL     1      55.202  -1.239   0.306  1.00  0.00    -0.392 OA
ATOM     15  H   UNL     1      54.565  -1.876  -0.110  1.00  0.00     0.211 HD
ENDBRANCH  13  14
ENDBRANCH   9  13
ENDBRANCH   1   2
BRANCH   1  16
ATOM     16  C   UNL     1      58.615  -1.407  -0.663  1.00  0.00     0.286 C 
ATOM     17  C   UNL     1      58.419   0.010  -1.248  1.00  0.00     0.202 C 
ATOM     18  O   UNL     1      59.895  -1.928  -1.002  1.00  0.00    -0.341 OA
ATOM     19  C   UNL     1      58.657   0.005  -2.765  1.00  0.00     0.179 C 
ATOM     20  C   UNL     1      60.057  -2.044  -2.407  1.00  0.00     0.178 C 
ATOM     21  C   UNL     1      60.011  -0.657  -3.084  1.00  0.00     0.177 C 
BRANCH  17  22
ATOM     22  O   UNL     1      57.118   0.469  -0.982  1.00  0.00    -0.385 OA
ATOM     23  H   UNL     1      57.136   1.456  -1.083  1.00  0.00     0.211 HD
ENDBRANCH  17  22
BRANCH  19  24
ATOM     24  O   UNL     1      58.627   1.324  -3.249  1.00  0.00    -0.387 OA
ATOM     25  H   UNL     1      57.701   1.489  -3.567  1.00  0.00     0.211 HD
ENDBRANCH  19  24
BRANCH  20  26
ATOM     26  C   UNL     1      61.367  -2.786  -2.705  1.00  0.00     0.191 C 
BRANCH  26  27
ATOM     27  O   UNL     1      61.454  -3.113  -4.064  1.00  0.00    -0.394 OA
ATOM     28  H   UNL     1      62.216  -2.591  -4.425  1.00  0.00     0.210 HD
ENDBRANCH  26  27
ENDBRANCH  20  26
BRANCH  21  29
ATOM     29  O   UNL     1      61.066   0.145  -2.613  1.00  0.00    -0.387 OA
ATOM     30  H   UNL     1      60.956   0.219  -1.629  1.00  0.00     0.211 HD
ENDBRANCH  21  29
ENDBRANCH   1  16
TORSDOF 10
ENDMDL
MODEL 9
REMARK VINA RESULT:    -5.078      2.311      6.377
REMARK INTER + INTRA:          -8.324
REMARK INTER:                  -7.220
REMARK INTRA:                  -1.103
REMARK UNBOUND:                -1.167
REMARK SMILES OCC1=C[C@@H](O)[C@H]2C=CO[C@@H](O[C@H]3O[C@H](CO)[C@H](O)[C@H](O)[C@H]3O)[C@H]12
REMARK SMILES IDX 12 1 11 2 8 3 9 4 7 5 10 6 24 7 5 8 3 9 4 10 6 11 2 13 1 14
REMARK SMILES IDX 13 16 22 17 14 18 20 19 15 20 18 21 23 22 21 24 16 26 17 27
REMARK SMILES IDX 19 29
REMARK H PARENT 6 12 1 15 23 23 21 25 17 28 19 30
REMARK Flexibility Score: inf
ROOT
ATOM      1  O   UNL     1      58.619  -2.908  -0.070  1.00  0.00    -0.310 OA
ENDROOT
BRANCH   1   2
ATOM      2  C   UNL     1      58.431  -2.578  -1.433  1.00  0.00     0.316 C 
ATOM      3  C   UNL     1      59.846  -2.094  -3.937  1.00  0.00     0.018 C 
ATOM      4  C   UNL     1      59.706  -3.348  -3.478  1.00  0.00     0.186 C 
ATOM      5  C   UNL     1      59.087  -1.020  -3.224  1.00  0.00     0.061 C 
ATOM      6  O   UNL     1      58.999  -3.608  -2.278  1.00  0.00    -0.472 OA
ATOM      7  C   UNL     1      59.170  -1.269  -1.728  1.00  0.00     0.096 C 
ATOM      8  C   UNL     1      59.479   0.449  -3.364  1.00  0.00     0.145 C 
ATOM      9  C   UNL     1      58.674   0.029  -1.187  1.00  0.00    -0.036 C 
ATOM     10  C   UNL     1      58.942   1.002  -2.068  1.00  0.00     0.007 C 
BRANCH   8  11
ATOM     11  O   UNL     1      60.873   0.594  -3.416  1.00  0.00    -0.388 OA
ATOM     12  H   UNL     1      61.046   1.483  -3.823  1.00  0.00     0.211 HD
ENDBRANCH   8  11
BRANCH   9  13
ATOM     13  C   UNL     1      58.282   0.272   0.241  1.00  0.00     0.187 C 
BRANCH  13  14
ATOM     14  O   UNL     1      59.316  -0.147   1.085  1.00  0.00    -0.392 OA
ATOM     15  H   UNL     1      58.922  -0.206   1.994  1.00  0.00     0.211 HD
ENDBRANCH  13  14
ENDBRANCH   9  13
ENDBRANCH   1   2
BRANCH   1  16
ATOM     16  C   UNL     1      57.379  -2.959   0.621  1.00  0.00     0.286 C 
ATOM     17  C   UNL     1      57.619  -3.304   2.109  1.00  0.00     0.202 C 
ATOM     18  O   UNL     1      56.482  -3.885   0.020  1.00  0.00    -0.341 OA
ATOM     19  C   UNL     1      58.103  -4.754   2.255  1.00  0.00     0.179 C 
ATOM     20  C   UNL     1      56.998  -5.207   0.050  1.00  0.00     0.178 C 
ATOM     21  C   UNL     1      57.152  -5.706   1.505  1.00  0.00     0.177 C 
BRANCH  17  22
ATOM     22  O   UNL     1      58.575  -2.435   2.660  1.00  0.00    -0.385 OA
ATOM     23  H   UNL     1      58.995  -2.916   3.420  1.00  0.00     0.211 HD
ENDBRANCH  17  22
BRANCH  19  24
ATOM     24  O   UNL     1      58.164  -5.092   3.617  1.00  0.00    -0.387 OA
ATOM     25  H   UNL     1      58.324  -4.247   4.113  1.00  0.00     0.211 HD
ENDBRANCH  19  24
BRANCH  20  26
ATOM     26  C   UNL     1      56.088  -6.124  -0.778  1.00  0.00     0.191 C 
BRANCH  26  27
ATOM     27  O   UNL     1      54.749  -5.729  -0.664  1.00  0.00    -0.394 OA
ATOM     28  H   UNL     1      54.211  -6.561  -0.723  1.00  0.00     0.210 HD
ENDBRANCH  26  27
ENDBRANCH  20  26
BRANCH  21  29
ATOM     29  O   UNL     1      55.897  -5.738   2.139  1.00  0.00    -0.387 OA
ATOM     30  H   UNL     1      55.282  -5.185   1.590  1.00  0.00     0.211 HD
ENDBRANCH  21  29
ENDBRANCH   1  16
TORSDOF 10
ENDMDL
