MODEL 1
REMARK VINA RESULT:    -3.500      0.000      0.000
REMARK INTER + INTRA:          -4.132
REMARK INTER:                  -3.909
REMARK INTRA:                  -0.224
REMARK UNBOUND:                -0.224
REMARK SMILES O=C([O-])c1ccccc1C(=O)[O-]
REMARK SMILES IDX 4 1 9 2 5 3 8 4 6 5 7 6 2 7 1 8 3 9 10 10 11 11 12 12
REMARK H PARENT
REMARK Flexibility Score: inf
ROOT
ATOM      1  C   UNL     1     133.784 127.713 116.040  1.00  0.00     0.006 A 
ATOM      2  C   UNL     1     132.757 126.769 115.762  1.00  0.00     0.006 A 
ATOM      3  C   UNL     1     134.401 127.701 117.304  1.00  0.00     0.010 A 
ATOM      4  C   UNL     1     132.340 125.892 116.782  1.00  0.00     0.010 A 
ATOM      5  C   UNL     1     133.987 126.807 118.293  1.00  0.00     0.001 A 
ATOM      6  C   UNL     1     132.951 125.913 118.036  1.00  0.00     0.001 A 
ENDROOT
BRANCH   1   7
ATOM      7  C   UNL     1     134.194 128.764 115.080  1.00  0.00     0.072 C 
ATOM      8  O   UNL     1     135.248 128.640 114.401  1.00  0.00    -0.545 OA
ATOM      9  O   UNL     1     133.382 129.872 114.870  1.00  0.00    -0.545 OA
ENDBRANCH   1   7
BRANCH   2  10
ATOM     10  C   UNL     1     132.150 126.618 114.420  1.00  0.00     0.072 C 
ATOM     11  O   UNL     1     132.693 125.876 113.559  1.00  0.00    -0.545 OA
ATOM     12  O   UNL     1     131.014 127.339 114.070  1.00  0.00    -0.545 OA
ENDBRANCH   2  10
TORSDOF 2
ENDMDL
MODEL 2
REMARK VINA RESULT:    -3.466      0.267      1.334
REMARK INTER + INTRA:          -4.095
REMARK INTER:                  -3.916
REMARK INTRA:                  -0.178
REMARK UNBOUND:                -0.224
REMARK SMILES O=C([O-])c1ccccc1C(=O)[O-]
REMARK SMILES IDX 4 1 9 2 5 3 8 4 6 5 7 6 2 7 1 8 3 9 10 10 11 11 12 12
REMARK H PARENT
REMARK Flexibility Score: inf
ROOT
ATOM      1  C   UNL     1     133.774 127.685 116.148  1.00  0.00     0.006 A 
ATOM      2  C   UNL     1     132.731 126.733 115.977  1.00  0.00     0.006 A 
ATOM      3  C   UNL     1     134.496 127.699 117.354  1.00  0.00     0.010 A 
ATOM      4  C   UNL     1     132.406 125.875 117.045  1.00  0.00     0.010 A 
ATOM      5  C   UNL     1     134.172 126.824 118.392  1.00  0.00     0.001 A 
ATOM      6  C   UNL     1     133.122 125.923 118.242  1.00  0.00     0.001 A 
ENDROOT
BRANCH   1   7
ATOM      7  C   UNL     1     134.096 128.717 115.136  1.00  0.00     0.072 C 
ATOM      8  O   UNL     1     133.333 129.703 114.955  1.00  0.00    -0.545 OA
ATOM      9  O   UNL     1     135.284 128.643 114.417  1.00  0.00    -0.545 OA
ENDBRANCH   1   7
BRANCH   2  10
ATOM     10  C   UNL     1     132.012 126.553 114.694  1.00  0.00     0.072 C 
ATOM     11  O   UNL     1     130.828 126.963 114.569  1.00  0.00    -0.545 OA
ATOM     12  O   UNL     1     132.608 125.875 113.637  1.00  0.00    -0.545 OA
ENDBRANCH   2  10
TORSDOF 2
ENDMDL
MODEL 3
REMARK VINA RESULT:    -3.458      2.005      3.148
REMARK INTER + INTRA:          -4.086
REMARK INTER:                  -3.883
REMARK INTRA:                  -0.203
REMARK UNBOUND:                -0.224
REMARK SMILES O=C([O-])c1ccccc1C(=O)[O-]
REMARK SMILES IDX 4 1 9 2 5 3 8 4 6 5 7 6 2 7 1 8 3 9 10 10 11 11 12 12
REMARK H PARENT
REMARK Flexibility Score: inf
ROOT
ATOM      1  C   UNL     1     133.425 127.873 115.628  1.00  0.00     0.006 A 
ATOM      2  C   UNL     1     133.395 126.936 116.698  1.00  0.00     0.006 A 
ATOM      3  C   UNL     1     132.425 127.817 114.642  1.00  0.00     0.010 A 
ATOM      4  C   UNL     1     132.402 125.937 116.705  1.00  0.00     0.010 A 
ATOM      5  C   UNL     1     131.437 126.833 114.681  1.00  0.00     0.001 A 
ATOM      6  C   UNL     1     131.432 125.888 115.703  1.00  0.00     0.001 A 
ENDROOT
BRANCH   1   7
ATOM      7  C   UNL     1     134.508 128.870 115.461  1.00  0.00     0.072 C 
ATOM      8  O   UNL     1     135.445 128.673 114.643  1.00  0.00    -0.545 OA
ATOM      9  O   UNL     1     134.464 130.070 116.161  1.00  0.00    -0.545 OA
ENDBRANCH   1   7
BRANCH   2  10
ATOM     10  C   UNL     1     134.322 127.005 117.851  1.00  0.00     0.072 C 
ATOM     11  O   UNL     1     135.253 126.166 117.967  1.00  0.00    -0.545 OA
ATOM     12  O   UNL     1     134.140 127.954 118.851  1.00  0.00    -0.545 OA
ENDBRANCH   2  10
TORSDOF 2
ENDMDL
MODEL 4
REMARK VINA RESULT:    -3.448      1.991      3.527
REMARK INTER + INTRA:          -4.074
REMARK INTER:                  -3.857
REMARK INTRA:                  -0.217
REMARK UNBOUND:                -0.224
REMARK SMILES O=C([O-])c1ccccc1C(=O)[O-]
REMARK SMILES IDX 4 1 9 2 5 3 8 4 6 5 7 6 2 7 1 8 3 9 10 10 11 11 12 12
REMARK H PARENT
REMARK Flexibility Score: inf
ROOT
ATOM      1  C   UNL     1     133.315 126.930 116.636  1.00  0.00     0.006 A 
ATOM      2  C   UNL     1     133.351 127.890 115.587  1.00  0.00     0.006 A 
ATOM      3  C   UNL     1     132.338 125.918 116.605  1.00  0.00     0.010 A 
ATOM      4  C   UNL     1     132.367 127.841 114.582  1.00  0.00     0.010 A 
ATOM      5  C   UNL     1     131.386 125.876 115.586  1.00  0.00     0.001 A 
ATOM      6  C   UNL     1     131.393 126.842 114.583  1.00  0.00     0.001 A 
ENDROOT
BRANCH   1   7
ATOM      7  C   UNL     1     134.220 126.982 117.808  1.00  0.00     0.072 C 
ATOM      8  O   UNL     1     135.217 126.216 117.886  1.00  0.00    -0.545 OA
ATOM      9  O   UNL     1     134.016 127.927 118.806  1.00  0.00    -0.545 OA
ENDBRANCH   1   7
BRANCH   2  10
ATOM     10  C   UNL     1     134.425 128.902 115.464  1.00  0.00     0.072 C 
ATOM     11  O   UNL     1     135.454 128.656 114.781  1.00  0.00    -0.545 OA
ATOM     12  O   UNL     1     134.344 130.108 116.151  1.00  0.00    -0.545 OA
ENDBRANCH   2  10
TORSDOF 2
ENDMDL
MODEL 5
REMARK VINA RESULT:    -3.297      3.051      4.880
REMARK INTER + INTRA:          -3.906
REMARK INTER:                  -3.694
REMARK INTRA:                  -0.212
REMARK UNBOUND:                -0.224
REMARK SMILES O=C([O-])c1ccccc1C(=O)[O-]
REMARK SMILES IDX 4 1 9 2 5 3 8 4 6 5 7 6 2 7 1 8 3 9 10 10 11 11 12 12
REMARK H PARENT
REMARK Flexibility Score: inf
ROOT
ATOM      1  C   UNL     1     134.490 127.670 116.963  1.00  0.00     0.006 A 
ATOM      2  C   UNL     1     134.625 129.028 117.364  1.00  0.00     0.006 A 
ATOM      3  C   UNL     1     134.489 127.358 115.591  1.00  0.00     0.010 A 
ATOM      4  C   UNL     1     134.687 130.030 116.376  1.00  0.00     0.010 A 
ATOM      5  C   UNL     1     134.575 128.365 114.629  1.00  0.00     0.001 A 
ATOM      6  C   UNL     1     134.662 129.699 115.021  1.00  0.00     0.001 A 
ENDROOT
BRANCH   1   7
ATOM      7  C   UNL     1     134.279 126.563 117.924  1.00  0.00     0.072 C 
ATOM      8  O   UNL     1     135.252 125.887 118.352  1.00  0.00    -0.545 OA
ATOM      9  O   UNL     1     133.006 126.301 118.418  1.00  0.00    -0.545 OA
ENDBRANCH   1   7
BRANCH   2  10
ATOM     10  C   UNL     1     134.774 129.434 118.780  1.00  0.00     0.072 C 
ATOM     11  O   UNL     1     133.841 130.043 119.367  1.00  0.00    -0.545 OA
ATOM     12  O   UNL     1     135.965 129.209 119.460  1.00  0.00    -0.545 OA
ENDBRANCH   2  10
TORSDOF 2
ENDMDL
MODEL 6
REMARK VINA RESULT:    -3.289      3.100      4.170
REMARK INTER + INTRA:          -3.897
REMARK INTER:                  -3.691
REMARK INTRA:                  -0.206
REMARK UNBOUND:                -0.224
REMARK SMILES O=C([O-])c1ccccc1C(=O)[O-]
REMARK SMILES IDX 4 1 9 2 5 3 8 4 6 5 7 6 2 7 1 8 3 9 10 10 11 11 12 12
REMARK H PARENT
REMARK Flexibility Score: inf
ROOT
ATOM      1  C   UNL     1     134.658 129.073 117.385  1.00  0.00     0.006 A 
ATOM      2  C   UNL     1     134.538 127.707 117.008  1.00  0.00     0.006 A 
ATOM      3  C   UNL     1     134.703 130.059 116.382  1.00  0.00     0.010 A 
ATOM      4  C   UNL     1     134.535 127.373 115.640  1.00  0.00     0.010 A 
ATOM      5  C   UNL     1     134.676 129.706 115.032  1.00  0.00     0.001 A 
ATOM      6  C   UNL     1     134.603 128.366 114.662  1.00  0.00     0.001 A 
ENDROOT
BRANCH   1   7
ATOM      7  C   UNL     1     134.808 129.510 118.792  1.00  0.00     0.072 C 
ATOM      8  O   UNL     1     133.847 130.045 119.407  1.00  0.00    -0.545 OA
ATOM      9  O   UNL     1     135.996 129.273 119.473  1.00  0.00    -0.545 OA
ENDBRANCH   1   7
BRANCH   2  10
ATOM     10  C   UNL     1     134.345 126.618 117.992  1.00  0.00     0.072 C 
ATOM     11  O   UNL     1     135.310 125.878 118.317  1.00  0.00    -0.545 OA
ATOM     12  O   UNL     1     133.086 126.356 118.522  1.00  0.00    -0.545 OA
ENDBRANCH   2  10
TORSDOF 2
ENDMDL
MODEL 7
REMARK VINA RESULT:    -3.262      2.738      3.786
REMARK INTER + INTRA:          -3.867
REMARK INTER:                  -3.674
REMARK INTRA:                  -0.194
REMARK UNBOUND:                -0.224
REMARK SMILES O=C([O-])c1ccccc1C(=O)[O-]
REMARK SMILES IDX 4 1 9 2 5 3 8 4 6 5 7 6 2 7 1 8 3 9 10 10 11 11 12 12
REMARK H PARENT
REMARK Flexibility Score: inf
ROOT
ATOM      1  C   UNL     1     134.390 128.050 118.207  1.00  0.00     0.006 A 
ATOM      2  C   UNL     1     134.371 128.593 116.892  1.00  0.00     0.006 A 
ATOM      3  C   UNL     1     134.617 128.908 119.298  1.00  0.00     0.010 A 
ATOM      4  C   UNL     1     134.645 129.962 116.713  1.00  0.00     0.010 A 
ATOM      5  C   UNL     1     134.864 130.267 119.099  1.00  0.00     0.001 A 
ATOM      6  C   UNL     1     134.890 130.790 117.809  1.00  0.00     0.001 A 
ENDROOT
BRANCH   1   7
ATOM      7  C   UNL     1     134.250 126.601 118.482  1.00  0.00     0.072 C 
ATOM      8  O   UNL     1     135.267 125.875 118.644  1.00  0.00    -0.545 OA
ATOM      9  O   UNL     1     132.988 126.039 118.631  1.00  0.00    -0.545 OA
ENDBRANCH   1   7
BRANCH   2  10
ATOM     10  C   UNL     1     134.005 127.794 115.700  1.00  0.00     0.072 C 
ATOM     11  O   UNL     1     134.869 127.529 114.824  1.00  0.00    -0.545 OA
ATOM     12  O   UNL     1     132.692 127.381 115.500  1.00  0.00    -0.545 OA
ENDBRANCH   2  10
TORSDOF 2
ENDMDL
MODEL 8
REMARK VINA RESULT:    -3.178      5.516      6.603
REMARK INTER + INTRA:          -3.774
REMARK INTER:                  -3.543
REMARK INTRA:                  -0.231
REMARK UNBOUND:                -0.224
REMARK SMILES O=C([O-])c1ccccc1C(=O)[O-]
REMARK SMILES IDX 4 1 9 2 5 3 8 4 6 5 7 6 2 7 1 8 3 9 10 10 11 11 12 12
REMARK H PARENT
REMARK Flexibility Score: inf
ROOT
ATOM      1  C   UNL     1     136.101 128.917 120.364  1.00  0.00     0.006 A 
ATOM      2  C   UNL     1     135.673 127.567 120.501  1.00  0.00     0.006 A 
ATOM      3  C   UNL     1     135.487 129.734 119.398  1.00  0.00     0.010 A 
ATOM      4  C   UNL     1     134.694 127.067 119.621  1.00  0.00     0.010 A 
ATOM      5  C   UNL     1     134.502 129.224 118.552  1.00  0.00     0.001 A 
ATOM      6  C   UNL     1     134.115 127.891 118.655  1.00  0.00     0.001 A 
ENDROOT
BRANCH   1   7
ATOM      7  C   UNL     1     137.218 129.491 121.148  1.00  0.00     0.072 C 
ATOM      8  O   UNL     1     136.994 130.193 122.170  1.00  0.00    -0.545 OA
ATOM      9  O   UNL     1     138.534 129.206 120.801  1.00  0.00    -0.545 OA
ENDBRANCH   1   7
BRANCH   2  10
ATOM     10  C   UNL     1     136.163 126.677 121.578  1.00  0.00     0.072 C 
ATOM     11  O   UNL     1     135.604 126.680 122.706  1.00  0.00    -0.545 OA
ATOM     12  O   UNL     1     137.282 125.876 121.382  1.00  0.00    -0.545 OA
ENDBRANCH   2  10
TORSDOF 2
ENDMDL
MODEL 9
REMARK VINA RESULT:    -3.142      0.229      3.009
REMARK INTER + INTRA:          -3.733
REMARK INTER:                  -3.508
REMARK INTRA:                  -0.225
REMARK UNBOUND:                -0.224
REMARK SMILES O=C([O-])c1ccccc1C(=O)[O-]
REMARK SMILES IDX 4 1 9 2 5 3 8 4 6 5 7 6 2 7 1 8 3 9 10 10 11 11 12 12
REMARK H PARENT
REMARK Flexibility Score: inf
ROOT
ATOM      1  C   UNL     1     132.770 126.745 115.979  1.00  0.00     0.006 A 
ATOM      2  C   UNL     1     133.832 127.663 116.212  1.00  0.00     0.006 A 
ATOM      3  C   UNL     1     132.378 125.875 117.012  1.00  0.00     0.010 A 
ATOM      4  C   UNL     1     134.505 127.629 117.448  1.00  0.00     0.010 A 
ATOM      5  C   UNL     1     133.045 125.875 118.238  1.00  0.00     0.001 A 
ATOM      6  C   UNL     1     134.113 126.742 118.451  1.00  0.00     0.001 A 
ENDROOT
BRANCH   1   7
ATOM      7  C   UNL     1     132.094 126.611 114.667  1.00  0.00     0.072 C 
ATOM      8  O   UNL     1     131.009 127.208 114.437  1.00  0.00    -0.545 OA
ATOM      9  O   UNL     1     132.688 125.875 113.649  1.00  0.00    -0.545 OA
ENDBRANCH   1   7
BRANCH   2  10
ATOM     10  C   UNL     1     134.219 128.706 115.235  1.00  0.00     0.072 C 
ATOM     11  O   UNL     1     135.247 128.558 114.524  1.00  0.00    -0.545 OA
ATOM     12  O   UNL     1     133.492 129.887 115.134  1.00  0.00    -0.545 OA
ENDBRANCH   2  10
TORSDOF 2
ENDMDL
