MODEL 1
REMARK VINA RESULT:    -3.825      0.000      0.000
REMARK INTER + INTRA:          -8.591
REMARK INTER:                  -6.733
REMARK INTRA:                  -1.859
REMARK UNBOUND:                -1.859
REMARK SMILES CCCCCCC=CCCCCCCCC(=O)[O-]
REMARK SMILES IDX 10 1 11 2 12 3 13 4 14 5 15 6 16 7 17 8 18 9 9 10 8 11 7 12
REMARK SMILES IDX 6 13 5 14 4 15 3 16 2 17 1 18
REMARK H PARENT
REMARK Flexibility Score: inf
ROOT
ATOM      1  C   UNL     1      51.625 -40.827 -28.864  1.00  0.00     0.004 C 
ENDROOT
BRANCH   1   2
ATOM      2  C   UNL     1      51.403 -40.725 -30.382  1.00  0.00     0.000 C 
BRANCH   2   3
ATOM      3  C   UNL     1      52.395 -41.580 -31.192  1.00  0.00     0.000 C 
BRANCH   3   4
ATOM      4  C   UNL     1      53.409 -40.781 -32.032  1.00  0.00     0.000 C 
BRANCH   4   5
ATOM      5  C   UNL     1      54.851 -41.279 -31.863  1.00  0.00     0.006 C 
BRANCH   5   6
ATOM      6  C   UNL     1      54.947 -42.312 -30.735  1.00  0.00     0.053 C 
BRANCH   6   7
ATOM      7  C   UNL     1      56.222 -42.139 -29.972  1.00  0.00     0.041 C 
ATOM      8  O   UNL     1      56.897 -43.146 -29.629  1.00  0.00    -0.550 OA
ATOM      9  O   UNL     1      56.640 -40.869 -29.595  1.00  0.00    -0.550 OA
ENDBRANCH   6   7
ENDBRANCH   5   6
ENDBRANCH   4   5
ENDBRANCH   3   4
ENDBRANCH   2   3
ENDBRANCH   1   2
BRANCH   1  10
ATOM     10  C   UNL     1      52.916 -40.123 -28.421  1.00  0.00     0.027 C 
BRANCH  10  11
ATOM     11  C   UNL     1      53.668 -40.907 -27.379  1.00  0.00    -0.031 C 
ATOM     12  C   UNL     1      53.550 -42.240 -27.281  1.00  0.00    -0.031 C 
BRANCH  12  13
ATOM     13  C   UNL     1      54.295 -43.023 -26.232  1.00  0.00     0.027 C 
BRANCH  13  14
ATOM     14  C   UNL     1      55.783 -42.647 -26.172  1.00  0.00     0.004 C 
BRANCH  14  15
ATOM     15  C   UNL     1      56.230 -42.280 -24.746  1.00  0.00     0.000 C 
BRANCH  15  16
ATOM     16  C   UNL     1      56.086 -40.779 -24.442  1.00  0.00    -0.000 C 
BRANCH  16  17
ATOM     17  C   UNL     1      54.865 -40.409 -23.579  1.00  0.00    -0.003 C 
ATOM     18  C   UNL     1      55.145 -39.269 -22.602  1.00  0.00     0.004 C 
ENDBRANCH  16  17
ENDBRANCH  15  16
ENDBRANCH  14  15
ENDBRANCH  13  14
ENDBRANCH  12  13
ENDBRANCH  10  11
ENDBRANCH   1  10
TORSDOF 13
ENDMDL
MODEL 2
REMARK VINA RESULT:    -3.723      2.914      6.133
REMARK INTER + INTRA:          -8.411
REMARK INTER:                  -6.553
REMARK INTRA:                  -1.858
REMARK UNBOUND:                -1.859
REMARK SMILES CCCCCCC=CCCCCCCCC(=O)[O-]
REMARK SMILES IDX 10 1 11 2 12 3 13 4 14 5 15 6 16 7 17 8 18 9 9 10 8 11 7 12
REMARK SMILES IDX 6 13 5 14 4 15 3 16 2 17 1 18
REMARK H PARENT
REMARK Flexibility Score: inf
ROOT
ATOM      1  C   UNL     1      51.377 -42.996 -25.069  1.00  0.00     0.004 C 
ENDROOT
BRANCH   1   2
ATOM      2  C   UNL     1      52.242 -43.399 -26.274  1.00  0.00     0.000 C 
BRANCH   2   3
ATOM      3  C   UNL     1      53.657 -42.795 -26.226  1.00  0.00     0.000 C 
BRANCH   3   4
ATOM      4  C   UNL     1      53.830 -41.617 -25.250  1.00  0.00     0.000 C 
BRANCH   4   5
ATOM      5  C   UNL     1      55.071 -40.765 -25.552  1.00  0.00     0.006 C 
BRANCH   5   6
ATOM      6  C   UNL     1      56.194 -41.057 -24.551  1.00  0.00     0.053 C 
BRANCH   6   7
ATOM      7  C   UNL     1      56.633 -39.797 -23.873  1.00  0.00     0.041 C 
ATOM      8  O   UNL     1      57.720 -39.249 -24.197  1.00  0.00    -0.550 OA
ATOM      9  O   UNL     1      55.866 -39.256 -22.849  1.00  0.00    -0.550 OA
ENDBRANCH   6   7
ENDBRANCH   5   6
ENDBRANCH   4   5
ENDBRANCH   3   4
ENDBRANCH   2   3
ENDBRANCH   1   2
BRANCH   1  10
ATOM     10  C   UNL     1      50.157 -42.162 -25.487  1.00  0.00     0.027 C 
BRANCH  10  11
ATOM     11  C   UNL     1      50.190 -41.784 -26.943  1.00  0.00    -0.031 C 
ATOM     12  C   UNL     1      49.101 -41.883 -27.721  1.00  0.00    -0.031 C 
BRANCH  12  13
ATOM     13  C   UNL     1      49.137 -41.515 -29.181  1.00  0.00     0.027 C 
BRANCH  13  14
ATOM     14  C   UNL     1      49.584 -42.688 -30.066  1.00  0.00     0.004 C 
BRANCH  14  15
ATOM     15  C   UNL     1      51.055 -42.557 -30.500  1.00  0.00     0.000 C 
BRANCH  15  16
ATOM     16  C   UNL     1      51.595 -41.123 -30.357  1.00  0.00    -0.000 C 
BRANCH  16  17
ATOM     17  C   UNL     1      52.892 -41.000 -29.537  1.00  0.00    -0.003 C 
ATOM     18  C   UNL     1      52.833 -39.893 -28.485  1.00  0.00     0.004 C 
ENDBRANCH  16  17
ENDBRANCH  15  16
ENDBRANCH  14  15
ENDBRANCH  13  14
ENDBRANCH  12  13
ENDBRANCH  10  11
ENDBRANCH   1  10
TORSDOF 13
ENDMDL
MODEL 3
REMARK VINA RESULT:    -3.706     12.227     14.311
REMARK INTER + INTRA:          -8.381
REMARK INTER:                  -6.586
REMARK INTRA:                  -1.795
REMARK UNBOUND:                -1.859
REMARK SMILES CCCCCCC=CCCCCCCCC(=O)[O-]
REMARK SMILES IDX 10 1 11 2 12 3 13 4 14 5 15 6 16 7 17 8 18 9 9 10 8 11 7 12
REMARK SMILES IDX 6 13 5 14 4 15 3 16 2 17 1 18
REMARK H PARENT
REMARK Flexibility Score: inf
ROOT
ATOM      1  C   UNL     1      46.391 -27.690 -30.284  1.00  0.00     0.004 C 
ENDROOT
BRANCH   1   2
ATOM      2  C   UNL     1      45.185 -28.100 -29.424  1.00  0.00     0.000 C 
BRANCH   2   3
ATOM      3  C   UNL     1      44.544 -29.423 -29.881  1.00  0.00     0.000 C 
BRANCH   3   4
ATOM      4  C   UNL     1      44.942 -30.660 -29.054  1.00  0.00     0.000 C 
BRANCH   4   5
ATOM      5  C   UNL     1      46.260 -31.294 -29.522  1.00  0.00     0.006 C 
BRANCH   5   6
ATOM      6  C   UNL     1      46.779 -32.302 -28.491  1.00  0.00     0.053 C 
BRANCH   6   7
ATOM      7  C   UNL     1      47.264 -33.544 -29.169  1.00  0.00     0.041 C 
ATOM      8  O   UNL     1      48.497 -33.736 -29.336  1.00  0.00    -0.550 OA
ATOM      9  O   UNL     1      46.350 -34.467 -29.663  1.00  0.00    -0.550 OA
ENDBRANCH   6   7
ENDBRANCH   5   6
ENDBRANCH   4   5
ENDBRANCH   3   4
ENDBRANCH   2   3
ENDBRANCH   1   2
BRANCH   1  10
ATOM     10  C   UNL     1      46.359 -28.344 -31.673  1.00  0.00     0.027 C 
BRANCH  10  11
ATOM     11  C   UNL     1      47.734 -28.689 -32.177  1.00  0.00    -0.031 C 
ATOM     12  C   UNL     1      48.622 -27.739 -32.508  1.00  0.00    -0.031 C 
BRANCH  12  13
ATOM     13  C   UNL     1      49.995 -28.084 -33.021  1.00  0.00     0.027 C 
BRANCH  13  14
ATOM     14  C   UNL     1      51.105 -27.350 -32.255  1.00  0.00     0.004 C 
BRANCH  14  15
ATOM     15  C   UNL     1      50.738 -27.130 -30.777  1.00  0.00     0.000 C 
BRANCH  15  16
ATOM     16  C   UNL     1      51.056 -28.349 -29.894  1.00  0.00    -0.000 C 
BRANCH  16  17
ATOM     17  C   UNL     1      49.827 -29.017 -29.249  1.00  0.00    -0.003 C 
ATOM     18  C   UNL     1      50.012 -30.516 -29.018  1.00  0.00     0.004 C 
ENDBRANCH  16  17
ENDBRANCH  15  16
ENDBRANCH  14  15
ENDBRANCH  13  14
ENDBRANCH  12  13
ENDBRANCH  10  11
ENDBRANCH   1  10
TORSDOF 13
ENDMDL
MODEL 4
REMARK VINA RESULT:    -3.679      2.835      6.052
REMARK INTER + INTRA:          -8.334
REMARK INTER:                  -6.729
REMARK INTRA:                  -1.605
REMARK UNBOUND:                -1.859
REMARK SMILES CCCCCCC=CCCCCCCCC(=O)[O-]
REMARK SMILES IDX 10 1 11 2 12 3 13 4 14 5 15 6 16 7 17 8 18 9 9 10 8 11 7 12
REMARK SMILES IDX 6 13 5 14 4 15 3 16 2 17 1 18
REMARK H PARENT
REMARK Flexibility Score: inf
ROOT
ATOM      1  C   UNL     1      52.414 -40.382 -21.985  1.00  0.00     0.004 C 
ENDROOT
BRANCH   1   2
ATOM      2  C   UNL     1      53.251 -39.606 -23.014  1.00  0.00     0.000 C 
BRANCH   2   3
ATOM      3  C   UNL     1      54.760 -39.637 -22.707  1.00  0.00     0.000 C 
BRANCH   3   4
ATOM      4  C   UNL     1      55.643 -40.205 -23.832  1.00  0.00     0.000 C 
BRANCH   4   5
ATOM      5  C   UNL     1      54.922 -41.254 -24.689  1.00  0.00     0.006 C 
BRANCH   5   6
ATOM      6  C   UNL     1      55.910 -42.290 -25.235  1.00  0.00     0.053 C 
BRANCH   6   7
ATOM      7  C   UNL     1      56.093 -42.115 -26.709  1.00  0.00     0.041 C 
ATOM      8  O   UNL     1      56.652 -41.081 -27.160  1.00  0.00    -0.550 OA
ATOM      9  O   UNL     1      55.601 -43.072 -27.589  1.00  0.00    -0.550 OA
ENDBRANCH   6   7
ENDBRANCH   5   6
ENDBRANCH   4   5
ENDBRANCH   3   4
ENDBRANCH   2   3
ENDBRANCH   1   2
BRANCH   1  10
ATOM     10  C   UNL     1      51.138 -40.971 -22.603  1.00  0.00     0.027 C 
BRANCH  10  11
ATOM     11  C   UNL     1      51.422 -41.803 -23.824  1.00  0.00    -0.031 C 
ATOM     12  C   UNL     1      50.782 -42.960 -24.052  1.00  0.00    -0.031 C 
BRANCH  12  13
ATOM     13  C   UNL     1      51.073 -43.798 -25.269  1.00  0.00     0.027 C 
BRANCH  13  14
ATOM     14  C   UNL     1      52.290 -43.283 -26.052  1.00  0.00     0.004 C 
BRANCH  14  15
ATOM     15  C   UNL     1      51.920 -42.865 -27.486  1.00  0.00     0.000 C 
BRANCH  15  16
ATOM     16  C   UNL     1      51.046 -41.601 -27.533  1.00  0.00    -0.000 C 
BRANCH  16  17
ATOM     17  C   UNL     1      49.743 -41.745 -28.342  1.00  0.00    -0.003 C 
ATOM     18  C   UNL     1      48.586 -40.930 -27.765  1.00  0.00     0.004 C 
ENDBRANCH  16  17
ENDBRANCH  15  16
ENDBRANCH  14  15
ENDBRANCH  13  14
ENDBRANCH  12  13
ENDBRANCH  10  11
ENDBRANCH   1  10
TORSDOF 13
ENDMDL
MODEL 5
REMARK VINA RESULT:    -3.662      1.778      2.484
REMARK INTER + INTRA:          -8.303
REMARK INTER:                  -5.708
REMARK INTRA:                  -2.595
REMARK UNBOUND:                -1.859
REMARK SMILES CCCCCCC=CCCCCCCCC(=O)[O-]
REMARK SMILES IDX 10 1 11 2 12 3 13 4 14 5 15 6 16 7 17 8 18 9 9 10 8 11 7 12
REMARK SMILES IDX 6 13 5 14 4 15 3 16 2 17 1 18
REMARK H PARENT
REMARK Flexibility Score: inf
ROOT
ATOM      1  C   UNL     1      50.599 -41.579 -29.932  1.00  0.00     0.004 C 
ENDROOT
BRANCH   1   2
ATOM      2  C   UNL     1      51.622 -40.547 -30.432  1.00  0.00     0.000 C 
BRANCH   2   3
ATOM      3  C   UNL     1      53.018 -41.152 -30.667  1.00  0.00     0.000 C 
BRANCH   3   4
ATOM      4  C   UNL     1      53.173 -42.622 -30.234  1.00  0.00     0.000 C 
BRANCH   4   5
ATOM      5  C   UNL     1      54.347 -42.842 -29.269  1.00  0.00     0.006 C 
BRANCH   5   6
ATOM      6  C   UNL     1      55.469 -41.832 -29.531  1.00  0.00     0.053 C 
BRANCH   6   7
ATOM      7  C   UNL     1      56.800 -42.425 -29.191  1.00  0.00     0.041 C 
ATOM      8  O   UNL     1      57.041 -42.809 -28.016  1.00  0.00    -0.550 OA
ATOM      9  O   UNL     1      57.792 -42.507 -30.160  1.00  0.00    -0.550 OA
ENDBRANCH   6   7
ENDBRANCH   5   6
ENDBRANCH   4   5
ENDBRANCH   3   4
ENDBRANCH   2   3
ENDBRANCH   1   2
BRANCH   1  10
ATOM     10  C   UNL     1      50.047 -41.220 -28.544  1.00  0.00     0.027 C 
BRANCH  10  11
ATOM     11  C   UNL     1      50.976 -41.630 -27.433  1.00  0.00    -0.031 C 
ATOM     12  C   UNL     1      51.212 -42.922 -27.155  1.00  0.00    -0.031 C 
BRANCH  12  13
ATOM     13  C   UNL     1      52.134 -43.333 -26.037  1.00  0.00     0.027 C 
BRANCH  13  14
ATOM     14  C   UNL     1      52.847 -42.132 -25.399  1.00  0.00     0.004 C 
BRANCH  14  15
ATOM     15  C   UNL     1      54.341 -42.086 -25.763  1.00  0.00     0.000 C 
BRANCH  15  16
ATOM     16  C   UNL     1      54.888 -40.652 -25.866  1.00  0.00    -0.000 C 
BRANCH  16  17
ATOM     17  C   UNL     1      53.826 -39.574 -26.154  1.00  0.00    -0.003 C 
ATOM     18  C   UNL     1      53.743 -39.195 -27.632  1.00  0.00     0.004 C 
ENDBRANCH  16  17
ENDBRANCH  15  16
ENDBRANCH  14  15
ENDBRANCH  13  14
ENDBRANCH  12  13
ENDBRANCH  10  11
ENDBRANCH   1  10
TORSDOF 13
ENDMDL
MODEL 6
REMARK VINA RESULT:    -3.617      2.582      4.210
REMARK INTER + INTRA:          -8.225
REMARK INTER:                  -5.716
REMARK INTRA:                  -2.509
REMARK UNBOUND:                -1.859
REMARK SMILES CCCCCCC=CCCCCCCCC(=O)[O-]
REMARK SMILES IDX 10 1 11 2 12 3 13 4 14 5 15 6 16 7 17 8 18 9 9 10 8 11 7 12
REMARK SMILES IDX 6 13 5 14 4 15 3 16 2 17 1 18
REMARK H PARENT
REMARK Flexibility Score: inf
ROOT
ATOM      1  C   UNL     1      52.118 -41.557 -25.537  1.00  0.00     0.004 C 
ENDROOT
BRANCH   1   2
ATOM      2  C   UNL     1      52.598 -42.984 -25.845  1.00  0.00     0.000 C 
BRANCH   2   3
ATOM      3  C   UNL     1      53.831 -43.016 -26.766  1.00  0.00     0.000 C 
BRANCH   3   4
ATOM      4  C   UNL     1      55.188 -42.941 -26.042  1.00  0.00     0.000 C 
BRANCH   4   5
ATOM      5  C   UNL     1      56.141 -41.909 -26.660  1.00  0.00     0.006 C 
BRANCH   5   6
ATOM      6  C   UNL     1      55.361 -40.756 -27.301  1.00  0.00     0.053 C 
BRANCH   6   7
ATOM      7  C   UNL     1      55.879 -40.472 -28.676  1.00  0.00     0.041 C 
ATOM      8  O   UNL     1      56.063 -41.414 -29.491  1.00  0.00    -0.550 OA
ATOM      9  O   UNL     1      56.206 -39.172 -29.039  1.00  0.00    -0.550 OA
ENDBRANCH   6   7
ENDBRANCH   5   6
ENDBRANCH   4   5
ENDBRANCH   3   4
ENDBRANCH   2   3
ENDBRANCH   1   2
BRANCH   1  10
ATOM     10  C   UNL     1      52.495 -41.114 -24.116  1.00  0.00     0.027 C 
BRANCH  10  11
ATOM     11  C   UNL     1      53.669 -40.172 -24.100  1.00  0.00    -0.031 C 
ATOM     12  C   UNL     1      54.542 -40.154 -23.082  1.00  0.00    -0.031 C 
BRANCH  12  13
ATOM     13  C   UNL     1      55.712 -39.204 -23.062  1.00  0.00     0.027 C 
BRANCH  13  14
ATOM     14  C   UNL     1      56.930 -39.765 -23.810  1.00  0.00     0.004 C 
BRANCH  14  15
ATOM     15  C   UNL     1      57.428 -38.805 -24.905  1.00  0.00     0.000 C 
BRANCH  15  16
ATOM     16  C   UNL     1      56.708 -37.446 -24.881  1.00  0.00    -0.000 C 
BRANCH  16  17
ATOM     17  C   UNL     1      56.010 -37.062 -26.199  1.00  0.00    -0.003 C 
ATOM     18  C   UNL     1      54.495 -37.259 -26.155  1.00  0.00     0.004 C 
ENDBRANCH  16  17
ENDBRANCH  15  16
ENDBRANCH  14  15
ENDBRANCH  13  14
ENDBRANCH  12  13
ENDBRANCH  10  11
ENDBRANCH   1  10
TORSDOF 13
ENDMDL
MODEL 7
REMARK VINA RESULT:    -3.615      2.583      4.681
REMARK INTER + INTRA:          -8.222
REMARK INTER:                  -6.333
REMARK INTRA:                  -1.889
REMARK UNBOUND:                -1.859
REMARK SMILES CCCCCCC=CCCCCCCCC(=O)[O-]
REMARK SMILES IDX 10 1 11 2 12 3 13 4 14 5 15 6 16 7 17 8 18 9 9 10 8 11 7 12
REMARK SMILES IDX 6 13 5 14 4 15 3 16 2 17 1 18
REMARK H PARENT
REMARK Flexibility Score: inf
ROOT
ATOM      1  C   UNL     1      55.955 -42.378 -26.524  1.00  0.00     0.004 C 
ENDROOT
BRANCH   1   2
ATOM      2  C   UNL     1      56.083 -43.847 -26.960  1.00  0.00     0.000 C 
BRANCH   2   3
ATOM      3  C   UNL     1      56.526 -44.000 -28.427  1.00  0.00     0.000 C 
BRANCH   3   4
ATOM      4  C   UNL     1      57.784 -43.202 -28.815  1.00  0.00     0.000 C 
BRANCH   4   5
ATOM      5  C   UNL     1      57.551 -42.256 -30.001  1.00  0.00     0.006 C 
BRANCH   5   6
ATOM      6  C   UNL     1      56.055 -42.097 -30.291  1.00  0.00     0.053 C 
BRANCH   6   7
ATOM      7  C   UNL     1      55.822 -40.963 -31.239  1.00  0.00     0.041 C 
ATOM      8  O   UNL     1      55.101 -41.129 -32.259  1.00  0.00    -0.550 OA
ATOM      9  O   UNL     1      56.442 -39.739 -31.025  1.00  0.00    -0.550 OA
ENDBRANCH   6   7
ENDBRANCH   5   6
ENDBRANCH   4   5
ENDBRANCH   3   4
ENDBRANCH   2   3
ENDBRANCH   1   2
BRANCH   1  10
ATOM     10  C   UNL     1      56.060 -42.217 -25.000  1.00  0.00     0.027 C 
BRANCH  10  11
ATOM     11  C   UNL     1      55.751 -40.815 -24.548  1.00  0.00    -0.031 C 
ATOM     12  C   UNL     1      56.688 -40.033 -23.991  1.00  0.00    -0.031 C 
BRANCH  12  13
ATOM     13  C   UNL     1      56.377 -38.633 -23.530  1.00  0.00     0.027 C 
BRANCH  13  14
ATOM     14  C   UNL     1      56.978 -37.567 -24.458  1.00  0.00     0.004 C 
BRANCH  14  15
ATOM     15  C   UNL     1      55.964 -37.072 -25.503  1.00  0.00     0.000 C 
BRANCH  15  16
ATOM     16  C   UNL     1      56.457 -37.254 -26.949  1.00  0.00    -0.000 C 
BRANCH  16  17
ATOM     17  C   UNL     1      56.373 -38.696 -27.483  1.00  0.00    -0.003 C 
ATOM     18  C   UNL     1      57.744 -39.340 -27.687  1.00  0.00     0.004 C 
ENDBRANCH  16  17
ENDBRANCH  15  16
ENDBRANCH  14  15
ENDBRANCH  13  14
ENDBRANCH  12  13
ENDBRANCH  10  11
ENDBRANCH   1  10
TORSDOF 13
ENDMDL
MODEL 8
REMARK VINA RESULT:    -3.585      2.097      3.083
REMARK INTER + INTRA:          -8.169
REMARK INTER:                  -5.922
REMARK INTRA:                  -2.246
REMARK UNBOUND:                -1.859
REMARK SMILES CCCCCCC=CCCCCCCCC(=O)[O-]
REMARK SMILES IDX 10 1 11 2 12 3 13 4 14 5 15 6 16 7 17 8 18 9 9 10 8 11 7 12
REMARK SMILES IDX 6 13 5 14 4 15 3 16 2 17 1 18
REMARK H PARENT
REMARK Flexibility Score: inf
ROOT
ATOM      1  C   UNL     1      49.256 -41.505 -29.257  1.00  0.00     0.004 C 
ENDROOT
BRANCH   1   2
ATOM      2  C   UNL     1      49.927 -42.500 -30.217  1.00  0.00     0.000 C 
BRANCH   2   3
ATOM      3  C   UNL     1      51.346 -42.070 -30.631  1.00  0.00     0.000 C 
BRANCH   3   4
ATOM      4  C   UNL     1      51.821 -40.731 -30.038  1.00  0.00     0.000 C 
BRANCH   4   5
ATOM      5  C   UNL     1      52.969 -40.894 -29.033  1.00  0.00     0.006 C 
BRANCH   5   6
ATOM      6  C   UNL     1      53.163 -39.616 -28.210  1.00  0.00     0.053 C 
BRANCH   6   7
ATOM      7  C   UNL     1      54.615 -39.390 -27.927  1.00  0.00     0.041 C 
ATOM      8  O   UNL     1      55.465 -40.267 -28.232  1.00  0.00    -0.550 OA
ATOM      9  O   UNL     1      55.023 -38.231 -27.278  1.00  0.00    -0.550 OA
ENDBRANCH   6   7
ENDBRANCH   5   6
ENDBRANCH   4   5
ENDBRANCH   3   4
ENDBRANCH   2   3
ENDBRANCH   1   2
BRANCH   1  10
ATOM     10  C   UNL     1      48.901 -42.152 -27.910  1.00  0.00     0.027 C 
BRANCH  10  11
ATOM     11  C   UNL     1      50.092 -42.270 -26.997  1.00  0.00    -0.031 C 
ATOM     12  C   UNL     1      50.637 -43.459 -26.703  1.00  0.00    -0.031 C 
BRANCH  12  13
ATOM     13  C   UNL     1      51.823 -43.578 -25.782  1.00  0.00     0.027 C 
BRANCH  13  14
ATOM     14  C   UNL     1      53.157 -43.541 -26.542  1.00  0.00     0.004 C 
BRANCH  14  15
ATOM     15  C   UNL     1      54.164 -42.574 -25.896  1.00  0.00     0.000 C 
BRANCH  15  16
ATOM     16  C   UNL     1      53.485 -41.471 -25.065  1.00  0.00    -0.000 C 
BRANCH  16  17
ATOM     17  C   UNL     1      54.454 -40.482 -24.389  1.00  0.00    -0.003 C 
ATOM     18  C   UNL     1      55.923 -40.840 -24.606  1.00  0.00     0.004 C 
ENDBRANCH  16  17
ENDBRANCH  15  16
ENDBRANCH  14  15
ENDBRANCH  13  14
ENDBRANCH  12  13
ENDBRANCH  10  11
ENDBRANCH   1  10
TORSDOF 13
ENDMDL
MODEL 9
REMARK VINA RESULT:    -3.576      1.827      5.214
REMARK INTER + INTRA:          -8.153
REMARK INTER:                  -6.013
REMARK INTRA:                  -2.140
REMARK UNBOUND:                -1.859
REMARK SMILES CCCCCCC=CCCCCCCCC(=O)[O-]
REMARK SMILES IDX 10 1 11 2 12 3 13 4 14 5 15 6 16 7 17 8 18 9 9 10 8 11 7 12
REMARK SMILES IDX 6 13 5 14 4 15 3 16 2 17 1 18
REMARK H PARENT
REMARK Flexibility Score: inf
ROOT
ATOM      1  C   UNL     1      54.850 -40.868 -26.607  1.00  0.00     0.004 C 
ENDROOT
BRANCH   1   2
ATOM      2  C   UNL     1      54.381 -42.199 -25.998  1.00  0.00     0.000 C 
BRANCH   2   3
ATOM      3  C   UNL     1      55.122 -43.418 -26.578  1.00  0.00     0.000 C 
BRANCH   3   4
ATOM      4  C   UNL     1      54.589 -43.921 -27.932  1.00  0.00     0.000 C 
BRANCH   4   5
ATOM      5  C   UNL     1      55.643 -43.872 -29.047  1.00  0.00     0.006 C 
BRANCH   5   6
ATOM      6  C   UNL     1      55.409 -42.673 -29.972  1.00  0.00     0.053 C 
BRANCH   6   7
ATOM      7  C   UNL     1      56.647 -41.840 -30.075  1.00  0.00     0.041 C 
ATOM      8  O   UNL     1      57.760 -42.384 -30.299  1.00  0.00    -0.550 OA
ATOM      9  O   UNL     1      56.579 -40.467 -29.874  1.00  0.00    -0.550 OA
ENDBRANCH   6   7
ENDBRANCH   5   6
ENDBRANCH   4   5
ENDBRANCH   3   4
ENDBRANCH   2   3
ENDBRANCH   1   2
BRANCH   1  10
ATOM     10  C   UNL     1      53.678 -39.914 -26.882  1.00  0.00     0.027 C 
BRANCH  10  11
ATOM     11  C   UNL     1      53.353 -39.812 -28.348  1.00  0.00    -0.031 C 
ATOM     12  C   UNL     1      52.438 -40.608 -28.923  1.00  0.00    -0.031 C 
BRANCH  12  13
ATOM     13  C   UNL     1      52.120 -40.512 -30.392  1.00  0.00     0.027 C 
BRANCH  13  14
ATOM     14  C   UNL     1      51.899 -41.891 -31.031  1.00  0.00     0.004 C 
BRANCH  14  15
ATOM     15  C   UNL     1      51.724 -42.996 -29.974  1.00  0.00     0.000 C 
BRANCH  15  16
ATOM     16  C   UNL     1      50.323 -43.629 -29.997  1.00  0.00    -0.000 C 
BRANCH  16  17
ATOM     17  C   UNL     1      49.162 -42.625 -30.125  1.00  0.00    -0.003 C 
ATOM     18  C   UNL     1      48.880 -41.866 -28.829  1.00  0.00     0.004 C 
ENDBRANCH  16  17
ENDBRANCH  15  16
ENDBRANCH  14  15
ENDBRANCH  13  14
ENDBRANCH  12  13
ENDBRANCH  10  11
ENDBRANCH   1  10
TORSDOF 13
ENDMDL
