MODEL 1
REMARK VINA RESULT:    -4.394      0.000      0.000
REMARK INTER + INTRA:          -7.525
REMARK INTER:                  -6.707
REMARK INTRA:                  -0.818
REMARK UNBOUND:                -0.818
REMARK SMILES O=C([O-])CCCCCCCCC(=O)[O-]
REMARK SMILES IDX 7 1 6 2 5 3 4 4 2 5 1 6 3 7 8 8 9 9 10 10 11 11 12 12 13 13
REMARK SMILES IDX 14 14
REMARK H PARENT
REMARK Flexibility Score: inf
ROOT
ATOM      1  C   UNL     1      15.199 -30.530  21.781  1.00  0.00     0.000 C 
ENDROOT
BRANCH   1   2
ATOM      2  C   UNL     1      13.820 -30.623  21.113  1.00  0.00     0.000 C 
BRANCH   2   3
ATOM      3  C   UNL     1      12.727 -30.912  22.150  1.00  0.00     0.006 C 
BRANCH   3   4
ATOM      4  C   UNL     1      13.093 -30.319  23.514  1.00  0.00     0.053 C 
BRANCH   4   5
ATOM      5  C   UNL     1      12.335 -29.052  23.754  1.00  0.00     0.041 C 
ATOM      6  O   UNL     1      12.723 -28.239  24.636  1.00  0.00    -0.550 OA
ATOM      7  O   UNL     1      11.173 -28.790  23.040  1.00  0.00    -0.550 OA
ENDBRANCH   4   5
ENDBRANCH   3   4
ENDBRANCH   2   3
ENDBRANCH   1   2
BRANCH   1   8
ATOM      8  C   UNL     1      16.093 -31.749  21.483  1.00  0.00     0.000 C 
BRANCH   8   9
ATOM      9  C   UNL     1      15.982 -32.905  22.494  1.00  0.00     0.000 C 
BRANCH   9  10
ATOM     10  C   UNL     1      15.286 -34.177  21.970  1.00  0.00     0.006 C 
BRANCH  10  11
ATOM     11  C   UNL     1      14.939 -34.125  20.471  1.00  0.00     0.053 C 
BRANCH  11  12
ATOM     12  C   UNL     1      15.911 -34.895  19.630  1.00  0.00     0.041 C 
ATOM     13  O   UNL     1      16.708 -34.290  18.865  1.00  0.00    -0.550 OA
ATOM     14  O   UNL     1      15.964 -36.281  19.718  1.00  0.00    -0.550 OA
ENDBRANCH  11  12
ENDBRANCH  10  11
ENDBRANCH   9  10
ENDBRANCH   8   9
ENDBRANCH   1   8
TORSDOF 9
ENDMDL
MODEL 2
REMARK VINA RESULT:    -4.291      1.186      6.902
REMARK INTER + INTRA:          -7.367
REMARK INTER:                  -6.858
REMARK INTRA:                  -0.510
REMARK UNBOUND:                -0.818
REMARK SMILES O=C([O-])CCCCCCCCC(=O)[O-]
REMARK SMILES IDX 7 1 6 2 5 3 4 4 2 5 1 6 3 7 8 8 9 9 10 10 11 11 12 12 13 13
REMARK SMILES IDX 14 14
REMARK H PARENT
REMARK Flexibility Score: inf
ROOT
ATOM      1  C   UNL     1      14.790 -33.506  22.360  1.00  0.00     0.000 C 
ENDROOT
BRANCH   1   2
ATOM      2  C   UNL     1      14.235 -33.041  21.006  1.00  0.00     0.000 C 
BRANCH   2   3
ATOM      3  C   UNL     1      14.655 -33.999  19.883  1.00  0.00     0.006 C 
BRANCH   3   4
ATOM      4  C   UNL     1      15.605 -35.079  20.410  1.00  0.00     0.053 C 
BRANCH   4   5
ATOM      5  C   UNL     1      16.673 -35.372  19.404  1.00  0.00     0.041 C 
ATOM      6  O   UNL     1      16.994 -36.564  19.151  1.00  0.00    -0.550 OA
ATOM      7  O   UNL     1      17.347 -34.330  18.783  1.00  0.00    -0.550 OA
ENDBRANCH   4   5
ENDBRANCH   3   4
ENDBRANCH   2   3
ENDBRANCH   1   2
BRANCH   1   8
ATOM      8  C   UNL     1      14.723 -32.413  23.443  1.00  0.00     0.000 C 
BRANCH   8   9
ATOM      9  C   UNL     1      15.464 -31.107  23.102  1.00  0.00     0.000 C 
BRANCH   9  10
ATOM     10  C   UNL     1      14.586 -29.841  23.058  1.00  0.00     0.006 C 
BRANCH  10  11
ATOM     11  C   UNL     1      13.144 -30.065  23.549  1.00  0.00     0.053 C 
BRANCH  11  12
ATOM     12  C   UNL     1      12.402 -28.779  23.752  1.00  0.00     0.041 C 
ATOM     13  O   UNL     1      11.236 -28.640  23.298  1.00  0.00    -0.550 OA
ATOM     14  O   UNL     1      12.985 -27.744  24.476  1.00  0.00    -0.550 OA
ENDBRANCH  11  12
ENDBRANCH  10  11
ENDBRANCH   9  10
ENDBRANCH   8   9
ENDBRANCH   1   8
TORSDOF 9
ENDMDL
MODEL 3
REMARK VINA RESULT:    -4.275      1.797      2.610
REMARK INTER + INTRA:          -7.343
REMARK INTER:                  -6.406
REMARK INTRA:                  -0.937
REMARK UNBOUND:                -0.818
REMARK SMILES O=C([O-])CCCCCCCCC(=O)[O-]
REMARK SMILES IDX 7 1 6 2 5 3 4 4 2 5 1 6 3 7 8 8 9 9 10 10 11 11 12 12 13 13
REMARK SMILES IDX 14 14
REMARK H PARENT
REMARK Flexibility Score: inf
ROOT
ATOM      1  C   UNL     1      14.342 -32.999  23.863  1.00  0.00     0.000 C 
ENDROOT
BRANCH   1   2
ATOM      2  C   UNL     1      13.838 -31.548  23.835  1.00  0.00     0.000 C 
BRANCH   2   3
ATOM      3  C   UNL     1      12.937 -31.304  22.618  1.00  0.00     0.006 C 
BRANCH   3   4
ATOM      4  C   UNL     1      13.771 -30.993  21.371  1.00  0.00     0.053 C 
BRANCH   4   5
ATOM      5  C   UNL     1      14.807 -29.959  21.679  1.00  0.00     0.041 C 
ATOM      6  O   UNL     1      14.461 -28.813  22.070  1.00  0.00    -0.550 OA
ATOM      7  O   UNL     1      16.153 -30.245  21.489  1.00  0.00    -0.550 OA
ENDBRANCH   4   5
ENDBRANCH   3   4
ENDBRANCH   2   3
ENDBRANCH   1   2
BRANCH   1   8
ATOM      8  C   UNL     1      15.860 -33.110  23.633  1.00  0.00     0.000 C 
BRANCH   8   9
ATOM      9  C   UNL     1      16.275 -33.672  22.260  1.00  0.00     0.000 C 
BRANCH   9  10
ATOM     10  C   UNL     1      15.162 -34.398  21.479  1.00  0.00     0.006 C 
BRANCH  10  11
ATOM     11  C   UNL     1      15.241 -34.204  19.954  1.00  0.00     0.053 C 
BRANCH  11  12
ATOM     12  C   UNL     1      16.389 -34.948  19.341  1.00  0.00     0.041 C 
ATOM     13  O   UNL     1      16.454 -36.202  19.433  1.00  0.00    -0.550 OA
ATOM     14  O   UNL     1      17.370 -34.260  18.636  1.00  0.00    -0.550 OA
ENDBRANCH  11  12
ENDBRANCH  10  11
ENDBRANCH   9  10
ENDBRANCH   8   9
ENDBRANCH   1   8
TORSDOF 9
ENDMDL
MODEL 4
REMARK VINA RESULT:    -4.223      1.624      2.026
REMARK INTER + INTRA:          -7.264
REMARK INTER:                  -6.304
REMARK INTRA:                  -0.959
REMARK UNBOUND:                -0.818
REMARK SMILES O=C([O-])CCCCCCCCC(=O)[O-]
REMARK SMILES IDX 7 1 6 2 5 3 4 4 2 5 1 6 3 7 8 8 9 9 10 10 11 11 12 12 13 13
REMARK SMILES IDX 14 14
REMARK H PARENT
REMARK Flexibility Score: inf
ROOT
ATOM      1  C   UNL     1      16.455 -30.489  23.032  1.00  0.00     0.000 C 
ENDROOT
BRANCH   1   2
ATOM      2  C   UNL     1      15.853 -30.296  21.632  1.00  0.00     0.000 C 
BRANCH   2   3
ATOM      3  C   UNL     1      14.736 -29.246  21.655  1.00  0.00     0.006 C 
BRANCH   3   4
ATOM      4  C   UNL     1      14.160 -29.087  23.066  1.00  0.00     0.053 C 
BRANCH   4   5
ATOM      5  C   UNL     1      12.762 -29.617  23.123  1.00  0.00     0.041 C 
ATOM      6  O   UNL     1      11.851 -28.942  23.673  1.00  0.00    -0.550 OA
ATOM      7  O   UNL     1      12.474 -30.876  22.613  1.00  0.00    -0.550 OA
ENDBRANCH   4   5
ENDBRANCH   3   4
ENDBRANCH   2   3
ENDBRANCH   1   2
BRANCH   1   8
ATOM      8  C   UNL     1      16.622 -31.971  23.414  1.00  0.00     0.000 C 
BRANCH   8   9
ATOM      9  C   UNL     1      15.344 -32.666  23.919  1.00  0.00     0.000 C 
BRANCH   9  10
ATOM     10  C   UNL     1      14.868 -33.866  23.077  1.00  0.00     0.006 C 
BRANCH  10  11
ATOM     11  C   UNL     1      15.744 -34.150  21.844  1.00  0.00     0.053 C 
BRANCH  11  12
ATOM     12  C   UNL     1      15.024 -33.886  20.556  1.00  0.00     0.041 C 
ATOM     13  O   UNL     1      15.410 -34.433  19.489  1.00  0.00    -0.550 OA
ATOM     14  O   UNL     1      13.902 -33.065  20.540  1.00  0.00    -0.550 OA
ENDBRANCH  11  12
ENDBRANCH  10  11
ENDBRANCH   9  10
ENDBRANCH   8   9
ENDBRANCH   1   8
TORSDOF 9
ENDMDL
MODEL 5
REMARK VINA RESULT:    -4.167      1.227      6.230
REMARK INTER + INTRA:          -7.177
REMARK INTER:                  -6.393
REMARK INTRA:                  -0.784
REMARK UNBOUND:                -0.818
REMARK SMILES O=C([O-])CCCCCCCCC(=O)[O-]
REMARK SMILES IDX 7 1 6 2 5 3 4 4 2 5 1 6 3 7 8 8 9 9 10 10 11 11 12 12 13 13
REMARK SMILES IDX 14 14
REMARK H PARENT
REMARK Flexibility Score: inf
ROOT
ATOM      1  C   UNL     1      16.460 -30.111  21.735  1.00  0.00     0.000 C 
ENDROOT
BRANCH   1   2
ATOM      2  C   UNL     1      16.623 -31.136  22.867  1.00  0.00     0.000 C 
BRANCH   2   3
ATOM      3  C   UNL     1      17.255 -32.433  22.346  1.00  0.00     0.006 C 
BRANCH   3   4
ATOM      4  C   UNL     1      16.981 -32.615  20.850  1.00  0.00     0.053 C 
BRANCH   4   5
ATOM      5  C   UNL     1      16.032 -33.750  20.626  1.00  0.00     0.041 C 
ATOM      6  O   UNL     1      16.103 -34.436  19.572  1.00  0.00    -0.550 OA
ATOM      7  O   UNL     1      15.039 -34.020  21.558  1.00  0.00    -0.550 OA
ENDBRANCH   4   5
ENDBRANCH   3   4
ENDBRANCH   2   3
ENDBRANCH   1   2
BRANCH   1   8
ATOM      8  C   UNL     1      15.028 -29.556  21.631  1.00  0.00     0.000 C 
BRANCH   8   9
ATOM      9  C   UNL     1      13.950 -30.590  21.257  1.00  0.00     0.000 C 
BRANCH   9  10
ATOM     10  C   UNL     1      12.801 -30.744  22.273  1.00  0.00     0.006 C 
BRANCH  10  11
ATOM     11  C   UNL     1      13.104 -30.137  23.654  1.00  0.00     0.053 C 
BRANCH  11  12
ATOM     12  C   UNL     1      12.335 -28.876  23.907  1.00  0.00     0.041 C 
ATOM     13  O   UNL     1      12.802 -27.990  24.672  1.00  0.00    -0.550 OA
ATOM     14  O   UNL     1      11.119 -28.661  23.270  1.00  0.00    -0.550 OA
ENDBRANCH  11  12
ENDBRANCH  10  11
ENDBRANCH   9  10
ENDBRANCH   8   9
ENDBRANCH   1   8
TORSDOF 9
ENDMDL
MODEL 6
REMARK VINA RESULT:    -4.160      1.796      2.433
REMARK INTER + INTRA:          -7.166
REMARK INTER:                  -6.464
REMARK INTRA:                  -0.703
REMARK UNBOUND:                -0.818
REMARK SMILES O=C([O-])CCCCCCCCC(=O)[O-]
REMARK SMILES IDX 7 1 6 2 5 3 4 4 2 5 1 6 3 7 8 8 9 9 10 10 11 11 12 12 13 13
REMARK SMILES IDX 14 14
REMARK H PARENT
REMARK Flexibility Score: inf
ROOT
ATOM      1  C   UNL     1      14.416 -33.231  23.870  1.00  0.00     0.000 C 
ENDROOT
BRANCH   1   2
ATOM      2  C   UNL     1      13.505 -31.995  23.917  1.00  0.00     0.000 C 
BRANCH   2   3
ATOM      3  C   UNL     1      14.168 -30.799  23.220  1.00  0.00     0.006 C 
BRANCH   3   4
ATOM      4  C   UNL     1      13.148 -30.012  22.391  1.00  0.00     0.053 C 
BRANCH   4   5
ATOM      5  C   UNL     1      12.411 -30.927  21.463  1.00  0.00     0.041 C 
ATOM      6  O   UNL     1      11.154 -30.993  21.505  1.00  0.00    -0.550 OA
ATOM      7  O   UNL     1      13.116 -31.740  20.585  1.00  0.00    -0.550 OA
ENDBRANCH   4   5
ENDBRANCH   3   4
ENDBRANCH   2   3
ENDBRANCH   1   2
BRANCH   1   8
ATOM      8  C   UNL     1      15.869 -32.891  23.490  1.00  0.00     0.000 C 
BRANCH   8   9
ATOM      9  C   UNL     1      16.367 -33.521  22.176  1.00  0.00     0.000 C 
BRANCH   9  10
ATOM     10  C   UNL     1      15.362 -34.450  21.467  1.00  0.00     0.006 C 
BRANCH  10  11
ATOM     11  C   UNL     1      15.431 -34.387  19.930  1.00  0.00     0.053 C 
BRANCH  11  12
ATOM     12  C   UNL     1      16.596 -35.149  19.377  1.00  0.00     0.041 C 
ATOM     13  O   UNL     1      17.629 -34.539  18.993  1.00  0.00    -0.550 OA
ATOM     14  O   UNL     1      16.558 -36.537  19.319  1.00  0.00    -0.550 OA
ENDBRANCH  11  12
ENDBRANCH  10  11
ENDBRANCH   9  10
ENDBRANCH   8   9
ENDBRANCH   1   8
TORSDOF 9
ENDMDL
MODEL 7
REMARK VINA RESULT:    -4.148      1.357      2.091
REMARK INTER + INTRA:          -7.149
REMARK INTER:                  -6.473
REMARK INTRA:                  -0.676
REMARK UNBOUND:                -0.818
REMARK SMILES O=C([O-])CCCCCCCCC(=O)[O-]
REMARK SMILES IDX 7 1 6 2 5 3 4 4 2 5 1 6 3 7 8 8 9 9 10 10 11 11 12 12 13 13
REMARK SMILES IDX 14 14
REMARK H PARENT
REMARK Flexibility Score: inf
ROOT
ATOM      1  C   UNL     1      15.709 -32.125  22.687  1.00  0.00     0.000 C 
ENDROOT
BRANCH   1   2
ATOM      2  C   UNL     1      14.563 -32.852  23.406  1.00  0.00     0.000 C 
BRANCH   2   3
ATOM      3  C   UNL     1      13.516 -31.854  23.918  1.00  0.00     0.006 C 
BRANCH   3   4
ATOM      4  C   UNL     1      13.044 -30.928  22.793  1.00  0.00     0.053 C 
BRANCH   4   5
ATOM      5  C   UNL     1      13.144 -29.496  23.217  1.00  0.00     0.041 C 
ATOM      6  O   UNL     1      13.992 -28.735  22.681  1.00  0.00    -0.550 OA
ATOM      7  O   UNL     1      12.334 -29.015  24.237  1.00  0.00    -0.550 OA
ENDBRANCH   4   5
ENDBRANCH   3   4
ENDBRANCH   2   3
ENDBRANCH   1   2
BRANCH   1   8
ATOM      8  C   UNL     1      15.936 -32.635  21.252  1.00  0.00     0.000 C 
BRANCH   8   9
ATOM      9  C   UNL     1      14.771 -33.445  20.653  1.00  0.00     0.000 C 
BRANCH   9  10
ATOM     10  C   UNL     1      15.116 -34.886  20.231  1.00  0.00     0.006 C 
BRANCH  10  11
ATOM     11  C   UNL     1      16.523 -35.342  20.660  1.00  0.00     0.053 C 
BRANCH  11  12
ATOM     12  C   UNL     1      17.400 -35.670  19.490  1.00  0.00     0.041 C 
ATOM     13  O   UNL     1      17.511 -36.861  19.093  1.00  0.00    -0.550 OA
ATOM     14  O   UNL     1      18.069 -34.657  18.814  1.00  0.00    -0.550 OA
ENDBRANCH  11  12
ENDBRANCH  10  11
ENDBRANCH   9  10
ENDBRANCH   8   9
ENDBRANCH   1   8
TORSDOF 9
ENDMDL
MODEL 8
REMARK VINA RESULT:    -4.141      2.229      3.075
REMARK INTER + INTRA:          -7.138
REMARK INTER:                  -6.293
REMARK INTRA:                  -0.844
REMARK UNBOUND:                -0.818
REMARK SMILES O=C([O-])CCCCCCCCC(=O)[O-]
REMARK SMILES IDX 7 1 6 2 5 3 4 4 2 5 1 6 3 7 8 8 9 9 10 10 11 11 12 12 13 13
REMARK SMILES IDX 14 14
REMARK H PARENT
REMARK Flexibility Score: inf
ROOT
ATOM      1  C   UNL     1      13.494 -31.797  21.455  1.00  0.00     0.000 C 
ENDROOT
BRANCH   1   2
ATOM      2  C   UNL     1      14.220 -30.455  21.287  1.00  0.00     0.000 C 
BRANCH   2   3
ATOM      3  C   UNL     1      14.391 -29.752  22.640  1.00  0.00     0.006 C 
BRANCH   3   4
ATOM      4  C   UNL     1      13.187 -30.011  23.550  1.00  0.00     0.053 C 
BRANCH   4   5
ATOM      5  C   UNL     1      12.408 -28.750  23.758  1.00  0.00     0.041 C 
ATOM      6  O   UNL     1      11.242 -28.642  23.292  1.00  0.00    -0.550 OA
ATOM      7  O   UNL     1      12.986 -27.678  24.424  1.00  0.00    -0.550 OA
ENDBRANCH   4   5
ENDBRANCH   3   4
ENDBRANCH   2   3
ENDBRANCH   1   2
BRANCH   1   8
ATOM      8  C   UNL     1      14.290 -32.985  20.883  1.00  0.00     0.000 C 
BRANCH   8   9
ATOM      9  C   UNL     1      14.975 -33.880  21.932  1.00  0.00     0.000 C 
BRANCH   9  10
ATOM     10  C   UNL     1      14.750 -33.469  23.400  1.00  0.00     0.006 C 
BRANCH  10  11
ATOM     11  C   UNL     1      16.007 -33.586  24.280  1.00  0.00     0.053 C 
BRANCH  11  12
ATOM     12  C   UNL     1      17.106 -32.670  23.834  1.00  0.00     0.041 C 
ATOM     13  O   UNL     1      17.041 -31.436  24.076  1.00  0.00    -0.550 OA
ATOM     14  O   UNL     1      18.221 -33.185  23.182  1.00  0.00    -0.550 OA
ENDBRANCH  11  12
ENDBRANCH  10  11
ENDBRANCH   9  10
ENDBRANCH   8   9
ENDBRANCH   1   8
TORSDOF 9
ENDMDL
MODEL 9
REMARK VINA RESULT:    -4.120      2.931      5.477
REMARK INTER + INTRA:          -7.107
REMARK INTER:                  -6.285
REMARK INTRA:                  -0.822
REMARK UNBOUND:                -0.818
REMARK SMILES O=C([O-])CCCCCCCCC(=O)[O-]
REMARK SMILES IDX 7 1 6 2 5 3 4 4 2 5 1 6 3 7 8 8 9 9 10 10 11 11 12 12 13 13
REMARK SMILES IDX 14 14
REMARK H PARENT
REMARK Flexibility Score: inf
ROOT
ATOM      1  C   UNL     1      13.396 -31.388  21.004  1.00  0.00     0.000 C 
ENDROOT
BRANCH   1   2
ATOM      2  C   UNL     1      13.854 -32.762  20.493  1.00  0.00     0.000 C 
BRANCH   2   3
ATOM      3  C   UNL     1      14.645 -33.512  21.572  1.00  0.00     0.006 C 
BRANCH   3   4
ATOM      4  C   UNL     1      15.431 -34.679  20.965  1.00  0.00     0.053 C 
BRANCH   4   5
ATOM      5  C   UNL     1      16.697 -34.910  21.729  1.00  0.00     0.041 C 
ATOM      6  O   UNL     1      16.687 -34.904  22.988  1.00  0.00    -0.550 OA
ATOM      7  O   UNL     1      17.896 -35.084  21.050  1.00  0.00    -0.550 OA
ENDBRANCH   4   5
ENDBRANCH   3   4
ENDBRANCH   2   3
ENDBRANCH   1   2
BRANCH   1   8
ATOM      8  C   UNL     1      13.131 -31.370  22.520  1.00  0.00     0.000 C 
BRANCH   8   9
ATOM      9  C   UNL     1      13.859 -30.259  23.300  1.00  0.00     0.000 C 
BRANCH   9  10
ATOM     10  C   UNL     1      15.050 -29.611  22.568  1.00  0.00     0.006 C 
BRANCH  10  11
ATOM     11  C   UNL     1      16.386 -30.344  22.779  1.00  0.00     0.053 C 
BRANCH  11  12
ATOM     12  C   UNL     1      17.234 -30.357  21.544  1.00  0.00     0.041 C 
ATOM     13  O   UNL     1      17.238 -31.364  20.787  1.00  0.00    -0.550 OA
ATOM     14  O   UNL     1      17.994 -29.243  21.207  1.00  0.00    -0.550 OA
ENDBRANCH  11  12
ENDBRANCH  10  11
ENDBRANCH   9  10
ENDBRANCH   8   9
ENDBRANCH   1   8
TORSDOF 9
ENDMDL
