MODEL 1
REMARK VINA RESULT:    -6.593      0.000      0.000
REMARK INTER + INTRA:         -20.728
REMARK INTER:                 -16.615
REMARK INTRA:                  -4.113
REMARK UNBOUND:                -4.113
REMARK SMILES CCCCCCCCCCCCCCCCCCCCCCCCCCCC(=O)[O-]
REMARK SMILES IDX 15 1 16 2 17 3 18 4 19 5 20 6 21 7 22 8 23 9 24 10 25 11
REMARK SMILES IDX 26 12 27 13 28 14 29 15 30 16 14 17 13 18 12 19 11 20 10 21
REMARK SMILES IDX 9 22 8 23 7 24 6 25 5 26 4 27 3 28 2 29 1 30
REMARK H PARENT
REMARK Flexibility Score: inf
ROOT
ATOM      1  C   UNL     1       4.473  24.421  42.667  1.00  0.00     0.000 C 
ENDROOT
BRANCH   1   2
ATOM      2  C   UNL     1       3.317  24.071  43.626  1.00  0.00     0.000 C 
BRANCH   2   3
ATOM      3  C   UNL     1       2.633  25.274  44.294  1.00  0.00     0.000 C 
BRANCH   3   4
ATOM      4  C   UNL     1       2.386  26.439  43.317  1.00  0.00     0.000 C 
BRANCH   4   5
ATOM      5  C   UNL     1       0.910  26.872  43.284  1.00  0.00     0.000 C 
BRANCH   5   6
ATOM      6  C   UNL     1       0.529  27.737  42.068  1.00  0.00     0.000 C 
BRANCH   6   7
ATOM      7  C   UNL     1       1.188  29.126  42.096  1.00  0.00     0.000 C 
BRANCH   7   8
ATOM      8  C   UNL     1       1.038  29.840  40.747  1.00  0.00     0.000 C 
BRANCH   8   9
ATOM      9  C   UNL     1      -0.384  30.398  40.581  1.00  0.00     0.000 C 
BRANCH   9  10
ATOM     10  C   UNL     1      -0.869  31.164  41.820  1.00  0.00     0.000 C 
BRANCH  10  11
ATOM     11  C   UNL     1      -2.387  31.048  42.028  1.00  0.00     0.000 C 
BRANCH  11  12
ATOM     12  C   UNL     1      -2.719  30.625  43.463  1.00  0.00     0.006 C 
BRANCH  12  13
ATOM     13  C   UNL     1      -2.361  29.154  43.698  1.00  0.00     0.053 C 
BRANCH  13  14
ATOM     14  C   UNL     1      -1.589  28.998  44.971  1.00  0.00     0.041 C 
ATOM     15  O   UNL     1      -1.601  27.900  45.587  1.00  0.00    -0.550 OA
ATOM     16  O   UNL     1      -0.828  30.055  45.458  1.00  0.00    -0.550 OA
ENDBRANCH  13  14
ENDBRANCH  12  13
ENDBRANCH  11  12
ENDBRANCH  10  11
ENDBRANCH   9  10
ENDBRANCH   8   9
ENDBRANCH   7   8
ENDBRANCH   6   7
ENDBRANCH   5   6
ENDBRANCH   4   5
ENDBRANCH   3   4
ENDBRANCH   2   3
ENDBRANCH   1   2
BRANCH   1  17
ATOM     17  C   UNL     1       5.733  24.967  43.373  1.00  0.00     0.000 C 
BRANCH  17  18
ATOM     18  C   UNL     1       7.029  24.306  42.868  1.00  0.00     0.000 C 
BRANCH  18  19
ATOM     19  C   UNL     1       7.976  23.901  44.018  1.00  0.00     0.000 C 
BRANCH  19  20
ATOM     20  C   UNL     1       7.305  23.886  45.405  1.00  0.00     0.000 C 
BRANCH  20  21
ATOM     21  C   UNL     1       7.314  22.525  46.120  1.00  0.00     0.000 C 
BRANCH  21  22
ATOM     22  C   UNL     1       5.941  22.150  46.701  1.00  0.00    -0.000 C 
BRANCH  22  23
ATOM     23  C   UNL     1       4.941  21.706  45.620  1.00  0.00    -0.000 C 
BRANCH  23  24
ATOM     24  C   UNL     1       5.407  20.519  44.755  1.00  0.00    -0.000 C 
BRANCH  24  25
ATOM     25  C   UNL     1       5.422  20.842  43.252  1.00  0.00    -0.000 C 
BRANCH  25  26
ATOM     26  C   UNL     1       6.829  20.670  42.662  1.00  0.00    -0.000 C 
BRANCH  26  27
ATOM     27  C   UNL     1       7.787  19.921  43.607  1.00  0.00    -0.000 C 
BRANCH  27  28
ATOM     28  C   UNL     1       9.240  20.438  43.610  1.00  0.00    -0.000 C 
BRANCH  28  29
ATOM     29  C   UNL     1       9.999  20.227  44.931  1.00  0.00    -0.003 C 
ATOM     30  C   UNL     1       9.108  19.697  46.051  1.00  0.00     0.004 C 
ENDBRANCH  28  29
ENDBRANCH  27  28
ENDBRANCH  26  27
ENDBRANCH  25  26
ENDBRANCH  24  25
ENDBRANCH  23  24
ENDBRANCH  22  23
ENDBRANCH  21  22
ENDBRANCH  20  21
ENDBRANCH  19  20
ENDBRANCH  18  19
ENDBRANCH  17  18
ENDBRANCH   1  17
TORSDOF 26
ENDMDL
MODEL 2
REMARK VINA RESULT:    -6.563      1.797      3.151
REMARK INTER + INTRA:         -20.651
REMARK INTER:                 -16.677
REMARK INTRA:                  -3.974
REMARK UNBOUND:                -4.113
REMARK SMILES CCCCCCCCCCCCCCCCCCCCCCCCCCCC(=O)[O-]
REMARK SMILES IDX 15 1 16 2 17 3 18 4 19 5 20 6 21 7 22 8 23 9 24 10 25 11
REMARK SMILES IDX 26 12 27 13 28 14 29 15 30 16 14 17 13 18 12 19 11 20 10 21
REMARK SMILES IDX 9 22 8 23 7 24 6 25 5 26 4 27 3 28 2 29 1 30
REMARK H PARENT
REMARK Flexibility Score: inf
ROOT
ATOM      1  C   UNL     1       4.358  24.649  45.172  1.00  0.00     0.000 C 
ENDROOT
BRANCH   1   2
ATOM      2  C   UNL     1       3.258  24.312  44.146  1.00  0.00     0.000 C 
BRANCH   2   3
ATOM      3  C   UNL     1       2.225  25.424  43.904  1.00  0.00     0.000 C 
BRANCH   3   4
ATOM      4  C   UNL     1       2.780  26.578  43.050  1.00  0.00     0.000 C 
BRANCH   4   5
ATOM      5  C   UNL     1       1.715  27.648  42.747  1.00  0.00     0.000 C 
BRANCH   5   6
ATOM      6  C   UNL     1       0.342  27.375  43.388  1.00  0.00     0.000 C 
BRANCH   6   7
ATOM      7  C   UNL     1       0.074  28.256  44.621  1.00  0.00     0.000 C 
BRANCH   7   8
ATOM      8  C   UNL     1      -1.356  28.065  45.141  1.00  0.00     0.000 C 
BRANCH   8   9
ATOM      9  C   UNL     1      -2.163  29.365  45.003  1.00  0.00     0.000 C 
BRANCH   9  10
ATOM     10  C   UNL     1      -2.690  29.588  43.578  1.00  0.00     0.000 C 
BRANCH  10  11
ATOM     11  C   UNL     1      -2.192  30.907  42.965  1.00  0.00     0.000 C 
BRANCH  11  12
ATOM     12  C   UNL     1      -2.051  30.793  41.444  1.00  0.00     0.006 C 
BRANCH  12  13
ATOM     13  C   UNL     1      -0.576  30.740  41.032  1.00  0.00     0.053 C 
BRANCH  13  14
ATOM     14  C   UNL     1      -0.280  29.472  40.295  1.00  0.00     0.041 C 
ATOM     15  O   UNL     1       0.855  29.289  39.783  1.00  0.00    -0.550 OA
ATOM     16  O   UNL     1      -1.248  28.478  40.203  1.00  0.00    -0.550 OA
ENDBRANCH  13  14
ENDBRANCH  12  13
ENDBRANCH  11  12
ENDBRANCH  10  11
ENDBRANCH   9  10
ENDBRANCH   8   9
ENDBRANCH   7   8
ENDBRANCH   6   7
ENDBRANCH   5   6
ENDBRANCH   4   5
ENDBRANCH   3   4
ENDBRANCH   2   3
ENDBRANCH   1   2
BRANCH   1  17
ATOM     17  C   UNL     1       5.790  24.617  44.594  1.00  0.00     0.000 C 
BRANCH  17  18
ATOM     18  C   UNL     1       5.808  24.526  43.057  1.00  0.00     0.000 C 
BRANCH  18  19
ATOM     19  C   UNL     1       6.542  23.269  42.544  1.00  0.00     0.000 C 
BRANCH  19  20
ATOM     20  C   UNL     1       5.607  22.083  42.233  1.00  0.00     0.000 C 
BRANCH  20  21
ATOM     21  C   UNL     1       6.214  20.692  42.478  1.00  0.00     0.000 C 
BRANCH  21  22
ATOM     22  C   UNL     1       5.596  19.979  43.692  1.00  0.00    -0.000 C 
BRANCH  22  23
ATOM     23  C   UNL     1       4.561  20.848  44.426  1.00  0.00    -0.000 C 
BRANCH  23  24
ATOM     24  C   UNL     1       4.821  21.031  45.934  1.00  0.00    -0.000 C 
BRANCH  24  25
ATOM     25  C   UNL     1       6.307  20.901  46.306  1.00  0.00    -0.000 C 
BRANCH  25  26
ATOM     26  C   UNL     1       7.004  22.269  46.292  1.00  0.00    -0.000 C 
BRANCH  26  27
ATOM     27  C   UNL     1       8.516  22.169  46.015  1.00  0.00    -0.000 C 
BRANCH  27  28
ATOM     28  C   UNL     1       8.894  21.430  44.715  1.00  0.00    -0.000 C 
BRANCH  28  29
ATOM     29  C   UNL     1       9.722  20.149  44.915  1.00  0.00    -0.003 C 
ATOM     30  C   UNL     1       9.162  18.953  44.148  1.00  0.00     0.004 C 
ENDBRANCH  28  29
ENDBRANCH  27  28
ENDBRANCH  26  27
ENDBRANCH  25  26
ENDBRANCH  24  25
ENDBRANCH  23  24
ENDBRANCH  22  23
ENDBRANCH  21  22
ENDBRANCH  20  21
ENDBRANCH  19  20
ENDBRANCH  18  19
ENDBRANCH  17  18
ENDBRANCH   1  17
TORSDOF 26
ENDMDL
MODEL 3
REMARK VINA RESULT:    -6.559      1.737      3.564
REMARK INTER + INTRA:         -20.641
REMARK INTER:                 -16.428
REMARK INTRA:                  -4.213
REMARK UNBOUND:                -4.113
REMARK SMILES CCCCCCCCCCCCCCCCCCCCCCCCCCCC(=O)[O-]
REMARK SMILES IDX 15 1 16 2 17 3 18 4 19 5 20 6 21 7 22 8 23 9 24 10 25 11
REMARK SMILES IDX 26 12 27 13 28 14 29 15 30 16 14 17 13 18 12 19 11 20 10 21
REMARK SMILES IDX 9 22 8 23 7 24 6 25 5 26 4 27 3 28 2 29 1 30
REMARK H PARENT
REMARK Flexibility Score: inf
ROOT
ATOM      1  C   UNL     1       4.172  24.937  42.942  1.00  0.00     0.000 C 
ENDROOT
BRANCH   1   2
ATOM      2  C   UNL     1       3.311  26.216  42.965  1.00  0.00     0.000 C 
BRANCH   2   3
ATOM      3  C   UNL     1       1.954  26.079  43.672  1.00  0.00     0.000 C 
BRANCH   3   4
ATOM      4  C   UNL     1       1.176  27.407  43.733  1.00  0.00     0.000 C 
BRANCH   4   5
ATOM      5  C   UNL     1      -0.274  27.259  43.238  1.00  0.00     0.000 C 
BRANCH   5   6
ATOM      6  C   UNL     1      -1.343  27.512  44.317  1.00  0.00     0.000 C 
BRANCH   6   7
ATOM      7  C   UNL     1      -0.812  28.342  45.498  1.00  0.00     0.000 C 
BRANCH   7   8
ATOM      8  C   UNL     1      -1.292  29.796  45.416  1.00  0.00     0.000 C 
BRANCH   8   9
ATOM      9  C   UNL     1      -2.535  29.909  44.520  1.00  0.00     0.000 C 
BRANCH   9  10
ATOM     10  C   UNL     1      -2.449  31.081  43.532  1.00  0.00     0.000 C 
BRANCH  10  11
ATOM     11  C   UNL     1      -1.198  31.011  42.642  1.00  0.00     0.000 C 
BRANCH  11  12
ATOM     12  C   UNL     1      -1.440  30.130  41.412  1.00  0.00     0.006 C 
BRANCH  12  13
ATOM     13  C   UNL     1      -0.412  30.423  40.316  1.00  0.00     0.053 C 
BRANCH  13  14
ATOM     14  C   UNL     1       0.848  29.651  40.555  1.00  0.00     0.041 C 
ATOM     15  O   UNL     1       1.676  30.043  41.417  1.00  0.00    -0.550 OA
ATOM     16  O   UNL     1       1.091  28.479  39.847  1.00  0.00    -0.550 OA
ENDBRANCH  13  14
ENDBRANCH  12  13
ENDBRANCH  11  12
ENDBRANCH  10  11
ENDBRANCH   9  10
ENDBRANCH   8   9
ENDBRANCH   7   8
ENDBRANCH   6   7
ENDBRANCH   5   6
ENDBRANCH   4   5
ENDBRANCH   3   4
ENDBRANCH   2   3
ENDBRANCH   1   2
BRANCH   1  17
ATOM     17  C   UNL     1       3.597  23.776  43.783  1.00  0.00     0.000 C 
BRANCH  17  18
ATOM     18  C   UNL     1       4.360  23.565  45.104  1.00  0.00     0.000 C 
BRANCH  18  19
ATOM     19  C   UNL     1       4.697  22.082  45.365  1.00  0.00     0.000 C 
BRANCH  19  20
ATOM     20  C   UNL     1       4.597  21.188  44.113  1.00  0.00     0.000 C 
BRANCH  20  21
ATOM     21  C   UNL     1       5.752  20.191  43.929  1.00  0.00     0.000 C 
BRANCH  21  22
ATOM     22  C   UNL     1       6.551  20.439  42.638  1.00  0.00    -0.000 C 
BRANCH  22  23
ATOM     23  C   UNL     1       6.439  21.890  42.141  1.00  0.00    -0.000 C 
BRANCH  23  24
ATOM     24  C   UNL     1       7.764  22.677  42.139  1.00  0.00    -0.000 C 
BRANCH  24  25
ATOM     25  C   UNL     1       7.624  24.086  42.740  1.00  0.00    -0.000 C 
BRANCH  25  26
ATOM     26  C   UNL     1       7.820  24.062  44.263  1.00  0.00    -0.000 C 
BRANCH  26  27
ATOM     27  C   UNL     1       8.828  22.990  44.719  1.00  0.00    -0.000 C 
BRANCH  27  28
ATOM     28  C   UNL     1       8.348  22.092  45.878  1.00  0.00    -0.000 C 
BRANCH  28  29
ATOM     29  C   UNL     1       8.934  20.670  45.881  1.00  0.00    -0.003 C 
ATOM     30  C   UNL     1       9.770  20.369  44.639  1.00  0.00     0.004 C 
ENDBRANCH  28  29
ENDBRANCH  27  28
ENDBRANCH  26  27
ENDBRANCH  25  26
ENDBRANCH  24  25
ENDBRANCH  23  24
ENDBRANCH  22  23
ENDBRANCH  21  22
ENDBRANCH  20  21
ENDBRANCH  19  20
ENDBRANCH  18  19
ENDBRANCH  17  18
ENDBRANCH   1  17
TORSDOF 26
ENDMDL
MODEL 4
REMARK VINA RESULT:    -6.557      3.838     11.061
REMARK INTER + INTRA:         -20.636
REMARK INTER:                 -16.571
REMARK INTRA:                  -4.064
REMARK UNBOUND:                -4.113
REMARK SMILES CCCCCCCCCCCCCCCCCCCCCCCCCCCC(=O)[O-]
REMARK SMILES IDX 15 1 16 2 17 3 18 4 19 5 20 6 21 7 22 8 23 9 24 10 25 11
REMARK SMILES IDX 26 12 27 13 28 14 29 15 30 16 14 17 13 18 12 19 11 20 10 21
REMARK SMILES IDX 9 22 8 23 7 24 6 25 5 26 4 27 3 28 2 29 1 30
REMARK H PARENT
REMARK Flexibility Score: inf
ROOT
ATOM      1  C   UNL     1       4.864  24.421  44.401  1.00  0.00     0.000 C 
ENDROOT
BRANCH   1   2
ATOM      2  C   UNL     1       5.994  24.809  43.427  1.00  0.00     0.000 C 
BRANCH   2   3
ATOM      3  C   UNL     1       6.580  23.648  42.608  1.00  0.00     0.000 C 
BRANCH   3   4
ATOM      4  C   UNL     1       5.560  22.524  42.352  1.00  0.00     0.000 C 
BRANCH   4   5
ATOM      5  C   UNL     1       6.181  21.124  42.506  1.00  0.00     0.000 C 
BRANCH   5   6
ATOM      6  C   UNL     1       5.540  20.262  43.609  1.00  0.00     0.000 C 
BRANCH   6   7
ATOM      7  C   UNL     1       4.493  21.031  44.432  1.00  0.00     0.000 C 
BRANCH   7   8
ATOM      8  C   UNL     1       4.764  20.903  45.936  1.00  0.00     0.000 C 
BRANCH   8   9
ATOM      9  C   UNL     1       6.267  21.018  46.230  1.00  0.00     0.000 C 
BRANCH   9  10
ATOM     10  C   UNL     1       6.744  22.475  46.324  1.00  0.00     0.000 C 
BRANCH  10  11
ATOM     11  C   UNL     1       8.270  22.605  46.195  1.00  0.00     0.000 C 
BRANCH  11  12
ATOM     12  C   UNL     1       8.760  22.074  44.844  1.00  0.00     0.006 C 
BRANCH  12  13
ATOM     13  C   UNL     1       9.721  20.896  45.034  1.00  0.00     0.053 C 
BRANCH  13  14
ATOM     14  C   UNL     1       9.412  19.802  44.061  1.00  0.00     0.041 C 
ATOM     15  O   UNL     1       9.923  19.816  42.911  1.00  0.00    -0.550 OA
ATOM     16  O   UNL     1       8.585  18.750  44.436  1.00  0.00    -0.550 OA
ENDBRANCH  13  14
ENDBRANCH  12  13
ENDBRANCH  11  12
ENDBRANCH  10  11
ENDBRANCH   9  10
ENDBRANCH   8   9
ENDBRANCH   7   8
ENDBRANCH   6   7
ENDBRANCH   5   6
ENDBRANCH   4   5
ENDBRANCH   3   4
ENDBRANCH   2   3
ENDBRANCH   1   2
BRANCH   1  17
ATOM     17  C   UNL     1       3.492  25.035  44.050  1.00  0.00     0.000 C 
BRANCH  17  18
ATOM     18  C   UNL     1       3.568  26.028  42.875  1.00  0.00     0.000 C 
BRANCH  18  19
ATOM     19  C   UNL     1       2.408  27.045  42.880  1.00  0.00     0.000 C 
BRANCH  19  20
ATOM     20  C   UNL     1       1.144  26.549  43.611  1.00  0.00     0.000 C 
BRANCH  20  21
ATOM     21  C   UNL     1       0.026  27.593  43.763  1.00  0.00     0.000 C 
BRANCH  21  22
ATOM     22  C   UNL     1       0.506  28.883  44.448  1.00  0.00    -0.000 C 
BRANCH  22  23
ATOM     23  C   UNL     1      -0.649  29.845  44.777  1.00  0.00    -0.000 C 
BRANCH  23  24
ATOM     24  C   UNL     1      -2.046  29.195  44.799  1.00  0.00    -0.000 C 
BRANCH  24  25
ATOM     25  C   UNL     1      -2.920  29.614  43.605  1.00  0.00    -0.000 C 
BRANCH  25  26
ATOM     26  C   UNL     1      -2.458  30.959  43.024  1.00  0.00    -0.000 C 
BRANCH  26  27
ATOM     27  C   UNL     1      -1.971  30.846  41.567  1.00  0.00    -0.000 C 
BRANCH  27  28
ATOM     28  C   UNL     1      -2.046  29.431  40.961  1.00  0.00    -0.000 C 
BRANCH  28  29
ATOM     29  C   UNL     1      -0.716  28.892  40.405  1.00  0.00    -0.003 C 
ATOM     30  C   UNL     1       0.468  29.806  40.710  1.00  0.00     0.004 C 
ENDBRANCH  28  29
ENDBRANCH  27  28
ENDBRANCH  26  27
ENDBRANCH  25  26
ENDBRANCH  24  25
ENDBRANCH  23  24
ENDBRANCH  22  23
ENDBRANCH  21  22
ENDBRANCH  20  21
ENDBRANCH  19  20
ENDBRANCH  18  19
ENDBRANCH  17  18
ENDBRANCH   1  17
TORSDOF 26
ENDMDL
MODEL 5
REMARK VINA RESULT:    -6.553      7.036     14.333
REMARK INTER + INTRA:         -20.627
REMARK INTER:                 -16.561
REMARK INTRA:                  -4.065
REMARK UNBOUND:                -4.113
REMARK SMILES CCCCCCCCCCCCCCCCCCCCCCCCCCCC(=O)[O-]
REMARK SMILES IDX 15 1 16 2 17 3 18 4 19 5 20 6 21 7 22 8 23 9 24 10 25 11
REMARK SMILES IDX 26 12 27 13 28 14 29 15 30 16 14 17 13 18 12 19 11 20 10 21
REMARK SMILES IDX 9 22 8 23 7 24 6 25 5 26 4 27 3 28 2 29 1 30
REMARK H PARENT
REMARK Flexibility Score: inf
ROOT
ATOM      1  C   UNL     1       9.272  20.014  45.507  1.00  0.00     0.000 C 
ENDROOT
BRANCH   1   2
ATOM      2  C   UNL     1      10.527  19.128  45.638  1.00  0.00     0.000 C 
BRANCH   2   3
ATOM      3  C   UNL     1      10.776  18.167  44.465  1.00  0.00     0.000 C 
BRANCH   3   4
ATOM      4  C   UNL     1      11.455  16.856  44.901  1.00  0.00     0.000 C 
BRANCH   4   5
ATOM      5  C   UNL     1      12.132  16.978  46.278  1.00  0.00     0.000 C 
BRANCH   5   6
ATOM      6  C   UNL     1      13.638  17.293  46.221  1.00  0.00     0.000 C 
BRANCH   6   7
ATOM      7  C   UNL     1      14.413  16.718  47.419  1.00  0.00     0.000 C 
BRANCH   7   8
ATOM      8  C   UNL     1      13.471  16.029  48.412  1.00  0.00     0.000 C 
BRANCH   8   9
ATOM      9  C   UNL     1      13.788  14.529  48.512  1.00  0.00     0.000 C 
BRANCH   9  10
ATOM     10  C   UNL     1      13.749  13.822  47.149  1.00  0.00     0.000 C 
BRANCH  10  11
ATOM     11  C   UNL     1      15.140  13.367  46.681  1.00  0.00     0.000 C 
BRANCH  11  12
ATOM     12  C   UNL     1      15.238  13.367  45.152  1.00  0.00     0.006 C 
BRANCH  12  13
ATOM     13  C   UNL     1      13.974  13.959  44.521  1.00  0.00     0.053 C 
BRANCH  13  14
ATOM     14  C   UNL     1      14.330  14.923  43.434  1.00  0.00     0.041 C 
ATOM     15  O   UNL     1      13.519  15.149  42.498  1.00  0.00    -0.550 OA
ATOM     16  O   UNL     1      15.546  15.597  43.471  1.00  0.00    -0.550 OA
ENDBRANCH  13  14
ENDBRANCH  12  13
ENDBRANCH  11  12
ENDBRANCH  10  11
ENDBRANCH   9  10
ENDBRANCH   8   9
ENDBRANCH   7   8
ENDBRANCH   6   7
ENDBRANCH   5   6
ENDBRANCH   4   5
ENDBRANCH   3   4
ENDBRANCH   2   3
ENDBRANCH   1   2
BRANCH   1  17
ATOM     17  C   UNL     1       8.162  19.408  44.621  1.00  0.00     0.000 C 
BRANCH  17  18
ATOM     18  C   UNL     1       8.091  20.060  43.228  1.00  0.00     0.000 C 
BRANCH  18  19
ATOM     19  C   UNL     1       6.676  20.569  42.882  1.00  0.00     0.000 C 
BRANCH  19  20
ATOM     20  C   UNL     1       5.587  20.110  43.871  1.00  0.00     0.000 C 
BRANCH  20  21
ATOM     21  C   UNL     1       4.616  21.209  44.332  1.00  0.00     0.000 C 
BRANCH  21  22
ATOM     22  C   UNL     1       4.724  21.505  45.837  1.00  0.00    -0.000 C 
BRANCH  22  23
ATOM     23  C   UNL     1       6.156  21.865  46.270  1.00  0.00    -0.000 C 
BRANCH  23  24
ATOM     24  C   UNL     1       6.384  23.358  46.574  1.00  0.00    -0.000 C 
BRANCH  24  25
ATOM     25  C   UNL     1       7.854  23.783  46.418  1.00  0.00    -0.000 C 
BRANCH  25  26
ATOM     26  C   UNL     1       8.397  23.406  45.032  1.00  0.00    -0.000 C 
BRANCH  26  27
ATOM     27  C   UNL     1       8.181  24.513  43.983  1.00  0.00    -0.000 C 
BRANCH  27  28
ATOM     28  C   UNL     1       7.406  24.078  42.723  1.00  0.00    -0.000 C 
BRANCH  28  29
ATOM     29  C   UNL     1       5.881  24.258  42.806  1.00  0.00    -0.003 C 
ATOM     30  C   UNL     1       5.469  25.447  43.671  1.00  0.00     0.004 C 
ENDBRANCH  28  29
ENDBRANCH  27  28
ENDBRANCH  26  27
ENDBRANCH  25  26
ENDBRANCH  24  25
ENDBRANCH  23  24
ENDBRANCH  22  23
ENDBRANCH  21  22
ENDBRANCH  20  21
ENDBRANCH  19  20
ENDBRANCH  18  19
ENDBRANCH  17  18
ENDBRANCH   1  17
TORSDOF 26
ENDMDL
MODEL 6
REMARK VINA RESULT:    -6.520      3.788     10.993
REMARK INTER + INTRA:         -20.544
REMARK INTER:                 -16.319
REMARK INTRA:                  -4.225
REMARK UNBOUND:                -4.113
REMARK SMILES CCCCCCCCCCCCCCCCCCCCCCCCCCCC(=O)[O-]
REMARK SMILES IDX 15 1 16 2 17 3 18 4 19 5 20 6 21 7 22 8 23 9 24 10 25 11
REMARK SMILES IDX 26 12 27 13 28 14 29 15 30 16 14 17 13 18 12 19 11 20 10 21
REMARK SMILES IDX 9 22 8 23 7 24 6 25 5 26 4 27 3 28 2 29 1 30
REMARK H PARENT
REMARK Flexibility Score: inf
ROOT
ATOM      1  C   UNL     1       6.545  24.031  42.865  1.00  0.00     0.000 C 
ENDROOT
BRANCH   1   2
ATOM      2  C   UNL     1       7.151  24.372  44.241  1.00  0.00     0.000 C 
BRANCH   2   3
ATOM      3  C   UNL     1       8.292  23.450  44.701  1.00  0.00     0.000 C 
BRANCH   3   4
ATOM      4  C   UNL     1       8.031  22.821  46.081  1.00  0.00     0.000 C 
BRANCH   4   5
ATOM      5  C   UNL     1       6.531  22.754  46.420  1.00  0.00     0.000 C 
BRANCH   5   6
ATOM      6  C   UNL     1       5.932  21.337  46.377  1.00  0.00     0.000 C 
BRANCH   6   7
ATOM      7  C   UNL     1       4.467  21.323  45.909  1.00  0.00     0.000 C 
BRANCH   7   8
ATOM      8  C   UNL     1       4.371  21.280  44.380  1.00  0.00     0.000 C 
BRANCH   8   9
ATOM      9  C   UNL     1       5.183  20.105  43.816  1.00  0.00     0.000 C 
BRANCH   9  10
ATOM     10  C   UNL     1       6.081  20.514  42.639  1.00  0.00     0.000 C 
BRANCH  10  11
ATOM     11  C   UNL     1       7.576  20.331  42.947  1.00  0.00     0.000 C 
BRANCH  11  12
ATOM     12  C   UNL     1       7.788  19.327  44.085  1.00  0.00     0.006 C 
BRANCH  12  13
ATOM     13  C   UNL     1       9.280  19.061  44.310  1.00  0.00     0.053 C 
BRANCH  13  14
ATOM     14  C   UNL     1       9.742  19.693  45.585  1.00  0.00     0.041 C 
ATOM     15  O   UNL     1      10.734  20.467  45.584  1.00  0.00    -0.550 OA
ATOM     16  O   UNL     1       9.056  19.451  46.770  1.00  0.00    -0.550 OA
ENDBRANCH  13  14
ENDBRANCH  12  13
ENDBRANCH  11  12
ENDBRANCH  10  11
ENDBRANCH   9  10
ENDBRANCH   8   9
ENDBRANCH   7   8
ENDBRANCH   6   7
ENDBRANCH   5   6
ENDBRANCH   4   5
ENDBRANCH   3   4
ENDBRANCH   2   3
ENDBRANCH   1   2
BRANCH   1  17
ATOM     17  C   UNL     1       5.056  24.412  42.721  1.00  0.00     0.000 C 
BRANCH  17  18
ATOM     18  C   UNL     1       4.532  25.225  43.919  1.00  0.00     0.000 C 
BRANCH  18  19
ATOM     19  C   UNL     1       3.138  24.760  44.389  1.00  0.00     0.000 C 
BRANCH  19  20
ATOM     20  C   UNL     1       1.997  25.724  44.011  1.00  0.00     0.000 C 
BRANCH  20  21
ATOM     21  C   UNL     1       2.383  26.840  43.026  1.00  0.00     0.000 C 
BRANCH  21  22
ATOM     22  C   UNL     1       1.368  27.995  43.008  1.00  0.00    -0.000 C 
BRANCH  22  23
ATOM     23  C   UNL     1       0.046  27.633  43.705  1.00  0.00    -0.000 C 
BRANCH  23  24
ATOM     24  C   UNL     1      -0.178  28.319  45.066  1.00  0.00    -0.000 C 
BRANCH  24  25
ATOM     25  C   UNL     1      -1.385  29.271  45.067  1.00  0.00    -0.000 C 
BRANCH  25  26
ATOM     26  C   UNL     1      -1.111  30.515  44.209  1.00  0.00    -0.000 C 
BRANCH  26  27
ATOM     27  C   UNL     1      -2.307  30.904  43.319  1.00  0.00    -0.000 C 
BRANCH  27  28
ATOM     28  C   UNL     1      -2.063  30.769  41.802  1.00  0.00    -0.000 C 
BRANCH  28  29
ATOM     29  C   UNL     1      -2.083  29.327  41.268  1.00  0.00    -0.003 C 
ATOM     30  C   UNL     1      -0.956  29.045  40.277  1.00  0.00     0.004 C 
ENDBRANCH  28  29
ENDBRANCH  27  28
ENDBRANCH  26  27
ENDBRANCH  25  26
ENDBRANCH  24  25
ENDBRANCH  23  24
ENDBRANCH  22  23
ENDBRANCH  21  22
ENDBRANCH  20  21
ENDBRANCH  19  20
ENDBRANCH  18  19
ENDBRANCH  17  18
ENDBRANCH   1  17
TORSDOF 26
ENDMDL
MODEL 7
REMARK VINA RESULT:    -6.506      6.970     14.107
REMARK INTER + INTRA:         -20.509
REMARK INTER:                 -16.596
REMARK INTRA:                  -3.913
REMARK UNBOUND:                -4.113
REMARK SMILES CCCCCCCCCCCCCCCCCCCCCCCCCCCC(=O)[O-]
REMARK SMILES IDX 15 1 16 2 17 3 18 4 19 5 20 6 21 7 22 8 23 9 24 10 25 11
REMARK SMILES IDX 26 12 27 13 28 14 29 15 30 16 14 17 13 18 12 19 11 20 10 21
REMARK SMILES IDX 9 22 8 23 7 24 6 25 5 26 4 27 3 28 2 29 1 30
REMARK H PARENT
REMARK Flexibility Score: inf
ROOT
ATOM      1  C   UNL     1       9.832  20.031  44.093  1.00  0.00     0.000 C 
ENDROOT
BRANCH   1   2
ATOM      2  C   UNL     1      10.019  18.652  44.758  1.00  0.00     0.000 C 
BRANCH   2   3
ATOM      3  C   UNL     1      11.026  18.616  45.918  1.00  0.00     0.000 C 
BRANCH   3   4
ATOM      4  C   UNL     1      12.188  17.637  45.670  1.00  0.00     0.000 C 
BRANCH   4   5
ATOM      5  C   UNL     1      11.926  16.709  44.470  1.00  0.00     0.000 C 
BRANCH   5   6
ATOM      6  C   UNL     1      12.493  15.287  44.629  1.00  0.00     0.000 C 
BRANCH   6   7
ATOM      7  C   UNL     1      12.967  14.682  43.297  1.00  0.00     0.000 C 
BRANCH   7   8
ATOM      8  C   UNL     1      14.465  14.360  43.334  1.00  0.00     0.000 C 
BRANCH   8   9
ATOM      9  C   UNL     1      15.266  15.556  43.869  1.00  0.00     0.000 C 
BRANCH   9  10
ATOM     10  C   UNL     1      15.983  15.247  45.191  1.00  0.00     0.000 C 
BRANCH  10  11
ATOM     11  C   UNL     1      15.803  13.785  45.631  1.00  0.00     0.000 C 
BRANCH  11  12
ATOM     12  C   UNL     1      15.426  13.694  47.114  1.00  0.00     0.006 C 
BRANCH  12  13
ATOM     13  C   UNL     1      15.178  15.086  47.703  1.00  0.00     0.053 C 
BRANCH  13  14
ATOM     14  C   UNL     1      13.760  15.217  48.165  1.00  0.00     0.041 C 
ATOM     15  O   UNL     1      12.958  14.257  48.024  1.00  0.00    -0.550 OA
ATOM     16  O   UNL     1      13.334  16.388  48.781  1.00  0.00    -0.550 OA
ENDBRANCH  13  14
ENDBRANCH  12  13
ENDBRANCH  11  12
ENDBRANCH  10  11
ENDBRANCH   9  10
ENDBRANCH   8   9
ENDBRANCH   7   8
ENDBRANCH   6   7
ENDBRANCH   5   6
ENDBRANCH   4   5
ENDBRANCH   3   4
ENDBRANCH   2   3
ENDBRANCH   1   2
BRANCH   1  17
ATOM     17  C   UNL     1       9.663  21.194  45.094  1.00  0.00     0.000 C 
BRANCH  17  18
ATOM     18  C   UNL     1       8.297  21.174  45.804  1.00  0.00     0.000 C 
BRANCH  18  19
ATOM     19  C   UNL     1       7.811  22.585  46.199  1.00  0.00     0.000 C 
BRANCH  19  20
ATOM     20  C   UNL     1       6.370  22.620  46.745  1.00  0.00     0.000 C 
BRANCH  20  21
ATOM     21  C   UNL     1       5.529  21.368  46.448  1.00  0.00     0.000 C 
BRANCH  21  22
ATOM     22  C   UNL     1       4.382  21.644  45.461  1.00  0.00    -0.000 C 
BRANCH  22  23
ATOM     23  C   UNL     1       4.843  21.617  43.994  1.00  0.00    -0.000 C 
BRANCH  23  24
ATOM     24  C   UNL     1       5.482  20.290  43.541  1.00  0.00    -0.000 C 
BRANCH  24  25
ATOM     25  C   UNL     1       6.529  20.477  42.429  1.00  0.00    -0.000 C 
BRANCH  25  26
ATOM     26  C   UNL     1       6.568  21.934  41.944  1.00  0.00    -0.000 C 
BRANCH  26  27
ATOM     27  C   UNL     1       7.854  22.671  42.365  1.00  0.00    -0.000 C 
BRANCH  27  28
ATOM     28  C   UNL     1       7.719  24.202  42.488  1.00  0.00    -0.000 C 
BRANCH  28  29
ATOM     29  C   UNL     1       7.041  24.691  43.780  1.00  0.00    -0.003 C 
ATOM     30  C   UNL     1       5.624  25.209  43.547  1.00  0.00     0.004 C 
ENDBRANCH  28  29
ENDBRANCH  27  28
ENDBRANCH  26  27
ENDBRANCH  25  26
ENDBRANCH  24  25
ENDBRANCH  23  24
ENDBRANCH  22  23
ENDBRANCH  21  22
ENDBRANCH  20  21
ENDBRANCH  19  20
ENDBRANCH  18  19
ENDBRANCH  17  18
ENDBRANCH   1  17
TORSDOF 26
ENDMDL
MODEL 8
REMARK VINA RESULT:    -6.502      4.047     11.030
REMARK INTER + INTRA:         -20.499
REMARK INTER:                 -16.277
REMARK INTRA:                  -4.222
REMARK UNBOUND:                -4.113
REMARK SMILES CCCCCCCCCCCCCCCCCCCCCCCCCCCC(=O)[O-]
REMARK SMILES IDX 15 1 16 2 17 3 18 4 19 5 20 6 21 7 22 8 23 9 24 10 25 11
REMARK SMILES IDX 26 12 27 13 28 14 29 15 30 16 14 17 13 18 12 19 11 20 10 21
REMARK SMILES IDX 9 22 8 23 7 24 6 25 5 26 4 27 3 28 2 29 1 30
REMARK H PARENT
REMARK Flexibility Score: inf
ROOT
ATOM      1  C   UNL     1       4.237  21.864  44.387  1.00  0.00     0.000 C 
ENDROOT
BRANCH   1   2
ATOM      2  C   UNL     1       4.783  22.218  45.785  1.00  0.00     0.000 C 
BRANCH   2   3
ATOM      3  C   UNL     1       5.815  21.231  46.354  1.00  0.00     0.000 C 
BRANCH   3   4
ATOM      4  C   UNL     1       7.253  21.781  46.311  1.00  0.00     0.000 C 
BRANCH   4   5
ATOM      5  C   UNL     1       7.290  23.314  46.179  1.00  0.00     0.000 C 
BRANCH   5   6
ATOM      6  C   UNL     1       8.061  23.827  44.949  1.00  0.00     0.000 C 
BRANCH   6   7
ATOM      7  C   UNL     1       7.177  24.642  43.989  1.00  0.00     0.000 C 
BRANCH   7   8
ATOM      8  C   UNL     1       7.337  24.161  42.542  1.00  0.00     0.000 C 
BRANCH   8   9
ATOM      9  C   UNL     1       7.926  22.743  42.501  1.00  0.00     0.000 C 
BRANCH   9  10
ATOM     10  C   UNL     1       6.882  21.677  42.140  1.00  0.00     0.000 C 
BRANCH  10  11
ATOM     11  C   UNL     1       7.106  20.355  42.892  1.00  0.00     0.000 C 
BRANCH  11  12
ATOM     12  C   UNL     1       8.569  20.201  43.320  1.00  0.00     0.006 C 
BRANCH  12  13
ATOM     13  C   UNL     1       8.739  19.016  44.275  1.00  0.00     0.053 C 
BRANCH  13  14
ATOM     14  C   UNL     1      10.071  19.074  44.955  1.00  0.00     0.041 C 
ATOM     15  O   UNL     1      10.404  20.098  45.607  1.00  0.00    -0.550 OA
ATOM     16  O   UNL     1      10.932  17.984  44.893  1.00  0.00    -0.550 OA
ENDBRANCH  13  14
ENDBRANCH  12  13
ENDBRANCH  11  12
ENDBRANCH  10  11
ENDBRANCH   9  10
ENDBRANCH   8   9
ENDBRANCH   7   8
ENDBRANCH   6   7
ENDBRANCH   5   6
ENDBRANCH   4   5
ENDBRANCH   3   4
ENDBRANCH   2   3
ENDBRANCH   1   2
BRANCH   1  17
ATOM     17  C   UNL     1       3.610  23.057  43.635  1.00  0.00     0.000 C 
BRANCH  17  18
ATOM     18  C   UNL     1       3.621  24.354  44.465  1.00  0.00     0.000 C 
BRANCH  18  19
ATOM     19  C   UNL     1       2.549  25.364  44.004  1.00  0.00     0.000 C 
BRANCH  19  20
ATOM     20  C   UNL     1       3.071  26.420  43.010  1.00  0.00     0.000 C 
BRANCH  20  21
ATOM     21  C   UNL     1       2.088  27.558  42.689  1.00  0.00     0.000 C 
BRANCH  21  22
ATOM     22  C   UNL     1       0.645  27.232  43.109  1.00  0.00    -0.000 C 
BRANCH  22  23
ATOM     23  C   UNL     1       0.058  28.277  44.073  1.00  0.00    -0.000 C 
BRANCH  23  24
ATOM     24  C   UNL     1      -1.469  28.199  44.261  1.00  0.00    -0.000 C 
BRANCH  24  25
ATOM     25  C   UNL     1      -2.097  29.552  44.637  1.00  0.00    -0.000 C 
BRANCH  25  26
ATOM     26  C   UNL     1      -1.472  30.697  43.827  1.00  0.00    -0.000 C 
BRANCH  26  27
ATOM     27  C   UNL     1      -2.166  30.918  42.470  1.00  0.00    -0.000 C 
BRANCH  27  28
ATOM     28  C   UNL     1      -1.225  31.298  41.308  1.00  0.00    -0.000 C 
BRANCH  28  29
ATOM     29  C   UNL     1      -0.292  30.170  40.834  1.00  0.00    -0.003 C 
ATOM     30  C   UNL     1      -1.049  28.987  40.234  1.00  0.00     0.004 C 
ENDBRANCH  28  29
ENDBRANCH  27  28
ENDBRANCH  26  27
ENDBRANCH  25  26
ENDBRANCH  24  25
ENDBRANCH  23  24
ENDBRANCH  22  23
ENDBRANCH  21  22
ENDBRANCH  20  21
ENDBRANCH  19  20
ENDBRANCH  18  19
ENDBRANCH  17  18
ENDBRANCH   1  17
TORSDOF 26
ENDMDL
MODEL 9
REMARK VINA RESULT:    -6.450      1.783      3.092
REMARK INTER + INTRA:         -20.366
REMARK INTER:                 -16.181
REMARK INTRA:                  -4.186
REMARK UNBOUND:                -4.113
REMARK SMILES CCCCCCCCCCCCCCCCCCCCCCCCCCCC(=O)[O-]
REMARK SMILES IDX 15 1 16 2 17 3 18 4 19 5 20 6 21 7 22 8 23 9 24 10 25 11
REMARK SMILES IDX 26 12 27 13 28 14 29 15 30 16 14 17 13 18 12 19 11 20 10 21
REMARK SMILES IDX 9 22 8 23 7 24 6 25 5 26 4 27 3 28 2 29 1 30
REMARK H PARENT
REMARK Flexibility Score: inf
ROOT
ATOM      1  C   UNL     1       4.707  24.981  44.901  1.00  0.00     0.000 C 
ENDROOT
BRANCH   1   2
ATOM      2  C   UNL     1       4.647  25.632  43.505  1.00  0.00     0.000 C 
BRANCH   2   3
ATOM      3  C   UNL     1       3.250  25.686  42.867  1.00  0.00     0.000 C 
BRANCH   3   4
ATOM      4  C   UNL     1       2.538  27.031  43.103  1.00  0.00     0.000 C 
BRANCH   4   5
ATOM      5  C   UNL     1       1.015  26.869  43.251  1.00  0.00     0.000 C 
BRANCH   5   6
ATOM      6  C   UNL     1       0.364  27.849  44.244  1.00  0.00     0.000 C 
BRANCH   6   7
ATOM      7  C   UNL     1      -1.147  27.614  44.410  1.00  0.00     0.000 C 
BRANCH   7   8
ATOM      8  C   UNL     1      -1.854  28.877  44.916  1.00  0.00     0.000 C 
BRANCH   8   9
ATOM      9  C   UNL     1      -0.883  30.067  44.950  1.00  0.00     0.000 C 
BRANCH   9  10
ATOM     10  C   UNL     1      -1.280  31.184  43.973  1.00  0.00     0.000 C 
BRANCH  10  11
ATOM     11  C   UNL     1      -2.373  30.743  42.987  1.00  0.00     0.000 C 
BRANCH  11  12
ATOM     12  C   UNL     1      -1.861  30.772  41.543  1.00  0.00     0.006 C 
BRANCH  12  13
ATOM     13  C   UNL     1      -1.277  29.414  41.141  1.00  0.00     0.053 C 
BRANCH  13  14
ATOM     14  C   UNL     1       0.174  29.546  40.796  1.00  0.00     0.041 C 
ATOM     15  O   UNL     1       0.949  30.181  41.557  1.00  0.00    -0.550 OA
ATOM     16  O   UNL     1       0.675  28.939  39.651  1.00  0.00    -0.550 OA
ENDBRANCH  13  14
ENDBRANCH  12  13
ENDBRANCH  11  12
ENDBRANCH  10  11
ENDBRANCH   9  10
ENDBRANCH   8   9
ENDBRANCH   7   8
ENDBRANCH   6   7
ENDBRANCH   5   6
ENDBRANCH   4   5
ENDBRANCH   3   4
ENDBRANCH   2   3
ENDBRANCH   1   2
BRANCH   1  17
ATOM     17  C   UNL     1       4.545  23.446  44.888  1.00  0.00     0.000 C 
BRANCH  17  18
ATOM     18  C   UNL     1       5.745  22.716  45.520  1.00  0.00     0.000 C 
BRANCH  18  19
ATOM     19  C   UNL     1       6.432  23.547  46.624  1.00  0.00     0.000 C 
BRANCH  19  20
ATOM     20  C   UNL     1       7.936  23.783  46.385  1.00  0.00     0.000 C 
BRANCH  20  21
ATOM     21  C   UNL     1       8.432  23.453  44.968  1.00  0.00     0.000 C 
BRANCH  21  22
ATOM     22  C   UNL     1       8.308  24.643  44.002  1.00  0.00    -0.000 C 
BRANCH  22  23
ATOM     23  C   UNL     1       7.995  24.207  42.561  1.00  0.00    -0.000 C 
BRANCH  23  24
ATOM     24  C   UNL     1       8.037  22.686  42.321  1.00  0.00    -0.000 C 
BRANCH  24  25
ATOM     25  C   UNL     1       6.638  22.064  42.168  1.00  0.00    -0.000 C 
BRANCH  25  26
ATOM     26  C   UNL     1       6.656  20.568  42.514  1.00  0.00    -0.000 C 
BRANCH  26  27
ATOM     27  C   UNL     1       7.903  20.154  43.317  1.00  0.00    -0.000 C 
BRANCH  27  28
ATOM     28  C   UNL     1       7.620  19.625  44.738  1.00  0.00    -0.000 C 
BRANCH  28  29
ATOM     29  C   UNL     1       8.634  20.065  45.808  1.00  0.00    -0.003 C 
ATOM     30  C   UNL     1      10.070  20.097  45.288  1.00  0.00     0.004 C 
ENDBRANCH  28  29
ENDBRANCH  27  28
ENDBRANCH  26  27
ENDBRANCH  25  26
ENDBRANCH  24  25
ENDBRANCH  23  24
ENDBRANCH  22  23
ENDBRANCH  21  22
ENDBRANCH  20  21
ENDBRANCH  19  20
ENDBRANCH  18  19
ENDBRANCH  17  18
ENDBRANCH   1  17
TORSDOF 26
ENDMDL
