MODEL 1
REMARK VINA RESULT:    -0.192      0.000      0.000
REMARK INTER + INTRA:          -1.735
REMARK INTER:                  -0.484
REMARK INTRA:                  -1.251
REMARK UNBOUND:                -1.251
REMARK SMILES CCCCCCCCCCCCCCCCCCCCCCCCCCCC(=O)[O-]
REMARK SMILES IDX 15 1 16 2 17 3 18 4 19 5 20 6 21 7 22 8 23 9 24 10 25 11
REMARK SMILES IDX 26 12 27 13 28 14 29 15 30 16 14 17 13 18 12 19 11 20 10 21
REMARK SMILES IDX 9 22 8 23 7 24 6 25 5 26 4 27 3 28 2 29 1 30
REMARK H PARENT
REMARK Flexibility Score: inf
ROOT
ATOM      1  C   UNL     1      27.496   0.011  43.191  1.00  0.00     0.000 C 
ENDROOT
BRANCH   1   2
ATOM      2  C   UNL     1      26.077   0.592  43.326  1.00  0.00     0.000 C 
BRANCH   2   3
ATOM      3  C   UNL     1      25.415   1.035  42.003  1.00  0.00     0.000 C 
BRANCH   3   4
ATOM      4  C   UNL     1      24.107   1.831  42.154  1.00  0.00     0.000 C 
BRANCH   4   5
ATOM      5  C   UNL     1      23.599   2.413  40.824  1.00  0.00     0.000 C 
BRANCH   5   6
ATOM      6  C   UNL     1      22.085   2.224  40.636  1.00  0.00     0.000 C 
BRANCH   6   7
ATOM      7  C   UNL     1      21.736   1.005  39.764  1.00  0.00     0.000 C 
BRANCH   7   8
ATOM      8  C   UNL     1      21.209  -0.173  40.601  1.00  0.00     0.000 C 
BRANCH   8   9
ATOM      9  C   UNL     1      20.894   0.230  42.052  1.00  0.00     0.000 C 
BRANCH   9  10
ATOM     10  C   UNL     1      19.624  -0.444  42.599  1.00  0.00     0.000 C 
BRANCH  10  11
ATOM     11  C   UNL     1      18.388   0.480  42.614  1.00  0.00     0.000 C 
BRANCH  11  12
ATOM     12  C   UNL     1      18.632   1.787  41.838  1.00  0.00     0.006 C 
BRANCH  12  13
ATOM     13  C   UNL     1      17.653   1.962  40.670  1.00  0.00     0.053 C 
BRANCH  13  14
ATOM     14  C   UNL     1      18.154   2.967  39.677  1.00  0.00     0.041 C 
ATOM     15  O   UNL     1      19.273   3.520  39.843  1.00  0.00    -0.550 OA
ATOM     16  O   UNL     1      17.407   3.256  38.541  1.00  0.00    -0.550 OA
ENDBRANCH  13  14
ENDBRANCH  12  13
ENDBRANCH  11  12
ENDBRANCH  10  11
ENDBRANCH   9  10
ENDBRANCH   8   9
ENDBRANCH   7   8
ENDBRANCH   6   7
ENDBRANCH   5   6
ENDBRANCH   4   5
ENDBRANCH   3   4
ENDBRANCH   2   3
ENDBRANCH   1   2
BRANCH   1  17
ATOM     17  C   UNL     1      27.622  -1.483  43.546  1.00  0.00     0.000 C 
BRANCH  17  18
ATOM     18  C   UNL     1      28.614  -1.770  44.693  1.00  0.00     0.000 C 
BRANCH  18  19
ATOM     19  C   UNL     1      29.693  -0.680  44.830  1.00  0.00     0.000 C 
BRANCH  19  20
ATOM     20  C   UNL     1      30.727  -0.708  43.688  1.00  0.00     0.000 C 
BRANCH  20  21
ATOM     21  C   UNL     1      30.323  -1.550  42.463  1.00  0.00     0.000 C 
BRANCH  21  22
ATOM     22  C   UNL     1      31.044  -1.121  41.173  1.00  0.00    -0.000 C 
BRANCH  22  23
ATOM     23  C   UNL     1      30.168  -1.303  39.924  1.00  0.00    -0.000 C 
BRANCH  23  24
ATOM     24  C   UNL     1      28.885  -0.453  39.963  1.00  0.00    -0.000 C 
BRANCH  24  25
ATOM     25  C   UNL     1      28.947   0.759  39.016  1.00  0.00    -0.000 C 
BRANCH  25  26
ATOM     26  C   UNL     1      29.241   0.416  37.541  1.00  0.00    -0.000 C 
BRANCH  26  27
ATOM     27  C   UNL     1      30.576   0.965  36.998  1.00  0.00    -0.000 C 
BRANCH  27  28
ATOM     28  C   UNL     1      31.706   1.075  38.041  1.00  0.00    -0.000 C 
BRANCH  28  29
ATOM     29  C   UNL     1      31.637   2.323  38.939  1.00  0.00    -0.003 C 
ATOM     30  C   UNL     1      31.935   2.019  40.407  1.00  0.00     0.004 C 
ENDBRANCH  28  29
ENDBRANCH  27  28
ENDBRANCH  26  27
ENDBRANCH  25  26
ENDBRANCH  24  25
ENDBRANCH  23  24
ENDBRANCH  22  23
ENDBRANCH  21  22
ENDBRANCH  20  21
ENDBRANCH  19  20
ENDBRANCH  18  19
ENDBRANCH  17  18
ENDBRANCH   1  17
TORSDOF 26
ENDMDL
MODEL 2
REMARK VINA RESULT:    -0.159      2.794      5.179
REMARK INTER + INTRA:          -1.651
REMARK INTER:                   0.050
REMARK INTRA:                  -1.701
REMARK UNBOUND:                -1.251
REMARK SMILES CCCCCCCCCCCCCCCCCCCCCCCCCCCC(=O)[O-]
REMARK SMILES IDX 15 1 16 2 17 3 18 4 19 5 20 6 21 7 22 8 23 9 24 10 25 11
REMARK SMILES IDX 26 12 27 13 28 14 29 15 30 16 14 17 13 18 12 19 11 20 10 21
REMARK SMILES IDX 9 22 8 23 7 24 6 25 5 26 4 27 3 28 2 29 1 30
REMARK H PARENT
REMARK Flexibility Score: inf
ROOT
ATOM      1  C   UNL     1      25.501   3.793  38.972  1.00  0.00     0.000 C 
ENDROOT
BRANCH   1   2
ATOM      2  C   UNL     1      24.008   3.724  39.337  1.00  0.00     0.000 C 
BRANCH   2   3
ATOM      3  C   UNL     1      23.643   2.712  40.444  1.00  0.00     0.000 C 
BRANCH   3   4
ATOM      4  C   UNL     1      22.137   2.521  40.693  1.00  0.00     0.000 C 
BRANCH   4   5
ATOM      5  C   UNL     1      21.491   1.506  39.734  1.00  0.00     0.000 C 
BRANCH   5   6
ATOM      6  C   UNL     1      21.245   0.141  40.397  1.00  0.00     0.000 C 
BRANCH   6   7
ATOM      7  C   UNL     1      20.830   0.257  41.875  1.00  0.00     0.000 C 
BRANCH   7   8
ATOM      8  C   UNL     1      20.145  -1.023  42.385  1.00  0.00     0.000 C 
BRANCH   8   9
ATOM      9  C   UNL     1      19.152  -0.743  43.526  1.00  0.00     0.000 C 
BRANCH   9  10
ATOM     10  C   UNL     1      17.726  -0.458  43.023  1.00  0.00     0.000 C 
BRANCH  10  11
ATOM     11  C   UNL     1      16.962  -1.722  42.577  1.00  0.00     0.000 C 
BRANCH  11  12
ATOM     12  C   UNL     1      15.622  -1.381  41.902  1.00  0.00     0.006 C 
BRANCH  12  13
ATOM     13  C   UNL     1      14.440  -2.115  42.551  1.00  0.00     0.053 C 
BRANCH  13  14
ATOM     14  C   UNL     1      13.171  -1.905  41.781  1.00  0.00     0.041 C 
ATOM     15  O   UNL     1      12.070  -1.813  42.384  1.00  0.00    -0.550 OA
ATOM     16  O   UNL     1      13.211  -1.761  40.399  1.00  0.00    -0.550 OA
ENDBRANCH  13  14
ENDBRANCH  12  13
ENDBRANCH  11  12
ENDBRANCH  10  11
ENDBRANCH   9  10
ENDBRANCH   8   9
ENDBRANCH   7   8
ENDBRANCH   6   7
ENDBRANCH   5   6
ENDBRANCH   4   5
ENDBRANCH   3   4
ENDBRANCH   2   3
ENDBRANCH   1   2
BRANCH   1  17
ATOM     17  C   UNL     1      26.200   2.426  38.836  1.00  0.00     0.000 C 
BRANCH  17  18
ATOM     18  C   UNL     1      27.707   2.525  38.521  1.00  0.00     0.000 C 
BRANCH  18  19
ATOM     19  C   UNL     1      28.456   1.204  38.780  1.00  0.00     0.000 C 
BRANCH  19  20
ATOM     20  C   UNL     1      29.405   0.814  37.631  1.00  0.00     0.000 C 
BRANCH  20  21
ATOM     21  C   UNL     1      30.906   0.911  37.964  1.00  0.00     0.000 C 
BRANCH  21  22
ATOM     22  C   UNL     1      31.189   1.734  39.234  1.00  0.00    -0.000 C 
BRANCH  22  23
ATOM     23  C   UNL     1      31.857   0.898  40.337  1.00  0.00    -0.000 C 
BRANCH  23  24
ATOM     24  C   UNL     1      31.643  -0.615  40.154  1.00  0.00    -0.000 C 
BRANCH  24  25
ATOM     25  C   UNL     1      30.881  -1.253  41.330  1.00  0.00    -0.000 C 
BRANCH  25  26
ATOM     26  C   UNL     1      29.712  -0.411  41.880  1.00  0.00    -0.000 C 
BRANCH  26  27
ATOM     27  C   UNL     1      28.602  -1.217  42.585  1.00  0.00    -0.000 C 
BRANCH  27  28
ATOM     28  C   UNL     1      28.934  -1.658  44.025  1.00  0.00    -0.000 C 
BRANCH  28  29
ATOM     29  C   UNL     1      29.899  -0.727  44.779  1.00  0.00    -0.003 C 
ATOM     30  C   UNL     1      30.471  -1.361  46.046  1.00  0.00     0.004 C 
ENDBRANCH  28  29
ENDBRANCH  27  28
ENDBRANCH  26  27
ENDBRANCH  25  26
ENDBRANCH  24  25
ENDBRANCH  23  24
ENDBRANCH  22  23
ENDBRANCH  21  22
ENDBRANCH  20  21
ENDBRANCH  19  20
ENDBRANCH  18  19
ENDBRANCH  17  18
ENDBRANCH   1  17
TORSDOF 26
ENDMDL
MODEL 3
REMARK VINA RESULT:    -0.055      3.874     11.910
REMARK INTER + INTRA:          -1.388
REMARK INTER:                   0.028
REMARK INTRA:                  -1.417
REMARK UNBOUND:                -1.251
REMARK SMILES CCCCCCCCCCCCCCCCCCCCCCCCCCCC(=O)[O-]
REMARK SMILES IDX 15 1 16 2 17 3 18 4 19 5 20 6 21 7 22 8 23 9 24 10 25 11
REMARK SMILES IDX 26 12 27 13 28 14 29 15 30 16 14 17 13 18 12 19 11 20 10 21
REMARK SMILES IDX 9 22 8 23 7 24 6 25 5 26 4 27 3 28 2 29 1 30
REMARK H PARENT
REMARK Flexibility Score: inf
ROOT
ATOM      1  C   UNL     1      22.884   2.011  41.115  1.00  0.00     0.000 C 
ENDROOT
BRANCH   1   2
ATOM      2  C   UNL     1      23.682   0.841  41.718  1.00  0.00     0.000 C 
BRANCH   2   3
ATOM      3  C   UNL     1      24.776   1.239  42.731  1.00  0.00     0.000 C 
BRANCH   3   4
ATOM      4  C   UNL     1      26.214   0.868  42.329  1.00  0.00     0.000 C 
BRANCH   4   5
ATOM      5  C   UNL     1      26.900  -0.069  43.339  1.00  0.00     0.000 C 
BRANCH   5   6
ATOM      6  C   UNL     1      27.775  -1.133  42.658  1.00  0.00     0.000 C 
BRANCH   6   7
ATOM      7  C   UNL     1      28.752  -1.819  43.629  1.00  0.00     0.000 C 
BRANCH   7   8
ATOM      8  C   UNL     1      29.758  -0.826  44.236  1.00  0.00     0.000 C 
BRANCH   8   9
ATOM      9  C   UNL     1      31.067  -0.750  43.433  1.00  0.00     0.000 C 
BRANCH   9  10
ATOM     10  C   UNL     1      30.876  -1.083  41.943  1.00  0.00     0.000 C 
BRANCH  10  11
ATOM     11  C   UNL     1      31.995  -0.530  41.036  1.00  0.00     0.000 C 
BRANCH  11  12
ATOM     12  C   UNL     1      31.434   0.190  39.796  1.00  0.00     0.006 C 
BRANCH  12  13
ATOM     13  C   UNL     1      29.992   0.671  40.005  1.00  0.00     0.053 C 
BRANCH  13  14
ATOM     14  C   UNL     1      29.252   0.775  38.706  1.00  0.00     0.041 C 
ATOM     15  O   UNL     1      28.000   0.911  38.697  1.00  0.00    -0.550 OA
ATOM     16  O   UNL     1      29.950   0.772  37.504  1.00  0.00    -0.550 OA
ENDBRANCH  13  14
ENDBRANCH  12  13
ENDBRANCH  11  12
ENDBRANCH  10  11
ENDBRANCH   9  10
ENDBRANCH   8   9
ENDBRANCH   7   8
ENDBRANCH   6   7
ENDBRANCH   5   6
ENDBRANCH   4   5
ENDBRANCH   3   4
ENDBRANCH   2   3
ENDBRANCH   1   2
BRANCH   1  17
ATOM     17  C   UNL     1      21.509   1.627  40.533  1.00  0.00     0.000 C 
BRANCH  17  18
ATOM     18  C   UNL     1      21.342   0.115  40.275  1.00  0.00     0.000 C 
BRANCH  18  19
ATOM     19  C   UNL     1      20.552  -0.594  41.390  1.00  0.00     0.000 C 
BRANCH  19  20
ATOM     20  C   UNL     1      19.842   0.387  42.343  1.00  0.00     0.000 C 
BRANCH  20  21
ATOM     21  C   UNL     1      18.671  -0.213  43.142  1.00  0.00     0.000 C 
BRANCH  21  22
ATOM     22  C   UNL     1      18.374  -1.676  42.768  1.00  0.00    -0.000 C 
BRANCH  22  23
ATOM     23  C   UNL     1      16.893  -2.041  42.960  1.00  0.00    -0.000 C 
BRANCH  23  24
ATOM     24  C   UNL     1      15.959  -1.268  42.012  1.00  0.00    -0.000 C 
BRANCH  24  25
ATOM     25  C   UNL     1      14.614  -1.984  41.789  1.00  0.00    -0.000 C 
BRANCH  25  26
ATOM     26  C   UNL     1      13.456  -1.067  41.347  1.00  0.00    -0.000 C 
BRANCH  26  27
ATOM     27  C   UNL     1      12.617  -1.599  40.167  1.00  0.00    -0.000 C 
BRANCH  27  28
ATOM     28  C   UNL     1      13.438  -2.125  38.972  1.00  0.00    -0.000 C 
BRANCH  28  29
ATOM     29  C   UNL     1      13.603  -1.126  37.812  1.00  0.00    -0.003 C 
ATOM     30  C   UNL     1      14.320  -1.728  36.605  1.00  0.00     0.004 C 
ENDBRANCH  28  29
ENDBRANCH  27  28
ENDBRANCH  26  27
ENDBRANCH  25  26
ENDBRANCH  24  25
ENDBRANCH  23  24
ENDBRANCH  22  23
ENDBRANCH  21  22
ENDBRANCH  20  21
ENDBRANCH  19  20
ENDBRANCH  18  19
ENDBRANCH  17  18
ENDBRANCH   1  17
TORSDOF 26
ENDMDL
MODEL 4
REMARK VINA RESULT:     0.089      0.968      2.098
REMARK INTER + INTRA:          -1.026
REMARK INTER:                   1.071
REMARK INTRA:                  -2.097
REMARK UNBOUND:                -1.251
REMARK SMILES CCCCCCCCCCCCCCCCCCCCCCCCCCCC(=O)[O-]
REMARK SMILES IDX 15 1 16 2 17 3 18 4 19 5 20 6 21 7 22 8 23 9 24 10 25 11
REMARK SMILES IDX 26 12 27 13 28 14 29 15 30 16 14 17 13 18 12 19 11 20 10 21
REMARK SMILES IDX 9 22 8 23 7 24 6 25 5 26 4 27 3 28 2 29 1 30
REMARK H PARENT
REMARK Flexibility Score: inf
ROOT
ATOM      1  C   UNL     1      26.492   0.493  43.197  1.00  0.00     0.000 C 
ENDROOT
BRANCH   1   2
ATOM      2  C   UNL     1      25.550   0.695  41.996  1.00  0.00     0.000 C 
BRANCH   2   3
ATOM      3  C   UNL     1      24.372   1.665  42.235  1.00  0.00     0.000 C 
BRANCH   3   4
ATOM      4  C   UNL     1      24.046   2.608  41.063  1.00  0.00     0.000 C 
BRANCH   4   5
ATOM      5  C   UNL     1      22.622   2.416  40.513  1.00  0.00     0.000 C 
BRANCH   5   6
ATOM      6  C   UNL     1      21.897   1.222  41.155  1.00  0.00     0.000 C 
BRANCH   6   7
ATOM      7  C   UNL     1      21.368   0.214  40.120  1.00  0.00     0.000 C 
BRANCH   7   8
ATOM      8  C   UNL     1      20.613  -0.952  40.781  1.00  0.00     0.000 C 
BRANCH   8   9
ATOM      9  C   UNL     1      20.481  -0.778  42.304  1.00  0.00     0.000 C 
BRANCH   9  10
ATOM     10  C   UNL     1      19.023  -0.596  42.761  1.00  0.00     0.000 C 
BRANCH  10  11
ATOM     11  C   UNL     1      18.680   0.849  43.181  1.00  0.00     0.000 C 
BRANCH  11  12
ATOM     12  C   UNL     1      17.961   1.622  42.062  1.00  0.00     0.006 C 
BRANCH  12  13
ATOM     13  C   UNL     1      18.920   2.511  41.258  1.00  0.00     0.053 C 
BRANCH  13  14
ATOM     14  C   UNL     1      18.382   2.806  39.891  1.00  0.00     0.041 C 
ATOM     15  O   UNL     1      17.532   2.041  39.364  1.00  0.00    -0.550 OA
ATOM     16  O   UNL     1      18.781   3.955  39.218  1.00  0.00    -0.550 OA
ENDBRANCH  13  14
ENDBRANCH  12  13
ENDBRANCH  11  12
ENDBRANCH  10  11
ENDBRANCH   9  10
ENDBRANCH   8   9
ENDBRANCH   7   8
ENDBRANCH   6   7
ENDBRANCH   5   6
ENDBRANCH   4   5
ENDBRANCH   3   4
ENDBRANCH   2   3
ENDBRANCH   1   2
BRANCH   1  17
ATOM     17  C   UNL     1      27.771  -0.309  42.890  1.00  0.00     0.000 C 
BRANCH  17  18
ATOM     18  C   UNL     1      27.878  -1.635  43.673  1.00  0.00     0.000 C 
BRANCH  18  19
ATOM     19  C   UNL     1      29.193  -1.753  44.464  1.00  0.00     0.000 C 
BRANCH  19  20
ATOM     20  C   UNL     1      30.056  -0.479  44.392  1.00  0.00     0.000 C 
BRANCH  20  21
ATOM     21  C   UNL     1      31.285  -0.575  43.469  1.00  0.00     0.000 C 
BRANCH  21  22
ATOM     22  C   UNL     1      30.925  -0.477  41.976  1.00  0.00    -0.000 C 
BRANCH  22  23
ATOM     23  C   UNL     1      32.046  -1.006  41.067  1.00  0.00    -0.000 C 
BRANCH  23  24
ATOM     24  C   UNL     1      32.124  -0.263  39.721  1.00  0.00    -0.000 C 
BRANCH  24  25
ATOM     25  C   UNL     1      32.088   1.268  39.884  1.00  0.00    -0.000 C 
BRANCH  25  26
ATOM     26  C   UNL     1      30.710   1.914  39.641  1.00  0.00    -0.000 C 
BRANCH  26  27
ATOM     27  C   UNL     1      29.900   1.304  38.478  1.00  0.00    -0.000 C 
BRANCH  27  28
ATOM     28  C   UNL     1      28.669   0.480  38.906  1.00  0.00    -0.000 C 
BRANCH  28  29
ATOM     29  C   UNL     1      28.963  -0.992  39.244  1.00  0.00    -0.003 C 
ATOM     30  C   UNL     1      27.781  -1.700  39.905  1.00  0.00     0.004 C 
ENDBRANCH  28  29
ENDBRANCH  27  28
ENDBRANCH  26  27
ENDBRANCH  25  26
ENDBRANCH  24  25
ENDBRANCH  23  24
ENDBRANCH  22  23
ENDBRANCH  21  22
ENDBRANCH  20  21
ENDBRANCH  19  20
ENDBRANCH  18  19
ENDBRANCH  17  18
ENDBRANCH   1  17
TORSDOF 26
ENDMDL
MODEL 5
REMARK VINA RESULT:     0.133      1.271      4.301
REMARK INTER + INTRA:          -0.917
REMARK INTER:                   1.245
REMARK INTRA:                  -2.163
REMARK UNBOUND:                -1.251
REMARK SMILES CCCCCCCCCCCCCCCCCCCCCCCCCCCC(=O)[O-]
REMARK SMILES IDX 15 1 16 2 17 3 18 4 19 5 20 6 21 7 22 8 23 9 24 10 25 11
REMARK SMILES IDX 26 12 27 13 28 14 29 15 30 16 14 17 13 18 12 19 11 20 10 21
REMARK SMILES IDX 9 22 8 23 7 24 6 25 5 26 4 27 3 28 2 29 1 30
REMARK H PARENT
REMARK Flexibility Score: inf
ROOT
ATOM      1  C   UNL     1      25.437   3.820  38.677  1.00  0.00     0.000 C 
ENDROOT
BRANCH   1   2
ATOM      2  C   UNL     1      24.107   3.907  39.447  1.00  0.00     0.000 C 
BRANCH   2   3
ATOM      3  C   UNL     1      23.819   2.731  40.405  1.00  0.00     0.000 C 
BRANCH   3   4
ATOM      4  C   UNL     1      22.335   2.504  40.744  1.00  0.00     0.000 C 
BRANCH   4   5
ATOM      5  C   UNL     1      21.647   1.506  39.795  1.00  0.00     0.000 C 
BRANCH   5   6
ATOM      6  C   UNL     1      21.528   0.100  40.403  1.00  0.00     0.000 C 
BRANCH   6   7
ATOM      7  C   UNL     1      21.004   0.113  41.850  1.00  0.00     0.000 C 
BRANCH   7   8
ATOM      8  C   UNL     1      20.109  -1.101  42.152  1.00  0.00     0.000 C 
BRANCH   8   9
ATOM      9  C   UNL     1      18.688  -0.693  42.577  1.00  0.00     0.000 C 
BRANCH   9  10
ATOM     10  C   UNL     1      18.659   0.605  43.403  1.00  0.00     0.000 C 
BRANCH  10  11
ATOM     11  C   UNL     1      17.948   1.776  42.693  1.00  0.00     0.000 C 
BRANCH  11  12
ATOM     12  C   UNL     1      18.784   2.344  41.532  1.00  0.00     0.006 C 
BRANCH  12  13
ATOM     13  C   UNL     1      18.133   2.089  40.166  1.00  0.00     0.053 C 
BRANCH  13  14
ATOM     14  C   UNL     1      18.161   3.315  39.304  1.00  0.00     0.041 C 
ATOM     15  O   UNL     1      19.145   4.100  39.348  1.00  0.00    -0.550 OA
ATOM     16  O   UNL     1      17.122   3.567  38.416  1.00  0.00    -0.550 OA
ENDBRANCH  13  14
ENDBRANCH  12  13
ENDBRANCH  11  12
ENDBRANCH  10  11
ENDBRANCH   9  10
ENDBRANCH   8   9
ENDBRANCH   7   8
ENDBRANCH   6   7
ENDBRANCH   5   6
ENDBRANCH   4   5
ENDBRANCH   3   4
ENDBRANCH   2   3
ENDBRANCH   1   2
BRANCH   1  17
ATOM     17  C   UNL     1      26.321   2.611  39.043  1.00  0.00     0.000 C 
BRANCH  17  18
ATOM     18  C   UNL     1      27.727   2.653  38.408  1.00  0.00     0.000 C 
BRANCH  18  19
ATOM     19  C   UNL     1      28.662   1.563  38.964  1.00  0.00     0.000 C 
BRANCH  19  20
ATOM     20  C   UNL     1      29.353   0.741  37.860  1.00  0.00     0.000 C 
BRANCH  20  21
ATOM     21  C   UNL     1      30.872   0.560  38.035  1.00  0.00     0.000 C 
BRANCH  21  22
ATOM     22  C   UNL     1      31.496   1.598  38.985  1.00  0.00    -0.000 C 
BRANCH  22  23
ATOM     23  C   UNL     1      31.930   0.982  40.324  1.00  0.00    -0.000 C 
BRANCH  23  24
ATOM     24  C   UNL     1      31.710  -0.541  40.381  1.00  0.00    -0.000 C 
BRANCH  24  25
ATOM     25  C   UNL     1      30.816  -0.968  41.559  1.00  0.00    -0.000 C 
BRANCH  25  26
ATOM     26  C   UNL     1      29.300  -0.857  41.297  1.00  0.00    -0.000 C 
BRANCH  26  27
ATOM     27  C   UNL     1      28.406  -1.569  42.333  1.00  0.00    -0.000 C 
BRANCH  27  28
ATOM     28  C   UNL     1      28.422  -0.947  43.743  1.00  0.00    -0.000 C 
BRANCH  28  29
ATOM     29  C   UNL     1      29.178  -1.768  44.803  1.00  0.00    -0.003 C 
ATOM     30  C   UNL     1      30.445  -1.075  45.301  1.00  0.00     0.004 C 
ENDBRANCH  28  29
ENDBRANCH  27  28
ENDBRANCH  26  27
ENDBRANCH  25  26
ENDBRANCH  24  25
ENDBRANCH  23  24
ENDBRANCH  22  23
ENDBRANCH  21  22
ENDBRANCH  20  21
ENDBRANCH  19  20
ENDBRANCH  18  19
ENDBRANCH  17  18
ENDBRANCH   1  17
TORSDOF 26
ENDMDL
MODEL 6
REMARK VINA RESULT:     0.872      2.434      3.383
REMARK INTER + INTRA:           0.946
REMARK INTER:                   2.891
REMARK INTRA:                  -1.945
REMARK UNBOUND:                -1.251
REMARK SMILES CCCCCCCCCCCCCCCCCCCCCCCCCCCC(=O)[O-]
REMARK SMILES IDX 15 1 16 2 17 3 18 4 19 5 20 6 21 7 22 8 23 9 24 10 25 11
REMARK SMILES IDX 26 12 27 13 28 14 29 15 30 16 14 17 13 18 12 19 11 20 10 21
REMARK SMILES IDX 9 22 8 23 7 24 6 25 5 26 4 27 3 28 2 29 1 30
REMARK H PARENT
REMARK Flexibility Score: inf
ROOT
ATOM      1  C   UNL     1      25.943   0.588  41.894  1.00  0.00     0.000 C 
ENDROOT
BRANCH   1   2
ATOM      2  C   UNL     1      24.657   1.305  42.345  1.00  0.00     0.000 C 
BRANCH   2   3
ATOM      3  C   UNL     1      24.084   2.329  41.342  1.00  0.00     0.000 C 
BRANCH   3   4
ATOM      4  C   UNL     1      22.549   2.368  41.243  1.00  0.00     0.000 C 
BRANCH   4   5
ATOM      5  C   UNL     1      22.007   1.639  40.001  1.00  0.00     0.000 C 
BRANCH   5   6
ATOM      6  C   UNL     1      21.078   0.468  40.362  1.00  0.00     0.000 C 
BRANCH   6   7
ATOM      7  C   UNL     1      21.011   0.199  41.875  1.00  0.00     0.000 C 
BRANCH   7   8
ATOM      8  C   UNL     1      19.989  -0.897  42.224  1.00  0.00     0.000 C 
BRANCH   8   9
ATOM      9  C   UNL     1      18.762  -0.342  42.966  1.00  0.00     0.000 C 
BRANCH   9  10
ATOM     10  C   UNL     1      18.256   0.987  42.377  1.00  0.00     0.000 C 
BRANCH  10  11
ATOM     11  C   UNL     1      16.835   0.900  41.782  1.00  0.00     0.000 C 
BRANCH  11  12
ATOM     12  C   UNL     1      16.225  -0.504  41.941  1.00  0.00     0.006 C 
BRANCH  12  13
ATOM     13  C   UNL     1      14.953  -0.684  41.101  1.00  0.00     0.053 C 
BRANCH  13  14
ATOM     14  C   UNL     1      13.908  -1.460  41.845  1.00  0.00     0.041 C 
ATOM     15  O   UNL     1      12.739  -1.552  41.386  1.00  0.00    -0.550 OA
ATOM     16  O   UNL     1      14.237  -2.125  43.020  1.00  0.00    -0.550 OA
ENDBRANCH  13  14
ENDBRANCH  12  13
ENDBRANCH  11  12
ENDBRANCH  10  11
ENDBRANCH   9  10
ENDBRANCH   8   9
ENDBRANCH   7   8
ENDBRANCH   6   7
ENDBRANCH   5   6
ENDBRANCH   4   5
ENDBRANCH   3   4
ENDBRANCH   2   3
ENDBRANCH   1   2
BRANCH   1  17
ATOM     17  C   UNL     1      26.874   0.145  43.039  1.00  0.00     0.000 C 
BRANCH  17  18
ATOM     18  C   UNL     1      27.378  -1.308  42.905  1.00  0.00     0.000 C 
BRANCH  18  19
ATOM     19  C   UNL     1      28.316  -1.719  44.055  1.00  0.00     0.000 C 
BRANCH  19  20
ATOM     20  C   UNL     1      29.286  -0.596  44.473  1.00  0.00     0.000 C 
BRANCH  20  21
ATOM     21  C   UNL     1      30.754  -0.818  44.064  1.00  0.00     0.000 C 
BRANCH  21  22
ATOM     22  C   UNL     1      31.073  -0.291  42.654  1.00  0.00    -0.000 C 
BRANCH  22  23
ATOM     23  C   UNL     1      30.643  -1.271  41.551  1.00  0.00    -0.000 C 
BRANCH  23  24
ATOM     24  C   UNL     1      31.370  -1.025  40.217  1.00  0.00    -0.000 C 
BRANCH  24  25
ATOM     25  C   UNL     1      32.125   0.317  40.190  1.00  0.00    -0.000 C 
BRANCH  25  26
ATOM     26  C   UNL     1      31.815   1.212  38.973  1.00  0.00    -0.000 C 
BRANCH  26  27
ATOM     27  C   UNL     1      30.512   0.865  38.224  1.00  0.00    -0.000 C 
BRANCH  27  28
ATOM     28  C   UNL     1      29.226   1.432  38.859  1.00  0.00    -0.000 C 
BRANCH  28  29
ATOM     29  C   UNL     1      28.032   0.462  38.875  1.00  0.00    -0.003 C 
ATOM     30  C   UNL     1      28.440  -0.982  39.165  1.00  0.00     0.004 C 
ENDBRANCH  28  29
ENDBRANCH  27  28
ENDBRANCH  26  27
ENDBRANCH  25  26
ENDBRANCH  24  25
ENDBRANCH  23  24
ENDBRANCH  22  23
ENDBRANCH  21  22
ENDBRANCH  20  21
ENDBRANCH  19  20
ENDBRANCH  18  19
ENDBRANCH  17  18
ENDBRANCH   1  17
TORSDOF 26
ENDMDL
MODEL 7
REMARK VINA RESULT:     0.941      2.792      4.417
REMARK INTER + INTRA:           1.119
REMARK INTER:                   2.211
REMARK INTRA:                  -1.091
REMARK UNBOUND:                -1.251
REMARK SMILES CCCCCCCCCCCCCCCCCCCCCCCCCCCC(=O)[O-]
REMARK SMILES IDX 15 1 16 2 17 3 18 4 19 5 20 6 21 7 22 8 23 9 24 10 25 11
REMARK SMILES IDX 26 12 27 13 28 14 29 15 30 16 14 17 13 18 12 19 11 20 10 21
REMARK SMILES IDX 9 22 8 23 7 24 6 25 5 26 4 27 3 28 2 29 1 30
REMARK H PARENT
REMARK Flexibility Score: inf
ROOT
ATOM      1  C   UNL     1      23.841   2.083  41.182  1.00  0.00     0.000 C 
ENDROOT
BRANCH   1   2
ATOM      2  C   UNL     1      22.504   1.766  40.489  1.00  0.00     0.000 C 
BRANCH   2   3
ATOM      3  C   UNL     1      21.282   1.657  41.427  1.00  0.00     0.000 C 
BRANCH   3   4
ATOM      4  C   UNL     1      19.963   2.208  40.858  1.00  0.00     0.000 C 
BRANCH   4   5
ATOM      5  C   UNL     1      18.718   1.628  41.553  1.00  0.00     0.000 C 
BRANCH   5   6
ATOM      6  C   UNL     1      19.062   0.881  42.852  1.00  0.00     0.000 C 
BRANCH   6   7
ATOM      7  C   UNL     1      19.878  -0.401  42.609  1.00  0.00     0.000 C 
BRANCH   7   8
ATOM      8  C   UNL     1      18.998  -1.662  42.636  1.00  0.00     0.000 C 
BRANCH   8   9
ATOM      9  C   UNL     1      17.675  -1.439  43.389  1.00  0.00     0.000 C 
BRANCH   9  10
ATOM     10  C   UNL     1      16.476  -2.125  42.711  1.00  0.00     0.000 C 
BRANCH  10  11
ATOM     11  C   UNL     1      15.384  -1.141  42.241  1.00  0.00     0.000 C 
BRANCH  11  12
ATOM     12  C   UNL     1      14.046  -1.850  41.965  1.00  0.00     0.006 C 
BRANCH  12  13
ATOM     13  C   UNL     1      13.814  -2.093  40.468  1.00  0.00     0.053 C 
BRANCH  13  14
ATOM     14  C   UNL     1      12.706  -1.235  39.935  1.00  0.00     0.041 C 
ATOM     15  O   UNL     1      12.164  -1.509  38.833  1.00  0.00    -0.550 OA
ATOM     16  O   UNL     1      12.238  -0.159  40.681  1.00  0.00    -0.550 OA
ENDBRANCH  13  14
ENDBRANCH  12  13
ENDBRANCH  11  12
ENDBRANCH  10  11
ENDBRANCH   9  10
ENDBRANCH   8   9
ENDBRANCH   7   8
ENDBRANCH   6   7
ENDBRANCH   5   6
ENDBRANCH   4   5
ENDBRANCH   3   4
ENDBRANCH   2   3
ENDBRANCH   1   2
BRANCH   1  17
ATOM     17  C   UNL     1      24.454   0.914  41.978  1.00  0.00     0.000 C 
BRANCH  17  18
ATOM     18  C   UNL     1      25.085   1.338  43.321  1.00  0.00     0.000 C 
BRANCH  18  19
ATOM     19  C   UNL     1      26.527   0.826  43.487  1.00  0.00     0.000 C 
BRANCH  19  20
ATOM     20  C   UNL     1      26.862  -0.348  42.547  1.00  0.00     0.000 C 
BRANCH  20  21
ATOM     21  C   UNL     1      27.726  -1.458  43.173  1.00  0.00     0.000 C 
BRANCH  21  22
ATOM     22  C   UNL     1      29.077  -1.645  42.459  1.00  0.00    -0.000 C 
BRANCH  22  23
ATOM     23  C   UNL     1      30.208  -0.849  43.128  1.00  0.00    -0.000 C 
BRANCH  23  24
ATOM     24  C   UNL     1      31.015  -0.002  42.127  1.00  0.00    -0.000 C 
BRANCH  24  25
ATOM     25  C   UNL     1      32.050  -0.831  41.346  1.00  0.00    -0.000 C 
BRANCH  25  26
ATOM     26  C   UNL     1      31.930  -0.740  39.811  1.00  0.00    -0.000 C 
BRANCH  26  27
ATOM     27  C   UNL     1      31.597   0.664  39.266  1.00  0.00    -0.000 C 
BRANCH  27  28
ATOM     28  C   UNL     1      31.110   0.694  37.803  1.00  0.00    -0.000 C 
BRANCH  28  29
ATOM     29  C   UNL     1      29.597   0.479  37.621  1.00  0.00    -0.003 C 
ATOM     30  C   UNL     1      28.792   0.812  38.877  1.00  0.00     0.004 C 
ENDBRANCH  28  29
ENDBRANCH  27  28
ENDBRANCH  26  27
ENDBRANCH  25  26
ENDBRANCH  24  25
ENDBRANCH  23  24
ENDBRANCH  22  23
ENDBRANCH  21  22
ENDBRANCH  20  21
ENDBRANCH  19  20
ENDBRANCH  18  19
ENDBRANCH  17  18
ENDBRANCH   1  17
TORSDOF 26
ENDMDL
MODEL 8
REMARK VINA RESULT:     1.112      2.780     10.526
REMARK INTER + INTRA:           1.551
REMARK INTER:                   3.656
REMARK INTRA:                  -2.106
REMARK UNBOUND:                -1.251
REMARK SMILES CCCCCCCCCCCCCCCCCCCCCCCCCCCC(=O)[O-]
REMARK SMILES IDX 15 1 16 2 17 3 18 4 19 5 20 6 21 7 22 8 23 9 24 10 25 11
REMARK SMILES IDX 26 12 27 13 28 14 29 15 30 16 14 17 13 18 12 19 11 20 10 21
REMARK SMILES IDX 9 22 8 23 7 24 6 25 5 26 4 27 3 28 2 29 1 30
REMARK H PARENT
REMARK Flexibility Score: inf
ROOT
ATOM      1  C   UNL     1      24.352   1.252  42.257  1.00  0.00     0.000 C 
ENDROOT
BRANCH   1   2
ATOM      2  C   UNL     1      25.810   0.776  42.122  1.00  0.00     0.000 C 
BRANCH   2   3
ATOM      3  C   UNL     1      26.366  -0.003  43.333  1.00  0.00     0.000 C 
BRANCH   3   4
ATOM      4  C   UNL     1      27.899  -0.012  43.465  1.00  0.00     0.000 C 
BRANCH   4   5
ATOM      5  C   UNL     1      28.484  -1.428  43.611  1.00  0.00     0.000 C 
BRANCH   5   6
ATOM      6  C   UNL     1      29.920  -1.420  44.157  1.00  0.00     0.000 C 
BRANCH   6   7
ATOM      7  C   UNL     1      30.937  -0.831  43.164  1.00  0.00     0.000 C 
BRANCH   7   8
ATOM      8  C   UNL     1      30.612  -1.210  41.709  1.00  0.00     0.000 C 
BRANCH   8   9
ATOM      9  C   UNL     1      31.577  -0.561  40.703  1.00  0.00     0.000 C 
BRANCH   9  10
ATOM     10  C   UNL     1      31.460   0.973  40.662  1.00  0.00     0.000 C 
BRANCH  10  11
ATOM     11  C   UNL     1      31.714   1.577  39.266  1.00  0.00     0.000 C 
BRANCH  11  12
ATOM     12  C   UNL     1      31.487   0.553  38.140  1.00  0.00     0.006 C 
BRANCH  12  13
ATOM     13  C   UNL     1      30.119   0.723  37.465  1.00  0.00     0.053 C 
BRANCH  13  14
ATOM     14  C   UNL     1      28.996   0.544  38.442  1.00  0.00     0.041 C 
ATOM     15  O   UNL     1      28.345   1.541  38.850  1.00  0.00    -0.550 OA
ATOM     16  O   UNL     1      28.637  -0.730  38.864  1.00  0.00    -0.550 OA
ENDBRANCH  13  14
ENDBRANCH  12  13
ENDBRANCH  11  12
ENDBRANCH  10  11
ENDBRANCH   9  10
ENDBRANCH   8   9
ENDBRANCH   7   8
ENDBRANCH   6   7
ENDBRANCH   5   6
ENDBRANCH   4   5
ENDBRANCH   3   4
ENDBRANCH   2   3
ENDBRANCH   1   2
BRANCH   1  17
ATOM     17  C   UNL     1      23.869   2.189  41.133  1.00  0.00     0.000 C 
BRANCH  17  18
ATOM     18  C   UNL     1      22.341   2.408  41.118  1.00  0.00     0.000 C 
BRANCH  18  19
ATOM     19  C   UNL     1      21.642   1.636  39.984  1.00  0.00     0.000 C 
BRANCH  19  20
ATOM     20  C   UNL     1      21.432   0.144  40.310  1.00  0.00     0.000 C 
BRANCH  20  21
ATOM     21  C   UNL     1      21.108  -0.161  41.784  1.00  0.00     0.000 C 
BRANCH  21  22
ATOM     22  C   UNL     1      20.084  -1.298  41.952  1.00  0.00    -0.000 C 
BRANCH  22  23
ATOM     23  C   UNL     1      19.197  -1.109  43.192  1.00  0.00    -0.000 C 
BRANCH  23  24
ATOM     24  C   UNL     1      17.694  -1.098  42.857  1.00  0.00    -0.000 C 
BRANCH  24  25
ATOM     25  C   UNL     1      17.239   0.225  42.214  1.00  0.00    -0.000 C 
BRANCH  25  26
ATOM     26  C   UNL     1      17.885   1.492  42.811  1.00  0.00    -0.000 C 
BRANCH  26  27
ATOM     27  C   UNL     1      18.556   2.427  41.785  1.00  0.00    -0.000 C 
BRANCH  27  28
ATOM     28  C   UNL     1      18.403   1.994  40.313  1.00  0.00    -0.000 C 
BRANCH  28  29
ATOM     29  C   UNL     1      18.729   3.088  39.281  1.00  0.00    -0.003 C 
ATOM     30  C   UNL     1      17.482   3.759  38.707  1.00  0.00     0.004 C 
ENDBRANCH  28  29
ENDBRANCH  27  28
ENDBRANCH  26  27
ENDBRANCH  25  26
ENDBRANCH  24  25
ENDBRANCH  23  24
ENDBRANCH  22  23
ENDBRANCH  21  22
ENDBRANCH  20  21
ENDBRANCH  19  20
ENDBRANCH  18  19
ENDBRANCH  17  18
ENDBRANCH   1  17
TORSDOF 26
ENDMDL
