MODEL 1
REMARK VINA RESULT:    -1.287      0.000      0.000
REMARK INTER + INTRA:           1.835
REMARK INTER:                  -1.889
REMARK INTRA:                   3.723
REMARK UNBOUND:                 3.723
REMARK SMILES Cc1cc2c(C(C)C)c(O)c(O)c(C=O)c2c(O)c1-c1c(C)cc2c(C(C)C)c(O)c(O)c(C=O)c2c1O
REMARK SMILES IDX 1 1 2 2 3 3 4 4 16 5 13 6 11 7 9 8 5 9 17 10 19 11 20 12
REMARK SMILES IDX 37 13 21 14 36 15 23 16 22 17 24 18 33 19 25 20 31 21 29 22
REMARK SMILES IDX 38 23 34 25 35 26 26 27 27 28 28 29 32 30 30 32 18 34 6 36
REMARK SMILES IDX 7 37 8 38 14 39 15 40 10 41 12 43
REMARK H PARENT 38 24 32 31 30 33 18 35 10 42 12 44
REMARK Flexibility Score: inf
ROOT
ATOM      1  C   UNL     1      36.801  10.677 108.637  1.00  0.00     0.045 C 
ATOM      2  C   UNL     1      37.504  11.147 107.386  1.00  0.00    -0.039 A 
ATOM      3  C   UNL     1      38.855  11.492 107.445  1.00  0.00     0.013 A 
ATOM      4  C   UNL     1      39.557  11.953 106.314  1.00  0.00    -0.006 A 
ATOM      5  C   UNL     1      38.822  12.215 105.120  1.00  0.00     0.039 A 
ATOM      6  C   UNL     1      39.459  12.922 104.058  1.00  0.00     0.072 A 
ATOM      7  C   UNL     1      40.805  13.306 104.185  1.00  0.00     0.169 A 
ATOM      8  C   UNL     1      41.548  12.961 105.318  1.00  0.00     0.162 A 
ATOM      9  C   UNL     1      40.966  12.190 106.356  1.00  0.00     0.008 A 
ATOM     10  C   UNL     1      37.481  11.739 105.021  1.00  0.00     0.132 A 
ATOM     11  C   UNL     1      36.824  11.225 106.160  1.00  0.00     0.031 A 
ENDROOT
BRANCH  11  12
ATOM     12  C   UNL     1      35.410  10.779 106.071  1.00  0.00     0.031 A 
ATOM     13  C   UNL     1      34.397  11.695 105.713  1.00  0.00     0.132 A 
ATOM     14  C   UNL     1      35.089   9.432 106.302  1.00  0.00    -0.039 A 
ATOM     15  C   UNL     1      33.031  11.282 105.664  1.00  0.00     0.039 A 
ATOM     16  C   UNL     1      33.765   9.008 106.181  1.00  0.00     0.013 A 
ATOM     17  C   UNL     1      36.167   8.417 106.603  1.00  0.00     0.045 C 
ATOM     18  C   UNL     1      32.714   9.911 105.911  1.00  0.00    -0.006 A 
ATOM     19  C   UNL     1      31.978  12.182 105.322  1.00  0.00     0.072 A 
ATOM     20  C   UNL     1      31.357   9.465 105.840  1.00  0.00     0.008 A 
ATOM     21  C   UNL     1      30.687  11.682 105.067  1.00  0.00     0.169 A 
ATOM     22  C   UNL     1      30.391  10.334 105.290  1.00  0.00     0.162 A 
BRANCH  13  23
ATOM     23  O   UNL     1      34.754  13.003 105.367  1.00  0.00    -0.507 OA
ATOM     24  H   UNL     1      35.441  13.553 105.866  1.00  0.00     0.293 HD
ENDBRANCH  13  23
BRANCH  19  25
ATOM     25  C   UNL     1      32.176  13.644 105.255  1.00  0.00     0.264 C 
ATOM     26  O   UNL     1      33.159  14.125 104.629  1.00  0.00    -0.298 OA
ENDBRANCH  19  25
BRANCH  20  27
ATOM     27  C   UNL     1      30.939   8.060 106.311  1.00  0.00     0.017 C 
ATOM     28  C   UNL     1      31.991   7.466 107.253  1.00  0.00     0.012 C 
ATOM     29  C   UNL     1      30.608   7.091 105.159  1.00  0.00     0.012 C 
ENDBRANCH  20  27
BRANCH  21  30
ATOM     30  O   UNL     1      29.654  12.516 104.617  1.00  0.00    -0.504 OA
ATOM     31  H   UNL     1      29.384  12.610 103.647  1.00  0.00     0.293 HD
ENDBRANCH  21  30
BRANCH  22  32
ATOM     32  O   UNL     1      29.120   9.851 104.967  1.00  0.00    -0.504 OA
ATOM     33  H   UNL     1      28.414  10.416 104.515  1.00  0.00     0.293 HD
ENDBRANCH  22  32
ENDBRANCH  11  12
BRANCH  10  34
ATOM     34  O   UNL     1      36.820  11.739 103.789  1.00  0.00    -0.507 OA
ATOM     35  H   UNL     1      36.185  11.010 103.489  1.00  0.00     0.293 HD
ENDBRANCH  10  34
BRANCH   9  36
ATOM     36  C   UNL     1      41.897  11.571 107.415  1.00  0.00     0.017 C 
ATOM     37  C   UNL     1      43.197  10.963 106.852  1.00  0.00     0.012 C 
ATOM     38  C   UNL     1      41.159  10.614 108.362  1.00  0.00     0.012 C 
ENDBRANCH   9  36
BRANCH   6  39
ATOM     39  C   UNL     1      38.711  13.415 102.875  1.00  0.00     0.264 C 
ATOM     40  O   UNL     1      37.640  14.064 103.009  1.00  0.00    -0.298 OA
ENDBRANCH   6  39
BRANCH   8  41
ATOM     41  O   UNL     1      42.864  13.431 105.392  1.00  0.00    -0.504 OA
ATOM     42  H   UNL     1      43.151  14.365 105.133  1.00  0.00     0.293 HD
ENDBRANCH   8  41
BRANCH   7  43
ATOM     43  O   UNL     1      41.399  14.068 103.174  1.00  0.00    -0.504 OA
ATOM     44  H   UNL     1      41.196  13.935 102.190  1.00  0.00     0.293 HD
ENDBRANCH   7  43
TORSDOF 11
ENDMDL
