MODEL 1
REMARK VINA RESULT:    -5.770      0.000      0.000
REMARK INTER + INTRA:         -12.610
REMARK INTER:                 -10.493
REMARK INTRA:                  -2.118
REMARK UNBOUND:                -2.118
REMARK SMILES CCCCCCCCCCCCCC[C@@H](C)C(=O)[O-]
REMARK SMILES IDX 9 1 10 2 11 3 12 4 13 5 14 6 15 7 16 8 17 9 18 10 19 11 8 12
REMARK SMILES IDX 7 13 6 14 5 15 4 16 3 17 2 18 1 19
REMARK H PARENT
REMARK Flexibility Score: inf
ROOT
ATOM      1  C   UNL     1      40.879  41.401  15.386  1.00  0.00     0.000 C 
ENDROOT
BRANCH   1   2
ATOM      2  C   UNL     1      41.788  42.561  14.952  1.00  0.00     0.000 C 
BRANCH   2   3
ATOM      3  C   UNL     1      41.378  43.866  15.645  1.00  0.00     0.000 C 
BRANCH   3   4
ATOM      4  C   UNL     1      41.771  43.845  17.130  1.00  0.00     0.000 C 
BRANCH   4   5
ATOM      5  C   UNL     1      43.184  43.286  17.367  1.00  0.00     0.001 C 
BRANCH   5   6
ATOM      6  C   UNL     1      43.295  42.177  18.438  1.00  0.00     0.009 C 
BRANCH   6   7
ATOM      7  C   UNL     1      42.034  41.903  19.300  1.00  0.00     0.032 C 
ATOM      8  C   UNL     1      41.663  40.414  19.360  1.00  0.00     0.014 C 
BRANCH   7   9
ATOM      9  C   UNL     1      42.124  42.529  20.669  1.00  0.00     0.044 C 
ATOM     10  O   UNL     1      43.229  42.972  21.083  1.00  0.00    -0.550 OA
ATOM     11  O   UNL     1      41.000  42.652  21.479  1.00  0.00    -0.550 OA
ENDBRANCH   7   9
ENDBRANCH   6   7
ENDBRANCH   5   6
ENDBRANCH   4   5
ENDBRANCH   3   4
ENDBRANCH   2   3
ENDBRANCH   1   2
BRANCH   1  12
ATOM     12  C   UNL     1      41.668  40.135  15.759  1.00  0.00     0.000 C 
BRANCH  12  13
ATOM     13  C   UNL     1      43.117  40.170  15.242  1.00  0.00    -0.000 C 
BRANCH  13  14
ATOM     14  C   UNL     1      43.595  38.797  14.740  1.00  0.00    -0.000 C 
BRANCH  14  15
ATOM     15  C   UNL     1      42.888  38.365  13.444  1.00  0.00    -0.000 C 
BRANCH  15  16
ATOM     16  C   UNL     1      42.133  37.031  13.588  1.00  0.00    -0.000 C 
BRANCH  16  17
ATOM     17  C   UNL     1      40.603  37.128  13.440  1.00  0.00    -0.000 C 
BRANCH  17  18
ATOM     18  C   UNL     1      40.131  38.523  13.011  1.00  0.00    -0.003 C 
ATOM     19  C   UNL     1      38.997  38.432  11.994  1.00  0.00     0.004 C 
ENDBRANCH  17  18
ENDBRANCH  16  17
ENDBRANCH  15  16
ENDBRANCH  14  15
ENDBRANCH  13  14
ENDBRANCH  12  13
ENDBRANCH   1  12
TORSDOF 14
ENDMDL
MODEL 2
REMARK VINA RESULT:    -5.403      2.360      3.569
REMARK INTER + INTRA:         -11.943
REMARK INTER:                  -9.518
REMARK INTRA:                  -2.425
REMARK UNBOUND:                -2.118
REMARK SMILES CCCCCCCCCCCCCC[C@@H](C)C(=O)[O-]
REMARK SMILES IDX 9 1 10 2 11 3 12 4 13 5 14 6 15 7 16 8 17 9 18 10 19 11 8 12
REMARK SMILES IDX 7 13 6 14 5 15 4 16 3 17 2 18 1 19
REMARK H PARENT
REMARK Flexibility Score: inf
ROOT
ATOM      1  C   UNL     1      40.613  40.548  16.406  1.00  0.00     0.000 C 
ENDROOT
BRANCH   1   2
ATOM      2  C   UNL     1      40.562  41.461  17.639  1.00  0.00     0.000 C 
BRANCH   2   3
ATOM      3  C   UNL     1      41.426  40.897  18.774  1.00  0.00     0.000 C 
BRANCH   3   4
ATOM      4  C   UNL     1      42.474  41.924  19.228  1.00  0.00     0.000 C 
BRANCH   4   5
ATOM      5  C   UNL     1      43.376  42.407  18.081  1.00  0.00     0.001 C 
BRANCH   5   6
ATOM      6  C   UNL     1      43.282  43.912  17.741  1.00  0.00     0.009 C 
BRANCH   6   7
ATOM      7  C   UNL     1      42.931  44.281  16.276  1.00  0.00     0.032 C 
ATOM      8  C   UNL     1      41.495  44.800  16.116  1.00  0.00     0.014 C 
BRANCH   7   9
ATOM      9  C   UNL     1      43.948  45.206  15.655  1.00  0.00     0.044 C 
ATOM     10  O   UNL     1      44.775  45.810  16.389  1.00  0.00    -0.550 OA
ATOM     11  O   UNL     1      44.010  45.386  14.276  1.00  0.00    -0.550 OA
ENDBRANCH   7   9
ENDBRANCH   6   7
ENDBRANCH   5   6
ENDBRANCH   4   5
ENDBRANCH   3   4
ENDBRANCH   2   3
ENDBRANCH   1   2
BRANCH   1  12
ATOM     12  C   UNL     1      41.085  41.283  15.141  1.00  0.00     0.000 C 
BRANCH  12  13
ATOM     13  C   UNL     1      42.532  40.926  14.756  1.00  0.00    -0.000 C 
BRANCH  13  14
ATOM     14  C   UNL     1      43.076  39.734  15.560  1.00  0.00    -0.000 C 
BRANCH  14  15
ATOM     15  C   UNL     1      43.711  38.658  14.662  1.00  0.00    -0.000 C 
BRANCH  15  16
ATOM     16  C   UNL     1      42.846  38.313  13.436  1.00  0.00    -0.000 C 
BRANCH  16  17
ATOM     17  C   UNL     1      42.095  36.971  13.524  1.00  0.00    -0.000 C 
BRANCH  17  18
ATOM     18  C   UNL     1      40.569  37.139  13.533  1.00  0.00    -0.003 C 
ATOM     19  C   UNL     1      40.159  38.469  12.908  1.00  0.00     0.004 C 
ENDBRANCH  17  18
ENDBRANCH  16  17
ENDBRANCH  15  16
ENDBRANCH  14  15
ENDBRANCH  13  14
ENDBRANCH  12  13
ENDBRANCH   1  12
TORSDOF 14
ENDMDL
MODEL 3
REMARK VINA RESULT:    -5.331      2.578      3.848
REMARK INTER + INTRA:         -11.812
REMARK INTER:                  -9.510
REMARK INTRA:                  -2.302
REMARK UNBOUND:                -2.118
REMARK SMILES CCCCCCCCCCCCCC[C@@H](C)C(=O)[O-]
REMARK SMILES IDX 9 1 10 2 11 3 12 4 13 5 14 6 15 7 16 8 17 9 18 10 19 11 8 12
REMARK SMILES IDX 7 13 6 14 5 15 4 16 3 17 2 18 1 19
REMARK H PARENT
REMARK Flexibility Score: inf
ROOT
ATOM      1  C   UNL     1      41.543  40.608  17.586  1.00  0.00     0.000 C 
ENDROOT
BRANCH   1   2
ATOM      2  C   UNL     1      41.043  41.624  18.623  1.00  0.00     0.000 C 
BRANCH   2   3
ATOM      3  C   UNL     1      42.215  42.405  19.234  1.00  0.00     0.000 C 
BRANCH   3   4
ATOM      4  C   UNL     1      43.340  42.597  18.206  1.00  0.00     0.000 C 
BRANCH   4   5
ATOM      5  C   UNL     1      43.300  43.974  17.524  1.00  0.00     0.001 C 
BRANCH   5   6
ATOM      6  C   UNL     1      43.233  43.957  15.980  1.00  0.00     0.009 C 
BRANCH   6   7
ATOM      7  C   UNL     1      41.980  44.592  15.323  1.00  0.00     0.032 C 
ATOM      8  C   UNL     1      40.677  44.242  16.055  1.00  0.00     0.014 C 
BRANCH   7   9
ATOM      9  C   UNL     1      42.135  46.077  15.104  1.00  0.00     0.044 C 
ATOM     10  O   UNL     1      41.816  46.881  16.020  1.00  0.00    -0.550 OA
ATOM     11  O   UNL     1      42.650  46.578  13.912  1.00  0.00    -0.550 OA
ENDBRANCH   7   9
ENDBRANCH   6   7
ENDBRANCH   5   6
ENDBRANCH   4   5
ENDBRANCH   3   4
ENDBRANCH   2   3
ENDBRANCH   1   2
BRANCH   1  12
ATOM     12  C   UNL     1      40.691  40.598  16.305  1.00  0.00     0.000 C 
BRANCH  12  13
ATOM     13  C   UNL     1      41.535  40.800  15.034  1.00  0.00    -0.000 C 
BRANCH  13  14
ATOM     14  C   UNL     1      43.004  40.392  15.233  1.00  0.00    -0.000 C 
BRANCH  14  15
ATOM     15  C   UNL     1      43.254  38.911  14.900  1.00  0.00    -0.000 C 
BRANCH  15  16
ATOM     16  C   UNL     1      42.554  38.460  13.605  1.00  0.00    -0.000 C 
BRANCH  16  17
ATOM     17  C   UNL     1      41.944  37.047  13.650  1.00  0.00    -0.000 C 
BRANCH  17  18
ATOM     18  C   UNL     1      40.457  37.024  13.270  1.00  0.00    -0.003 C 
ATOM     19  C   UNL     1      39.959  38.422  12.915  1.00  0.00     0.004 C 
ENDBRANCH  17  18
ENDBRANCH  16  17
ENDBRANCH  15  16
ENDBRANCH  14  15
ENDBRANCH  13  14
ENDBRANCH  12  13
ENDBRANCH   1  12
TORSDOF 14
ENDMDL
MODEL 4
REMARK VINA RESULT:    -5.327      2.252      3.318
REMARK INTER + INTRA:         -11.804
REMARK INTER:                  -9.778
REMARK INTRA:                  -2.025
REMARK UNBOUND:                -2.118
REMARK SMILES CCCCCCCCCCCCCC[C@@H](C)C(=O)[O-]
REMARK SMILES IDX 9 1 10 2 11 3 12 4 13 5 14 6 15 7 16 8 17 9 18 10 19 11 8 12
REMARK SMILES IDX 7 13 6 14 5 15 4 16 3 17 2 18 1 19
REMARK H PARENT
REMARK Flexibility Score: inf
ROOT
ATOM      1  C   UNL     1      40.772  41.168  15.427  1.00  0.00     0.000 C 
ENDROOT
BRANCH   1   2
ATOM      2  C   UNL     1      40.508  40.704  16.867  1.00  0.00     0.000 C 
BRANCH   2   3
ATOM      3  C   UNL     1      40.804  41.828  17.867  1.00  0.00     0.000 C 
BRANCH   3   4
ATOM      4  C   UNL     1      42.129  41.574  18.601  1.00  0.00     0.000 C 
BRANCH   4   5
ATOM      5  C   UNL     1      43.310  42.344  17.990  1.00  0.00     0.001 C 
BRANCH   5   6
ATOM      6  C   UNL     1      43.029  43.817  17.616  1.00  0.00     0.009 C 
BRANCH   6   7
ATOM      7  C   UNL     1      43.236  44.217  16.131  1.00  0.00     0.032 C 
ATOM      8  C   UNL     1      41.918  44.504  15.398  1.00  0.00     0.014 C 
BRANCH   7   9
ATOM      9  C   UNL     1      44.238  45.334  15.970  1.00  0.00     0.044 C 
ATOM     10  O   UNL     1      44.728  45.576  14.835  1.00  0.00    -0.550 OA
ATOM     11  O   UNL     1      44.613  46.125  17.052  1.00  0.00    -0.550 OA
ENDBRANCH   7   9
ENDBRANCH   6   7
ENDBRANCH   5   6
ENDBRANCH   4   5
ENDBRANCH   3   4
ENDBRANCH   2   3
ENDBRANCH   1   2
BRANCH   1  12
ATOM     12  C   UNL     1      42.217  40.901  14.972  1.00  0.00     0.000 C 
BRANCH  12  13
ATOM     13  C   UNL     1      42.790  39.600  15.561  1.00  0.00    -0.000 C 
BRANCH  13  14
ATOM     14  C   UNL     1      43.645  38.823  14.546  1.00  0.00    -0.000 C 
BRANCH  14  15
ATOM     15  C   UNL     1      42.826  38.332  13.339  1.00  0.00    -0.000 C 
BRANCH  15  16
ATOM     16  C   UNL     1      42.057  37.030  13.627  1.00  0.00    -0.000 C 
BRANCH  16  17
ATOM     17  C   UNL     1      40.548  37.082  13.325  1.00  0.00    -0.000 C 
BRANCH  17  18
ATOM     18  C   UNL     1      40.030  38.511  13.111  1.00  0.00    -0.003 C 
ATOM     19  C   UNL     1      38.926  38.544  12.058  1.00  0.00     0.004 C 
ENDBRANCH  17  18
ENDBRANCH  16  17
ENDBRANCH  15  16
ENDBRANCH  14  15
ENDBRANCH  13  14
ENDBRANCH  12  13
ENDBRANCH   1  12
TORSDOF 14
ENDMDL
MODEL 5
REMARK VINA RESULT:    -5.245      1.060      1.894
REMARK INTER + INTRA:         -11.655
REMARK INTER:                 -10.261
REMARK INTRA:                  -1.393
REMARK UNBOUND:                -2.118
REMARK SMILES CCCCCCCCCCCCCC[C@@H](C)C(=O)[O-]
REMARK SMILES IDX 9 1 10 2 11 3 12 4 13 5 14 6 15 7 16 8 17 9 18 10 19 11 8 12
REMARK SMILES IDX 7 13 6 14 5 15 4 16 3 17 2 18 1 19
REMARK H PARENT
REMARK Flexibility Score: inf
ROOT
ATOM      1  C   UNL     1      42.268  40.011  15.750  1.00  0.00     0.000 C 
ENDROOT
BRANCH   1   2
ATOM      2  C   UNL     1      41.182  40.965  15.230  1.00  0.00     0.000 C 
BRANCH   2   3
ATOM      3  C   UNL     1      41.711  42.402  15.145  1.00  0.00     0.000 C 
BRANCH   3   4
ATOM      4  C   UNL     1      40.874  43.346  16.021  1.00  0.00     0.000 C 
BRANCH   4   5
ATOM      5  C   UNL     1      41.597  43.764  17.312  1.00  0.00     0.001 C 
BRANCH   5   6
ATOM      6  C   UNL     1      42.960  43.083  17.568  1.00  0.00     0.009 C 
BRANCH   6   7
ATOM      7  C   UNL     1      43.156  42.399  18.947  1.00  0.00     0.032 C 
ATOM      8  C   UNL     1      43.839  43.311  19.976  1.00  0.00     0.014 C 
BRANCH   7   9
ATOM      9  C   UNL     1      41.880  41.790  19.475  1.00  0.00     0.044 C 
ATOM     10  O   UNL     1      41.419  40.746  18.943  1.00  0.00    -0.550 OA
ATOM     11  O   UNL     1      41.213  42.349  20.561  1.00  0.00    -0.550 OA
ENDBRANCH   7   9
ENDBRANCH   6   7
ENDBRANCH   5   6
ENDBRANCH   4   5
ENDBRANCH   3   4
ENDBRANCH   2   3
ENDBRANCH   1   2
BRANCH   1  12
ATOM     12  C   UNL     1      43.525  40.001  14.864  1.00  0.00     0.000 C 
BRANCH  12  13
ATOM     13  C   UNL     1      43.524  38.840  13.853  1.00  0.00    -0.000 C 
BRANCH  13  14
ATOM     14  C   UNL     1      42.803  37.593  14.391  1.00  0.00    -0.000 C 
BRANCH  14  15
ATOM     15  C   UNL     1      42.098  36.796  13.280  1.00  0.00    -0.000 C 
BRANCH  15  16
ATOM     16  C   UNL     1      40.573  37.011  13.264  1.00  0.00    -0.000 C 
BRANCH  16  17
ATOM     17  C   UNL     1      40.121  38.483  13.255  1.00  0.00    -0.000 C 
BRANCH  17  18
ATOM     18  C   UNL     1      39.249  38.833  12.042  1.00  0.00    -0.003 C 
ATOM     19  C   UNL     1      38.331  37.672  11.671  1.00  0.00     0.004 C 
ENDBRANCH  17  18
ENDBRANCH  16  17
ENDBRANCH  15  16
ENDBRANCH  14  15
ENDBRANCH  13  14
ENDBRANCH  12  13
ENDBRANCH   1  12
TORSDOF 14
ENDMDL
MODEL 6
REMARK VINA RESULT:    -5.068      1.563      2.190
REMARK INTER + INTRA:         -11.334
REMARK INTER:                 -10.088
REMARK INTRA:                  -1.246
REMARK UNBOUND:                -2.118
REMARK SMILES CCCCCCCCCCCCCC[C@@H](C)C(=O)[O-]
REMARK SMILES IDX 9 1 10 2 11 3 12 4 13 5 14 6 15 7 16 8 17 9 18 10 19 11 8 12
REMARK SMILES IDX 7 13 6 14 5 15 4 16 3 17 2 18 1 19
REMARK H PARENT
REMARK Flexibility Score: inf
ROOT
ATOM      1  C   UNL     1      42.902  40.958  15.696  1.00  0.00     0.000 C 
ENDROOT
BRANCH   1   2
ATOM      2  C   UNL     1      41.384  40.930  15.464  1.00  0.00     0.000 C 
BRANCH   2   3
ATOM      3  C   UNL     1      40.637  40.612  16.766  1.00  0.00     0.000 C 
BRANCH   3   4
ATOM      4  C   UNL     1      41.334  41.261  17.970  1.00  0.00     0.000 C 
BRANCH   4   5
ATOM      5  C   UNL     1      41.673  40.254  19.081  1.00  0.00     0.001 C 
BRANCH   5   6
ATOM      6  C   UNL     1      41.788  40.841  20.506  1.00  0.00     0.009 C 
BRANCH   6   7
ATOM      7  C   UNL     1      41.801  42.388  20.630  1.00  0.00     0.032 C 
ATOM      8  C   UNL     1      41.000  42.899  21.836  1.00  0.00     0.014 C 
BRANCH   7   9
ATOM      9  C   UNL     1      43.198  42.958  20.585  1.00  0.00     0.044 C 
ATOM     10  O   UNL     1      43.625  43.642  21.552  1.00  0.00    -0.550 OA
ATOM     11  O   UNL     1      44.037  42.719  19.501  1.00  0.00    -0.550 OA
ENDBRANCH   7   9
ENDBRANCH   6   7
ENDBRANCH   5   6
ENDBRANCH   4   5
ENDBRANCH   3   4
ENDBRANCH   2   3
ENDBRANCH   1   2
BRANCH   1  12
ATOM     12  C   UNL     1      43.704  40.663  14.417  1.00  0.00     0.000 C 
BRANCH  12  13
ATOM     13  C   UNL     1      44.772  39.575  14.629  1.00  0.00    -0.000 C 
BRANCH  13  14
ATOM     14  C   UNL     1      44.201  38.155  14.481  1.00  0.00    -0.000 C 
BRANCH  14  15
ATOM     15  C   UNL     1      43.046  38.087  13.467  1.00  0.00    -0.000 C 
BRANCH  15  16
ATOM     16  C   UNL     1      42.132  36.866  13.680  1.00  0.00    -0.000 C 
BRANCH  16  17
ATOM     17  C   UNL     1      40.660  37.074  13.279  1.00  0.00    -0.000 C 
BRANCH  17  18
ATOM     18  C   UNL     1      40.289  38.555  13.115  1.00  0.00    -0.003 C 
ATOM     19  C   UNL     1      39.167  38.730  12.095  1.00  0.00     0.004 C 
ENDBRANCH  17  18
ENDBRANCH  16  17
ENDBRANCH  15  16
ENDBRANCH  14  15
ENDBRANCH  13  14
ENDBRANCH  12  13
ENDBRANCH   1  12
TORSDOF 14
ENDMDL
MODEL 7
REMARK VINA RESULT:    -4.883      1.799      2.105
REMARK INTER + INTRA:         -10.997
REMARK INTER:                  -9.469
REMARK INTRA:                  -1.528
REMARK UNBOUND:                -2.118
REMARK SMILES CCCCCCCCCCCCCC[C@@H](C)C(=O)[O-]
REMARK SMILES IDX 9 1 10 2 11 3 12 4 13 5 14 6 15 7 16 8 17 9 18 10 19 11 8 12
REMARK SMILES IDX 7 13 6 14 5 15 4 16 3 17 2 18 1 19
REMARK H PARENT
REMARK Flexibility Score: inf
ROOT
ATOM      1  C   UNL     1      42.702  41.437  14.606  1.00  0.00     0.000 C 
ENDROOT
BRANCH   1   2
ATOM      2  C   UNL     1      43.202  42.867  14.859  1.00  0.00     0.000 C 
BRANCH   2   3
ATOM      3  C   UNL     1      42.076  43.752  15.408  1.00  0.00     0.000 C 
BRANCH   3   4
ATOM      4  C   UNL     1      42.392  44.216  16.838  1.00  0.00     0.000 C 
BRANCH   4   5
ATOM      5  C   UNL     1      43.269  43.219  17.612  1.00  0.00     0.001 C 
BRANCH   5   6
ATOM      6  C   UNL     1      42.573  42.474  18.773  1.00  0.00     0.009 C 
BRANCH   6   7
ATOM      7  C   UNL     1      41.959  41.087  18.452  1.00  0.00     0.032 C 
ATOM      8  C   UNL     1      41.796  40.201  19.695  1.00  0.00     0.014 C 
BRANCH   7   9
ATOM      9  C   UNL     1      40.685  41.192  17.650  1.00  0.00     0.044 C 
ATOM     10  O   UNL     1      39.903  42.160  17.842  1.00  0.00    -0.550 OA
ATOM     11  O   UNL     1      40.368  40.249  16.677  1.00  0.00    -0.550 OA
ENDBRANCH   7   9
ENDBRANCH   6   7
ENDBRANCH   5   6
ENDBRANCH   4   5
ENDBRANCH   3   4
ENDBRANCH   2   3
ENDBRANCH   1   2
BRANCH   1  12
ATOM     12  C   UNL     1      43.594  40.371  15.264  1.00  0.00     0.000 C 
BRANCH  12  13
ATOM     13  C   UNL     1      44.612  39.766  14.281  1.00  0.00    -0.000 C 
BRANCH  13  14
ATOM     14  C   UNL     1      44.111  38.457  13.648  1.00  0.00    -0.000 C 
BRANCH  14  15
ATOM     15  C   UNL     1      42.868  37.897  14.360  1.00  0.00    -0.000 C 
BRANCH  15  16
ATOM     16  C   UNL     1      42.133  36.828  13.531  1.00  0.00    -0.000 C 
BRANCH  16  17
ATOM     17  C   UNL     1      40.621  37.063  13.354  1.00  0.00    -0.000 C 
BRANCH  17  18
ATOM     18  C   UNL     1      40.262  38.546  13.190  1.00  0.00    -0.003 C 
ATOM     19  C   UNL     1      39.178  38.736  12.133  1.00  0.00     0.004 C 
ENDBRANCH  17  18
ENDBRANCH  16  17
ENDBRANCH  15  16
ENDBRANCH  14  15
ENDBRANCH  13  14
ENDBRANCH  12  13
ENDBRANCH   1  12
TORSDOF 14
ENDMDL
MODEL 8
REMARK VINA RESULT:    -4.825      1.897      2.995
REMARK INTER + INTRA:         -10.892
REMARK INTER:                  -9.357
REMARK INTRA:                  -1.535
REMARK UNBOUND:                -2.118
REMARK SMILES CCCCCCCCCCCCCC[C@@H](C)C(=O)[O-]
REMARK SMILES IDX 9 1 10 2 11 3 12 4 13 5 14 6 15 7 16 8 17 9 18 10 19 11 8 12
REMARK SMILES IDX 7 13 6 14 5 15 4 16 3 17 2 18 1 19
REMARK H PARENT
REMARK Flexibility Score: inf
ROOT
ATOM      1  C   UNL     1      44.312  40.438  14.278  1.00  0.00     0.000 C 
ENDROOT
BRANCH   1   2
ATOM      2  C   UNL     1      43.440  40.938  15.440  1.00  0.00     0.000 C 
BRANCH   2   3
ATOM      3  C   UNL     1      42.072  41.412  14.933  1.00  0.00     0.000 C 
BRANCH   3   4
ATOM      4  C   UNL     1      40.935  40.663  15.645  1.00  0.00     0.000 C 
BRANCH   4   5
ATOM      5  C   UNL     1      41.053  40.710  17.177  1.00  0.00     0.001 C 
BRANCH   5   6
ATOM      6  C   UNL     1      40.656  42.049  17.839  1.00  0.00     0.009 C 
BRANCH   6   7
ATOM      7  C   UNL     1      41.811  42.993  18.265  1.00  0.00     0.032 C 
ATOM      8  C   UNL     1      43.048  42.236  18.771  1.00  0.00     0.014 C 
BRANCH   7   9
ATOM      9  C   UNL     1      42.153  44.002  17.197  1.00  0.00     0.044 C 
ATOM     10  O   UNL     1      41.231  44.552  16.538  1.00  0.00    -0.550 OA
ATOM     11  O   UNL     1      43.474  44.360  16.942  1.00  0.00    -0.550 OA
ENDBRANCH   7   9
ENDBRANCH   6   7
ENDBRANCH   5   6
ENDBRANCH   4   5
ENDBRANCH   3   4
ENDBRANCH   2   3
ENDBRANCH   1   2
BRANCH   1  12
ATOM     12  C   UNL     1      44.937  39.060  14.554  1.00  0.00     0.000 C 
BRANCH  12  13
ATOM     13  C   UNL     1      43.889  37.933  14.588  1.00  0.00    -0.000 C 
BRANCH  13  14
ATOM     14  C   UNL     1      42.774  38.137  13.549  1.00  0.00    -0.000 C 
BRANCH  14  15
ATOM     15  C   UNL     1      41.968  36.852  13.290  1.00  0.00    -0.000 C 
BRANCH  15  16
ATOM     16  C   UNL     1      40.448  37.065  13.408  1.00  0.00    -0.000 C 
BRANCH  16  17
ATOM     17  C   UNL     1      39.980  38.526  13.275  1.00  0.00    -0.000 C 
BRANCH  17  18
ATOM     18  C   UNL     1      39.267  38.808  11.946  1.00  0.00    -0.003 C 
ATOM     19  C   UNL     1      38.284  37.693  11.602  1.00  0.00     0.004 C 
ENDBRANCH  17  18
ENDBRANCH  16  17
ENDBRANCH  15  16
ENDBRANCH  14  15
ENDBRANCH  13  14
ENDBRANCH  12  13
ENDBRANCH   1  12
TORSDOF 14
ENDMDL
MODEL 9
REMARK VINA RESULT:    -4.743      3.502      6.739
REMARK INTER + INTRA:         -10.742
REMARK INTER:                  -8.834
REMARK INTRA:                  -1.908
REMARK UNBOUND:                -2.118
REMARK SMILES CCCCCCCCCCCCCC[C@@H](C)C(=O)[O-]
REMARK SMILES IDX 9 1 10 2 11 3 12 4 13 5 14 6 15 7 16 8 17 9 18 10 19 11 8 12
REMARK SMILES IDX 7 13 6 14 5 15 4 16 3 17 2 18 1 19
REMARK H PARENT
REMARK Flexibility Score: inf
ROOT
ATOM      1  C   UNL     1      41.434  40.887  18.664  1.00  0.00     0.000 C 
ENDROOT
BRANCH   1   2
ATOM      2  C   UNL     1      40.554  41.473  17.550  1.00  0.00     0.000 C 
BRANCH   2   3
ATOM      3  C   UNL     1      40.638  40.619  16.279  1.00  0.00     0.000 C 
BRANCH   3   4
ATOM      4  C   UNL     1      41.417  41.351  15.177  1.00  0.00     0.000 C 
BRANCH   4   5
ATOM      5  C   UNL     1      42.865  40.851  15.033  1.00  0.00     0.001 C 
BRANCH   5   6
ATOM      6  C   UNL     1      43.052  39.318  15.074  1.00  0.00     0.009 C 
BRANCH   6   7
ATOM      7  C   UNL     1      43.076  38.577  13.711  1.00  0.00     0.032 C 
ATOM      8  C   UNL     1      44.336  37.720  13.518  1.00  0.00     0.014 C 
BRANCH   7   9
ATOM      9  C   UNL     1      41.808  37.801  13.454  1.00  0.00     0.044 C 
ATOM     10  O   UNL     1      41.858  36.550  13.316  1.00  0.00    -0.550 OA
ATOM     11  O   UNL     1      40.574  38.440  13.392  1.00  0.00    -0.550 OA
ENDBRANCH   7   9
ENDBRANCH   6   7
ENDBRANCH   5   6
ENDBRANCH   4   5
ENDBRANCH   3   4
ENDBRANCH   2   3
ENDBRANCH   1   2
BRANCH   1  12
ATOM     12  C   UNL     1      42.389  41.926  19.276  1.00  0.00     0.000 C 
BRANCH  12  13
ATOM     13  C   UNL     1      43.426  42.442  18.262  1.00  0.00    -0.000 C 
BRANCH  13  14
ATOM     14  C   UNL     1      43.286  43.950  17.995  1.00  0.00    -0.000 C 
BRANCH  14  15
ATOM     15  C   UNL     1      42.935  44.259  16.530  1.00  0.00    -0.000 C 
BRANCH  15  16
ATOM     16  C   UNL     1      41.518  44.837  16.362  1.00  0.00    -0.000 C 
BRANCH  16  17
ATOM     17  C   UNL     1      41.416  46.051  15.420  1.00  0.00    -0.000 C 
BRANCH  17  18
ATOM     18  C   UNL     1      42.554  46.109  14.392  1.00  0.00    -0.003 C 
ATOM     19  C   UNL     1      43.466  47.305  14.648  1.00  0.00     0.004 C 
ENDBRANCH  17  18
ENDBRANCH  16  17
ENDBRANCH  15  16
ENDBRANCH  14  15
ENDBRANCH  13  14
ENDBRANCH  12  13
ENDBRANCH   1  12
TORSDOF 14
ENDMDL
