MODEL 1
REMARK VINA RESULT:    -4.476      0.000      0.000
REMARK INTER + INTRA:          -6.373
REMARK INTER:                  -6.831
REMARK INTRA:                   0.458
REMARK UNBOUND:                 0.458
REMARK SMILES CC1=CCC[C@@H](C)C(=O)C[C@H](C(C)C)C(=O)C1
REMARK SMILES IDX 8 1 9 2 6 3 7 4 5 5 4 6 3 7 2 8 1 9 10 11 11 12 15 13 16 14
REMARK SMILES IDX 17 15 12 17 13 18 14 19
REMARK H PARENT
REMARK Flexibility Score: 70.00
ROOT
ATOM      1  C   UNL     1      -3.145  28.437  30.848  1.00  0.00     0.136 C 
ATOM      2  O   UNL     1      -2.946  29.450  31.504  1.00  0.00    -0.299 OA
ENDROOT
BRANCH   1   3
ATOM      3  C   UNL     1      -4.525  27.805  30.852  1.00  0.00     0.053 C 
ATOM      4  C   UNL     1      -4.640  26.763  29.731  1.00  0.00     0.016 C 
BRANCH   3   5
ATOM      5  C   UNL     1      -5.617  28.889  30.711  1.00  0.00     0.015 C 
BRANCH   5   6
ATOM      6  C   UNL     1      -6.022  29.100  29.239  1.00  0.00     0.028 C 
BRANCH   6   7
ATOM      7  C   UNL     1      -5.547  30.416  28.671  1.00  0.00    -0.028 C 
ATOM      8  C   UNL     1      -4.518  30.574  27.804  1.00  0.00    -0.070 CG0
ATOM      9  C   UNL     1      -4.128  31.982  27.432  1.00  0.00     0.039 C 
ATOM     10  G   UNL     1      -3.774  29.413  27.152  1.00  0.00     0.000 G0
ENDBRANCH   6   7
ENDBRANCH   5   6
ENDBRANCH   3   5
ENDBRANCH   1   3
BRANCH   1  11
ATOM     11  C   UNL     1      -2.007  27.849  30.042  1.00  0.00     0.087 C 
BRANCH  11  12
ATOM     12  C   UNL     1      -2.381  27.676  28.548  1.00  0.00     0.066 C 
BRANCH  12  13
ATOM     13  C   UNL     1      -2.486  29.023  27.847  1.00  0.00     0.140 C 
ATOM     14  O   UNL     1      -1.530  29.784  27.816  1.00  0.00    -0.299 OA
BRANCH  13  15
ATOM     15  C   UNL     1      -3.771  29.409  27.157  1.00  0.00     0.106 CG0
ATOM     16  G   UNL     1      -4.507  30.569  27.818  1.00  0.00     0.000 G0
ENDBRANCH  13  15
ENDBRANCH  12  13
BRANCH  12  17
ATOM     17  C   UNL     1      -1.460  26.645  27.820  1.00  0.00    -0.006 C 
ATOM     18  C   UNL     1      -0.116  26.475  28.545  1.00  0.00     0.008 C 
ATOM     19  C   UNL     1      -2.110  25.272  27.568  1.00  0.00     0.008 C 
ENDBRANCH  12  17
ENDBRANCH  11  12
ENDBRANCH   1  11
TORSDOF 1
ENDMDL
MODEL 2
REMARK VINA RESULT:    -3.760      1.699      3.301
REMARK INTER + INTRA:          -5.279
REMARK INTER:                  -6.674
REMARK INTRA:                   1.395
REMARK UNBOUND:                 0.458
REMARK SMILES CC1=CCC[C@@H](C)C(=O)C[C@H](C(C)C)C(=O)C1
REMARK SMILES IDX 8 1 9 2 6 3 7 4 5 5 4 6 3 7 2 8 1 9 10 11 11 12 15 13 16 14
REMARK SMILES IDX 17 15 12 17 13 18 14 19
REMARK H PARENT
REMARK Flexibility Score: 70.00
ROOT
ATOM      1  C   UNL     1      -3.649  29.690  27.852  1.00  0.00     0.136 C 
ATOM      2  O   UNL     1      -2.740  30.475  28.080  1.00  0.00    -0.299 OA
ENDROOT
BRANCH   1   3
ATOM      3  C   UNL     1      -5.020  30.225  27.478  1.00  0.00     0.053 C 
ATOM      4  C   UNL     1      -4.886  31.514  26.658  1.00  0.00     0.016 C 
BRANCH   3   5
ATOM      5  C   UNL     1      -5.872  30.463  28.746  1.00  0.00     0.015 C 
BRANCH   5   6
ATOM      6  C   UNL     1      -5.601  29.392  29.822  1.00  0.00     0.028 C 
BRANCH   6   7
ATOM      7  C   UNL     1      -4.598  29.830  30.861  1.00  0.00    -0.028 C 
ATOM      8  C   UNL     1      -3.562  29.085  31.319  1.00  0.00    -0.070 CG0
ATOM      9  C   UNL     1      -2.730  29.660  32.439  1.00  0.00     0.039 C 
ATOM     10  G   UNL     1      -3.166  27.735  30.734  1.00  0.00     0.000 G0
ENDBRANCH   6   7
ENDBRANCH   5   6
ENDBRANCH   3   5
ENDBRANCH   1   3
BRANCH   1  11
ATOM     11  C   UNL     1      -3.376  28.204  27.939  1.00  0.00     0.087 C 
BRANCH  11  12
ATOM     12  C   UNL     1      -1.934  27.906  28.424  1.00  0.00     0.066 C 
BRANCH  12  13
ATOM     13  C   UNL     1      -1.884  27.750  29.937  1.00  0.00     0.140 C 
ATOM     14  O   UNL     1      -0.812  27.671  30.519  1.00  0.00    -0.299 OA
BRANCH  13  15
ATOM     15  C   UNL     1      -3.168  27.727  30.729  1.00  0.00     0.106 CG0
ATOM     16  G   UNL     1      -3.560  29.078  31.317  1.00  0.00     0.000 G0
ENDBRANCH  13  15
ENDBRANCH  12  13
BRANCH  12  17
ATOM     17  C   UNL     1      -1.272  26.730  27.637  1.00  0.00    -0.006 C 
ATOM     18  C   UNL     1       0.097  26.355  28.224  1.00  0.00     0.008 C 
ATOM     19  C   UNL     1      -2.156  25.477  27.495  1.00  0.00     0.008 C 
ENDBRANCH  12  17
ENDBRANCH  11  12
ENDBRANCH   1  11
TORSDOF 1
ENDMDL
MODEL 3
REMARK VINA RESULT:    -3.252      1.506      4.322
REMARK INTER + INTRA:          -4.505
REMARK INTER:                  -5.787
REMARK INTRA:                   1.282
REMARK UNBOUND:                 0.458
REMARK SMILES CC1=CCC[C@@H](C)C(=O)C[C@H](C(C)C)C(=O)C1
REMARK SMILES IDX 8 1 9 2 6 3 7 4 5 5 4 6 3 7 2 8 1 9 10 11 11 12 15 13 16 14
REMARK SMILES IDX 17 15 12 17 13 18 14 19
REMARK H PARENT
REMARK Flexibility Score: 70.00
ROOT
ATOM      1  C   UNL     1      -5.396  29.732  29.906  1.00  0.00     0.136 C 
ATOM      2  O   UNL     1      -6.122  30.020  30.848  1.00  0.00    -0.299 OA
ENDROOT
BRANCH   1   3
ATOM      3  C   UNL     1      -4.407  28.589  30.049  1.00  0.00     0.053 C 
ATOM      4  C   UNL     1      -5.149  27.250  30.162  1.00  0.00     0.016 C 
BRANCH   3   5
ATOM      5  C   UNL     1      -3.490  28.817  31.273  1.00  0.00     0.015 C 
BRANCH   5   6
ATOM      6  C   UNL     1      -2.002  28.661  30.904  1.00  0.00     0.028 C 
BRANCH   6   7
ATOM      7  C   UNL     1      -1.759  27.641  29.818  1.00  0.00    -0.028 C 
ATOM      8  C   UNL     1      -1.826  27.878  28.485  1.00  0.00    -0.070 CG0
ATOM      9  C   UNL     1      -1.654  26.702  27.557  1.00  0.00     0.039 C 
ATOM     10  G   UNL     1      -2.014  29.265  27.881  1.00  0.00     0.000 G0
ENDBRANCH   6   7
ENDBRANCH   5   6
ENDBRANCH   3   5
ENDBRANCH   1   3
BRANCH   1  11
ATOM     11  C   UNL     1      -5.514  30.521  28.620  1.00  0.00     0.087 C 
BRANCH  11  12
ATOM     12  C   UNL     1      -4.128  30.837  28.002  1.00  0.00     0.066 C 
BRANCH  12  13
ATOM     13  C   UNL     1      -3.459  29.574  27.478  1.00  0.00     0.140 C 
ATOM     14  O   UNL     1      -4.057  28.820  26.726  1.00  0.00    -0.299 OA
BRANCH  13  15
ATOM     15  C   UNL     1      -2.033  29.267  27.865  1.00  0.00     0.106 CG0
ATOM     16  G   UNL     1      -1.840  27.887  28.483  1.00  0.00     0.000 G0
ENDBRANCH  13  15
ENDBRANCH  12  13
BRANCH  12  17
ATOM     17  C   UNL     1      -4.189  32.006  26.968  1.00  0.00    -0.006 C 
ATOM     18  C   UNL     1      -5.639  32.367  26.608  1.00  0.00     0.008 C 
ATOM     19  C   UNL     1      -3.410  33.268  27.381  1.00  0.00     0.008 C 
ENDBRANCH  12  17
ENDBRANCH  11  12
ENDBRANCH   1  11
TORSDOF 1
ENDMDL
MODEL 4
REMARK VINA RESULT:    -3.131      1.816      4.492
REMARK INTER + INTRA:          -4.320
REMARK INTER:                  -5.237
REMARK INTRA:                   0.917
REMARK UNBOUND:                 0.458
REMARK SMILES CC1=CCC[C@@H](C)C(=O)C[C@H](C(C)C)C(=O)C1
REMARK SMILES IDX 8 1 9 2 6 3 7 4 5 5 4 6 3 7 2 8 1 9 10 11 11 12 15 13 16 14
REMARK SMILES IDX 17 15 12 17 13 18 14 19
REMARK H PARENT
REMARK Flexibility Score: 70.00
ROOT
ATOM      1  C   UNL     1      -2.575  28.482  27.726  1.00  0.00     0.136 C 
ATOM      2  O   UNL     1      -2.721  28.256  26.532  1.00  0.00    -0.299 OA
ENDROOT
BRANCH   1   3
ATOM      3  C   UNL     1      -2.114  27.366  28.645  1.00  0.00     0.053 C 
ATOM      4  C   UNL     1      -0.891  26.654  28.051  1.00  0.00     0.016 C 
BRANCH   3   5
ATOM      5  C   UNL     1      -3.264  26.366  28.902  1.00  0.00     0.015 C 
BRANCH   5   6
ATOM      6  C   UNL     1      -4.194  26.849  30.033  1.00  0.00     0.028 C 
BRANCH   6   7
ATOM      7  C   UNL     1      -3.529  27.817  30.981  1.00  0.00    -0.028 C 
ATOM      8  C   UNL     1      -3.877  29.116  31.152  1.00  0.00    -0.070 CG0
ATOM      9  C   UNL     1      -3.022  29.953  32.071  1.00  0.00     0.039 C 
ATOM     10  G   UNL     1      -5.102  29.756  30.510  1.00  0.00     0.000 G0
ENDBRANCH   6   7
ENDBRANCH   5   6
ENDBRANCH   3   5
ENDBRANCH   1   3
BRANCH   1  11
ATOM     11  C   UNL     1      -2.853  29.875  28.248  1.00  0.00     0.087 C 
BRANCH  11  12
ATOM     12  C   UNL     1      -4.336  30.282  28.059  1.00  0.00     0.066 C 
BRANCH  12  13
ATOM     13  C   UNL     1      -5.240  29.535  29.029  1.00  0.00     0.140 C 
ATOM     14  O   UNL     1      -6.058  28.726  28.619  1.00  0.00    -0.299 OA
BRANCH  13  15
ATOM     15  C   UNL     1      -5.102  29.772  30.513  1.00  0.00     0.106 CG0
ATOM     16  G   UNL     1      -3.875  29.115  31.136  1.00  0.00     0.000 G0
ENDBRANCH  13  15
ENDBRANCH  12  13
BRANCH  12  17
ATOM     17  C   UNL     1      -4.533  31.832  28.064  1.00  0.00    -0.006 C 
ATOM     18  C   UNL     1      -3.304  32.561  27.500  1.00  0.00     0.008 C 
ATOM     19  C   UNL     1      -5.813  32.317  27.359  1.00  0.00     0.008 C 
ENDBRANCH  12  17
ENDBRANCH  11  12
ENDBRANCH   1  11
TORSDOF 1
ENDMDL
MODEL 5
REMARK VINA RESULT:    -1.992      2.078      4.430
REMARK INTER + INTRA:          -2.581
REMARK INTER:                  -4.105
REMARK INTRA:                   1.523
REMARK UNBOUND:                 0.458
REMARK SMILES CC1=CCC[C@@H](C)C(=O)C[C@H](C(C)C)C(=O)C1
REMARK SMILES IDX 8 1 9 2 6 3 7 4 5 5 4 6 3 7 2 8 1 9 10 11 11 12 15 13 16 14
REMARK SMILES IDX 17 15 12 17 13 18 14 19
REMARK H PARENT
REMARK Flexibility Score: 70.00
ROOT
ATOM      1  C   UNL     1      -5.346  29.426  29.054  1.00  0.00     0.136 C 
ATOM      2  O   UNL     1      -6.125  28.878  28.286  1.00  0.00    -0.299 OA
ENDROOT
BRANCH   1   3
ATOM      3  C   UNL     1      -4.402  30.490  28.526  1.00  0.00     0.053 C 
ATOM      4  C   UNL     1      -5.166  31.788  28.234  1.00  0.00     0.016 C 
BRANCH   3   5
ATOM      5  C   UNL     1      -3.670  29.984  27.261  1.00  0.00     0.015 C 
BRANCH   5   6
ATOM      6  C   UNL     1      -2.327  29.315  27.611  1.00  0.00     0.028 C 
BRANCH   6   7
ATOM      7  C   UNL     1      -2.248  27.871  27.181  1.00  0.00    -0.028 C 
ATOM      8  C   UNL     1      -2.197  26.802  28.014  1.00  0.00    -0.070 CG0
ATOM      9  C   UNL     1      -2.015  25.440  27.393  1.00  0.00     0.039 C 
ATOM     10  G   UNL     1      -2.363  26.900  29.527  1.00  0.00     0.000 G0
ENDBRANCH   6   7
ENDBRANCH   5   6
ENDBRANCH   3   5
ENDBRANCH   1   3
BRANCH   1  11
ATOM     11  C   UNL     1      -5.356  29.030  30.515  1.00  0.00     0.087 C 
BRANCH  11  12
ATOM     12  C   UNL     1      -4.048  28.310  30.931  1.00  0.00     0.066 C 
BRANCH  12  13
ATOM     13  C   UNL     1      -3.760  27.124  30.021  1.00  0.00     0.140 C 
ATOM     14  O   UNL     1      -4.663  26.384  29.659  1.00  0.00    -0.299 OA
BRANCH  13  15
ATOM     15  C   UNL     1      -2.352  26.879  29.535  1.00  0.00     0.106 CG0
ATOM     16  G   UNL     1      -2.222  26.811  28.018  1.00  0.00     0.000 G0
ENDBRANCH  13  15
ENDBRANCH  12  13
BRANCH  12  17
ATOM     17  C   UNL     1      -2.850  29.298  31.094  1.00  0.00    -0.006 C 
ATOM     18  C   UNL     1      -2.952  30.100  32.401  1.00  0.00     0.008 C 
ATOM     19  C   UNL     1      -1.461  28.646  30.973  1.00  0.00     0.008 C 
ENDBRANCH  12  17
ENDBRANCH  11  12
ENDBRANCH   1  11
TORSDOF 1
ENDMDL
