MODEL 1
REMARK VINA RESULT:     5.801      0.000      0.000
REMARK INTER + INTRA:          12.695
REMARK INTER:                  14.618
REMARK INTRA:                  -1.923
REMARK UNBOUND:                -1.923
REMARK SMILES CCCCCCCCCCCCCCCCCCCCCCCCCCCC(=O)[O-]
REMARK SMILES IDX 15 1 16 2 17 3 18 4 19 5 20 6 21 7 22 8 23 9 24 10 25 11
REMARK SMILES IDX 26 12 27 13 28 14 29 15 30 16 14 17 13 18 12 19 11 20 10 21
REMARK SMILES IDX 9 22 8 23 7 24 6 25 5 26 4 27 3 28 2 29 1 30
REMARK H PARENT
REMARK Flexibility Score: inf
ROOT
ATOM      1  C   UNL     1       1.432 -36.167  20.897  1.00  0.00     0.000 C 
ENDROOT
BRANCH   1   2
ATOM      2  C   UNL     1       1.641 -37.329  19.909  1.00  0.00     0.000 C 
BRANCH   2   3
ATOM      3  C   UNL     1       3.113 -37.654  19.591  1.00  0.00     0.000 C 
BRANCH   3   4
ATOM      4  C   UNL     1       3.854 -38.300  20.775  1.00  0.00     0.000 C 
BRANCH   4   5
ATOM      5  C   UNL     1       5.363 -38.002  20.757  1.00  0.00     0.000 C 
BRANCH   5   6
ATOM      6  C   UNL     1       5.792 -37.202  19.514  1.00  0.00     0.000 C 
BRANCH   6   7
ATOM      7  C   UNL     1       5.861 -35.685  19.794  1.00  0.00     0.000 C 
BRANCH   7   8
ATOM      8  C   UNL     1       5.586 -34.815  18.555  1.00  0.00     0.000 C 
BRANCH   8   9
ATOM      9  C   UNL     1       4.106 -34.818  18.139  1.00  0.00     0.000 C 
BRANCH   9  10
ATOM     10  C   UNL     1       3.837 -35.769  16.953  1.00  0.00     0.000 C 
BRANCH  10  11
ATOM     11  C   UNL     1       2.552 -35.431  16.176  1.00  0.00     0.000 C 
BRANCH  11  12
ATOM     12  C   UNL     1       2.238 -36.447  15.065  1.00  0.00     0.006 C 
BRANCH  12  13
ATOM     13  C   UNL     1       3.417 -36.635  14.101  1.00  0.00     0.053 C 
BRANCH  13  14
ATOM     14  C   UNL     1       4.199 -37.873  14.416  1.00  0.00     0.041 C 
ATOM     15  O   UNL     1       3.699 -38.770  15.145  1.00  0.00    -0.550 OA
ATOM     16  O   UNL     1       5.468 -38.047  13.879  1.00  0.00    -0.550 OA
ENDBRANCH  13  14
ENDBRANCH  12  13
ENDBRANCH  11  12
ENDBRANCH  10  11
ENDBRANCH   9  10
ENDBRANCH   8   9
ENDBRANCH   7   8
ENDBRANCH   6   7
ENDBRANCH   5   6
ENDBRANCH   4   5
ENDBRANCH   3   4
ENDBRANCH   2   3
ENDBRANCH   1   2
BRANCH   1  17
ATOM     17  C   UNL     1       2.692 -35.843  21.721  1.00  0.00     0.000 C 
BRANCH  17  18
ATOM     18  C   UNL     1       3.004 -34.333  21.762  1.00  0.00     0.000 C 
BRANCH  18  19
ATOM     19  C   UNL     1       4.470 -34.006  22.112  1.00  0.00     0.000 C 
BRANCH  19  20
ATOM     20  C   UNL     1       5.166 -35.023  23.035  1.00  0.00     0.000 C 
BRANCH  20  21
ATOM     21  C   UNL     1       6.095 -34.411  24.101  1.00  0.00     0.000 C 
BRANCH  21  22
ATOM     22  C   UNL     1       6.097 -35.177  25.443  1.00  0.00    -0.000 C 
BRANCH  22  23
ATOM     23  C   UNL     1       6.031 -36.703  25.251  1.00  0.00    -0.000 C 
BRANCH  23  24
ATOM     24  C   UNL     1       4.955 -37.374  26.126  1.00  0.00    -0.000 C 
BRANCH  24  25
ATOM     25  C   UNL     1       3.535 -36.801  25.958  1.00  0.00    -0.000 C 
BRANCH  25  26
ATOM     26  C   UNL     1       2.610 -37.137  27.141  1.00  0.00    -0.000 C 
BRANCH  26  27
ATOM     27  C   UNL     1       1.738 -35.946  27.570  1.00  0.00    -0.000 C 
BRANCH  27  28
ATOM     28  C   UNL     1       2.068 -35.453  28.987  1.00  0.00    -0.000 C 
BRANCH  28  29
ATOM     29  C   UNL     1       1.590 -34.009  29.189  1.00  0.00    -0.003 C 
ATOM     30  C   UNL     1       0.065 -33.935  29.237  1.00  0.00     0.004 C 
ENDBRANCH  28  29
ENDBRANCH  27  28
ENDBRANCH  26  27
ENDBRANCH  25  26
ENDBRANCH  24  25
ENDBRANCH  23  24
ENDBRANCH  22  23
ENDBRANCH  21  22
ENDBRANCH  20  21
ENDBRANCH  19  20
ENDBRANCH  18  19
ENDBRANCH  17  18
ENDBRANCH   1  17
TORSDOF 26
ENDMDL
MODEL 2
REMARK VINA RESULT:     5.897      1.417      3.042
REMARK INTER + INTRA:          12.938
REMARK INTER:                  13.940
REMARK INTRA:                  -1.002
REMARK UNBOUND:                -1.923
REMARK SMILES CCCCCCCCCCCCCCCCCCCCCCCCCCCC(=O)[O-]
REMARK SMILES IDX 15 1 16 2 17 3 18 4 19 5 20 6 21 7 22 8 23 9 24 10 25 11
REMARK SMILES IDX 26 12 27 13 28 14 29 15 30 16 14 17 13 18 12 19 11 20 10 21
REMARK SMILES IDX 9 22 8 23 7 24 6 25 5 26 4 27 3 28 2 29 1 30
REMARK H PARENT
REMARK Flexibility Score: inf
ROOT
ATOM      1  C   UNL     1       5.010 -38.582  20.454  1.00  0.00     0.000 C 
ENDROOT
BRANCH   1   2
ATOM      2  C   UNL     1       5.723 -37.731  19.386  1.00  0.00     0.000 C 
BRANCH   2   3
ATOM      3  C   UNL     1       5.099 -36.345  19.138  1.00  0.00     0.000 C 
BRANCH   3   4
ATOM      4  C   UNL     1       5.854 -35.210  19.853  1.00  0.00     0.000 C 
BRANCH   4   5
ATOM      5  C   UNL     1       5.222 -34.846  21.207  1.00  0.00     0.000 C 
BRANCH   5   6
ATOM      6  C   UNL     1       3.692 -34.700  21.125  1.00  0.00     0.000 C 
BRANCH   6   7
ATOM      7  C   UNL     1       2.968 -36.052  21.301  1.00  0.00     0.000 C 
BRANCH   7   8
ATOM      8  C   UNL     1       1.905 -36.329  20.225  1.00  0.00     0.000 C 
BRANCH   8   9
ATOM      9  C   UNL     1       1.723 -37.828  19.936  1.00  0.00     0.000 C 
BRANCH   9  10
ATOM     10  C   UNL     1       1.750 -38.136  18.423  1.00  0.00     0.000 C 
BRANCH  10  11
ATOM     11  C   UNL     1       1.164 -37.008  17.557  1.00  0.00     0.000 C 
BRANCH  11  12
ATOM     12  C   UNL     1       2.085 -36.604  16.393  1.00  0.00     0.006 C 
BRANCH  12  13
ATOM     13  C   UNL     1       3.205 -37.626  16.158  1.00  0.00     0.053 C 
BRANCH  13  14
ATOM     14  C   UNL     1       3.727 -37.564  14.756  1.00  0.00     0.041 C 
ATOM     15  O   UNL     1       4.259 -38.577  14.232  1.00  0.00    -0.550 OA
ATOM     16  O   UNL     1       3.598 -36.393  14.020  1.00  0.00    -0.550 OA
ENDBRANCH  13  14
ENDBRANCH  12  13
ENDBRANCH  11  12
ENDBRANCH  10  11
ENDBRANCH   9  10
ENDBRANCH   8   9
ENDBRANCH   7   8
ENDBRANCH   6   7
ENDBRANCH   5   6
ENDBRANCH   4   5
ENDBRANCH   3   4
ENDBRANCH   2   3
ENDBRANCH   1   2
BRANCH   1  17
ATOM     17  C   UNL     1       5.958 -39.556  21.178  1.00  0.00     0.000 C 
BRANCH  17  18
ATOM     18  C   UNL     1       5.442 -39.960  22.575  1.00  0.00     0.000 C 
BRANCH  18  19
ATOM     19  C   UNL     1       5.635 -38.875  23.652  1.00  0.00     0.000 C 
BRANCH  19  20
ATOM     20  C   UNL     1       6.125 -37.512  23.129  1.00  0.00     0.000 C 
BRANCH  20  21
ATOM     21  C   UNL     1       5.567 -36.285  23.876  1.00  0.00     0.000 C 
BRANCH  21  22
ATOM     22  C   UNL     1       5.953 -36.235  25.372  1.00  0.00    -0.000 C 
BRANCH  22  23
ATOM     23  C   UNL     1       5.165 -37.250  26.219  1.00  0.00    -0.000 C 
BRANCH  23  24
ATOM     24  C   UNL     1       3.738 -36.776  26.552  1.00  0.00    -0.000 C 
BRANCH  24  25
ATOM     25  C   UNL     1       2.752 -37.901  26.919  1.00  0.00    -0.000 C 
BRANCH  25  26
ATOM     26  C   UNL     1       1.681 -37.453  27.930  1.00  0.00    -0.000 C 
BRANCH  26  27
ATOM     27  C   UNL     1       1.142 -36.043  27.638  1.00  0.00    -0.000 C 
BRANCH  27  28
ATOM     28  C   UNL     1       2.012 -34.939  28.257  1.00  0.00    -0.000 C 
BRANCH  28  29
ATOM     29  C   UNL     1       1.208 -34.112  29.268  1.00  0.00    -0.003 C 
ATOM     30  C   UNL     1       1.710 -34.342  30.692  1.00  0.00     0.004 C 
ENDBRANCH  28  29
ENDBRANCH  27  28
ENDBRANCH  26  27
ENDBRANCH  25  26
ENDBRANCH  24  25
ENDBRANCH  23  24
ENDBRANCH  22  23
ENDBRANCH  21  22
ENDBRANCH  20  21
ENDBRANCH  19  20
ENDBRANCH  18  19
ENDBRANCH  17  18
ENDBRANCH   1  17
TORSDOF 26
ENDMDL
MODEL 3
REMARK VINA RESULT:     5.906      2.890      8.138
REMARK INTER + INTRA:          12.960
REMARK INTER:                  10.817
REMARK INTRA:                   2.143
REMARK UNBOUND:                -1.923
REMARK SMILES CCCCCCCCCCCCCCCCCCCCCCCCCCCC(=O)[O-]
REMARK SMILES IDX 15 1 16 2 17 3 18 4 19 5 20 6 21 7 22 8 23 9 24 10 25 11
REMARK SMILES IDX 26 12 27 13 28 14 29 15 30 16 14 17 13 18 12 19 11 20 10 21
REMARK SMILES IDX 9 22 8 23 7 24 6 25 5 26 4 27 3 28 2 29 1 30
REMARK H PARENT
REMARK Flexibility Score: inf
ROOT
ATOM      1  C   UNL     1       0.646 -37.032  21.070  1.00  0.00     0.000 C 
ENDROOT
BRANCH   1   2
ATOM      2  C   UNL     1       1.140 -35.665  21.579  1.00  0.00     0.000 C 
BRANCH   2   3
ATOM      3  C   UNL     1       2.666 -35.462  21.516  1.00  0.00     0.000 C 
BRANCH   3   4
ATOM      4  C   UNL     1       3.111 -34.090  22.051  1.00  0.00     0.000 C 
BRANCH   4   5
ATOM      5  C   UNL     1       4.621 -33.855  21.882  1.00  0.00     0.000 C 
BRANCH   5   6
ATOM      6  C   UNL     1       5.468 -34.814  22.738  1.00  0.00     0.000 C 
BRANCH   6   7
ATOM      7  C   UNL     1       5.815 -34.211  24.117  1.00  0.00     0.000 C 
BRANCH   7   8
ATOM      8  C   UNL     1       6.119 -35.267  25.194  1.00  0.00     0.000 C 
BRANCH   8   9
ATOM      9  C   UNL     1       6.104 -36.703  24.645  1.00  0.00     0.000 C 
BRANCH   9  10
ATOM     10  C   UNL     1       5.052 -37.585  25.351  1.00  0.00     0.000 C 
BRANCH  10  11
ATOM     11  C   UNL     1       4.566 -38.766  24.493  1.00  0.00     0.000 C 
BRANCH  11  12
ATOM     12  C   UNL     1       5.702 -39.722  24.092  1.00  0.00     0.006 C 
BRANCH  12  13
ATOM     13  C   UNL     1       6.116 -39.547  22.625  1.00  0.00     0.053 C 
BRANCH  13  14
ATOM     14  C   UNL     1       6.081 -40.845  21.880  1.00  0.00     0.041 C 
ATOM     15  O   UNL     1       5.985 -41.933  22.505  1.00  0.00    -0.550 OA
ATOM     16  O   UNL     1       6.125 -40.849  20.491  1.00  0.00    -0.550 OA
ENDBRANCH  13  14
ENDBRANCH  12  13
ENDBRANCH  11  12
ENDBRANCH  10  11
ENDBRANCH   9  10
ENDBRANCH   8   9
ENDBRANCH   7   8
ENDBRANCH   6   7
ENDBRANCH   5   6
ENDBRANCH   4   5
ENDBRANCH   3   4
ENDBRANCH   2   3
ENDBRANCH   1   2
BRANCH   1  17
ATOM     17  C   UNL     1       0.692 -37.154  19.536  1.00  0.00     0.000 C 
BRANCH  17  18
ATOM     18  C   UNL     1       1.710 -38.209  19.054  1.00  0.00     0.000 C 
BRANCH  18  19
ATOM     19  C   UNL     1       3.139 -37.660  18.865  1.00  0.00     0.000 C 
BRANCH  19  20
ATOM     20  C   UNL     1       4.055 -37.781  20.096  1.00  0.00     0.000 C 
BRANCH  20  21
ATOM     21  C   UNL     1       5.507 -37.310  19.881  1.00  0.00     0.000 C 
BRANCH  21  22
ATOM     22  C   UNL     1       5.666 -35.774  19.833  1.00  0.00    -0.000 C 
BRANCH  22  23
ATOM     23  C   UNL     1       5.701 -35.229  18.394  1.00  0.00    -0.000 C 
BRANCH  23  24
ATOM     24  C   UNL     1       4.320 -34.772  17.889  1.00  0.00    -0.000 C 
BRANCH  24  25
ATOM     25  C   UNL     1       3.839 -35.469  16.602  1.00  0.00    -0.000 C 
BRANCH  25  26
ATOM     26  C   UNL     1       3.867 -37.005  16.706  1.00  0.00    -0.000 C 
BRANCH  26  27
ATOM     27  C   UNL     1       3.718 -37.695  15.341  1.00  0.00    -0.000 C 
BRANCH  27  28
ATOM     28  C   UNL     1       3.433 -36.701  14.205  1.00  0.00    -0.000 C 
BRANCH  28  29
ATOM     29  C   UNL     1       1.966 -36.251  14.228  1.00  0.00    -0.003 C 
ATOM     30  C   UNL     1       1.542 -35.829  15.634  1.00  0.00     0.004 C 
ENDBRANCH  28  29
ENDBRANCH  27  28
ENDBRANCH  26  27
ENDBRANCH  25  26
ENDBRANCH  24  25
ENDBRANCH  23  24
ENDBRANCH  22  23
ENDBRANCH  21  22
ENDBRANCH  20  21
ENDBRANCH  19  20
ENDBRANCH  18  19
ENDBRANCH  17  18
ENDBRANCH   1  17
TORSDOF 26
ENDMDL
MODEL 4
REMARK VINA RESULT:     6.014      2.588      5.431
REMARK INTER + INTRA:          13.231
REMARK INTER:                  13.114
REMARK INTRA:                   0.118
REMARK UNBOUND:                -1.923
REMARK SMILES CCCCCCCCCCCCCCCCCCCCCCCCCCCC(=O)[O-]
REMARK SMILES IDX 15 1 16 2 17 3 18 4 19 5 20 6 21 7 22 8 23 9 24 10 25 11
REMARK SMILES IDX 26 12 27 13 28 14 29 15 30 16 14 17 13 18 12 19 11 20 10 21
REMARK SMILES IDX 9 22 8 23 7 24 6 25 5 26 4 27 3 28 2 29 1 30
REMARK H PARENT
REMARK Flexibility Score: inf
ROOT
ATOM      1  C   UNL     1       5.750 -35.466  23.073  1.00  0.00     0.000 C 
ENDROOT
BRANCH   1   2
ATOM      2  C   UNL     1       4.614 -34.625  22.460  1.00  0.00     0.000 C 
BRANCH   2   3
ATOM      3  C   UNL     1       4.728 -34.387  20.943  1.00  0.00     0.000 C 
BRANCH   3   4
ATOM      4  C   UNL     1       6.093 -34.810  20.370  1.00  0.00     0.000 C 
BRANCH   4   5
ATOM      5  C   UNL     1       6.043 -35.051  18.852  1.00  0.00     0.000 C 
BRANCH   5   6
ATOM      6  C   UNL     1       4.857 -34.338  18.178  1.00  0.00     0.000 C 
BRANCH   6   7
ATOM      7  C   UNL     1       4.039 -35.292  17.281  1.00  0.00     0.000 C 
BRANCH   7   8
ATOM      8  C   UNL     1       4.606 -36.720  17.218  1.00  0.00     0.000 C 
BRANCH   8   9
ATOM      9  C   UNL     1       3.622 -37.728  16.601  1.00  0.00     0.000 C 
BRANCH   9  10
ATOM     10  C   UNL     1       4.222 -38.455  15.378  1.00  0.00     0.000 C 
BRANCH  10  11
ATOM     11  C   UNL     1       3.592 -38.028  14.041  1.00  0.00     0.000 C 
BRANCH  11  12
ATOM     12  C   UNL     1       3.513 -36.501  13.876  1.00  0.00     0.006 C 
BRANCH  12  13
ATOM     13  C   UNL     1       2.068 -35.987  13.930  1.00  0.00     0.053 C 
BRANCH  13  14
ATOM     14  C   UNL     1       1.531 -35.990  15.328  1.00  0.00     0.041 C 
ATOM     15  O   UNL     1       0.933 -37.004  15.776  1.00  0.00    -0.550 OA
ATOM     16  O   UNL     1       1.717 -34.882  16.144  1.00  0.00    -0.550 OA
ENDBRANCH  13  14
ENDBRANCH  12  13
ENDBRANCH  11  12
ENDBRANCH  10  11
ENDBRANCH   9  10
ENDBRANCH   8   9
ENDBRANCH   7   8
ENDBRANCH   6   7
ENDBRANCH   5   6
ENDBRANCH   4   5
ENDBRANCH   3   4
ENDBRANCH   2   3
ENDBRANCH   1   2
BRANCH   1  17
ATOM     17  C   UNL     1       6.111 -35.035  24.506  1.00  0.00     0.000 C 
BRANCH  17  18
ATOM     18  C   UNL     1       5.562 -36.004  25.575  1.00  0.00     0.000 C 
BRANCH  18  19
ATOM     19  C   UNL     1       5.834 -37.490  25.271  1.00  0.00     0.000 C 
BRANCH  19  20
ATOM     20  C   UNL     1       4.600 -38.310  24.851  1.00  0.00     0.000 C 
BRANCH  20  21
ATOM     21  C   UNL     1       4.909 -39.673  24.202  1.00  0.00     0.000 C 
BRANCH  21  22
ATOM     22  C   UNL     1       6.052 -39.627  23.164  1.00  0.00    -0.000 C 
BRANCH  22  23
ATOM     23  C   UNL     1       5.555 -39.869  21.728  1.00  0.00    -0.000 C 
BRANCH  23  24
ATOM     24  C   UNL     1       5.871 -38.701  20.775  1.00  0.00    -0.000 C 
BRANCH  24  25
ATOM     25  C   UNL     1       4.653 -38.126  20.028  1.00  0.00    -0.000 C 
BRANCH  25  26
ATOM     26  C   UNL     1       3.779 -37.221  20.915  1.00  0.00    -0.000 C 
BRANCH  26  27
ATOM     27  C   UNL     1       2.491 -36.765  20.212  1.00  0.00    -0.000 C 
BRANCH  27  28
ATOM     28  C   UNL     1       1.999 -37.778  19.168  1.00  0.00    -0.000 C 
BRANCH  28  29
ATOM     29  C   UNL     1       0.502 -38.064  19.348  1.00  0.00    -0.003 C 
ATOM     30  C   UNL     1      -0.310 -37.507  18.181  1.00  0.00     0.004 C 
ENDBRANCH  28  29
ENDBRANCH  27  28
ENDBRANCH  26  27
ENDBRANCH  25  26
ENDBRANCH  24  25
ENDBRANCH  23  24
ENDBRANCH  22  23
ENDBRANCH  21  22
ENDBRANCH  20  21
ENDBRANCH  19  20
ENDBRANCH  18  19
ENDBRANCH  17  18
ENDBRANCH   1  17
TORSDOF 26
ENDMDL
MODEL 5
REMARK VINA RESULT:     6.031      4.252      8.730
REMARK INTER + INTRA:          13.275
REMARK INTER:                  13.483
REMARK INTRA:                  -0.208
REMARK UNBOUND:                -1.923
REMARK SMILES CCCCCCCCCCCCCCCCCCCCCCCCCCCC(=O)[O-]
REMARK SMILES IDX 15 1 16 2 17 3 18 4 19 5 20 6 21 7 22 8 23 9 24 10 25 11
REMARK SMILES IDX 26 12 27 13 28 14 29 15 30 16 14 17 13 18 12 19 11 20 10 21
REMARK SMILES IDX 9 22 8 23 7 24 6 25 5 26 4 27 3 28 2 29 1 30
REMARK H PARENT
REMARK Flexibility Score: inf
ROOT
ATOM      1  C   UNL     1       4.693 -35.695  19.182  1.00  0.00     0.000 C 
ENDROOT
BRANCH   1   2
ATOM      2  C   UNL     1       5.769 -36.744  19.520  1.00  0.00     0.000 C 
BRANCH   2   3
ATOM      3  C   UNL     1       5.225 -38.088  20.040  1.00  0.00     0.000 C 
BRANCH   3   4
ATOM      4  C   UNL     1       6.072 -38.677  21.182  1.00  0.00     0.000 C 
BRANCH   4   5
ATOM      5  C   UNL     1       5.246 -39.563  22.129  1.00  0.00     0.000 C 
BRANCH   5   6
ATOM      6  C   UNL     1       5.367 -39.128  23.600  1.00  0.00     0.000 C 
BRANCH   6   7
ATOM      7  C   UNL     1       5.801 -37.653  23.738  1.00  0.00     0.000 C 
BRANCH   7   8
ATOM      8  C   UNL     1       5.795 -37.139  25.187  1.00  0.00     0.000 C 
BRANCH   8   9
ATOM      9  C   UNL     1       4.715 -37.808  26.054  1.00  0.00     0.000 C 
BRANCH   9  10
ATOM     10  C   UNL     1       3.623 -36.811  26.497  1.00  0.00     0.000 C 
BRANCH  10  11
ATOM     11  C   UNL     1       2.316 -37.490  26.942  1.00  0.00     0.000 C 
BRANCH  11  12
ATOM     12  C   UNL     1       1.570 -36.701  28.030  1.00  0.00     0.006 C 
BRANCH  12  13
ATOM     13  C   UNL     1       2.043 -35.245  28.118  1.00  0.00     0.053 C 
BRANCH  13  14
ATOM     14  C   UNL     1       1.370 -34.509  29.235  1.00  0.00     0.041 C 
ATOM     15  O   UNL     1       2.041 -34.088  30.214  1.00  0.00    -0.550 OA
ATOM     16  O   UNL     1       0.004 -34.264  29.179  1.00  0.00    -0.550 OA
ENDBRANCH  13  14
ENDBRANCH  12  13
ENDBRANCH  11  12
ENDBRANCH  10  11
ENDBRANCH   9  10
ENDBRANCH   8   9
ENDBRANCH   7   8
ENDBRANCH   6   7
ENDBRANCH   5   6
ENDBRANCH   4   5
ENDBRANCH   3   4
ENDBRANCH   2   3
ENDBRANCH   1   2
BRANCH   1  17
ATOM     17  C   UNL     1       4.968 -34.957  17.859  1.00  0.00     0.000 C 
BRANCH  17  18
ATOM     18  C   UNL     1       3.838 -35.149  16.825  1.00  0.00     0.000 C 
BRANCH  18  19
ATOM     19  C   UNL     1       4.038 -36.364  15.898  1.00  0.00     0.000 C 
BRANCH  19  20
ATOM     20  C   UNL     1       2.815 -37.288  15.756  1.00  0.00     0.000 C 
BRANCH  20  21
ATOM     21  C   UNL     1       1.483 -36.693  16.255  1.00  0.00     0.000 C 
BRANCH  21  22
ATOM     22  C   UNL     1       1.405 -36.534  17.790  1.00  0.00    -0.000 C 
BRANCH  22  23
ATOM     23  C   UNL     1       1.140 -37.869  18.508  1.00  0.00    -0.000 C 
BRANCH  23  24
ATOM     24  C   UNL     1       1.802 -37.948  19.897  1.00  0.00    -0.000 C 
BRANCH  24  25
ATOM     25  C   UNL     1       1.466 -36.778  20.841  1.00  0.00    -0.000 C 
BRANCH  25  26
ATOM     26  C   UNL     1       2.491 -35.632  20.763  1.00  0.00    -0.000 C 
BRANCH  26  27
ATOM     27  C   UNL     1       3.669 -35.822  21.733  1.00  0.00    -0.000 C 
BRANCH  27  28
ATOM     28  C   UNL     1       4.259 -34.487  22.211  1.00  0.00    -0.000 C 
BRANCH  28  29
ATOM     29  C   UNL     1       5.694 -34.675  22.721  1.00  0.00    -0.003 C 
ATOM     30  C   UNL     1       5.946 -33.845  23.978  1.00  0.00     0.004 C 
ENDBRANCH  28  29
ENDBRANCH  27  28
ENDBRANCH  26  27
ENDBRANCH  25  26
ENDBRANCH  24  25
ENDBRANCH  23  24
ENDBRANCH  22  23
ENDBRANCH  21  22
ENDBRANCH  20  21
ENDBRANCH  19  20
ENDBRANCH  18  19
ENDBRANCH  17  18
ENDBRANCH   1  17
TORSDOF 26
ENDMDL
MODEL 6
REMARK VINA RESULT:     6.228      4.482      9.071
REMARK INTER + INTRA:          13.771
REMARK INTER:                  15.654
REMARK INTRA:                  -1.883
REMARK UNBOUND:                -1.923
REMARK SMILES CCCCCCCCCCCCCCCCCCCCCCCCCCCC(=O)[O-]
REMARK SMILES IDX 15 1 16 2 17 3 18 4 19 5 20 6 21 7 22 8 23 9 24 10 25 11
REMARK SMILES IDX 26 12 27 13 28 14 29 15 30 16 14 17 13 18 12 19 11 20 10 21
REMARK SMILES IDX 9 22 8 23 7 24 6 25 5 26 4 27 3 28 2 29 1 30
REMARK H PARENT
REMARK Flexibility Score: inf
ROOT
ATOM      1  C   UNL     1       4.790 -35.594  19.085  1.00  0.00     0.000 C 
ENDROOT
BRANCH   1   2
ATOM      2  C   UNL     1       6.118 -35.287  19.802  1.00  0.00     0.000 C 
BRANCH   2   3
ATOM      3  C   UNL     1       6.042 -34.169  20.859  1.00  0.00     0.000 C 
BRANCH   3   4
ATOM      4  C   UNL     1       6.072 -34.704  22.302  1.00  0.00     0.000 C 
BRANCH   4   5
ATOM      5  C   UNL     1       5.215 -33.860  23.259  1.00  0.00     0.000 C 
BRANCH   5   6
ATOM      6  C   UNL     1       5.090 -34.496  24.656  1.00  0.00     0.000 C 
BRANCH   6   7
ATOM      7  C   UNL     1       5.515 -35.980  24.660  1.00  0.00     0.000 C 
BRANCH   7   8
ATOM      8  C   UNL     1       5.509 -36.621  26.058  1.00  0.00     0.000 C 
BRANCH   8   9
ATOM      9  C   UNL     1       4.589 -37.850  26.148  1.00  0.00     0.000 C 
BRANCH   9  10
ATOM     10  C   UNL     1       3.109 -37.457  26.347  1.00  0.00     0.000 C 
BRANCH  10  11
ATOM     11  C   UNL     1       2.728 -37.231  27.820  1.00  0.00     0.000 C 
BRANCH  11  12
ATOM     12  C   UNL     1       1.505 -36.314  27.989  1.00  0.00     0.006 C 
BRANCH  12  13
ATOM     13  C   UNL     1       1.904 -34.844  28.171  1.00  0.00     0.053 C 
BRANCH  13  14
ATOM     14  C   UNL     1       1.237 -34.232  29.363  1.00  0.00     0.041 C 
ATOM     15  O   UNL     1       0.172 -33.574  29.226  1.00  0.00    -0.550 OA
ATOM     16  O   UNL     1       1.777 -34.415  30.630  1.00  0.00    -0.550 OA
ENDBRANCH  13  14
ENDBRANCH  12  13
ENDBRANCH  11  12
ENDBRANCH  10  11
ENDBRANCH   9  10
ENDBRANCH   8   9
ENDBRANCH   7   8
ENDBRANCH   6   7
ENDBRANCH   5   6
ENDBRANCH   4   5
ENDBRANCH   3   4
ENDBRANCH   2   3
ENDBRANCH   1   2
BRANCH   1  17
ATOM     17  C   UNL     1       4.537 -34.680  17.871  1.00  0.00     0.000 C 
BRANCH  17  18
ATOM     18  C   UNL     1       3.285 -35.090  17.069  1.00  0.00     0.000 C 
BRANCH  18  19
ATOM     19  C   UNL     1       3.398 -36.472  16.394  1.00  0.00     0.000 C 
BRANCH  19  20
ATOM     20  C   UNL     1       2.702 -37.624  17.141  1.00  0.00     0.000 C 
BRANCH  20  21
ATOM     21  C   UNL     1       1.617 -37.193  18.147  1.00  0.00     0.000 C 
BRANCH  21  22
ATOM     22  C   UNL     1       1.973 -37.497  19.619  1.00  0.00    -0.000 C 
BRANCH  22  23
ATOM     23  C   UNL     1       3.451 -37.885  19.801  1.00  0.00    -0.000 C 
BRANCH  23  24
ATOM     24  C   UNL     1       3.844 -38.086  21.277  1.00  0.00    -0.000 C 
BRANCH  24  25
ATOM     25  C   UNL     1       5.348 -38.305  21.522  1.00  0.00    -0.000 C 
BRANCH  25  26
ATOM     26  C   UNL     1       5.893 -39.561  20.818  1.00  0.00    -0.000 C 
BRANCH  26  27
ATOM     27  C   UNL     1       5.472 -40.864  21.517  1.00  0.00    -0.000 C 
BRANCH  27  28
ATOM     28  C   UNL     1       5.638 -40.795  23.043  1.00  0.00    -0.000 C 
BRANCH  28  29
ATOM     29  C   UNL     1       5.487 -42.187  23.672  1.00  0.00    -0.003 C 
ATOM     30  C   UNL     1       6.076 -42.221  25.080  1.00  0.00     0.004 C 
ENDBRANCH  28  29
ENDBRANCH  27  28
ENDBRANCH  26  27
ENDBRANCH  25  26
ENDBRANCH  24  25
ENDBRANCH  23  24
ENDBRANCH  22  23
ENDBRANCH  21  22
ENDBRANCH  20  21
ENDBRANCH  19  20
ENDBRANCH  18  19
ENDBRANCH  17  18
ENDBRANCH   1  17
TORSDOF 26
ENDMDL
MODEL 7
REMARK VINA RESULT:     6.508      4.192      9.409
REMARK INTER + INTRA:          14.477
REMARK INTER:                  14.478
REMARK INTRA:                  -0.001
REMARK UNBOUND:                -1.923
REMARK SMILES CCCCCCCCCCCCCCCCCCCCCCCCCCCC(=O)[O-]
REMARK SMILES IDX 15 1 16 2 17 3 18 4 19 5 20 6 21 7 22 8 23 9 24 10 25 11
REMARK SMILES IDX 26 12 27 13 28 14 29 15 30 16 14 17 13 18 12 19 11 20 10 21
REMARK SMILES IDX 9 22 8 23 7 24 6 25 5 26 4 27 3 28 2 29 1 30
REMARK H PARENT
REMARK Flexibility Score: inf
ROOT
ATOM      1  C   UNL     1       2.327 -36.680  21.043  1.00  0.00     0.000 C 
ENDROOT
BRANCH   1   2
ATOM      2  C   UNL     1       2.242 -35.208  21.487  1.00  0.00     0.000 C 
BRANCH   2   3
ATOM      3  C   UNL     1       3.585 -34.455  21.504  1.00  0.00     0.000 C 
BRANCH   3   4
ATOM      4  C   UNL     1       4.090 -34.160  22.928  1.00  0.00     0.000 C 
BRANCH   4   5
ATOM      5  C   UNL     1       5.620 -34.268  23.043  1.00  0.00     0.000 C 
BRANCH   5   6
ATOM      6  C   UNL     1       6.069 -34.899  24.373  1.00  0.00     0.000 C 
BRANCH   6   7
ATOM      7  C   UNL     1       6.125 -36.440  24.296  1.00  0.00     0.000 C 
BRANCH   7   8
ATOM      8  C   UNL     1       5.955 -37.134  25.659  1.00  0.00     0.000 C 
BRANCH   8   9
ATOM      9  C   UNL     1       4.564 -37.762  25.841  1.00  0.00     0.000 C 
BRANCH   9  10
ATOM     10  C   UNL     1       3.733 -37.033  26.920  1.00  0.00     0.000 C 
BRANCH  10  11
ATOM     11  C   UNL     1       2.237 -37.392  26.886  1.00  0.00     0.000 C 
BRANCH  11  12
ATOM     12  C   UNL     1       1.364 -36.395  27.666  1.00  0.00     0.006 C 
BRANCH  12  13
ATOM     13  C   UNL     1       2.192 -35.270  28.300  1.00  0.00     0.053 C 
BRANCH  13  14
ATOM     14  C   UNL     1       1.399 -34.497  29.307  1.00  0.00     0.041 C 
ATOM     15  O   UNL     1       1.958 -34.032  30.335  1.00  0.00    -0.550 OA
ATOM     16  O   UNL     1       0.046 -34.266  29.094  1.00  0.00    -0.550 OA
ENDBRANCH  13  14
ENDBRANCH  12  13
ENDBRANCH  11  12
ENDBRANCH  10  11
ENDBRANCH   9  10
ENDBRANCH   8   9
ENDBRANCH   7   8
ENDBRANCH   6   7
ENDBRANCH   5   6
ENDBRANCH   4   5
ENDBRANCH   3   4
ENDBRANCH   2   3
ENDBRANCH   1   2
BRANCH   1  17
ATOM     17  C   UNL     1       3.426 -36.928  19.993  1.00  0.00     0.000 C 
BRANCH  17  18
ATOM     18  C   UNL     1       4.768 -37.355  20.625  1.00  0.00     0.000 C 
BRANCH  18  19
ATOM     19  C   UNL     1       6.006 -36.754  19.931  1.00  0.00     0.000 C 
BRANCH  19  20
ATOM     20  C   UNL     1       6.125 -35.221  20.015  1.00  0.00     0.000 C 
BRANCH  20  21
ATOM     21  C   UNL     1       6.113 -34.488  18.659  1.00  0.00     0.000 C 
BRANCH  21  22
ATOM     22  C   UNL     1       4.711 -34.381  18.019  1.00  0.00    -0.000 C 
BRANCH  22  23
ATOM     23  C   UNL     1       4.410 -35.547  17.060  1.00  0.00    -0.000 C 
BRANCH  23  24
ATOM     24  C   UNL     1       3.428 -35.165  15.936  1.00  0.00    -0.000 C 
BRANCH  24  25
ATOM     25  C   UNL     1       3.078 -36.309  14.966  1.00  0.00    -0.000 C 
BRANCH  25  26
ATOM     26  C   UNL     1       3.006 -37.681  15.659  1.00  0.00    -0.000 C 
BRANCH  26  27
ATOM     27  C   UNL     1       2.590 -37.580  17.135  1.00  0.00    -0.000 C 
BRANCH  27  28
ATOM     28  C   UNL     1       1.150 -37.076  17.309  1.00  0.00    -0.000 C 
BRANCH  28  29
ATOM     29  C   UNL     1       0.345 -38.022  18.210  1.00  0.00    -0.003 C 
ATOM     30  C   UNL     1       0.013 -37.362  19.546  1.00  0.00     0.004 C 
ENDBRANCH  28  29
ENDBRANCH  27  28
ENDBRANCH  26  27
ENDBRANCH  25  26
ENDBRANCH  24  25
ENDBRANCH  23  24
ENDBRANCH  22  23
ENDBRANCH  21  22
ENDBRANCH  20  21
ENDBRANCH  19  20
ENDBRANCH  18  19
ENDBRANCH  17  18
ENDBRANCH   1  17
TORSDOF 26
ENDMDL
