MODEL 1
REMARK VINA RESULT:    -7.285      0.000      0.000
REMARK INTER + INTRA:          -9.023
REMARK INTER:                  -8.775
REMARK INTRA:                  -0.248
REMARK UNBOUND:                -0.248
REMARK SMILES Oc1cc(O)c2cc(O)c(-c3ccc(O)c(O)c3)[o+]c2c1
REMARK SMILES IDX 10 1 19 2 20 3 21 4 2 5 3 6 4 7 6 8 7 9 8 10 11 11 12 12
REMARK SMILES IDX 13 13 14 14 18 15 16 16 15 17 17 19 9 21 1 23 5 25
REMARK H PARENT 15 18 17 20 9 22 1 24 5 26
REMARK Flexibility Score: inf
ROOT
ATOM      1  C   UNL     1     -20.552  54.885  -0.958  1.00  0.00     0.402 A 
ATOM      2  O   UNL     1     -19.966  55.902  -0.333  1.00  0.00    -0.202 OA
ATOM      3  C   UNL     1     -18.661  55.957  -0.092  1.00  0.00     0.368 A 
ATOM      4  C   UNL     1     -18.138  57.068   0.576  1.00  0.00     0.162 A 
ATOM      5  C   UNL     1     -16.772  57.151   0.844  1.00  0.00     0.128 A 
ATOM      6  C   UNL     1     -15.919  56.116   0.444  1.00  0.00     0.093 A 
ATOM      7  C   UNL     1     -16.417  54.992  -0.225  1.00  0.00     0.136 A 
ATOM      8  C   UNL     1     -17.806  54.905  -0.503  1.00  0.00     0.125 A 
ATOM      9  C   UNL     1     -18.393  53.824  -1.181  1.00  0.00     0.078 A 
ATOM     10  C   UNL     1     -19.770  53.811  -1.422  1.00  0.00     0.223 A 
ENDROOT
BRANCH   1  11
ATOM     11  C   UNL     1     -22.018  54.935  -1.158  1.00  0.00     0.087 A 
ATOM     12  C   UNL     1     -22.531  55.173  -2.442  1.00  0.00     0.022 A 
ATOM     13  C   UNL     1     -23.911  55.245  -2.651  1.00  0.00     0.051 A 
ATOM     14  C   UNL     1     -24.798  55.096  -1.580  1.00  0.00     0.157 A 
ATOM     15  C   UNL     1     -22.910  54.805  -0.078  1.00  0.00     0.068 A 
ATOM     16  C   UNL     1     -24.295  54.879  -0.285  1.00  0.00     0.158 A 
BRANCH  14  17
ATOM     17  O   UNL     1     -26.169  55.170  -1.819  1.00  0.00    -0.504 OA
ATOM     18  H   UNL     1     -26.626  56.039  -2.067  1.00  0.00     0.293 HD
ENDBRANCH  14  17
BRANCH  16  19
ATOM     19  O   UNL     1     -25.173  54.743   0.790  1.00  0.00    -0.504 OA
ATOM     20  H   UNL     1     -25.163  55.390   1.568  1.00  0.00     0.293 HD
ENDBRANCH  16  19
ENDBRANCH   1  11
BRANCH  10  21
ATOM     21  O   UNL     1     -20.344  52.761  -2.139  1.00  0.00    -0.500 OA
ATOM     22  H   UNL     1     -20.954  52.928  -2.931  1.00  0.00     0.294 HD
ENDBRANCH  10  21
BRANCH   5  23
ATOM     23  O   UNL     1     -16.270  58.267   1.511  1.00  0.00    -0.507 OA
ATOM     24  H   UNL     1     -16.795  59.131   1.568  1.00  0.00     0.293 HD
ENDBRANCH   5  23
BRANCH   7  25
ATOM     25  O   UNL     1     -15.501  54.001  -0.589  1.00  0.00    -0.507 OA
ATOM     26  H   UNL     1     -14.642  53.808  -0.095  1.00  0.00     0.293 HD
ENDBRANCH   7  25
TORSDOF 6
ENDMDL
MODEL 2
REMARK VINA RESULT:    -7.053      2.097      6.667
REMARK INTER + INTRA:          -8.745
REMARK INTER:                  -8.398
REMARK INTRA:                  -0.347
REMARK UNBOUND:                -0.248
REMARK SMILES Oc1cc(O)c2cc(O)c(-c3ccc(O)c(O)c3)[o+]c2c1
REMARK SMILES IDX 10 1 19 2 20 3 21 4 2 5 3 6 4 7 6 8 7 9 8 10 11 11 12 12
REMARK SMILES IDX 13 13 14 14 18 15 16 16 15 17 17 19 9 21 1 23 5 25
REMARK H PARENT 15 18 17 20 9 22 1 24 5 26
REMARK Flexibility Score: inf
ROOT
ATOM      1  C   UNL     1     -20.882  55.320  -1.079  1.00  0.00     0.402 A 
ATOM      2  O   UNL     1     -21.845  56.236  -1.140  1.00  0.00    -0.202 OA
ATOM      3  C   UNL     1     -23.042  56.074  -0.587  1.00  0.00     0.368 A 
ATOM      4  C   UNL     1     -23.991  57.092  -0.708  1.00  0.00     0.162 A 
ATOM      5  C   UNL     1     -25.257  56.948  -0.140  1.00  0.00     0.128 A 
ATOM      6  C   UNL     1     -25.580  55.777   0.554  1.00  0.00     0.093 A 
ATOM      7  C   UNL     1     -24.648  54.741   0.689  1.00  0.00     0.136 A 
ATOM      8  C   UNL     1     -23.358  54.885   0.115  1.00  0.00     0.125 A 
ATOM      9  C   UNL     1     -22.355  53.906   0.212  1.00  0.00     0.078 A 
ATOM     10  C   UNL     1     -21.106  54.121  -0.377  1.00  0.00     0.223 A 
ENDROOT
BRANCH   1  11
ATOM     11  C   UNL     1     -19.592  55.614  -1.745  1.00  0.00     0.087 A 
ATOM     12  C   UNL     1     -19.404  55.232  -3.082  1.00  0.00     0.022 A 
ATOM     13  C   UNL     1     -18.189  55.481  -3.725  1.00  0.00     0.051 A 
ATOM     14  C   UNL     1     -17.139  56.099  -3.039  1.00  0.00     0.157 A 
ATOM     15  C   UNL     1     -18.529  56.218  -1.050  1.00  0.00     0.068 A 
ATOM     16  C   UNL     1     -17.307  56.466  -1.692  1.00  0.00     0.158 A 
BRANCH  14  17
ATOM     17  O   UNL     1     -15.939  56.337  -3.707  1.00  0.00    -0.504 OA
ATOM     18  H   UNL     1     -15.898  56.474  -4.710  1.00  0.00     0.293 HD
ENDBRANCH  14  17
BRANCH  16  19
ATOM     19  O   UNL     1     -16.261  57.071  -0.998  1.00  0.00    -0.504 OA
ATOM     20  H   UNL     1     -15.647  57.742  -1.442  1.00  0.00     0.293 HD
ENDBRANCH  16  19
ENDBRANCH   1  11
BRANCH  10  21
ATOM     21  O   UNL     1     -20.094  53.170  -0.239  1.00  0.00    -0.500 OA
ATOM     22  H   UNL     1     -19.116  53.415  -0.341  1.00  0.00     0.294 HD
ENDBRANCH  10  21
BRANCH   5  23
ATOM     23  O   UNL     1     -26.189  57.975  -0.271  1.00  0.00    -0.507 OA
ATOM     24  H   UNL     1     -27.023  58.011   0.303  1.00  0.00     0.293 HD
ENDBRANCH   5  23
BRANCH   7  25
ATOM     25  O   UNL     1     -25.048  53.602   1.394  1.00  0.00    -0.507 OA
ATOM     26  H   UNL     1     -24.778  52.659   1.156  1.00  0.00     0.293 HD
ENDBRANCH   7  25
TORSDOF 6
ENDMDL
MODEL 3
REMARK VINA RESULT:    -6.937      1.924      7.207
REMARK INTER + INTRA:          -8.605
REMARK INTER:                  -8.257
REMARK INTRA:                  -0.348
REMARK UNBOUND:                -0.248
REMARK SMILES Oc1cc(O)c2cc(O)c(-c3ccc(O)c(O)c3)[o+]c2c1
REMARK SMILES IDX 10 1 19 2 20 3 21 4 2 5 3 6 4 7 6 8 7 9 8 10 11 11 12 12
REMARK SMILES IDX 13 13 14 14 18 15 16 16 15 17 17 19 9 21 1 23 5 25
REMARK H PARENT 15 18 17 20 9 22 1 24 5 26
REMARK Flexibility Score: inf
ROOT
ATOM      1  C   UNL     1     -20.618  55.943  -0.339  1.00  0.00     0.402 A 
ATOM      2  O   UNL     1     -21.670  55.350  -0.898  1.00  0.00    -0.202 OA
ATOM      3  C   UNL     1     -22.926  55.706  -0.651  1.00  0.00     0.368 A 
ATOM      4  C   UNL     1     -23.964  55.019  -1.284  1.00  0.00     0.162 A 
ATOM      5  C   UNL     1     -25.293  55.370  -1.042  1.00  0.00     0.128 A 
ATOM      6  C   UNL     1     -25.588  56.414  -0.159  1.00  0.00     0.093 A 
ATOM      7  C   UNL     1     -24.565  57.118   0.489  1.00  0.00     0.136 A 
ATOM      8  C   UNL     1     -23.213  56.766   0.243  1.00  0.00     0.125 A 
ATOM      9  C   UNL     1     -22.123  57.424   0.837  1.00  0.00     0.078 A 
ATOM     10  C   UNL     1     -20.816  57.023   0.542  1.00  0.00     0.223 A 
ENDROOT
BRANCH   1  11
ATOM     11  C   UNL     1     -19.267  55.448  -0.687  1.00  0.00     0.087 A 
ATOM     12  C   UNL     1     -18.680  54.439   0.093  1.00  0.00     0.022 A 
ATOM     13  C   UNL     1     -17.398  53.970  -0.204  1.00  0.00     0.051 A 
ATOM     14  C   UNL     1     -16.677  54.511  -1.272  1.00  0.00     0.157 A 
ATOM     15  C   UNL     1     -18.533  56.004  -1.749  1.00  0.00     0.068 A 
ATOM     16  C   UNL     1     -17.245  55.537  -2.048  1.00  0.00     0.158 A 
BRANCH  14  17
ATOM     17  O   UNL     1     -15.401  54.022  -1.547  1.00  0.00    -0.504 OA
ATOM     18  H   UNL     1     -15.008  53.232  -1.048  1.00  0.00     0.293 HD
ENDBRANCH  14  17
BRANCH  16  19
ATOM     19  O   UNL     1     -16.526  56.091  -3.106  1.00  0.00    -0.504 OA
ATOM     20  H   UNL     1     -15.867  55.542  -3.644  1.00  0.00     0.293 HD
ENDBRANCH  16  19
ENDBRANCH   1  11
BRANCH  10  21
ATOM     21  O   UNL     1     -19.733  57.708   1.093  1.00  0.00    -0.500 OA
ATOM     22  H   UNL     1     -18.784  57.366   0.999  1.00  0.00     0.294 HD
ENDBRANCH  10  21
BRANCH   5  23
ATOM     23  O   UNL     1     -26.315  54.673  -1.684  1.00  0.00    -0.507 OA
ATOM     24  H   UNL     1     -27.271  55.007  -1.674  1.00  0.00     0.293 HD
ENDBRANCH   5  23
BRANCH   7  25
ATOM     25  O   UNL     1     -24.942  58.145   1.359  1.00  0.00    -0.507 OA
ATOM     26  H   UNL     1     -25.894  58.343   1.630  1.00  0.00     0.293 HD
ENDBRANCH   7  25
TORSDOF 6
ENDMDL
MODEL 4
REMARK VINA RESULT:    -6.918      1.528      7.163
REMARK INTER + INTRA:          -8.582
REMARK INTER:                  -8.339
REMARK INTRA:                  -0.243
REMARK UNBOUND:                -0.248
REMARK SMILES Oc1cc(O)c2cc(O)c(-c3ccc(O)c(O)c3)[o+]c2c1
REMARK SMILES IDX 10 1 19 2 20 3 21 4 2 5 3 6 4 7 6 8 7 9 8 10 11 11 12 12
REMARK SMILES IDX 13 13 14 14 18 15 16 16 15 17 17 19 9 21 1 23 5 25
REMARK H PARENT 15 18 17 20 9 22 1 24 5 26
REMARK Flexibility Score: inf
ROOT
ATOM      1  C   UNL     1     -21.029  55.882  -1.099  1.00  0.00     0.402 A 
ATOM      2  O   UNL     1     -21.851  55.300  -0.230  1.00  0.00    -0.202 OA
ATOM      3  C   UNL     1     -23.166  55.226  -0.405  1.00  0.00     0.368 A 
ATOM      4  C   UNL     1     -23.947  54.597   0.568  1.00  0.00     0.162 A 
ATOM      5  C   UNL     1     -25.330  54.506   0.411  1.00  0.00     0.128 A 
ATOM      6  C   UNL     1     -25.940  55.050  -0.725  1.00  0.00     0.093 A 
ATOM      7  C   UNL     1     -25.180  55.687  -1.714  1.00  0.00     0.136 A 
ATOM      8  C   UNL     1     -23.772  55.778  -1.559  1.00  0.00     0.125 A 
ATOM      9  C   UNL     1     -22.929  56.385  -2.505  1.00  0.00     0.078 A 
ATOM     10  C   UNL     1     -21.549  56.433  -2.286  1.00  0.00     0.223 A 
ENDROOT
BRANCH   1  11
ATOM     11  C   UNL     1     -19.583  55.910  -0.786  1.00  0.00     0.087 A 
ATOM     12  C   UNL     1     -19.111  56.766   0.222  1.00  0.00     0.022 A 
ATOM     13  C   UNL     1     -17.748  56.824   0.520  1.00  0.00     0.051 A 
ATOM     14  C   UNL     1     -16.833  56.041  -0.190  1.00  0.00     0.157 A 
ATOM     15  C   UNL     1     -18.660  55.138  -1.513  1.00  0.00     0.068 A 
ATOM     16  C   UNL     1     -17.290  55.196  -1.217  1.00  0.00     0.158 A 
BRANCH  14  17
ATOM     17  O   UNL     1     -15.479  56.118   0.131  1.00  0.00    -0.504 OA
ATOM     18  H   UNL     1     -14.837  55.358  -0.058  1.00  0.00     0.293 HD
ENDBRANCH  14  17
BRANCH  16  19
ATOM     19  O   UNL     1     -16.383  54.422  -1.939  1.00  0.00    -0.504 OA
ATOM     20  H   UNL     1     -16.452  53.413  -1.970  1.00  0.00     0.293 HD
ENDBRANCH  16  19
ENDBRANCH   1  11
BRANCH  10  21
ATOM     21  O   UNL     1     -20.707  56.991  -3.247  1.00  0.00    -0.500 OA
ATOM     22  H   UNL     1     -20.002  56.440  -3.723  1.00  0.00     0.294 HD
ENDBRANCH  10  21
BRANCH   5  23
ATOM     23  O   UNL     1     -26.092  53.874   1.392  1.00  0.00    -0.507 OA
ATOM     24  H   UNL     1     -26.003  52.882   1.575  1.00  0.00     0.293 HD
ENDBRANCH   5  23
BRANCH   7  25
ATOM     25  O   UNL     1     -25.864  56.206  -2.816  1.00  0.00    -0.507 OA
ATOM     26  H   UNL     1     -25.417  56.559  -3.650  1.00  0.00     0.293 HD
ENDBRANCH   7  25
TORSDOF 6
ENDMDL
MODEL 5
REMARK VINA RESULT:    -6.881      1.986      6.743
REMARK INTER + INTRA:          -8.538
REMARK INTER:                  -8.198
REMARK INTRA:                  -0.340
REMARK UNBOUND:                -0.248
REMARK SMILES Oc1cc(O)c2cc(O)c(-c3ccc(O)c(O)c3)[o+]c2c1
REMARK SMILES IDX 10 1 19 2 20 3 21 4 2 5 3 6 4 7 6 8 7 9 8 10 11 11 12 12
REMARK SMILES IDX 13 13 14 14 18 15 16 16 15 17 17 19 9 21 1 23 5 25
REMARK H PARENT 15 18 17 20 9 22 1 24 5 26
REMARK Flexibility Score: inf
ROOT
ATOM      1  C   UNL     1     -21.094  55.150  -1.620  1.00  0.00     0.402 A 
ATOM      2  O   UNL     1     -21.510  56.406  -1.758  1.00  0.00    -0.202 OA
ATOM      3  C   UNL     1     -22.789  56.741  -1.892  1.00  0.00     0.368 A 
ATOM      4  C   UNL     1     -23.127  58.089  -2.035  1.00  0.00     0.162 A 
ATOM      5  C   UNL     1     -24.461  58.469  -2.180  1.00  0.00     0.128 A 
ATOM      6  C   UNL     1     -25.467  57.496  -2.183  1.00  0.00     0.093 A 
ATOM      7  C   UNL     1     -25.155  56.139  -2.042  1.00  0.00     0.136 A 
ATOM      8  C   UNL     1     -23.799  55.748  -1.891  1.00  0.00     0.125 A 
ATOM      9  C   UNL     1     -23.393  54.413  -1.730  1.00  0.00     0.078 A 
ATOM     10  C   UNL     1     -22.037  54.105  -1.583  1.00  0.00     0.223 A 
ENDROOT
BRANCH   1  11
ATOM     11  C   UNL     1     -19.640  54.903  -1.490  1.00  0.00     0.087 A 
ATOM     12  C   UNL     1     -18.863  54.734  -2.646  1.00  0.00     0.022 A 
ATOM     13  C   UNL     1     -17.493  54.480  -2.548  1.00  0.00     0.051 A 
ATOM     14  C   UNL     1     -16.881  54.376  -1.295  1.00  0.00     0.157 A 
ATOM     15  C   UNL     1     -19.027  54.778  -0.231  1.00  0.00     0.068 A 
ATOM     16  C   UNL     1     -17.652  54.521  -0.128  1.00  0.00     0.158 A 
BRANCH  14  17
ATOM     17  O   UNL     1     -15.511  54.124  -1.227  1.00  0.00    -0.504 OA
ATOM     18  H   UNL     1     -15.139  53.284  -0.801  1.00  0.00     0.293 HD
ENDBRANCH  14  17
BRANCH  16  19
ATOM     19  O   UNL     1     -17.052  54.405   1.124  1.00  0.00    -0.504 OA
ATOM     20  H   UNL     1     -16.361  55.072   1.446  1.00  0.00     0.293 HD
ENDBRANCH  16  19
ENDBRANCH   1  11
BRANCH  10  21
ATOM     21  O   UNL     1     -21.638  52.785  -1.373  1.00  0.00    -0.500 OA
ATOM     22  H   UNL     1     -21.810  52.061  -2.061  1.00  0.00     0.294 HD
ENDBRANCH  10  21
BRANCH   5  23
ATOM     23  O   UNL     1     -24.779  59.819  -2.321  1.00  0.00    -0.507 OA
ATOM     24  H   UNL     1     -24.165  60.547  -1.975  1.00  0.00     0.293 HD
ENDBRANCH   5  23
BRANCH   7  25
ATOM     25  O   UNL     1     -26.216  55.229  -2.058  1.00  0.00    -0.507 OA
ATOM     26  H   UNL     1     -26.604  54.820  -2.895  1.00  0.00     0.293 HD
ENDBRANCH   7  25
TORSDOF 6
ENDMDL
MODEL 6
REMARK VINA RESULT:    -6.798      1.931      2.925
REMARK INTER + INTRA:          -8.438
REMARK INTER:                  -8.320
REMARK INTRA:                  -0.117
REMARK UNBOUND:                -0.248
REMARK SMILES Oc1cc(O)c2cc(O)c(-c3ccc(O)c(O)c3)[o+]c2c1
REMARK SMILES IDX 10 1 19 2 20 3 21 4 2 5 3 6 4 7 6 8 7 9 8 10 11 11 12 12
REMARK SMILES IDX 13 13 14 14 18 15 16 16 15 17 17 19 9 21 1 23 5 25
REMARK H PARENT 15 18 17 20 9 22 1 24 5 26
REMARK Flexibility Score: inf
ROOT
ATOM      1  C   UNL     1     -21.182  55.690  -1.596  1.00  0.00     0.402 A 
ATOM      2  O   UNL     1     -20.242  55.045  -0.910  1.00  0.00    -0.202 OA
ATOM      3  C   UNL     1     -18.973  54.977  -1.298  1.00  0.00     0.368 A 
ATOM      4  C   UNL     1     -18.059  54.272  -0.511  1.00  0.00     0.162 A 
ATOM      5  C   UNL     1     -16.720  54.182  -0.895  1.00  0.00     0.128 A 
ATOM      6  C   UNL     1     -16.290  54.801  -2.074  1.00  0.00     0.093 A 
ATOM      7  C   UNL     1     -17.186  55.513  -2.880  1.00  0.00     0.136 A 
ATOM      8  C   UNL     1     -18.548  55.609  -2.492  1.00  0.00     0.125 A 
ATOM      9  C   UNL     1     -19.514  56.313  -3.229  1.00  0.00     0.078 A 
ATOM     10  C   UNL     1     -20.837  56.367  -2.781  1.00  0.00     0.223 A 
ENDROOT
BRANCH   1  11
ATOM     11  C   UNL     1     -22.564  55.685  -1.066  1.00  0.00     0.087 A 
ATOM     12  C   UNL     1     -22.794  56.062   0.267  1.00  0.00     0.022 A 
ATOM     13  C   UNL     1     -24.087  56.045   0.794  1.00  0.00     0.051 A 
ATOM     14  C   UNL     1     -25.168  55.638   0.006  1.00  0.00     0.157 A 
ATOM     15  C   UNL     1     -23.649  55.256  -1.851  1.00  0.00     0.068 A 
ATOM     16  C   UNL     1     -24.948  55.236  -1.323  1.00  0.00     0.158 A 
BRANCH  14  17
ATOM     17  O   UNL     1     -26.448  55.634   0.559  1.00  0.00    -0.504 OA
ATOM     18  H   UNL     1     -26.931  56.489   0.805  1.00  0.00     0.293 HD
ENDBRANCH  14  17
BRANCH  16  19
ATOM     19  O   UNL     1     -26.019  54.816  -2.111  1.00  0.00    -0.504 OA
ATOM     20  H   UNL     1     -25.900  54.130  -2.846  1.00  0.00     0.293 HD
ENDBRANCH  16  19
ENDBRANCH   1  11
BRANCH  10  21
ATOM     21  O   UNL     1     -21.786  57.108  -3.487  1.00  0.00    -0.500 OA
ATOM     22  H   UNL     1     -21.608  57.442  -4.427  1.00  0.00     0.294 HD
ENDBRANCH  10  21
BRANCH   5  23
ATOM     23  O   UNL     1     -15.824  53.474  -0.097  1.00  0.00    -0.507 OA
ATOM     24  H   UNL     1     -14.971  53.899   0.247  1.00  0.00     0.293 HD
ENDBRANCH   5  23
BRANCH   7  25
ATOM     25  O   UNL     1     -16.680  56.100  -4.043  1.00  0.00    -0.507 OA
ATOM     26  H   UNL     1     -15.783  56.558  -4.107  1.00  0.00     0.293 HD
ENDBRANCH   7  25
TORSDOF 6
ENDMDL
MODEL 7
REMARK VINA RESULT:    -6.689      1.127      2.693
REMARK INTER + INTRA:          -8.305
REMARK INTER:                  -8.081
REMARK INTRA:                  -0.225
REMARK UNBOUND:                -0.248
REMARK SMILES Oc1cc(O)c2cc(O)c(-c3ccc(O)c(O)c3)[o+]c2c1
REMARK SMILES IDX 10 1 19 2 20 3 21 4 2 5 3 6 4 7 6 8 7 9 8 10 11 11 12 12
REMARK SMILES IDX 13 13 14 14 18 15 16 16 15 17 17 19 9 21 1 23 5 25
REMARK H PARENT 15 18 17 20 9 22 1 24 5 26
REMARK Flexibility Score: inf
ROOT
ATOM      1  C   UNL     1     -21.050  56.023  -0.130  1.00  0.00     0.402 A 
ATOM      2  O   UNL     1     -20.060  55.265  -0.593  1.00  0.00    -0.202 OA
ATOM      3  C   UNL     1     -18.782  55.469  -0.293  1.00  0.00     0.368 A 
ATOM      4  C   UNL     1     -17.812  54.620  -0.833  1.00  0.00     0.162 A 
ATOM      5  C   UNL     1     -16.463  54.812  -0.537  1.00  0.00     0.128 A 
ATOM      6  C   UNL     1     -16.076  55.862   0.304  1.00  0.00     0.093 A 
ATOM      7  C   UNL     1     -17.028  56.728   0.857  1.00  0.00     0.136 A 
ATOM      8  C   UNL     1     -18.402  56.533   0.561  1.00  0.00     0.125 A 
ATOM      9  C   UNL     1     -19.426  57.342   1.080  1.00  0.00     0.078 A 
ATOM     10  C   UNL     1     -20.760  57.086   0.746  1.00  0.00     0.223 A 
ENDROOT
BRANCH   1  11
ATOM     11  C   UNL     1     -22.433  55.701  -0.546  1.00  0.00     0.087 A 
ATOM     12  C   UNL     1     -22.830  55.944  -1.869  1.00  0.00     0.022 A 
ATOM     13  C   UNL     1     -24.137  55.667  -2.279  1.00  0.00     0.051 A 
ATOM     14  C   UNL     1     -25.070  55.157  -1.372  1.00  0.00     0.157 A 
ATOM     15  C   UNL     1     -23.378  55.207   0.371  1.00  0.00     0.068 A 
ATOM     16  C   UNL     1     -24.691  54.930  -0.037  1.00  0.00     0.158 A 
BRANCH  14  17
ATOM     17  O   UNL     1     -26.366  54.887  -1.809  1.00  0.00    -0.504 OA
ATOM     18  H   UNL     1     -26.835  55.469  -2.492  1.00  0.00     0.293 HD
ENDBRANCH  14  17
BRANCH  16  19
ATOM     19  O   UNL     1     -25.620  54.434   0.877  1.00  0.00    -0.504 OA
ATOM     20  H   UNL     1     -26.544  54.837   0.965  1.00  0.00     0.293 HD
ENDBRANCH  16  19
ENDBRANCH   1  11
BRANCH  10  21
ATOM     21  O   UNL     1     -21.780  57.858   1.302  1.00  0.00    -0.500 OA
ATOM     22  H   UNL     1     -21.613  58.477   2.087  1.00  0.00     0.294 HD
ENDBRANCH  10  21
BRANCH   5  23
ATOM     23  O   UNL     1     -15.511  53.955  -1.084  1.00  0.00    -0.507 OA
ATOM     24  H   UNL     1     -15.742  53.317  -1.837  1.00  0.00     0.293 HD
ENDBRANCH   5  23
BRANCH   7  25
ATOM     25  O   UNL     1     -16.561  57.753   1.685  1.00  0.00    -0.507 OA
ATOM     26  H   UNL     1     -17.062  58.113   2.485  1.00  0.00     0.293 HD
ENDBRANCH   7  25
TORSDOF 6
ENDMDL
MODEL 8
REMARK VINA RESULT:    -6.671      3.140      4.329
REMARK INTER + INTRA:          -8.285
REMARK INTER:                  -7.988
REMARK INTRA:                  -0.297
REMARK UNBOUND:                -0.248
REMARK SMILES Oc1cc(O)c2cc(O)c(-c3ccc(O)c(O)c3)[o+]c2c1
REMARK SMILES IDX 10 1 19 2 20 3 21 4 2 5 3 6 4 7 6 8 7 9 8 10 11 11 12 12
REMARK SMILES IDX 13 13 14 14 18 15 16 16 15 17 17 19 9 21 1 23 5 25
REMARK H PARENT 15 18 17 20 9 22 1 24 5 26
REMARK Flexibility Score: inf
ROOT
ATOM      1  C   UNL     1     -22.318  55.954  -0.067  1.00  0.00     0.402 A 
ATOM      2  O   UNL     1     -21.430  56.392  -0.955  1.00  0.00    -0.202 OA
ATOM      3  C   UNL     1     -20.646  55.585  -1.662  1.00  0.00     0.368 A 
ATOM      4  C   UNL     1     -19.740  56.141  -2.569  1.00  0.00     0.162 A 
ATOM      5  C   UNL     1     -18.903  55.318  -3.323  1.00  0.00     0.128 A 
ATOM      6  C   UNL     1     -18.969  53.929  -3.170  1.00  0.00     0.093 A 
ATOM      7  C   UNL     1     -19.867  53.347  -2.267  1.00  0.00     0.136 A 
ATOM      8  C   UNL     1     -20.722  54.181  -1.501  1.00  0.00     0.125 A 
ATOM      9  C   UNL     1     -21.663  53.686  -0.583  1.00  0.00     0.078 A 
ATOM     10  C   UNL     1     -22.476  54.569   0.134  1.00  0.00     0.223 A 
ENDROOT
BRANCH   1  11
ATOM     11  C   UNL     1     -23.128  56.953   0.667  1.00  0.00     0.087 A 
ATOM     12  C   UNL     1     -24.113  57.680  -0.018  1.00  0.00     0.022 A 
ATOM     13  C   UNL     1     -24.875  58.643   0.649  1.00  0.00     0.051 A 
ATOM     14  C   UNL     1     -24.655  58.904   2.005  1.00  0.00     0.157 A 
ATOM     15  C   UNL     1     -22.894  57.231   2.025  1.00  0.00     0.068 A 
ATOM     16  C   UNL     1     -23.655  58.198   2.697  1.00  0.00     0.158 A 
BRANCH  14  17
ATOM     17  O   UNL     1     -25.432  59.868   2.645  1.00  0.00    -0.504 OA
ATOM     18  H   UNL     1     -25.825  60.659   2.149  1.00  0.00     0.293 HD
ENDBRANCH  14  17
BRANCH  16  19
ATOM     19  O   UNL     1     -23.421  58.463   4.046  1.00  0.00    -0.504 OA
ATOM     20  H   UNL     1     -22.758  57.921   4.585  1.00  0.00     0.293 HD
ENDBRANCH  16  19
ENDBRANCH   1  11
BRANCH  10  21
ATOM     21  O   UNL     1     -23.444  54.076   1.009  1.00  0.00    -0.500 OA
ATOM     22  H   UNL     1     -23.351  54.171   2.014  1.00  0.00     0.294 HD
ENDBRANCH  10  21
BRANCH   5  23
ATOM     23  O   UNL     1     -18.006  55.891  -4.222  1.00  0.00    -0.507 OA
ATOM     24  H   UNL     1     -17.140  55.429  -4.475  1.00  0.00     0.293 HD
ENDBRANCH   5  23
BRANCH   7  25
ATOM     25  O   UNL     1     -19.870  51.953  -2.171  1.00  0.00    -0.507 OA
ATOM     26  H   UNL     1     -19.262  51.421  -1.564  1.00  0.00     0.293 HD
ENDBRANCH   7  25
TORSDOF 6
ENDMDL
MODEL 9
REMARK VINA RESULT:    -6.569      2.916      6.497
REMARK INTER + INTRA:          -8.161
REMARK INTER:                  -7.807
REMARK INTRA:                  -0.354
REMARK UNBOUND:                -0.248
REMARK SMILES Oc1cc(O)c2cc(O)c(-c3ccc(O)c(O)c3)[o+]c2c1
REMARK SMILES IDX 10 1 19 2 20 3 21 4 2 5 3 6 4 7 6 8 7 9 8 10 11 11 12 12
REMARK SMILES IDX 13 13 14 14 18 15 16 16 15 17 17 19 9 21 1 23 5 25
REMARK H PARENT 15 18 17 20 9 22 1 24 5 26
REMARK Flexibility Score: inf
ROOT
ATOM      1  C   UNL     1     -20.444  56.069  -0.125  1.00  0.00     0.402 A 
ATOM      2  O   UNL     1     -20.463  56.934   0.884  1.00  0.00    -0.202 OA
ATOM      3  C   UNL     1     -21.578  57.474   1.364  1.00  0.00     0.368 A 
ATOM      4  C   UNL     1     -21.495  58.378   2.426  1.00  0.00     0.162 A 
ATOM      5  C   UNL     1     -22.650  58.961   2.947  1.00  0.00     0.128 A 
ATOM      6  C   UNL     1     -23.899  58.641   2.404  1.00  0.00     0.093 A 
ATOM      7  C   UNL     1     -24.010  57.739   1.339  1.00  0.00     0.136 A 
ATOM      8  C   UNL     1     -22.837  57.141   0.808  1.00  0.00     0.125 A 
ATOM      9  C   UNL     1     -22.853  56.216  -0.250  1.00  0.00     0.078 A 
ATOM     10  C   UNL     1     -21.656  55.665  -0.717  1.00  0.00     0.223 A 
ENDROOT
BRANCH   1  11
ATOM     11  C   UNL     1     -19.135  55.545  -0.576  1.00  0.00     0.087 A 
ATOM     12  C   UNL     1     -18.552  54.466   0.106  1.00  0.00     0.022 A 
ATOM     13  C   UNL     1     -17.308  53.968  -0.289  1.00  0.00     0.051 A 
ATOM     14  C   UNL     1     -16.621  54.548  -1.360  1.00  0.00     0.157 A 
ATOM     15  C   UNL     1     -18.434  56.141  -1.640  1.00  0.00     0.068 A 
ATOM     16  C   UNL     1     -17.184  55.644  -2.037  1.00  0.00     0.158 A 
BRANCH  14  17
ATOM     17  O   UNL     1     -15.382  54.029  -1.734  1.00  0.00    -0.504 OA
ATOM     18  H   UNL     1     -15.294  53.144  -2.218  1.00  0.00     0.293 HD
ENDBRANCH  14  17
BRANCH  16  19
ATOM     19  O   UNL     1     -16.499  56.237  -3.097  1.00  0.00    -0.504 OA
ATOM     20  H   UNL     1     -15.656  56.777  -2.948  1.00  0.00     0.293 HD
ENDBRANCH  16  19
ENDBRANCH   1  11
BRANCH  10  21
ATOM     21  O   UNL     1     -21.676  54.709  -1.733  1.00  0.00    -0.500 OA
ATOM     22  H   UNL     1     -20.953  54.004  -1.814  1.00  0.00     0.294 HD
ENDBRANCH  10  21
BRANCH   5  23
ATOM     23  O   UNL     1     -22.546  59.860   4.007  1.00  0.00    -0.507 OA
ATOM     24  H   UNL     1     -21.697  59.940   4.554  1.00  0.00     0.293 HD
ENDBRANCH   5  23
BRANCH   7  25
ATOM     25  O   UNL     1     -25.292  57.475   0.850  1.00  0.00    -0.507 OA
ATOM     26  H   UNL     1     -25.487  56.906   0.039  1.00  0.00     0.293 HD
ENDBRANCH   7  25
TORSDOF 6
ENDMDL
