MODEL 1
REMARK VINA RESULT:    -4.912      0.000      0.000
REMARK INTER + INTRA:         -11.669
REMARK INTER:                  -9.219
REMARK INTRA:                  -2.450
REMARK UNBOUND:                -2.450
REMARK SMILES O=C([O-])CCCCCCCCCCCCCCC(=O)[O-]
REMARK SMILES IDX 10 1 9 2 8 3 7 4 6 5 5 6 4 7 2 8 1 9 3 10 11 11 12 12 13 13
REMARK SMILES IDX 14 14 15 15 16 16 17 17 18 18 19 19 20 20
REMARK H PARENT
REMARK Flexibility Score: inf
ROOT
ATOM      1  C   UNL     1      24.350  40.468 147.785  1.00  0.00     0.000 C 
ENDROOT
BRANCH   1   2
ATOM      2  C   UNL     1      24.315  40.984 149.231  1.00  0.00     0.000 C 
BRANCH   2   3
ATOM      3  C   UNL     1      25.683  41.494 149.718  1.00  0.00     0.000 C 
BRANCH   3   4
ATOM      4  C   UNL     1      26.846  40.494 149.556  1.00  0.00     0.000 C 
BRANCH   4   5
ATOM      5  C   UNL     1      26.645  39.138 150.260  1.00  0.00     0.000 C 
BRANCH   5   6
ATOM      6  C   UNL     1      27.237  37.923 149.516  1.00  0.00     0.006 C 
BRANCH   6   7
ATOM      7  C   UNL     1      27.205  38.041 147.983  1.00  0.00     0.053 C 
BRANCH   7   8
ATOM      8  C   UNL     1      27.808  36.843 147.317  1.00  0.00     0.041 C 
ATOM      9  O   UNL     1      27.121  36.143 146.528  1.00  0.00    -0.550 OA
ATOM     10  O   UNL     1      29.120  36.479 147.595  1.00  0.00    -0.550 OA
ENDBRANCH   7   8
ENDBRANCH   6   7
ENDBRANCH   5   6
ENDBRANCH   4   5
ENDBRANCH   3   4
ENDBRANCH   2   3
ENDBRANCH   1   2
BRANCH   1  11
ATOM     11  C   UNL     1      23.453  39.237 147.618  1.00  0.00     0.000 C 
BRANCH  11  12
ATOM     12  C   UNL     1      23.276  38.498 148.950  1.00  0.00     0.000 C 
BRANCH  12  13
ATOM     13  C   UNL     1      23.688  37.024 148.820  1.00  0.00     0.000 C 
BRANCH  13  14
ATOM     14  C   UNL     1      23.668  36.527 147.366  1.00  0.00     0.000 C 
BRANCH  14  15
ATOM     15  C   UNL     1      23.879  35.007 147.256  1.00  0.00     0.000 C 
BRANCH  15  16
ATOM     16  C   UNL     1      24.262  34.366 148.601  1.00  0.00     0.006 C 
BRANCH  16  17
ATOM     17  C   UNL     1      25.244  33.199 148.441  1.00  0.00     0.053 C 
BRANCH  17  18
ATOM     18  C   UNL     1      26.633  33.634 148.785  1.00  0.00     0.041 C 
ATOM     19  O   UNL     1      26.826  34.455 149.721  1.00  0.00    -0.550 OA
ATOM     20  O   UNL     1      27.711  33.174 148.040  1.00  0.00    -0.550 OA
ENDBRANCH  17  18
ENDBRANCH  16  17
ENDBRANCH  15  16
ENDBRANCH  14  15
ENDBRANCH  13  14
ENDBRANCH  12  13
ENDBRANCH  11  12
ENDBRANCH   1  11
TORSDOF 15
ENDMDL
MODEL 2
REMARK VINA RESULT:    -4.888      2.992      5.984
REMARK INTER + INTRA:         -11.625
REMARK INTER:                  -9.592
REMARK INTRA:                  -2.033
REMARK UNBOUND:                -2.450
REMARK SMILES O=C([O-])CCCCCCCCCCCCCCC(=O)[O-]
REMARK SMILES IDX 10 1 9 2 8 3 7 4 6 5 5 6 4 7 2 8 1 9 3 10 11 11 12 12 13 13
REMARK SMILES IDX 14 14 15 15 16 16 17 17 18 18 19 19 20 20
REMARK H PARENT
REMARK Flexibility Score: inf
ROOT
ATOM      1  C   UNL     1      23.999  33.650 148.774  1.00  0.00     0.000 C 
ENDROOT
BRANCH   1   2
ATOM      2  C   UNL     1      24.191  34.212 147.358  1.00  0.00     0.000 C 
BRANCH   2   3
ATOM      3  C   UNL     1      23.423  35.526 147.126  1.00  0.00     0.000 C 
BRANCH   3   4
ATOM      4  C   UNL     1      23.811  36.682 148.071  1.00  0.00     0.000 C 
BRANCH   4   5
ATOM      5  C   UNL     1      24.193  38.000 147.368  1.00  0.00     0.000 C 
BRANCH   5   6
ATOM      6  C   UNL     1      23.312  39.212 147.733  1.00  0.00     0.006 C 
BRANCH   6   7
ATOM      7  C   UNL     1      24.098  40.499 148.033  1.00  0.00     0.053 C 
BRANCH   7   8
ATOM      8  C   UNL     1      24.278  40.715 149.504  1.00  0.00     0.041 C 
ATOM      9  O   UNL     1      24.070  39.774 150.314  1.00  0.00    -0.550 OA
ATOM     10  O   UNL     1      24.643  41.967 149.984  1.00  0.00    -0.550 OA
ENDBRANCH   7   8
ENDBRANCH   6   7
ENDBRANCH   5   6
ENDBRANCH   4   5
ENDBRANCH   3   4
ENDBRANCH   2   3
ENDBRANCH   1   2
BRANCH   1  11
ATOM     11  C   UNL     1      25.291  33.768 149.591  1.00  0.00     0.000 C 
BRANCH  11  12
ATOM     12  C   UNL     1      26.526  33.617 148.696  1.00  0.00     0.000 C 
BRANCH  12  13
ATOM     13  C   UNL     1      27.747  34.311 149.320  1.00  0.00     0.000 C 
BRANCH  13  14
ATOM     14  C   UNL     1      27.396  35.660 149.969  1.00  0.00     0.000 C 
BRANCH  14  15
ATOM     15  C   UNL     1      27.417  36.823 148.963  1.00  0.00     0.000 C 
BRANCH  15  16
ATOM     16  C   UNL     1      27.206  38.190 149.636  1.00  0.00     0.006 C 
BRANCH  16  17
ATOM     17  C   UNL     1      27.628  39.362 148.741  1.00  0.00     0.053 C 
BRANCH  17  18
ATOM     18  C   UNL     1      27.892  40.580 149.568  1.00  0.00     0.041 C 
ATOM     19  O   UNL     1      28.018  40.482 150.818  1.00  0.00    -0.550 OA
ATOM     20  O   UNL     1      27.950  41.831 148.967  1.00  0.00    -0.550 OA
ENDBRANCH  17  18
ENDBRANCH  16  17
ENDBRANCH  15  16
ENDBRANCH  14  15
ENDBRANCH  13  14
ENDBRANCH  12  13
ENDBRANCH  11  12
ENDBRANCH   1  11
TORSDOF 15
ENDMDL
MODEL 3
REMARK VINA RESULT:    -4.855      3.170      4.621
REMARK INTER + INTRA:         -11.562
REMARK INTER:                  -9.531
REMARK INTRA:                  -2.031
REMARK UNBOUND:                -2.450
REMARK SMILES O=C([O-])CCCCCCCCCCCCCCC(=O)[O-]
REMARK SMILES IDX 10 1 9 2 8 3 7 4 6 5 5 6 4 7 2 8 1 9 3 10 11 11 12 12 13 13
REMARK SMILES IDX 14 14 15 15 16 16 17 17 18 18 19 19 20 20
REMARK H PARENT
REMARK Flexibility Score: inf
ROOT
ATOM      1  C   UNL     1      25.067  37.104 147.745  1.00  0.00     0.000 C 
ENDROOT
BRANCH   1   2
ATOM      2  C   UNL     1      23.804  37.930 147.465  1.00  0.00     0.000 C 
BRANCH   2   3
ATOM      3  C   UNL     1      23.713  39.198 148.334  1.00  0.00     0.000 C 
BRANCH   3   4
ATOM      4  C   UNL     1      23.679  38.944 149.855  1.00  0.00     0.000 C 
BRANCH   4   5
ATOM      5  C   UNL     1      24.818  39.608 150.654  1.00  0.00     0.000 C 
BRANCH   5   6
ATOM      6  C   UNL     1      25.589  40.709 149.898  1.00  0.00     0.006 C 
BRANCH   6   7
ATOM      7  C   UNL     1      25.471  42.109 150.523  1.00  0.00     0.053 C 
BRANCH   7   8
ATOM      8  C   UNL     1      24.244  42.829 150.054  1.00  0.00     0.041 C 
ATOM      9  O   UNL     1      23.566  43.519 150.861  1.00  0.00    -0.550 OA
ATOM     10  O   UNL     1      23.831  42.712 148.733  1.00  0.00    -0.550 OA
ENDBRANCH   7   8
ENDBRANCH   6   7
ENDBRANCH   5   6
ENDBRANCH   4   5
ENDBRANCH   3   4
ENDBRANCH   2   3
ENDBRANCH   1   2
BRANCH   1  11
ATOM     11  C   UNL     1      26.331  37.947 147.539  1.00  0.00     0.000 C 
BRANCH  11  12
ATOM     12  C   UNL     1      27.552  37.275 148.178  1.00  0.00     0.000 C 
BRANCH  12  13
ATOM     13  C   UNL     1      27.346  37.080 149.688  1.00  0.00     0.000 C 
BRANCH  13  14
ATOM     14  C   UNL     1      27.390  35.602 150.108  1.00  0.00     0.000 C 
BRANCH  14  15
ATOM     15  C   UNL     1      27.982  34.695 149.016  1.00  0.00     0.000 C 
BRANCH  15  16
ATOM     16  C   UNL     1      27.025  33.564 148.605  1.00  0.00     0.006 C 
BRANCH  16  17
ATOM     17  C   UNL     1      25.612  33.748 149.173  1.00  0.00     0.053 C 
BRANCH  17  18
ATOM     18  C   UNL     1      24.598  33.146 148.253  1.00  0.00     0.041 C 
ATOM     19  O   UNL     1      24.076  32.033 148.526  1.00  0.00    -0.550 OA
ATOM     20  O   UNL     1      24.263  33.790 147.068  1.00  0.00    -0.550 OA
ENDBRANCH  17  18
ENDBRANCH  16  17
ENDBRANCH  15  16
ENDBRANCH  14  15
ENDBRANCH  13  14
ENDBRANCH  12  13
ENDBRANCH  11  12
ENDBRANCH   1  11
TORSDOF 15
ENDMDL
MODEL 4
REMARK VINA RESULT:    -4.831      1.079      4.241
REMARK INTER + INTRA:         -11.516
REMARK INTER:                  -9.271
REMARK INTRA:                  -2.245
REMARK UNBOUND:                -2.450
REMARK SMILES O=C([O-])CCCCCCCCCCCCCCC(=O)[O-]
REMARK SMILES IDX 10 1 9 2 8 3 7 4 6 5 5 6 4 7 2 8 1 9 3 10 11 11 12 12 13 13
REMARK SMILES IDX 14 14 15 15 16 16 17 17 18 18 19 19 20 20
REMARK H PARENT
REMARK Flexibility Score: inf
ROOT
ATOM      1  C   UNL     1      24.601  42.172 148.705  1.00  0.00     0.000 C 
ENDROOT
BRANCH   1   2
ATOM      2  C   UNL     1      23.913  41.245 147.693  1.00  0.00     0.000 C 
BRANCH   2   3
ATOM      3  C   UNL     1      24.396  39.787 147.793  1.00  0.00     0.000 C 
BRANCH   3   4
ATOM      4  C   UNL     1      23.276  38.726 147.761  1.00  0.00     0.000 C 
BRANCH   4   5
ATOM      5  C   UNL     1      23.743  37.292 147.440  1.00  0.00     0.000 C 
BRANCH   5   6
ATOM      6  C   UNL     1      24.057  36.419 148.672  1.00  0.00     0.006 C 
BRANCH   6   7
ATOM      7  C   UNL     1      24.125  34.911 148.379  1.00  0.00     0.053 C 
BRANCH   7   8
ATOM      8  C   UNL     1      24.866  34.167 149.447  1.00  0.00     0.041 C 
ATOM      9  O   UNL     1      24.320  33.202 150.044  1.00  0.00    -0.550 OA
ATOM     10  O   UNL     1      26.149  34.560 149.806  1.00  0.00    -0.550 OA
ENDBRANCH   7   8
ENDBRANCH   6   7
ENDBRANCH   5   6
ENDBRANCH   4   5
ENDBRANCH   3   4
ENDBRANCH   2   3
ENDBRANCH   1   2
BRANCH   1  11
ATOM     11  C   UNL     1      25.045  41.395 149.949  1.00  0.00     0.000 C 
BRANCH  11  12
ATOM     12  C   UNL     1      26.486  41.749 150.335  1.00  0.00     0.000 C 
BRANCH  12  13
ATOM     13  C   UNL     1      27.327  40.480 150.545  1.00  0.00     0.000 C 
BRANCH  13  14
ATOM     14  C   UNL     1      26.470  39.209 150.642  1.00  0.00     0.000 C 
BRANCH  14  15
ATOM     15  C   UNL     1      27.089  38.019 149.888  1.00  0.00     0.000 C 
BRANCH  15  16
ATOM     16  C   UNL     1      27.937  38.460 148.684  1.00  0.00     0.006 C 
BRANCH  16  17
ATOM     17  C   UNL     1      27.411  37.906 147.354  1.00  0.00     0.053 C 
BRANCH  17  18
ATOM     18  C   UNL     1      27.816  36.476 147.188  1.00  0.00     0.041 C 
ATOM     19  O   UNL     1      27.038  35.657 146.631  1.00  0.00    -0.550 OA
ATOM     20  O   UNL     1      29.033  36.033 147.693  1.00  0.00    -0.550 OA
ENDBRANCH  17  18
ENDBRANCH  16  17
ENDBRANCH  15  16
ENDBRANCH  14  15
ENDBRANCH  13  14
ENDBRANCH  12  13
ENDBRANCH  11  12
ENDBRANCH   1  11
TORSDOF 15
ENDMDL
MODEL 5
REMARK VINA RESULT:    -4.807      2.281      4.918
REMARK INTER + INTRA:         -11.472
REMARK INTER:                  -9.425
REMARK INTRA:                  -2.046
REMARK UNBOUND:                -2.450
REMARK SMILES O=C([O-])CCCCCCCCCCCCCCC(=O)[O-]
REMARK SMILES IDX 10 1 9 2 8 3 7 4 6 5 5 6 4 7 2 8 1 9 3 10 11 11 12 12 13 13
REMARK SMILES IDX 14 14 15 15 16 16 17 17 18 18 19 19 20 20
REMARK H PARENT
REMARK Flexibility Score: inf
ROOT
ATOM      1  C   UNL     1      26.718  33.852 148.234  1.00  0.00     0.000 C 
ENDROOT
BRANCH   1   2
ATOM      2  C   UNL     1      27.835  34.145 149.246  1.00  0.00     0.000 C 
BRANCH   2   3
ATOM      3  C   UNL     1      27.480  35.285 150.217  1.00  0.00     0.000 C 
BRANCH   3   4
ATOM      4  C   UNL     1      27.041  36.601 149.544  1.00  0.00     0.000 C 
BRANCH   4   5
ATOM      5  C   UNL     1      28.074  37.217 148.579  1.00  0.00     0.000 C 
BRANCH   5   6
ATOM      6  C   UNL     1      27.556  37.477 147.149  1.00  0.00     0.006 C 
BRANCH   6   7
ATOM      7  C   UNL     1      28.211  38.678 146.447  1.00  0.00     0.053 C 
BRANCH   7   8
ATOM      8  C   UNL     1      29.219  38.247 145.426  1.00  0.00     0.041 C 
ATOM      9  O   UNL     1      29.086  38.586 144.220  1.00  0.00    -0.550 OA
ATOM     10  O   UNL     1      30.288  37.442 145.800  1.00  0.00    -0.550 OA
ENDBRANCH   7   8
ENDBRANCH   6   7
ENDBRANCH   5   6
ENDBRANCH   4   5
ENDBRANCH   3   4
ENDBRANCH   2   3
ENDBRANCH   1   2
BRANCH   1  11
ATOM     11  C   UNL     1      25.486  33.263 148.931  1.00  0.00     0.000 C 
BRANCH  11  12
ATOM     12  C   UNL     1      24.222  34.055 148.578  1.00  0.00     0.000 C 
BRANCH  12  13
ATOM     13  C   UNL     1      24.494  35.046 147.436  1.00  0.00     0.000 C 
BRANCH  13  14
ATOM     14  C   UNL     1      23.492  36.211 147.410  1.00  0.00     0.000 C 
BRANCH  14  15
ATOM     15  C   UNL     1      24.185  37.585 147.388  1.00  0.00     0.000 C 
BRANCH  15  16
ATOM     16  C   UNL     1      23.300  38.702 147.967  1.00  0.00     0.006 C 
BRANCH  16  17
ATOM     17  C   UNL     1      24.051  40.029 148.128  1.00  0.00     0.053 C 
BRANCH  17  18
ATOM     18  C   UNL     1      25.041  39.936 149.245  1.00  0.00     0.041 C 
ATOM     19  O   UNL     1      24.669  39.573 150.392  1.00  0.00    -0.550 OA
ATOM     20  O   UNL     1      26.365  40.298 149.034  1.00  0.00    -0.550 OA
ENDBRANCH  17  18
ENDBRANCH  16  17
ENDBRANCH  15  16
ENDBRANCH  14  15
ENDBRANCH  13  14
ENDBRANCH  12  13
ENDBRANCH  11  12
ENDBRANCH   1  11
TORSDOF 15
ENDMDL
MODEL 6
REMARK VINA RESULT:    -4.801      1.358      3.919
REMARK INTER + INTRA:         -11.461
REMARK INTER:                  -9.051
REMARK INTRA:                  -2.411
REMARK UNBOUND:                -2.450
REMARK SMILES O=C([O-])CCCCCCCCCCCCCCC(=O)[O-]
REMARK SMILES IDX 10 1 9 2 8 3 7 4 6 5 5 6 4 7 2 8 1 9 3 10 11 11 12 12 13 13
REMARK SMILES IDX 14 14 15 15 16 16 17 17 18 18 19 19 20 20
REMARK H PARENT
REMARK Flexibility Score: inf
ROOT
ATOM      1  C   UNL     1      25.482  41.094 148.668  1.00  0.00     0.000 C 
ENDROOT
BRANCH   1   2
ATOM      2  C   UNL     1      25.030  40.214 147.495  1.00  0.00     0.000 C 
BRANCH   2   3
ATOM      3  C   UNL     1      23.588  39.697 147.655  1.00  0.00     0.000 C 
BRANCH   3   4
ATOM      4  C   UNL     1      23.421  38.173 147.489  1.00  0.00     0.000 C 
BRANCH   4   5
ATOM      5  C   UNL     1      23.391  37.371 148.805  1.00  0.00     0.000 C 
BRANCH   5   6
ATOM      6  C   UNL     1      24.376  36.186 148.869  1.00  0.00     0.006 C 
BRANCH   6   7
ATOM      7  C   UNL     1      24.086  35.064 147.858  1.00  0.00     0.053 C 
BRANCH   7   8
ATOM      8  C   UNL     1      24.132  33.710 148.496  1.00  0.00     0.041 C 
ATOM      9  O   UNL     1      24.272  33.601 149.743  1.00  0.00    -0.550 OA
ATOM     10  O   UNL     1      24.051  32.568 147.710  1.00  0.00    -0.550 OA
ENDBRANCH   7   8
ENDBRANCH   6   7
ENDBRANCH   5   6
ENDBRANCH   4   5
ENDBRANCH   3   4
ENDBRANCH   2   3
ENDBRANCH   1   2
BRANCH   1  11
ATOM     11  C   UNL     1      24.689  40.767 149.939  1.00  0.00     0.000 C 
BRANCH  11  12
ATOM     12  C   UNL     1      25.391  39.682 150.763  1.00  0.00     0.000 C 
BRANCH  12  13
ATOM     13  C   UNL     1      26.891  39.625 150.434  1.00  0.00     0.000 C 
BRANCH  13  14
ATOM     14  C   UNL     1      27.341  38.236 149.954  1.00  0.00     0.000 C 
BRANCH  14  15
ATOM     15  C   UNL     1      27.938  38.265 148.537  1.00  0.00     0.000 C 
BRANCH  15  16
ATOM     16  C   UNL     1      27.611  36.996 147.733  1.00  0.00     0.006 C 
BRANCH  16  17
ATOM     17  C   UNL     1      28.582  35.844 148.024  1.00  0.00     0.053 C 
BRANCH  17  18
ATOM     18  C   UNL     1      27.848  34.681 148.612  1.00  0.00     0.041 C 
ATOM     19  O   UNL     1      27.598  34.647 149.846  1.00  0.00    -0.550 OA
ATOM     20  O   UNL     1      27.484  33.608 147.807  1.00  0.00    -0.550 OA
ENDBRANCH  17  18
ENDBRANCH  16  17
ENDBRANCH  15  16
ENDBRANCH  14  15
ENDBRANCH  13  14
ENDBRANCH  12  13
ENDBRANCH  11  12
ENDBRANCH   1  11
TORSDOF 15
ENDMDL
MODEL 7
REMARK VINA RESULT:    -4.726      2.753      5.545
REMARK INTER + INTRA:         -11.321
REMARK INTER:                  -9.459
REMARK INTRA:                  -1.862
REMARK UNBOUND:                -2.450
REMARK SMILES O=C([O-])CCCCCCCCCCCCCCC(=O)[O-]
REMARK SMILES IDX 10 1 9 2 8 3 7 4 6 5 5 6 4 7 2 8 1 9 3 10 11 11 12 12 13 13
REMARK SMILES IDX 14 14 15 15 16 16 17 17 18 18 19 19 20 20
REMARK H PARENT
REMARK Flexibility Score: inf
ROOT
ATOM      1  C   UNL     1      24.024  33.684 148.382  1.00  0.00     0.000 C 
ENDROOT
BRANCH   1   2
ATOM      2  C   UNL     1      25.199  33.969 149.327  1.00  0.00     0.000 C 
BRANCH   2   3
ATOM      3  C   UNL     1      26.562  33.589 148.719  1.00  0.00     0.000 C 
BRANCH   3   4
ATOM      4  C   UNL     1      27.777  34.302 149.348  1.00  0.00     0.000 C 
BRANCH   4   5
ATOM      5  C   UNL     1      27.431  35.452 150.314  1.00  0.00     0.000 C 
BRANCH   5   6
ATOM      6  C   UNL     1      27.503  36.865 149.699  1.00  0.00     0.006 C 
BRANCH   6   7
ATOM      7  C   UNL     1      28.071  36.906 148.271  1.00  0.00     0.053 C 
BRANCH   7   8
ATOM      8  C   UNL     1      28.779  38.195 147.988  1.00  0.00     0.041 C 
ATOM      9  O   UNL     1      28.760  38.689 146.830  1.00  0.00    -0.550 OA
ATOM     10  O   UNL     1      29.490  38.834 148.997  1.00  0.00    -0.550 OA
ENDBRANCH   7   8
ENDBRANCH   6   7
ENDBRANCH   5   6
ENDBRANCH   4   5
ENDBRANCH   3   4
ENDBRANCH   2   3
ENDBRANCH   1   2
BRANCH   1  11
ATOM     11  C   UNL     1      24.125  34.530 147.108  1.00  0.00     0.000 C 
BRANCH  11  12
ATOM     12  C   UNL     1      24.551  35.966 147.431  1.00  0.00     0.000 C 
BRANCH  12  13
ATOM     13  C   UNL     1      23.326  36.867 147.651  1.00  0.00     0.000 C 
BRANCH  13  14
ATOM     14  C   UNL     1      23.708  38.301 148.051  1.00  0.00     0.000 C 
BRANCH  14  15
ATOM     15  C   UNL     1      25.044  38.751 147.436  1.00  0.00     0.000 C 
BRANCH  15  16
ATOM     16  C   UNL     1      25.564  40.063 148.047  1.00  0.00     0.006 C 
BRANCH  16  17
ATOM     17  C   UNL     1      25.009  40.323 149.453  1.00  0.00     0.053 C 
BRANCH  17  18
ATOM     18  C   UNL     1      24.485  41.720 149.557  1.00  0.00     0.041 C 
ATOM     19  O   UNL     1      24.450  42.302 150.674  1.00  0.00    -0.550 OA
ATOM     20  O   UNL     1      23.989  42.363 148.430  1.00  0.00    -0.550 OA
ENDBRANCH  17  18
ENDBRANCH  16  17
ENDBRANCH  15  16
ENDBRANCH  14  15
ENDBRANCH  13  14
ENDBRANCH  12  13
ENDBRANCH  11  12
ENDBRANCH   1  11
TORSDOF 15
ENDMDL
MODEL 8
REMARK VINA RESULT:    -4.710      1.426      2.728
REMARK INTER + INTRA:         -11.290
REMARK INTER:                  -9.233
REMARK INTRA:                  -2.058
REMARK UNBOUND:                -2.450
REMARK SMILES O=C([O-])CCCCCCCCCCCCCCC(=O)[O-]
REMARK SMILES IDX 10 1 9 2 8 3 7 4 6 5 5 6 4 7 2 8 1 9 3 10 11 11 12 12 13 13
REMARK SMILES IDX 14 14 15 15 16 16 17 17 18 18 19 19 20 20
REMARK H PARENT
REMARK Flexibility Score: inf
ROOT
ATOM      1  C   UNL     1      24.578  41.545 149.820  1.00  0.00     0.000 C 
ENDROOT
BRANCH   1   2
ATOM      2  C   UNL     1      25.261  40.914 151.042  1.00  0.00     0.000 C 
BRANCH   2   3
ATOM      3  C   UNL     1      25.581  39.421 150.845  1.00  0.00     0.000 C 
BRANCH   3   4
ATOM      4  C   UNL     1      27.083  39.086 150.744  1.00  0.00     0.000 C 
BRANCH   4   5
ATOM      5  C   UNL     1      27.506  38.359 149.452  1.00  0.00     0.000 C 
BRANCH   5   6
ATOM      6  C   UNL     1      27.200  36.847 149.425  1.00  0.00     0.006 C 
BRANCH   6   7
ATOM      7  C   UNL     1      28.052  36.046 148.426  1.00  0.00     0.053 C 
BRANCH   7   8
ATOM      8  C   UNL     1      28.059  34.583 148.746  1.00  0.00     0.041 C 
ATOM      9  O   UNL     1      27.688  33.743 147.885  1.00  0.00    -0.550 OA
ATOM     10  O   UNL     1      28.446  34.148 150.008  1.00  0.00    -0.550 OA
ENDBRANCH   7   8
ENDBRANCH   6   7
ENDBRANCH   5   6
ENDBRANCH   4   5
ENDBRANCH   3   4
ENDBRANCH   2   3
ENDBRANCH   1   2
BRANCH   1  11
ATOM     11  C   UNL     1      25.530  41.588 148.619  1.00  0.00     0.000 C 
BRANCH  11  12
ATOM     12  C   UNL     1      25.158  40.523 147.581  1.00  0.00     0.000 C 
BRANCH  12  13
ATOM     13  C   UNL     1      23.633  40.419 147.422  1.00  0.00     0.000 C 
BRANCH  13  14
ATOM     14  C   UNL     1      23.090  39.033 147.803  1.00  0.00     0.000 C 
BRANCH  14  15
ATOM     15  C   UNL     1      24.099  37.906 147.526  1.00  0.00     0.000 C 
BRANCH  15  16
ATOM     16  C   UNL     1      23.505  36.508 147.767  1.00  0.00     0.006 C 
BRANCH  16  17
ATOM     17  C   UNL     1      24.435  35.380 147.305  1.00  0.00     0.053 C 
BRANCH  17  18
ATOM     18  C   UNL     1      24.296  34.190 148.199  1.00  0.00     0.041 C 
ATOM     19  O   UNL     1      23.814  33.115 147.753  1.00  0.00    -0.550 OA
ATOM     20  O   UNL     1      24.653  34.280 149.539  1.00  0.00    -0.550 OA
ENDBRANCH  17  18
ENDBRANCH  16  17
ENDBRANCH  15  16
ENDBRANCH  14  15
ENDBRANCH  13  14
ENDBRANCH  12  13
ENDBRANCH  11  12
ENDBRANCH   1  11
TORSDOF 15
ENDMDL
MODEL 9
REMARK VINA RESULT:    -4.699      3.045      5.505
REMARK INTER + INTRA:         -11.268
REMARK INTER:                  -9.406
REMARK INTRA:                  -1.862
REMARK UNBOUND:                -2.450
REMARK SMILES O=C([O-])CCCCCCCCCCCCCCC(=O)[O-]
REMARK SMILES IDX 10 1 9 2 8 3 7 4 6 5 5 6 4 7 2 8 1 9 3 10 11 11 12 12 13 13
REMARK SMILES IDX 14 14 15 15 16 16 17 17 18 18 19 19 20 20
REMARK H PARENT
REMARK Flexibility Score: inf
ROOT
ATOM      1  C   UNL     1      24.013  34.980 147.428  1.00  0.00     0.000 C 
ENDROOT
BRANCH   1   2
ATOM      2  C   UNL     1      23.842  36.277 148.231  1.00  0.00     0.000 C 
BRANCH   2   3
ATOM      3  C   UNL     1      24.047  37.541 147.377  1.00  0.00     0.000 C 
BRANCH   3   4
ATOM      4  C   UNL     1      23.490  38.841 147.993  1.00  0.00     0.000 C 
BRANCH   4   5
ATOM      5  C   UNL     1      23.641  38.956 149.523  1.00  0.00     0.000 C 
BRANCH   5   6
ATOM      6  C   UNL     1      24.326  40.248 150.015  1.00  0.00     0.006 C 
BRANCH   6   7
ATOM      7  C   UNL     1      24.697  41.235 148.896  1.00  0.00     0.053 C 
BRANCH   7   8
ATOM      8  C   UNL     1      24.163  42.608 149.163  1.00  0.00     0.041 C 
ATOM      9  O   UNL     1      23.814  42.939 150.327  1.00  0.00    -0.550 OA
ATOM     10  O   UNL     1      24.021  43.514 148.119  1.00  0.00    -0.550 OA
ENDBRANCH   7   8
ENDBRANCH   6   7
ENDBRANCH   5   6
ENDBRANCH   4   5
ENDBRANCH   3   4
ENDBRANCH   2   3
ENDBRANCH   1   2
BRANCH   1  11
ATOM     11  C   UNL     1      24.005  33.756 148.351  1.00  0.00     0.000 C 
BRANCH  11  12
ATOM     12  C   UNL     1      25.182  33.798 149.333  1.00  0.00     0.000 C 
BRANCH  12  13
ATOM     13  C   UNL     1      26.522  33.696 148.590  1.00  0.00     0.000 C 
BRANCH  13  14
ATOM     14  C   UNL     1      27.659  34.439 149.309  1.00  0.00     0.000 C 
BRANCH  14  15
ATOM     15  C   UNL     1      27.165  35.683 150.066  1.00  0.00     0.000 C 
BRANCH  15  16
ATOM     16  C   UNL     1      27.238  36.961 149.213  1.00  0.00     0.006 C 
BRANCH  16  17
ATOM     17  C   UNL     1      27.339  38.235 150.061  1.00  0.00     0.053 C 
BRANCH  17  18
ATOM     18  C   UNL     1      28.264  39.218 149.417  1.00  0.00     0.041 C 
ATOM     19  O   UNL     1      27.998  40.449 149.442  1.00  0.00    -0.550 OA
ATOM     20  O   UNL     1      29.395  38.772 148.744  1.00  0.00    -0.550 OA
ENDBRANCH  17  18
ENDBRANCH  16  17
ENDBRANCH  15  16
ENDBRANCH  14  15
ENDBRANCH  13  14
ENDBRANCH  12  13
ENDBRANCH  11  12
ENDBRANCH   1  11
TORSDOF 15
ENDMDL
