MODEL 1
REMARK VINA RESULT:    -6.379      0.000      0.000
REMARK INTER + INTRA:          -6.379
REMARK INTER:                  -6.379
REMARK INTRA:                   0.000
REMARK UNBOUND:                 0.000
REMARK SMILES CC(C)=C1CC[C@H](C)CC1=O
REMARK SMILES IDX 8 1 7 2 6 3 5 4 4 5 2 6 1 7 3 8 10 9 11 10 9 11
REMARK H PARENT
REMARK Flexibility Score: inf
ROOT
ATOM      1  C   UNL     1      29.499  14.875  27.874  1.00  0.00     0.008 C 
ATOM      2  C   UNL     1      30.528  15.873  27.332  1.00  0.00    -0.006 C 
ATOM      3  C   UNL     1      29.913  16.735  26.219  1.00  0.00     0.008 C 
ATOM      4  C   UNL     1      30.957  17.670  25.596  1.00  0.00     0.039 C 
ATOM      5  C   UNL     1      31.693  18.501  26.639  1.00  0.00    -0.006 C 
ATOM      6  C   UNL     1      32.143  19.760  26.354  1.00  0.00    -0.070 C 
ATOM      7  C   UNL     1      32.824  20.615  27.398  1.00  0.00     0.039 C 
ATOM      8  C   UNL     1      31.945  20.373  24.988  1.00  0.00     0.039 C 
ATOM      9  C   UNL     1      31.990  17.816  27.932  1.00  0.00     0.159 C 
ATOM     10  O   UNL     1      33.024  18.092  28.596  1.00  0.00    -0.295 OA
ATOM     11  C   UNL     1      31.051  16.772  28.463  1.00  0.00     0.084 C 
ENDROOT
TORSDOF 0
ENDMDL
MODEL 2
REMARK VINA RESULT:    -6.109      1.387      3.903
REMARK INTER + INTRA:          -6.109
REMARK INTER:                  -6.109
REMARK INTRA:                   0.000
REMARK UNBOUND:                 0.000
REMARK SMILES CC(C)=C1CC[C@H](C)CC1=O
REMARK SMILES IDX 8 1 7 2 6 3 5 4 4 5 2 6 1 7 3 8 10 9 11 10 9 11
REMARK H PARENT
REMARK Flexibility Score: inf
ROOT
ATOM      1  C   UNL     1      31.703  19.734  22.773  1.00  0.00     0.008 C 
ATOM      2  C   UNL     1      31.290  19.221  24.157  1.00  0.00    -0.006 C 
ATOM      3  C   UNL     1      31.392  17.689  24.219  1.00  0.00     0.008 C 
ATOM      4  C   UNL     1      30.886  17.151  25.563  1.00  0.00     0.039 C 
ATOM      5  C   UNL     1      31.554  17.829  26.752  1.00  0.00    -0.006 C 
ATOM      6  C   UNL     1      31.772  17.157  27.922  1.00  0.00    -0.070 C 
ATOM      7  C   UNL     1      32.484  17.802  29.088  1.00  0.00     0.039 C 
ATOM      8  C   UNL     1      31.345  15.718  28.091  1.00  0.00     0.039 C 
ATOM      9  C   UNL     1      31.841  19.287  26.599  1.00  0.00     0.159 C 
ATOM     10  O   UNL     1      31.808  20.067  27.587  1.00  0.00    -0.295 OA
ATOM     11  C   UNL     1      32.171  19.850  25.248  1.00  0.00     0.084 C 
ENDROOT
TORSDOF 0
ENDMDL
MODEL 3
REMARK VINA RESULT:    -5.901      1.789      4.935
REMARK INTER + INTRA:          -5.901
REMARK INTER:                  -5.901
REMARK INTRA:                   0.000
REMARK UNBOUND:                 0.000
REMARK SMILES CC(C)=C1CC[C@H](C)CC1=O
REMARK SMILES IDX 8 1 7 2 6 3 5 4 4 5 2 6 1 7 3 8 10 9 11 10 9 11
REMARK H PARENT
REMARK Flexibility Score: inf
ROOT
ATOM      1  C   UNL     1      32.130  23.120  25.164  1.00  0.00     0.008 C 
ATOM      2  C   UNL     1      32.386  21.680  25.624  1.00  0.00    -0.006 C 
ATOM      3  C   UNL     1      31.973  21.500  27.093  1.00  0.00     0.008 C 
ATOM      4  C   UNL     1      32.316  20.094  27.601  1.00  0.00     0.039 C 
ATOM      5  C   UNL     1      31.764  18.997  26.699  1.00  0.00    -0.006 C 
ATOM      6  C   UNL     1      31.377  17.790  27.208  1.00  0.00    -0.070 C 
ATOM      7  C   UNL     1      30.776  16.714  26.332  1.00  0.00     0.039 C 
ATOM      8  C   UNL     1      31.497  17.484  28.683  1.00  0.00     0.039 C 
ATOM      9  C   UNL     1      31.784  19.281  25.234  1.00  0.00     0.159 C 
ATOM     10  O   UNL     1      31.946  18.359  24.391  1.00  0.00    -0.295 OA
ATOM     11  C   UNL     1      31.619  20.688  24.737  1.00  0.00     0.084 C 
ENDROOT
TORSDOF 0
ENDMDL
MODEL 4
REMARK VINA RESULT:    -5.742      1.575      2.359
REMARK INTER + INTRA:          -5.742
REMARK INTER:                  -5.742
REMARK INTRA:                   0.000
REMARK UNBOUND:                 0.000
REMARK SMILES CC(C)=C1CC[C@H](C)CC1=O
REMARK SMILES IDX 8 1 7 2 6 3 5 4 4 5 2 6 1 7 3 8 10 9 11 10 9 11
REMARK H PARENT
REMARK Flexibility Score: inf
ROOT
ATOM      1  C   UNL     1      30.120  15.072  27.868  1.00  0.00     0.008 C 
ATOM      2  C   UNL     1      30.242  16.549  27.479  1.00  0.00    -0.006 C 
ATOM      3  C   UNL     1      30.991  17.335  28.566  1.00  0.00     0.008 C 
ATOM      4  C   UNL     1      31.035  18.834  28.241  1.00  0.00     0.039 C 
ATOM      5  C   UNL     1      31.571  19.113  26.843  1.00  0.00    -0.006 C 
ATOM      6  C   UNL     1      32.277  20.250  26.569  1.00  0.00    -0.070 C 
ATOM      7  C   UNL     1      32.863  20.511  25.200  1.00  0.00     0.039 C 
ATOM      8  C   UNL     1      32.540  21.287  27.636  1.00  0.00     0.039 C 
ATOM      9  C   UNL     1      31.180  18.136  25.784  1.00  0.00     0.159 C 
ATOM     10  O   UNL     1      31.014  18.499  24.589  1.00  0.00    -0.295 OA
ATOM     11  C   UNL     1      30.969  16.691  26.133  1.00  0.00     0.084 C 
ENDROOT
TORSDOF 0
ENDMDL
MODEL 5
REMARK VINA RESULT:    -5.661      1.938      3.075
REMARK INTER + INTRA:          -5.661
REMARK INTER:                  -5.661
REMARK INTRA:                   0.000
REMARK UNBOUND:                 0.000
REMARK SMILES CC(C)=C1CC[C@H](C)CC1=O
REMARK SMILES IDX 8 1 7 2 6 3 5 4 4 5 2 6 1 7 3 8 10 9 11 10 9 11
REMARK H PARENT
REMARK Flexibility Score: inf
ROOT
ATOM      1  C   UNL     1      33.164  16.762  29.360  1.00  0.00     0.008 C 
ATOM      2  C   UNL     1      32.390  17.743  28.472  1.00  0.00    -0.006 C 
ATOM      3  C   UNL     1      33.212  19.020  28.233  1.00  0.00     0.008 C 
ATOM      4  C   UNL     1      32.414  20.054  27.431  1.00  0.00     0.039 C 
ATOM      5  C   UNL     1      31.839  19.479  26.143  1.00  0.00    -0.006 C 
ATOM      6  C   UNL     1      31.679  20.254  25.029  1.00  0.00    -0.070 C 
ATOM      7  C   UNL     1      31.164  19.680  23.729  1.00  0.00     0.039 C 
ATOM      8  C   UNL     1      32.048  21.719  25.033  1.00  0.00     0.039 C 
ATOM      9  C   UNL     1      31.361  18.066  26.212  1.00  0.00     0.159 C 
ATOM     10  O   UNL     1      30.389  17.669  25.517  1.00  0.00    -0.295 OA
ATOM     11  C   UNL     1      32.036  17.087  27.129  1.00  0.00     0.084 C 
ENDROOT
TORSDOF 0
ENDMDL
MODEL 6
REMARK VINA RESULT:    -5.568      1.097      4.163
REMARK INTER + INTRA:          -5.568
REMARK INTER:                  -5.568
REMARK INTRA:                   0.000
REMARK UNBOUND:                 0.000
REMARK SMILES CC(C)=C1CC[C@H](C)CC1=O
REMARK SMILES IDX 8 1 7 2 6 3 5 4 4 5 2 6 1 7 3 8 10 9 11 10 9 11
REMARK H PARENT
REMARK Flexibility Score: inf
ROOT
ATOM      1  C   UNL     1      34.318  21.529  27.111  1.00  0.00     0.008 C 
ATOM      2  C   UNL     1      33.162  20.556  27.364  1.00  0.00    -0.006 C 
ATOM      3  C   UNL     1      32.530  20.109  26.037  1.00  0.00     0.008 C 
ATOM      4  C   UNL     1      31.306  19.215  26.275  1.00  0.00     0.039 C 
ATOM      5  C   UNL     1      31.610  18.045  27.201  1.00  0.00    -0.006 C 
ATOM      6  C   UNL     1      30.968  16.847  27.063  1.00  0.00    -0.070 C 
ATOM      7  C   UNL     1      31.301  15.661  27.940  1.00  0.00     0.039 C 
ATOM      8  C   UNL     1      29.918  16.637  25.997  1.00  0.00     0.039 C 
ATOM      9  C   UNL     1      32.552  18.326  28.325  1.00  0.00     0.159 C 
ATOM     10  O   UNL     1      32.442  17.737  29.433  1.00  0.00    -0.295 OA
ATOM     11  C   UNL     1      33.653  19.331  28.151  1.00  0.00     0.084 C 
ENDROOT
TORSDOF 0
ENDMDL
MODEL 7
REMARK VINA RESULT:    -5.533      1.568      4.571
REMARK INTER + INTRA:          -5.533
REMARK INTER:                  -5.533
REMARK INTRA:                   0.000
REMARK UNBOUND:                 0.000
REMARK SMILES CC(C)=C1CC[C@H](C)CC1=O
REMARK SMILES IDX 8 1 7 2 6 3 5 4 4 5 2 6 1 7 3 8 10 9 11 10 9 11
REMARK H PARENT
REMARK Flexibility Score: inf
ROOT
ATOM      1  C   UNL     1      33.402  20.954  27.513  1.00  0.00     0.008 C 
ATOM      2  C   UNL     1      32.938  19.523  27.219  1.00  0.00    -0.006 C 
ATOM      3  C   UNL     1      32.565  18.797  28.521  1.00  0.00     0.008 C 
ATOM      4  C   UNL     1      32.196  17.332  28.256  1.00  0.00     0.039 C 
ATOM      5  C   UNL     1      31.130  17.184  27.178  1.00  0.00    -0.006 C 
ATOM      6  C   UNL     1      30.225  16.162  27.212  1.00  0.00    -0.070 C 
ATOM      7  C   UNL     1      29.127  16.037  26.180  1.00  0.00     0.039 C 
ATOM      8  C   UNL     1      30.254  15.124  28.310  1.00  0.00     0.039 C 
ATOM      9  C   UNL     1      31.213  18.145  26.038  1.00  0.00     0.159 C 
ATOM     10  O   UNL     1      30.855  17.815  24.877  1.00  0.00    -0.295 OA
ATOM     11  C   UNL     1      31.737  19.534  26.261  1.00  0.00     0.084 C 
ENDROOT
TORSDOF 0
ENDMDL
MODEL 8
REMARK VINA RESULT:    -5.457      1.479      2.027
REMARK INTER + INTRA:          -5.457
REMARK INTER:                  -5.457
REMARK INTRA:                   0.000
REMARK UNBOUND:                 0.000
REMARK SMILES CC(C)=C1CC[C@H](C)CC1=O
REMARK SMILES IDX 8 1 7 2 6 3 5 4 4 5 2 6 1 7 3 8 10 9 11 10 9 11
REMARK H PARENT
REMARK Flexibility Score: inf
ROOT
ATOM      1  C   UNL     1      31.602  16.329  28.627  1.00  0.00     0.008 C 
ATOM      2  C   UNL     1      32.094  17.361  27.606  1.00  0.00    -0.006 C 
ATOM      3  C   UNL     1      31.041  17.581  26.509  1.00  0.00     0.008 C 
ATOM      4  C   UNL     1      31.558  18.534  25.424  1.00  0.00     0.039 C 
ATOM      5  C   UNL     1      32.085  19.842  25.999  1.00  0.00    -0.006 C 
ATOM      6  C   UNL     1      31.989  21.013  25.301  1.00  0.00    -0.070 C 
ATOM      7  C   UNL     1      32.457  22.327  25.885  1.00  0.00     0.039 C 
ATOM      8  C   UNL     1      31.372  21.057  23.923  1.00  0.00     0.039 C 
ATOM      9  C   UNL     1      32.808  19.742  27.302  1.00  0.00     0.159 C 
ATOM     10  O   UNL     1      33.756  20.520  27.585  1.00  0.00    -0.295 OA
ATOM     11  C   UNL     1      32.415  18.693  28.301  1.00  0.00     0.084 C 
ENDROOT
TORSDOF 0
ENDMDL
MODEL 9
REMARK VINA RESULT:    -5.110      2.128      3.799
REMARK INTER + INTRA:          -5.110
REMARK INTER:                  -5.110
REMARK INTRA:                   0.000
REMARK UNBOUND:                 0.000
REMARK SMILES CC(C)=C1CC[C@H](C)CC1=O
REMARK SMILES IDX 8 1 7 2 6 3 5 4 4 5 2 6 1 7 3 8 10 9 11 10 9 11
REMARK H PARENT
REMARK Flexibility Score: inf
ROOT
ATOM      1  C   UNL     1      31.775  18.026  21.742  1.00  0.00     0.008 C 
ATOM      2  C   UNL     1      32.124  18.376  23.192  1.00  0.00    -0.006 C 
ATOM      3  C   UNL     1      31.840  19.859  23.474  1.00  0.00     0.008 C 
ATOM      4  C   UNL     1      32.279  20.252  24.891  1.00  0.00     0.039 C 
ATOM      5  C   UNL     1      31.699  19.332  25.957  1.00  0.00    -0.006 C 
ATOM      6  C   UNL     1      31.403  19.796  27.208  1.00  0.00    -0.070 C 
ATOM      7  C   UNL     1      30.775  18.907  28.257  1.00  0.00     0.039 C 
ATOM      8  C   UNL     1      31.655  21.235  27.592  1.00  0.00     0.039 C 
ATOM      9  C   UNL     1      31.588  17.889  25.589  1.00  0.00     0.159 C 
ATOM     10  O   UNL     1      31.716  16.982  26.454  1.00  0.00    -0.295 OA
ATOM     11  C   UNL     1      31.327  17.494  24.165  1.00  0.00     0.084 C 
ENDROOT
TORSDOF 0
ENDMDL
