MODEL 1
REMARK VINA RESULT:    -2.715      0.000      0.000
REMARK INTER + INTRA:          -4.259
REMARK INTER:                  -3.350
REMARK INTRA:                  -0.908
REMARK UNBOUND:                -0.908
REMARK SMILES CCCCCc1ccccc1
REMARK SMILES IDX 4 1 3 2 2 3 1 4 5 5 6 6 7 7 11 8 8 9 10 10 9 11
REMARK H PARENT
REMARK Flexibility Score: inf
ROOT
ATOM      1  C   UNL     1      75.897  89.112  92.259  1.00  0.00     0.005 C 
ENDROOT
BRANCH   1   2
ATOM      2  C   UNL     1      76.508  87.881  92.960  1.00  0.00     0.000 C 
BRANCH   2   3
ATOM      3  C   UNL     1      76.940  86.747  92.013  1.00  0.00    -0.003 C 
ATOM      4  C   UNL     1      75.974  85.563  92.018  1.00  0.00     0.004 C 
ENDBRANCH   2   3
ENDBRANCH   1   2
BRANCH   1   5
ATOM      5  C   UNL     1      74.424  89.379  92.613  1.00  0.00     0.035 C 
BRANCH   5   6
ATOM      6  C   UNL     1      73.520  88.255  92.175  1.00  0.00    -0.048 A 
ATOM      7  C   UNL     1      72.833  87.479  93.124  1.00  0.00     0.004 A 
ATOM      8  C   UNL     1      73.377  87.954  90.809  1.00  0.00     0.004 A 
ATOM      9  C   UNL     1      72.014  86.424  92.713  1.00  0.00     0.000 A 
ATOM     10  C   UNL     1      72.556  86.897  90.402  1.00  0.00     0.000 A 
ATOM     11  C   UNL     1      71.875  86.134  91.353  1.00  0.00     0.000 A 
ENDBRANCH   5   6
ENDBRANCH   1   5
TORSDOF 4
ENDMDL
MODEL 2
REMARK VINA RESULT:    -2.714     16.175     17.793
REMARK INTER + INTRA:          -4.257
REMARK INTER:                  -4.014
REMARK INTRA:                  -0.243
REMARK UNBOUND:                -0.908
REMARK SMILES CCCCCc1ccccc1
REMARK SMILES IDX 4 1 3 2 2 3 1 4 5 5 6 6 7 7 11 8 8 9 10 10 9 11
REMARK H PARENT
REMARK Flexibility Score: inf
ROOT
ATOM      1  C   UNL     1      74.975  87.017  74.955  1.00  0.00     0.005 C 
ENDROOT
BRANCH   1   2
ATOM      2  C   UNL     1      74.380  85.593  74.960  1.00  0.00     0.000 C 
BRANCH   2   3
ATOM      3  C   UNL     1      74.256  84.950  76.353  1.00  0.00    -0.003 C 
ATOM      4  C   UNL     1      73.007  85.400  77.109  1.00  0.00     0.004 C 
ENDBRANCH   2   3
ENDBRANCH   1   2
BRANCH   1   5
ATOM      5  C   UNL     1      74.785  87.781  73.634  1.00  0.00     0.035 C 
BRANCH   5   6
ATOM      6  C   UNL     1      74.630  89.264  73.850  1.00  0.00    -0.048 A 
ATOM      7  C   UNL     1      75.253  89.897  74.939  1.00  0.00     0.004 A 
ATOM      8  C   UNL     1      73.834  90.027  72.977  1.00  0.00     0.004 A 
ATOM      9  C   UNL     1      75.086  91.269  75.148  1.00  0.00     0.000 A 
ATOM     10  C   UNL     1      73.670  91.399  73.189  1.00  0.00     0.000 A 
ATOM     11  C   UNL     1      74.296  92.020  74.273  1.00  0.00     0.000 A 
ENDBRANCH   5   6
ENDBRANCH   1   5
TORSDOF 4
ENDMDL
MODEL 3
REMARK VINA RESULT:    -2.680     15.429     16.817
REMARK INTER + INTRA:          -4.214
REMARK INTER:                  -3.925
REMARK INTRA:                  -0.289
REMARK UNBOUND:                -0.908
REMARK SMILES CCCCCc1ccccc1
REMARK SMILES IDX 4 1 3 2 2 3 1 4 5 5 6 6 7 7 11 8 8 9 10 10 9 11
REMARK H PARENT
REMARK Flexibility Score: inf
ROOT
ATOM      1  C   UNL     1      76.002  91.374  77.174  1.00  0.00     0.005 C 
ENDROOT
BRANCH   1   2
ATOM      2  C   UNL     1      75.512  91.907  78.536  1.00  0.00     0.000 C 
BRANCH   2   3
ATOM      3  C   UNL     1      74.889  90.844  79.459  1.00  0.00    -0.003 C 
ATOM      4  C   UNL     1      73.601  91.320  80.131  1.00  0.00     0.004 C 
ENDBRANCH   2   3
ENDBRANCH   1   2
BRANCH   1   5
ATOM      5  C   UNL     1      75.427  92.117  75.956  1.00  0.00     0.035 C 
BRANCH   5   6
ATOM      6  C   UNL     1      74.947  91.170  74.885  1.00  0.00    -0.048 A 
ATOM      7  C   UNL     1      74.055  91.608  73.891  1.00  0.00     0.004 A 
ATOM      8  C   UNL     1      75.367  89.828  74.887  1.00  0.00     0.004 A 
ATOM      9  C   UNL     1      73.596  90.720  72.915  1.00  0.00     0.000 A 
ATOM     10  C   UNL     1      74.905  88.943  73.908  1.00  0.00     0.000 A 
ATOM     11  C   UNL     1      74.022  89.389  72.923  1.00  0.00     0.000 A 
ENDBRANCH   5   6
ENDBRANCH   1   5
TORSDOF 4
ENDMDL
MODEL 4
REMARK VINA RESULT:    -2.634      1.434      4.185
REMARK INTER + INTRA:          -4.159
REMARK INTER:                  -3.320
REMARK INTRA:                  -0.838
REMARK UNBOUND:                -0.908
REMARK SMILES CCCCCc1ccccc1
REMARK SMILES IDX 4 1 3 2 2 3 1 4 5 5 6 6 7 7 11 8 8 9 10 10 9 11
REMARK H PARENT
REMARK Flexibility Score: inf
ROOT
ATOM      1  C   UNL     1      73.102  87.163  92.109  1.00  0.00     0.005 C 
ENDROOT
BRANCH   1   2
ATOM      2  C   UNL     1      73.074  87.623  90.637  1.00  0.00     0.000 C 
BRANCH   2   3
ATOM      3  C   UNL     1      74.153  86.990  89.741  1.00  0.00    -0.003 C 
ATOM      4  C   UNL     1      75.236  87.982  89.319  1.00  0.00     0.004 C 
ENDBRANCH   2   3
ENDBRANCH   1   2
BRANCH   1   5
ATOM      5  C   UNL     1      73.339  88.293  93.125  1.00  0.00     0.035 C 
BRANCH   5   6
ATOM      6  C   UNL     1      74.668  88.974  92.920  1.00  0.00    -0.048 A 
ATOM      7  C   UNL     1      75.864  88.237  92.965  1.00  0.00     0.004 A 
ATOM      8  C   UNL     1      74.725  90.363  92.709  1.00  0.00     0.004 A 
ATOM      9  C   UNL     1      77.094  88.878  92.797  1.00  0.00     0.000 A 
ATOM     10  C   UNL     1      75.959  91.000  92.542  1.00  0.00     0.000 A 
ATOM     11  C   UNL     1      77.142  90.259  92.585  1.00  0.00     0.000 A 
ENDBRANCH   5   6
ENDBRANCH   1   5
TORSDOF 4
ENDMDL
MODEL 5
REMARK VINA RESULT:    -2.594      1.532      4.828
REMARK INTER + INTRA:          -4.108
REMARK INTER:                  -3.815
REMARK INTRA:                  -0.293
REMARK UNBOUND:                -0.908
REMARK SMILES CCCCCc1ccccc1
REMARK SMILES IDX 4 1 3 2 2 3 1 4 5 5 6 6 7 7 11 8 8 9 10 10 9 11
REMARK H PARENT
REMARK Flexibility Score: inf
ROOT
ATOM      1  C   UNL     1      73.680  88.441  92.044  1.00  0.00     0.005 C 
ENDROOT
BRANCH   1   2
ATOM      2  C   UNL     1      72.917  87.577  93.069  1.00  0.00     0.000 C 
BRANCH   2   3
ATOM      3  C   UNL     1      71.883  86.613  92.460  1.00  0.00    -0.003 C 
ATOM      4  C   UNL     1      72.038  86.450  90.948  1.00  0.00     0.004 C 
ENDBRANCH   2   3
ENDBRANCH   1   2
BRANCH   1   5
ATOM      5  C   UNL     1      74.120  89.816  92.573  1.00  0.00     0.035 C 
BRANCH   5   6
ATOM      6  C   UNL     1      75.620  89.965  92.594  1.00  0.00    -0.048 A 
ATOM      7  C   UNL     1      76.441  88.885  92.961  1.00  0.00     0.004 A 
ATOM      8  C   UNL     1      76.213  91.199  92.273  1.00  0.00     0.004 A 
ATOM      9  C   UNL     1      77.830  89.036  93.001  1.00  0.00     0.000 A 
ATOM     10  C   UNL     1      77.603  91.346  92.314  1.00  0.00     0.000 A 
ATOM     11  C   UNL     1      78.410  90.266  92.677  1.00  0.00     0.000 A 
ENDBRANCH   5   6
ENDBRANCH   1   5
TORSDOF 4
ENDMDL
MODEL 6
REMARK VINA RESULT:    -2.577     17.421     18.624
REMARK INTER + INTRA:          -4.088
REMARK INTER:                  -3.843
REMARK INTRA:                  -0.244
REMARK UNBOUND:                -0.908
REMARK SMILES CCCCCc1ccccc1
REMARK SMILES IDX 4 1 3 2 2 3 1 4 5 5 6 6 7 7 11 8 8 9 10 10 9 11
REMARK H PARENT
REMARK Flexibility Score: inf
ROOT
ATOM      1  C   UNL     1      74.887  86.789  74.482  1.00  0.00     0.005 C 
ENDROOT
BRANCH   1   2
ATOM      2  C   UNL     1      74.461  85.316  74.309  1.00  0.00     0.000 C 
BRANCH   2   3
ATOM      3  C   UNL     1      75.091  84.598  73.102  1.00  0.00    -0.003 C 
ATOM      4  C   UNL     1      74.523  83.198  72.876  1.00  0.00     0.004 C 
ENDBRANCH   2   3
ENDBRANCH   1   2
BRANCH   1   5
ATOM      5  C   UNL     1      74.537  87.696  73.290  1.00  0.00     0.035 C 
BRANCH   5   6
ATOM      6  C   UNL     1      74.526  89.155  73.669  1.00  0.00    -0.048 A 
ATOM      7  C   UNL     1      73.838  90.093  72.880  1.00  0.00     0.004 A 
ATOM      8  C   UNL     1      75.229  89.596  74.804  1.00  0.00     0.004 A 
ATOM      9  C   UNL     1      73.851  91.448  73.224  1.00  0.00     0.000 A 
ATOM     10  C   UNL     1      75.239  90.953  75.144  1.00  0.00     0.000 A 
ATOM     11  C   UNL     1      74.550  91.877  74.356  1.00  0.00     0.000 A 
ENDBRANCH   5   6
ENDBRANCH   1   5
TORSDOF 4
ENDMDL
MODEL 7
REMARK VINA RESULT:    -2.562     17.220     18.524
REMARK INTER + INTRA:          -4.069
REMARK INTER:                  -3.209
REMARK INTRA:                  -0.860
REMARK UNBOUND:                -0.908
REMARK SMILES CCCCCc1ccccc1
REMARK SMILES IDX 4 1 3 2 2 3 1 4 5 5 6 6 7 7 11 8 8 9 10 10 9 11
REMARK H PARENT
REMARK Flexibility Score: inf
ROOT
ATOM      1  C   UNL     1      77.990  88.946  74.239  1.00  0.00     0.005 C 
ENDROOT
BRANCH   1   2
ATOM      2  C   UNL     1      77.852  89.690  75.583  1.00  0.00     0.000 C 
BRANCH   2   3
ATOM      3  C   UNL     1      76.562  89.379  76.365  1.00  0.00    -0.003 C 
ATOM      4  C   UNL     1      75.773  90.633  76.737  1.00  0.00     0.004 C 
ENDBRANCH   2   3
ENDBRANCH   1   2
BRANCH   1   5
ATOM      5  C   UNL     1      77.670  89.801  73.002  1.00  0.00     0.035 C 
BRANCH   5   6
ATOM      6  C   UNL     1      76.248  90.301  73.007  1.00  0.00    -0.048 A 
ATOM      7  C   UNL     1      75.972  91.671  73.153  1.00  0.00     0.004 A 
ATOM      8  C   UNL     1      75.179  89.394  72.893  1.00  0.00     0.004 A 
ATOM      9  C   UNL     1      74.650  92.125  73.180  1.00  0.00     0.000 A 
ATOM     10  C   UNL     1      73.859  89.853  72.920  1.00  0.00     0.000 A 
ATOM     11  C   UNL     1      73.594  91.216  73.062  1.00  0.00     0.000 A 
ENDBRANCH   5   6
ENDBRANCH   1   5
TORSDOF 4
ENDMDL
MODEL 8
REMARK VINA RESULT:    -2.554     15.451     16.810
REMARK INTER + INTRA:          -4.059
REMARK INTER:                  -3.637
REMARK INTRA:                  -0.423
REMARK UNBOUND:                -0.908
REMARK SMILES CCCCCc1ccccc1
REMARK SMILES IDX 4 1 3 2 2 3 1 4 5 5 6 6 7 7 11 8 8 9 10 10 9 11
REMARK H PARENT
REMARK Flexibility Score: inf
ROOT
ATOM      1  C   UNL     1      76.551  90.236  77.085  1.00  0.00     0.005 C 
ENDROOT
BRANCH   1   2
ATOM      2  C   UNL     1      75.644  90.154  78.330  1.00  0.00     0.000 C 
BRANCH   2   3
ATOM      3  C   UNL     1      75.225  91.514  78.915  1.00  0.00    -0.003 C 
ATOM      4  C   UNL     1      74.184  91.391  80.028  1.00  0.00     0.004 C 
ENDBRANCH   2   3
ENDBRANCH   1   2
BRANCH   1   5
ATOM      5  C   UNL     1      76.266  91.438  76.168  1.00  0.00     0.035 C 
BRANCH   5   6
ATOM      6  C   UNL     1      75.303  91.094  75.061  1.00  0.00    -0.048 A 
ATOM      7  C   UNL     1      75.291  89.807  74.497  1.00  0.00     0.004 A 
ATOM      8  C   UNL     1      74.422  92.071  74.561  1.00  0.00     0.004 A 
ATOM      9  C   UNL     1      74.412  89.502  73.455  1.00  0.00     0.000 A 
ATOM     10  C   UNL     1      73.544  91.761  73.518  1.00  0.00     0.000 A 
ATOM     11  C   UNL     1      73.538  90.478  72.966  1.00  0.00     0.000 A 
ENDBRANCH   5   6
ENDBRANCH   1   5
TORSDOF 4
ENDMDL
MODEL 9
REMARK VINA RESULT:    -1.681     17.450     18.544
REMARK INTER + INTRA:          -2.982
REMARK INTER:                  -2.393
REMARK INTRA:                  -0.589
REMARK UNBOUND:                -0.908
REMARK SMILES CCCCCc1ccccc1
REMARK SMILES IDX 4 1 3 2 2 3 1 4 5 5 6 6 7 7 11 8 8 9 10 10 9 11
REMARK H PARENT
REMARK Flexibility Score: inf
ROOT
ATOM      1  C   UNL     1      75.794  87.038  74.397  1.00  0.00     0.005 C 
ENDROOT
BRANCH   1   2
ATOM      2  C   UNL     1      77.126  86.962  73.623  1.00  0.00     0.000 C 
BRANCH   2   3
ATOM      3  C   UNL     1      78.165  88.026  74.020  1.00  0.00    -0.003 C 
ATOM      4  C   UNL     1      78.499  88.989  72.882  1.00  0.00     0.004 C 
ENDBRANCH   2   3
ENDBRANCH   1   2
BRANCH   1   5
ATOM      5  C   UNL     1      74.638  87.684  73.614  1.00  0.00     0.035 C 
BRANCH   5   6
ATOM      6  C   UNL     1      74.589  89.179  73.801  1.00  0.00    -0.048 A 
ATOM      7  C   UNL     1      75.201  89.781  74.914  1.00  0.00     0.004 A 
ATOM      8  C   UNL     1      73.903  89.985  72.875  1.00  0.00     0.004 A 
ATOM      9  C   UNL     1      75.132  91.165  75.093  1.00  0.00     0.000 A 
ATOM     10  C   UNL     1      73.837  91.370  73.059  1.00  0.00     0.000 A 
ATOM     11  C   UNL     1      74.451  91.959  74.166  1.00  0.00     0.000 A 
ENDBRANCH   5   6
ENDBRANCH   1   5
TORSDOF 4
ENDMDL
