MODEL 1
REMARK VINA RESULT:    -3.123      0.000      0.000
REMARK INTER + INTRA:          -3.764
REMARK INTER:                  -3.762
REMARK INTRA:                  -0.003
REMARK UNBOUND:                -0.003
REMARK SMILES OCC(O)CO
REMARK SMILES IDX 3 1 5 2 6 3 2 5 1 6 4 8
REMARK H PARENT 6 4 1 7 4 9
REMARK Flexibility Score: inf
ROOT
ATOM      1  C   UNL     1     -20.856  26.268  18.494  1.00  0.00     0.165 C 
ENDROOT
BRANCH   1   2
ATOM      2  C   UNL     1     -19.643  26.989  19.099  1.00  0.00     0.190 C 
BRANCH   2   3
ATOM      3  O   UNL     1     -18.845  27.539  18.085  1.00  0.00    -0.394 OA
ATOM      4  H   UNL     1     -19.330  28.334  17.742  1.00  0.00     0.210 HD
ENDBRANCH   2   3
ENDBRANCH   1   2
BRANCH   1   5
ATOM      5  C   UNL     1     -22.171  26.809  19.080  1.00  0.00     0.190 C 
BRANCH   5   6
ATOM      6  O   UNL     1     -23.150  25.805  19.125  1.00  0.00    -0.394 OA
ATOM      7  H   UNL     1     -22.679  24.943  18.980  1.00  0.00     0.210 HD
ENDBRANCH   5   6
ENDBRANCH   1   5
BRANCH   1   8
ATOM      8  O   UNL     1     -20.752  24.894  18.762  1.00  0.00    -0.388 OA
ATOM      9  H   UNL     1     -20.016  24.785  19.422  1.00  0.00     0.211 HD
ENDBRANCH   1   8
TORSDOF 5
ENDMDL
MODEL 2
REMARK VINA RESULT:    -3.080      1.541      2.519
REMARK INTER + INTRA:          -3.713
REMARK INTER:                  -3.695
REMARK INTRA:                  -0.018
REMARK UNBOUND:                -0.003
REMARK SMILES OCC(O)CO
REMARK SMILES IDX 3 1 5 2 6 3 2 5 1 6 4 8
REMARK H PARENT 6 4 1 7 4 9
REMARK Flexibility Score: inf
ROOT
ATOM      1  C   UNL     1     -21.956  27.194  19.066  1.00  0.00     0.165 C 
ENDROOT
BRANCH   1   2
ATOM      2  C   UNL     1     -22.202  28.536  18.361  1.00  0.00     0.190 C 
BRANCH   2   3
ATOM      3  O   UNL     1     -21.676  28.509  17.062  1.00  0.00    -0.394 OA
ATOM      4  H   UNL     1     -20.704  28.698  17.144  1.00  0.00     0.210 HD
ENDBRANCH   2   3
ENDBRANCH   1   2
BRANCH   1   5
ATOM      5  C   UNL     1     -20.786  26.435  18.418  1.00  0.00     0.190 C 
BRANCH   5   6
ATOM      6  O   UNL     1     -20.962  25.048  18.536  1.00  0.00    -0.394 OA
ATOM      7  H   UNL     1     -20.888  24.834  19.502  1.00  0.00     0.210 HD
ENDBRANCH   5   6
ENDBRANCH   1   5
BRANCH   1   8
ATOM      8  O   UNL     1     -23.121  26.416  18.988  1.00  0.00    -0.388 OA
ATOM      9  H   UNL     1     -23.246  25.995  19.880  1.00  0.00     0.211 HD
ENDBRANCH   1   8
TORSDOF 5
ENDMDL
MODEL 3
REMARK VINA RESULT:    -2.885      1.749      2.690
REMARK INTER + INTRA:          -3.477
REMARK INTER:                  -3.475
REMARK INTRA:                  -0.003
REMARK UNBOUND:                -0.003
REMARK SMILES OCC(O)CO
REMARK SMILES IDX 3 1 5 2 6 3 2 5 1 6 4 8
REMARK H PARENT 6 4 1 7 4 9
REMARK Flexibility Score: inf
ROOT
ATOM      1  C   UNL     1     -21.778  27.092  18.269  1.00  0.00     0.165 C 
ENDROOT
BRANCH   1   2
ATOM      2  C   UNL     1     -20.559  26.351  18.837  1.00  0.00     0.190 C 
BRANCH   2   3
ATOM      3  O   UNL     1     -20.773  24.965  18.806  1.00  0.00    -0.394 OA
ATOM      4  H   UNL     1     -20.877  24.715  17.851  1.00  0.00     0.210 HD
ENDBRANCH   2   3
ENDBRANCH   1   2
BRANCH   1   5
ATOM      5  C   UNL     1     -21.607  28.616  18.394  1.00  0.00     0.190 C 
BRANCH   5   6
ATOM      6  O   UNL     1     -21.771  29.242  17.149  1.00  0.00    -0.394 OA
ATOM      7  H   UNL     1     -22.387  30.007  17.295  1.00  0.00     0.210 HD
ENDBRANCH   5   6
ENDBRANCH   1   5
BRANCH   1   8
ATOM      8  O   UNL     1     -22.926  26.690  18.969  1.00  0.00    -0.388 OA
ATOM      9  H   UNL     1     -22.628  26.418  19.877  1.00  0.00     0.211 HD
ENDBRANCH   1   8
TORSDOF 5
ENDMDL
MODEL 4
REMARK VINA RESULT:    -2.827     23.234     23.947
REMARK INTER + INTRA:          -3.408
REMARK INTER:                  -3.396
REMARK INTRA:                  -0.012
REMARK UNBOUND:                -0.003
REMARK SMILES OCC(O)CO
REMARK SMILES IDX 3 1 5 2 6 3 2 5 1 6 4 8
REMARK H PARENT 6 4 1 7 4 9
REMARK Flexibility Score: inf
ROOT
ATOM      1  C   UNL     1     -14.595  13.141  -0.304  1.00  0.00     0.165 C 
ENDROOT
BRANCH   1   2
ATOM      2  C   UNL     1     -14.822  13.521   1.166  1.00  0.00     0.190 C 
BRANCH   2   3
ATOM      3  O   UNL     1     -16.106  13.138   1.577  1.00  0.00    -0.394 OA
ATOM      4  H   UNL     1     -16.225  13.486   2.499  1.00  0.00     0.210 HD
ENDBRANCH   2   3
ENDBRANCH   1   2
BRANCH   1   5
ATOM      5  C   UNL     1     -13.103  12.900  -0.590  1.00  0.00     0.190 C 
BRANCH   5   6
ATOM      6  O   UNL     1     -12.562  11.975   0.316  1.00  0.00    -0.394 OA
ATOM      7  H   UNL     1     -12.789  11.073  -0.029  1.00  0.00     0.210 HD
ENDBRANCH   5   6
ENDBRANCH   1   5
BRANCH   1   8
ATOM      8  O   UNL     1     -15.068  14.178  -1.124  1.00  0.00    -0.388 OA
ATOM      9  H   UNL     1     -16.029  13.993  -1.295  1.00  0.00     0.211 HD
ENDBRANCH   1   8
TORSDOF 5
ENDMDL
MODEL 5
REMARK VINA RESULT:    -2.827      1.755      2.521
REMARK INTER + INTRA:          -3.408
REMARK INTER:                  -3.404
REMARK INTRA:                  -0.004
REMARK UNBOUND:                -0.003
REMARK SMILES OCC(O)CO
REMARK SMILES IDX 3 1 5 2 6 3 2 5 1 6 4 8
REMARK H PARENT 6 4 1 7 4 9
REMARK Flexibility Score: inf
ROOT
ATOM      1  C   UNL     1     -20.216  27.266  17.981  1.00  0.00     0.165 C 
ENDROOT
BRANCH   1   2
ATOM      2  C   UNL     1     -21.089  28.526  18.060  1.00  0.00     0.190 C 
BRANCH   2   3
ATOM      3  O   UNL     1     -21.637  28.820  16.803  1.00  0.00    -0.394 OA
ATOM      4  H   UNL     1     -21.109  29.575  16.432  1.00  0.00     0.210 HD
ENDBRANCH   2   3
ENDBRANCH   1   2
BRANCH   1   5
ATOM      5  C   UNL     1     -20.564  26.280  19.110  1.00  0.00     0.190 C 
BRANCH   5   6
ATOM      6  O   UNL     1     -21.003  25.054  18.587  1.00  0.00    -0.394 OA
ATOM      7  H   UNL     1     -21.699  25.266  17.912  1.00  0.00     0.210 HD
ENDBRANCH   5   6
ENDBRANCH   1   5
BRANCH   1   8
ATOM      8  O   UNL     1     -18.866  27.637  18.083  1.00  0.00    -0.388 OA
ATOM      9  H   UNL     1     -18.772  28.509  17.616  1.00  0.00     0.211 HD
ENDBRANCH   1   8
TORSDOF 5
ENDMDL
MODEL 6
REMARK VINA RESULT:    -2.750      5.576      6.723
REMARK INTER + INTRA:          -3.315
REMARK INTER:                  -3.091
REMARK INTRA:                  -0.224
REMARK UNBOUND:                -0.003
REMARK SMILES OCC(O)CO
REMARK SMILES IDX 3 1 5 2 6 3 2 5 1 6 4 8
REMARK H PARENT 6 4 1 7 4 9
REMARK Flexibility Score: inf
ROOT
ATOM      1  C   UNL     1     -17.592  29.743  14.364  1.00  0.00     0.165 C 
ENDROOT
BRANCH   1   2
ATOM      2  C   UNL     1     -17.903  30.651  13.166  1.00  0.00     0.190 C 
BRANCH   2   3
ATOM      3  O   UNL     1     -19.221  31.124  13.241  1.00  0.00    -0.394 OA
ATOM      4  H   UNL     1     -19.180  32.104  13.084  1.00  0.00     0.210 HD
ENDBRANCH   2   3
ENDBRANCH   1   2
BRANCH   1   5
ATOM      5  C   UNL     1     -18.100  30.365  15.677  1.00  0.00     0.190 C 
BRANCH   5   6
ATOM      6  O   UNL     1     -19.422  29.976  15.936  1.00  0.00    -0.394 OA
ATOM      7  H   UNL     1     -19.769  30.595  16.631  1.00  0.00     0.210 HD
ENDBRANCH   5   6
ENDBRANCH   1   5
BRANCH   1   8
ATOM      8  O   UNL     1     -16.203  29.550  14.443  1.00  0.00    -0.388 OA
ATOM      9  H   UNL     1     -16.032  29.027  15.271  1.00  0.00     0.211 HD
ENDBRANCH   1   8
TORSDOF 5
ENDMDL
MODEL 7
REMARK VINA RESULT:    -2.703      5.254      6.462
REMARK INTER + INTRA:          -3.258
REMARK INTER:                  -3.041
REMARK INTRA:                  -0.217
REMARK UNBOUND:                -0.003
REMARK SMILES OCC(O)CO
REMARK SMILES IDX 3 1 5 2 6 3 2 5 1 6 4 8
REMARK H PARENT 6 4 1 7 4 9
REMARK Flexibility Score: inf
ROOT
ATOM      1  C   UNL     1     -18.140  30.805  14.530  1.00  0.00     0.165 C 
ENDROOT
BRANCH   1   2
ATOM      2  C   UNL     1     -17.330  29.638  13.946  1.00  0.00     0.190 C 
BRANCH   2   3
ATOM      3  O   UNL     1     -16.095  29.525  14.599  1.00  0.00    -0.394 OA
ATOM      4  H   UNL     1     -16.031  30.297  15.221  1.00  0.00     0.210 HD
ENDBRANCH   2   3
ENDBRANCH   1   2
BRANCH   1   5
ATOM      5  C   UNL     1     -18.674  30.461  15.931  1.00  0.00     0.190 C 
BRANCH   5   6
ATOM      6  O   UNL     1     -18.356  29.140  16.279  1.00  0.00    -0.394 OA
ATOM      7  H   UNL     1     -18.412  28.605  15.444  1.00  0.00     0.210 HD
ENDBRANCH   5   6
ENDBRANCH   1   5
BRANCH   1   8
ATOM      8  O   UNL     1     -19.216  31.089  13.675  1.00  0.00    -0.388 OA
ATOM      9  H   UNL     1     -18.985  31.927  13.192  1.00  0.00     0.211 HD
ENDBRANCH   1   8
TORSDOF 5
ENDMDL
MODEL 8
REMARK VINA RESULT:    -2.697      5.990      6.989
REMARK INTER + INTRA:          -3.252
REMARK INTER:                  -3.045
REMARK INTRA:                  -0.207
REMARK UNBOUND:                -0.003
REMARK SMILES OCC(O)CO
REMARK SMILES IDX 3 1 5 2 6 3 2 5 1 6 4 8
REMARK H PARENT 6 4 1 7 4 9
REMARK Flexibility Score: inf
ROOT
ATOM      1  C   UNL     1     -17.355  30.492  14.057  1.00  0.00     0.165 C 
ENDROOT
BRANCH   1   2
ATOM      2  C   UNL     1     -18.089  30.910  15.339  1.00  0.00     0.190 C 
BRANCH   2   3
ATOM      3  O   UNL     1     -19.115  30.000  15.633  1.00  0.00    -0.394 OA
ATOM      4  H   UNL     1     -19.292  30.077  16.607  1.00  0.00     0.210 HD
ENDBRANCH   2   3
ENDBRANCH   1   2
BRANCH   1   5
ATOM      5  C   UNL     1     -18.328  30.389  12.870  1.00  0.00     0.190 C 
BRANCH   5   6
ATOM      6  O   UNL     1     -19.497  31.125  13.115  1.00  0.00    -0.394 OA
ATOM      7  H   UNL     1     -19.228  31.914  13.655  1.00  0.00     0.210 HD
ENDBRANCH   5   6
ENDBRANCH   1   5
BRANCH   1   8
ATOM      8  O   UNL     1     -16.738  29.249  14.267  1.00  0.00    -0.388 OA
ATOM      9  H   UNL     1     -15.975  29.196  13.631  1.00  0.00     0.211 HD
ENDBRANCH   1   8
TORSDOF 5
ENDMDL
MODEL 9
REMARK VINA RESULT:    -2.691      6.922      7.231
REMARK INTER + INTRA:          -3.245
REMARK INTER:                  -3.242
REMARK INTRA:                  -0.003
REMARK UNBOUND:                -0.003
REMARK SMILES OCC(O)CO
REMARK SMILES IDX 3 1 5 2 6 3 2 5 1 6 4 8
REMARK H PARENT 6 4 1 7 4 9
REMARK Flexibility Score: inf
ROOT
ATOM      1  C   UNL     1     -16.974  30.212  13.835  1.00  0.00     0.165 C 
ENDROOT
BRANCH   1   2
ATOM      2  C   UNL     1     -15.688  30.611  14.574  1.00  0.00     0.190 C 
BRANCH   2   3
ATOM      3  O   UNL     1     -15.118  29.495  15.202  1.00  0.00    -0.394 OA
ATOM      4  H   UNL     1     -15.849  29.046  15.702  1.00  0.00     0.210 HD
ENDBRANCH   2   3
ENDBRANCH   1   2
BRANCH   1   5
ATOM      5  C   UNL     1     -18.152  31.109  14.249  1.00  0.00     0.190 C 
BRANCH   5   6
ATOM      6  O   UNL     1     -19.144  31.124  13.257  1.00  0.00    -0.394 OA
ATOM      7  H   UNL     1     -19.834  30.466  13.535  1.00  0.00     0.210 HD
ENDBRANCH   5   6
ENDBRANCH   1   5
BRANCH   1   8
ATOM      8  O   UNL     1     -17.275  28.873  14.133  1.00  0.00    -0.388 OA
ATOM      9  H   UNL     1     -17.993  28.594  13.505  1.00  0.00     0.211 HD
ENDBRANCH   1   8
TORSDOF 5
ENDMDL
