MODEL 1
REMARK VINA RESULT:    -5.983      0.000      0.000
REMARK INTER + INTRA:          -6.430
REMARK INTER:                  -6.333
REMARK INTRA:                  -0.097
REMARK UNBOUND:                -0.097
REMARK SMILES C=C(C)[C@H]1CC=C(C)C(=O)C1
REMARK SMILES IDX 8 1 7 2 6 3 5 4 4 5 11 6 9 7 10 8 2 9 1 10 3 11
REMARK H PARENT
REMARK Flexibility Score: inf
ROOT
ATOM      1  C   UNL     1       0.166  12.666  31.770  1.00  0.00     0.048 C 
ATOM      2  C   UNL     1       1.225  13.185  30.838  1.00  0.00    -0.012 C 
ATOM      3  C   UNL     1       2.516  13.167  31.213  1.00  0.00    -0.019 C 
ATOM      4  C   UNL     1       3.613  13.692  30.326  1.00  0.00     0.036 C 
ATOM      5  C   UNL     1       3.280  13.466  28.839  1.00  0.00     0.025 C 
ATOM      6  C   UNL     1       1.910  14.083  28.499  1.00  0.00     0.089 C 
ATOM      7  C   UNL     1       0.859  13.598  29.459  1.00  0.00     0.158 C 
ATOM      8  O   UNL     1      -0.347  13.581  29.092  1.00  0.00    -0.295 OA
ENDROOT
BRANCH   5   9
ATOM      9  C   UNL     1       4.375  14.011  27.934  1.00  0.00    -0.077 C 
ATOM     10  C   UNL     1       4.177  14.081  26.607  1.00  0.00     0.008 C 
ATOM     11  C   UNL     1       5.695  14.482  28.491  1.00  0.00     0.039 C 
ENDBRANCH   5   9
TORSDOF 1
ENDMDL
MODEL 2
REMARK VINA RESULT:    -5.787      2.597      4.035
REMARK INTER + INTRA:          -6.222
REMARK INTER:                  -6.126
REMARK INTRA:                  -0.096
REMARK UNBOUND:                -0.097
REMARK SMILES C=C(C)[C@H]1CC=C(C)C(=O)C1
REMARK SMILES IDX 8 1 7 2 6 3 5 4 4 5 11 6 9 7 10 8 2 9 1 10 3 11
REMARK H PARENT
REMARK Flexibility Score: inf
ROOT
ATOM      1  C   UNL     1       2.958  11.423  26.135  1.00  0.00     0.048 C 
ATOM      2  C   UNL     1       3.536  12.052  27.372  1.00  0.00    -0.012 C 
ATOM      3  C   UNL     1       3.972  13.323  27.336  1.00  0.00    -0.019 C 
ATOM      4  C   UNL     1       4.577  13.995  28.540  1.00  0.00     0.036 C 
ATOM      5  C   UNL     1       3.940  13.476  29.843  1.00  0.00     0.025 C 
ATOM      6  C   UNL     1       4.048  11.941  29.915  1.00  0.00     0.089 C 
ATOM      7  C   UNL     1       3.509  11.313  28.659  1.00  0.00     0.158 C 
ATOM      8  O   UNL     1       3.068  10.133  28.704  1.00  0.00    -0.295 OA
ENDROOT
BRANCH   5   9
ATOM      9  C   UNL     1       4.558  14.135  31.067  1.00  0.00    -0.077 C 
ATOM     10  C   UNL     1       4.141  13.796  32.297  1.00  0.00     0.008 C 
ATOM     11  C   UNL     1       5.645  15.174  30.937  1.00  0.00     0.039 C 
ENDBRANCH   5   9
TORSDOF 1
ENDMDL
MODEL 3
REMARK VINA RESULT:    -5.756      1.806      4.391
REMARK INTER + INTRA:          -6.189
REMARK INTER:                  -6.102
REMARK INTRA:                  -0.087
REMARK UNBOUND:                -0.097
REMARK SMILES C=C(C)[C@H]1CC=C(C)C(=O)C1
REMARK SMILES IDX 8 1 7 2 6 3 5 4 4 5 11 6 9 7 10 8 2 9 1 10 3 11
REMARK H PARENT
REMARK Flexibility Score: inf
ROOT
ATOM      1  C   UNL     1       6.220  15.067  28.068  1.00  0.00     0.048 C 
ATOM      2  C   UNL     1       5.078  14.330  28.708  1.00  0.00    -0.012 C 
ATOM      3  C   UNL     1       4.993  14.259  30.048  1.00  0.00    -0.019 C 
ATOM      4  C   UNL     1       3.881  13.518  30.741  1.00  0.00     0.036 C 
ATOM      5  C   UNL     1       2.575  13.591  29.927  1.00  0.00     0.025 C 
ATOM      6  C   UNL     1       2.811  13.082  28.493  1.00  0.00     0.089 C 
ATOM      7  C   UNL     1       3.981  13.790  27.866  1.00  0.00     0.158 C 
ATOM      8  O   UNL     1       4.039  13.886  26.611  1.00  0.00    -0.295 OA
ENDROOT
BRANCH   5   9
ATOM      9  C   UNL     1       1.450  12.828  30.610  1.00  0.00    -0.077 C 
ATOM     10  C   UNL     1       0.410  13.493  31.138  1.00  0.00     0.008 C 
ATOM     11  C   UNL     1       1.467  11.322  30.711  1.00  0.00     0.039 C 
ENDBRANCH   5   9
TORSDOF 1
ENDMDL
MODEL 4
REMARK VINA RESULT:    -5.745      3.027      3.982
REMARK INTER + INTRA:          -6.178
REMARK INTER:                  -6.081
REMARK INTRA:                  -0.097
REMARK UNBOUND:                -0.097
REMARK SMILES C=C(C)[C@H]1CC=C(C)C(=O)C1
REMARK SMILES IDX 8 1 7 2 6 3 5 4 4 5 11 6 9 7 10 8 2 9 1 10 3 11
REMARK H PARENT
REMARK Flexibility Score: inf
ROOT
ATOM      1  C   UNL     1       5.586  15.505  32.314  1.00  0.00     0.048 C 
ATOM      2  C   UNL     1       5.211  14.742  31.075  1.00  0.00    -0.012 C 
ATOM      3  C   UNL     1       4.259  13.794  31.134  1.00  0.00    -0.019 C 
ATOM      4  C   UNL     1       3.859  12.988  29.927  1.00  0.00     0.036 C 
ATOM      5  C   UNL     1       3.986  13.820  28.637  1.00  0.00     0.025 C 
ATOM      6  C   UNL     1       5.409  14.394  28.509  1.00  0.00     0.089 C 
ATOM      7  C   UNL     1       5.801  15.121  29.766  1.00  0.00     0.158 C 
ATOM      8  O   UNL     1       6.668  16.034  29.702  1.00  0.00    -0.295 OA
ENDROOT
BRANCH   5   9
ATOM      9  C   UNL     1       3.602  13.007  27.409  1.00  0.00    -0.077 C 
ATOM     10  C   UNL     1       3.757  13.529  26.182  1.00  0.00     0.008 C 
ATOM     11  C   UNL     1       3.045  11.610  27.533  1.00  0.00     0.039 C 
ENDBRANCH   5   9
TORSDOF 1
ENDMDL
MODEL 5
REMARK VINA RESULT:    -5.698      2.511      2.745
REMARK INTER + INTRA:          -6.128
REMARK INTER:                  -6.037
REMARK INTRA:                  -0.091
REMARK UNBOUND:                -0.097
REMARK SMILES C=C(C)[C@H]1CC=C(C)C(=O)C1
REMARK SMILES IDX 8 1 7 2 6 3 5 4 4 5 11 6 9 7 10 8 2 9 1 10 3 11
REMARK H PARENT
REMARK Flexibility Score: inf
ROOT
ATOM      1  C   UNL     1       3.003  10.630  31.998  1.00  0.00     0.048 C 
ATOM      2  C   UNL     1       3.407  11.635  30.957  1.00  0.00    -0.012 C 
ATOM      3  C   UNL     1       3.795  12.868  31.330  1.00  0.00    -0.019 C 
ATOM      4  C   UNL     1       4.192  13.918  30.328  1.00  0.00     0.036 C 
ATOM      5  C   UNL     1       4.860  13.283  29.094  1.00  0.00     0.025 C 
ATOM      6  C   UNL     1       3.939  12.211  28.481  1.00  0.00     0.089 C 
ATOM      7  C   UNL     1       3.499  11.229  29.531  1.00  0.00     0.158 C 
ATOM      8  O   UNL     1       3.171  10.063  29.183  1.00  0.00    -0.295 OA
ENDROOT
BRANCH   5   9
ATOM      9  C   UNL     1       5.247  14.336  28.066  1.00  0.00    -0.077 C 
ATOM     10  C   UNL     1       6.293  15.147  28.294  1.00  0.00     0.008 C 
ATOM     11  C   UNL     1       4.480  14.498  26.776  1.00  0.00     0.039 C 
ENDBRANCH   5   9
TORSDOF 1
ENDMDL
MODEL 6
REMARK VINA RESULT:    -5.663      2.277      3.442
REMARK INTER + INTRA:          -6.091
REMARK INTER:                  -5.993
REMARK INTRA:                  -0.098
REMARK UNBOUND:                -0.097
REMARK SMILES C=C(C)[C@H]1CC=C(C)C(=O)C1
REMARK SMILES IDX 8 1 7 2 6 3 5 4 4 5 11 6 9 7 10 8 2 9 1 10 3 11
REMARK H PARENT
REMARK Flexibility Score: inf
ROOT
ATOM      1  C   UNL     1       5.574  15.115  32.664  1.00  0.00     0.048 C 
ATOM      2  C   UNL     1       5.051  14.739  31.306  1.00  0.00    -0.012 C 
ATOM      3  C   UNL     1       5.766  15.039  30.207  1.00  0.00    -0.019 C 
ATOM      4  C   UNL     1       5.281  14.702  28.822  1.00  0.00     0.036 C 
ATOM      5  C   UNL     1       4.452  13.403  28.826  1.00  0.00     0.025 C 
ATOM      6  C   UNL     1       3.296  13.510  29.839  1.00  0.00     0.089 C 
ATOM      7  C   UNL     1       3.813  13.928  31.188  1.00  0.00     0.158 C 
ATOM      8  O   UNL     1       3.160  13.615  32.220  1.00  0.00    -0.295 OA
ENDROOT
BRANCH   5   9
ATOM      9  C   UNL     1       3.940  13.065  27.433  1.00  0.00    -0.077 C 
ATOM     10  C   UNL     1       4.068  13.954  26.435  1.00  0.00     0.008 C 
ATOM     11  C   UNL     1       3.285  11.739  27.136  1.00  0.00     0.039 C 
ENDBRANCH   5   9
TORSDOF 1
ENDMDL
MODEL 7
REMARK VINA RESULT:    -5.649      1.522      2.033
REMARK INTER + INTRA:          -6.076
REMARK INTER:                  -5.978
REMARK INTRA:                  -0.098
REMARK UNBOUND:                -0.097
REMARK SMILES C=C(C)[C@H]1CC=C(C)C(=O)C1
REMARK SMILES IDX 8 1 7 2 6 3 5 4 4 5 11 6 9 7 10 8 2 9 1 10 3 11
REMARK H PARENT
REMARK Flexibility Score: inf
ROOT
ATOM      1  C   UNL     1      -0.017  12.551  31.877  1.00  0.00     0.048 C 
ATOM      2  C   UNL     1       1.010  12.802  30.808  1.00  0.00    -0.012 C 
ATOM      3  C   UNL     1       0.808  13.773  29.899  1.00  0.00    -0.019 C 
ATOM      4  C   UNL     1       1.794  14.054  28.798  1.00  0.00     0.036 C 
ATOM      5  C   UNL     1       3.237  13.772  29.260  1.00  0.00     0.025 C 
ATOM      6  C   UNL     1       3.354  12.332  29.795  1.00  0.00     0.089 C 
ATOM      7  C   UNL     1       2.299  12.066  30.833  1.00  0.00     0.158 C 
ATOM      8  O   UNL     1       2.506  11.181  31.707  1.00  0.00    -0.295 OA
ENDROOT
BRANCH   5   9
ATOM      9  C   UNL     1       4.240  14.034  28.147  1.00  0.00    -0.077 C 
ATOM     10  C   UNL     1       3.890  13.837  26.866  1.00  0.00     0.008 C 
ATOM     11  C   UNL     1       5.638  14.519  28.444  1.00  0.00     0.039 C 
ENDBRANCH   5   9
TORSDOF 1
ENDMDL
MODEL 8
REMARK VINA RESULT:    -5.635      2.712      4.726
REMARK INTER + INTRA:          -6.062
REMARK INTER:                  -5.966
REMARK INTRA:                  -0.096
REMARK UNBOUND:                -0.097
REMARK SMILES C=C(C)[C@H]1CC=C(C)C(=O)C1
REMARK SMILES IDX 8 1 7 2 6 3 5 4 4 5 11 6 9 7 10 8 2 9 1 10 3 11
REMARK H PARENT
REMARK Flexibility Score: inf
ROOT
ATOM      1  C   UNL     1       7.144  16.256  29.132  1.00  0.00     0.048 C 
ATOM      2  C   UNL     1       6.015  15.270  29.018  1.00  0.00    -0.012 C 
ATOM      3  C   UNL     1       5.668  14.784  27.814  1.00  0.00    -0.019 C 
ATOM      4  C   UNL     1       4.534  13.809  27.641  1.00  0.00     0.036 C 
ATOM      5  C   UNL     1       4.404  12.887  28.869  1.00  0.00     0.025 C 
ATOM      6  C   UNL     1       4.264  13.725  30.154  1.00  0.00     0.089 C 
ATOM      7  C   UNL     1       5.369  14.741  30.246  1.00  0.00     0.158 C 
ATOM      8  O   UNL     1       5.717  15.168  31.380  1.00  0.00    -0.295 OA
ENDROOT
BRANCH   5   9
ATOM      9  C   UNL     1       3.247  11.911  28.713  1.00  0.00    -0.077 C 
ATOM     10  C   UNL     1       2.988  11.362  27.515  1.00  0.00     0.008 C 
ATOM     11  C   UNL     1       2.371  11.535  29.882  1.00  0.00     0.039 C 
ENDBRANCH   5   9
TORSDOF 1
ENDMDL
MODEL 9
REMARK VINA RESULT:    -5.519      2.378      4.793
REMARK INTER + INTRA:          -5.939
REMARK INTER:                  -5.851
REMARK INTRA:                  -0.088
REMARK UNBOUND:                -0.097
REMARK SMILES C=C(C)[C@H]1CC=C(C)C(=O)C1
REMARK SMILES IDX 8 1 7 2 6 3 5 4 4 5 11 6 9 7 10 8 2 9 1 10 3 11
REMARK H PARENT
REMARK Flexibility Score: inf
ROOT
ATOM      1  C   UNL     1       6.369  15.130  28.379  1.00  0.00     0.048 C 
ATOM      2  C   UNL     1       5.215  14.352  28.946  1.00  0.00    -0.012 C 
ATOM      3  C   UNL     1       4.512  13.523  28.154  1.00  0.00    -0.019 C 
ATOM      4  C   UNL     1       3.337  12.734  28.666  1.00  0.00     0.036 C 
ATOM      5  C   UNL     1       3.532  12.346  30.145  1.00  0.00     0.025 C 
ATOM      6  C   UNL     1       3.807  13.601  30.995  1.00  0.00     0.089 C 
ATOM      7  C   UNL     1       4.934  14.403  30.403  1.00  0.00     0.158 C 
ATOM      8  O   UNL     1       5.615  15.152  31.154  1.00  0.00    -0.295 OA
ENDROOT
BRANCH   5   9
ATOM      9  C   UNL     1       2.339  11.565  30.677  1.00  0.00    -0.077 C 
ATOM     10  C   UNL     1       2.297  10.230  30.547  1.00  0.00     0.008 C 
ATOM     11  C   UNL     1       1.186  12.258  31.360  1.00  0.00     0.039 C 
ENDBRANCH   5   9
TORSDOF 1
ENDMDL
