MODEL 1
REMARK VINA RESULT:    -3.847      0.000      0.000
REMARK INTER + INTRA:          -5.705
REMARK INTER:                  -5.196
REMARK INTRA:                  -0.509
REMARK UNBOUND:                -0.509
REMARK SMILES O=C[C@H](O)[C@@H](O)[C@H](O)CO
REMARK SMILES IDX 7 1 9 2 10 3 5 5 3 6 2 7 1 8 4 9 6 11 8 13
REMARK H PARENT 10 4 4 10 6 12 8 14
REMARK Flexibility Score: inf
ROOT
ATOM      1  C   UNL     1       5.506  40.440  63.966  1.00  0.00     0.171 C 
ENDROOT
BRANCH   1   2
ATOM      2  C   UNL     1       6.759  40.764  64.803  1.00  0.00     0.190 C 
BRANCH   2   3
ATOM      3  O   UNL     1       6.473  40.727  66.175  1.00  0.00    -0.394 OA
ATOM      4  H   UNL     1       6.330  41.670  66.451  1.00  0.00     0.210 HD
ENDBRANCH   2   3
ENDBRANCH   1   2
BRANCH   1   5
ATOM      5  C   UNL     1       4.182  40.776  64.711  1.00  0.00     0.181 C 
BRANCH   5   6
ATOM      6  C   UNL     1       3.022  41.125  63.737  1.00  0.00     0.209 C 
BRANCH   6   7
ATOM      7  C   UNL     1       1.677  40.716  64.281  1.00  0.00     0.258 C 
ATOM      8  O   UNL     1       0.646  41.094  63.747  1.00  0.00    -0.300 OA
ENDBRANCH   6   7
BRANCH   6   9
ATOM      9  O   UNL     1       3.230  40.534  62.479  1.00  0.00    -0.383 OA
ATOM     10  H   UNL     1       2.415  40.690  61.933  1.00  0.00     0.211 HD
ENDBRANCH   6   9
ENDBRANCH   5   6
BRANCH   5  11
ATOM     11  O   UNL     1       3.806  39.732  65.578  1.00  0.00    -0.387 OA
ATOM     12  H   UNL     1       2.896  39.432  65.320  1.00  0.00     0.211 HD
ENDBRANCH   5  11
ENDBRANCH   1   5
BRANCH   1  13
ATOM     13  O   UNL     1       5.525  39.110  63.505  1.00  0.00    -0.388 OA
ATOM     14  H   UNL     1       6.204  39.042  62.786  1.00  0.00     0.211 HD
ENDBRANCH   1  13
TORSDOF 8
ENDMDL
MODEL 2
REMARK VINA RESULT:    -3.563     17.447     18.690
REMARK INTER + INTRA:          -5.322
REMARK INTER:                  -4.922
REMARK INTRA:                  -0.400
REMARK UNBOUND:                -0.509
REMARK SMILES O=C[C@H](O)[C@@H](O)[C@H](O)CO
REMARK SMILES IDX 7 1 9 2 10 3 5 5 3 6 2 7 1 8 4 9 6 11 8 13
REMARK H PARENT 10 4 4 10 6 12 8 14
REMARK Flexibility Score: inf
ROOT
ATOM      1  C   UNL     1      15.687  30.619  73.424  1.00  0.00     0.171 C 
ENDROOT
BRANCH   1   2
ATOM      2  C   UNL     1      15.673  29.155  72.944  1.00  0.00     0.190 C 
BRANCH   2   3
ATOM      3  O   UNL     1      15.917  28.273  74.005  1.00  0.00    -0.394 OA
ATOM      4  H   UNL     1      16.823  28.495  74.345  1.00  0.00     0.210 HD
ENDBRANCH   2   3
ENDBRANCH   1   2
BRANCH   1   5
ATOM      5  C   UNL     1      17.073  31.300  73.237  1.00  0.00     0.181 C 
BRANCH   5   6
ATOM      6  C   UNL     1      17.298  32.475  74.229  1.00  0.00     0.209 C 
BRANCH   6   7
ATOM      7  C   UNL     1      17.880  33.690  73.553  1.00  0.00     0.258 C 
ATOM      8  O   UNL     1      17.216  34.345  72.764  1.00  0.00    -0.300 OA
ENDBRANCH   6   7
BRANCH   6   9
ATOM      9  O   UNL     1      18.124  32.079  75.296  1.00  0.00    -0.383 OA
ATOM     10  H   UNL     1      17.537  31.762  76.031  1.00  0.00     0.211 HD
ENDBRANCH   6   9
ENDBRANCH   5   6
BRANCH   5  11
ATOM     11  O   UNL     1      18.118  30.362  73.333  1.00  0.00    -0.387 OA
ATOM     12  H   UNL     1      17.719  29.453  73.292  1.00  0.00     0.211 HD
ENDBRANCH   5  11
ENDBRANCH   1   5
BRANCH   1  13
ATOM     13  O   UNL     1      15.221  30.731  74.747  1.00  0.00    -0.388 OA
ATOM     14  H   UNL     1      15.682  30.046  75.296  1.00  0.00     0.211 HD
ENDBRANCH   1  13
TORSDOF 8
ENDMDL
MODEL 3
REMARK VINA RESULT:    -3.272      1.517      2.417
REMARK INTER + INTRA:          -4.929
REMARK INTER:                  -4.857
REMARK INTRA:                  -0.072
REMARK UNBOUND:                -0.509
REMARK SMILES O=C[C@H](O)[C@@H](O)[C@H](O)CO
REMARK SMILES IDX 7 1 9 2 10 3 5 5 3 6 2 7 1 8 4 9 6 11 8 13
REMARK H PARENT 10 4 4 10 6 12 8 14
REMARK Flexibility Score: inf
ROOT
ATOM      1  C   UNL     1       5.648  40.384  64.069  1.00  0.00     0.171 C 
ENDROOT
BRANCH   1   2
ATOM      2  C   UNL     1       7.066  40.824  63.657  1.00  0.00     0.190 C 
BRANCH   2   3
ATOM      3  O   UNL     1       7.661  39.879  62.809  1.00  0.00    -0.394 OA
ATOM      4  H   UNL     1       8.215  39.297  63.392  1.00  0.00     0.210 HD
ENDBRANCH   2   3
ENDBRANCH   1   2
BRANCH   1   5
ATOM      5  C   UNL     1       5.441  40.387  65.611  1.00  0.00     0.181 C 
BRANCH   5   6
ATOM      6  C   UNL     1       3.941  40.459  66.011  1.00  0.00     0.209 C 
BRANCH   6   7
ATOM      7  C   UNL     1       3.099  41.125  64.953  1.00  0.00     0.258 C 
ATOM      8  O   UNL     1       2.004  40.676  64.651  1.00  0.00    -0.300 OA
ENDBRANCH   6   7
BRANCH   6   9
ATOM      9  O   UNL     1       3.781  41.125  67.239  1.00  0.00    -0.383 OA
ATOM     10  H   UNL     1       2.823  41.061  67.495  1.00  0.00     0.211 HD
ENDBRANCH   6   9
ENDBRANCH   5   6
BRANCH   5  11
ATOM     11  O   UNL     1       6.063  39.276  66.211  1.00  0.00    -0.387 OA
ATOM     12  H   UNL     1       6.965  39.556  66.515  1.00  0.00     0.211 HD
ENDBRANCH   5  11
ENDBRANCH   1   5
BRANCH   1  13
ATOM     13  O   UNL     1       5.308  39.144  63.497  1.00  0.00    -0.388 OA
ATOM     14  H   UNL     1       4.387  38.913  63.784  1.00  0.00     0.211 HD
ENDBRANCH   1  13
TORSDOF 8
ENDMDL
MODEL 4
REMARK VINA RESULT:    -3.179      1.803      2.781
REMARK INTER + INTRA:          -4.803
REMARK INTER:                  -4.146
REMARK INTRA:                  -0.657
REMARK UNBOUND:                -0.509
REMARK SMILES O=C[C@H](O)[C@@H](O)[C@H](O)CO
REMARK SMILES IDX 7 1 9 2 10 3 5 5 3 6 2 7 1 8 4 9 6 11 8 13
REMARK H PARENT 10 4 4 10 6 12 8 14
REMARK Flexibility Score: inf
ROOT
ATOM      1  C   UNL     1       5.648  40.435  63.973  1.00  0.00     0.171 C 
ENDROOT
BRANCH   1   2
ATOM      2  C   UNL     1       7.062  40.889  63.563  1.00  0.00     0.190 C 
BRANCH   2   3
ATOM      3  O   UNL     1       7.715  39.895  62.819  1.00  0.00    -0.394 OA
ATOM      4  H   UNL     1       7.062  39.156  62.715  1.00  0.00     0.210 HD
ENDBRANCH   2   3
ENDBRANCH   1   2
BRANCH   1   5
ATOM      5  C   UNL     1       5.365  40.644  65.488  1.00  0.00     0.181 C 
BRANCH   5   6
ATOM      6  C   UNL     1       3.919  40.236  65.887  1.00  0.00     0.209 C 
BRANCH   6   7
ATOM      7  C   UNL     1       3.859  38.849  66.474  1.00  0.00     0.258 C 
ATOM      8  O   UNL     1       4.372  37.903  65.897  1.00  0.00    -0.300 OA
ENDBRANCH   6   7
BRANCH   6   9
ATOM      9  O   UNL     1       3.051  40.328  64.785  1.00  0.00    -0.383 OA
ATOM     10  H   UNL     1       2.243  39.789  64.991  1.00  0.00     0.211 HD
ENDBRANCH   6   9
ENDBRANCH   5   6
BRANCH   5  11
ATOM     11  O   UNL     1       6.310  39.965  66.281  1.00  0.00    -0.387 OA
ATOM     12  H   UNL     1       7.059  39.685  65.693  1.00  0.00     0.211 HD
ENDBRANCH   5  11
ENDBRANCH   1   5
BRANCH   1  13
ATOM     13  O   UNL     1       5.396  39.111  63.570  1.00  0.00    -0.388 OA
ATOM     14  H   UNL     1       4.815  38.685  64.251  1.00  0.00     0.211 HD
ENDBRANCH   1  13
TORSDOF 8
ENDMDL
MODEL 5
REMARK VINA RESULT:    -3.131     17.112     18.544
REMARK INTER + INTRA:          -4.739
REMARK INTER:                  -4.555
REMARK INTRA:                  -0.184
REMARK UNBOUND:                -0.509
REMARK SMILES O=C[C@H](O)[C@@H](O)[C@H](O)CO
REMARK SMILES IDX 7 1 9 2 10 3 5 5 3 6 2 7 1 8 4 9 6 11 8 13
REMARK H PARENT 10 4 4 10 6 12 8 14
REMARK Flexibility Score: inf
ROOT
ATOM      1  C   UNL     1      15.870  29.781  73.613  1.00  0.00     0.171 C 
ENDROOT
BRANCH   1   2
ATOM      2  C   UNL     1      14.482  29.948  72.964  1.00  0.00     0.190 C 
BRANCH   2   3
ATOM      3  O   UNL     1      14.505  29.562  71.617  1.00  0.00    -0.394 OA
ATOM      4  H   UNL     1      15.047  28.731  71.577  1.00  0.00     0.210 HD
ENDBRANCH   2   3
ENDBRANCH   1   2
BRANCH   1   5
ATOM      5  C   UNL     1      16.856  30.919  73.225  1.00  0.00     0.181 C 
BRANCH   5   6
ATOM      6  C   UNL     1      16.972  32.009  74.328  1.00  0.00     0.209 C 
BRANCH   6   7
ATOM      7  C   UNL     1      17.030  33.401  73.752  1.00  0.00     0.258 C 
ATOM      8  O   UNL     1      17.801  33.670  72.845  1.00  0.00    -0.300 OA
ENDBRANCH   6   7
BRANCH   6   9
ATOM      9  O   UNL     1      18.096  31.780  75.141  1.00  0.00    -0.383 OA
ATOM     10  H   UNL     1      18.093  30.821  75.399  1.00  0.00     0.211 HD
ENDBRANCH   6   9
ENDBRANCH   5   6
BRANCH   5  11
ATOM     11  O   UNL     1      18.125  30.405  72.899  1.00  0.00    -0.387 OA
ATOM     12  H   UNL     1      17.998  29.661  72.254  1.00  0.00     0.211 HD
ENDBRANCH   5  11
ENDBRANCH   1   5
BRANCH   1  13
ATOM     13  O   UNL     1      16.409  28.508  73.352  1.00  0.00    -0.388 OA
ATOM     14  H   UNL     1      16.491  28.401  72.370  1.00  0.00     0.211 HD
ENDBRANCH   1  13
TORSDOF 8
ENDMDL
MODEL 6
REMARK VINA RESULT:    -3.065     17.458     18.355
REMARK INTER + INTRA:          -4.650
REMARK INTER:                  -4.196
REMARK INTRA:                  -0.454
REMARK UNBOUND:                -0.509
REMARK SMILES O=C[C@H](O)[C@@H](O)[C@H](O)CO
REMARK SMILES IDX 7 1 9 2 10 3 5 5 3 6 2 7 1 8 4 9 6 11 8 13
REMARK H PARENT 10 4 4 10 6 12 8 14
REMARK Flexibility Score: inf
ROOT
ATOM      1  C   UNL     1      17.765  32.294  73.985  1.00  0.00     0.171 C 
ENDROOT
BRANCH   1   2
ATOM      2  C   UNL     1      17.730  33.792  73.625  1.00  0.00     0.190 C 
BRANCH   2   3
ATOM      3  O   UNL     1      17.332  33.982  72.294  1.00  0.00    -0.394 OA
ATOM      4  H   UNL     1      16.520  34.551  72.328  1.00  0.00     0.210 HD
ENDBRANCH   2   3
ENDBRANCH   1   2
BRANCH   1   5
ATOM      5  C   UNL     1      16.444  31.557  73.623  1.00  0.00     0.181 C 
BRANCH   5   6
ATOM      6  C   UNL     1      16.695  30.211  72.887  1.00  0.00     0.209 C 
BRANCH   6   7
ATOM      7  C   UNL     1      15.559  29.238  73.072  1.00  0.00     0.258 C 
ATOM      8  O   UNL     1      14.435  29.508  72.681  1.00  0.00    -0.300 OA
ENDBRANCH   6   7
BRANCH   6   9
ATOM      9  O   UNL     1      17.902  29.626  73.310  1.00  0.00    -0.383 OA
ATOM     10  H   UNL     1      18.293  30.212  74.010  1.00  0.00     0.211 HD
ENDBRANCH   6   9
ENDBRANCH   5   6
BRANCH   5  11
ATOM     11  O   UNL     1      15.644  31.358  74.763  1.00  0.00    -0.387 OA
ATOM     12  H   UNL     1      15.404  32.249  75.130  1.00  0.00     0.211 HD
ENDBRANCH   5  11
ENDBRANCH   1   5
BRANCH   1  13
ATOM     13  O   UNL     1      18.124  32.098  75.331  1.00  0.00    -0.388 OA
ATOM     14  H   UNL     1      18.375  31.146  75.450  1.00  0.00     0.211 HD
ENDBRANCH   1  13
TORSDOF 8
ENDMDL
MODEL 7
REMARK VINA RESULT:    -2.927      1.548      2.540
REMARK INTER + INTRA:          -4.463
REMARK INTER:                  -3.986
REMARK INTRA:                  -0.477
REMARK UNBOUND:                -0.509
REMARK SMILES O=C[C@H](O)[C@@H](O)[C@H](O)CO
REMARK SMILES IDX 7 1 9 2 10 3 5 5 3 6 2 7 1 8 4 9 6 11 8 13
REMARK H PARENT 10 4 4 10 6 12 8 14
REMARK Flexibility Score: inf
ROOT
ATOM      1  C   UNL     1       4.579  39.922  66.237  1.00  0.00     0.171 C 
ENDROOT
BRANCH   1   2
ATOM      2  C   UNL     1       4.092  38.464  66.338  1.00  0.00     0.190 C 
BRANCH   2   3
ATOM      3  O   UNL     1       4.810  37.630  65.470  1.00  0.00    -0.394 OA
ATOM      4  H   UNL     1       4.156  37.303  64.799  1.00  0.00     0.210 HD
ENDBRANCH   2   3
ENDBRANCH   1   2
BRANCH   1   5
ATOM      5  C   UNL     1       3.799  40.744  65.171  1.00  0.00     0.181 C 
BRANCH   5   6
ATOM      6  C   UNL     1       4.503  40.743  63.785  1.00  0.00     0.209 C 
BRANCH   6   7
ATOM      7  C   UNL     1       3.566  41.125  62.668  1.00  0.00     0.258 C 
ATOM      8  O   UNL     1       2.618  40.413  62.376  1.00  0.00    -0.300 OA
ENDBRANCH   6   7
BRANCH   6   9
ATOM      9  O   UNL     1       5.082  39.490  63.518  1.00  0.00    -0.383 OA
ATOM     10  H   UNL     1       4.531  38.800  63.973  1.00  0.00     0.211 HD
ENDBRANCH   6   9
ENDBRANCH   5   6
BRANCH   5  11
ATOM     11  O   UNL     1       2.470  40.294  65.053  1.00  0.00    -0.387 OA
ATOM     12  H   UNL     1       2.327  40.001  64.116  1.00  0.00     0.211 HD
ENDBRANCH   5  11
ENDBRANCH   1   5
BRANCH   1  13
ATOM     13  O   UNL     1       5.970  39.986  66.035  1.00  0.00    -0.388 OA
ATOM     14  H   UNL     1       6.143  39.966  65.059  1.00  0.00     0.211 HD
ENDBRANCH   1  13
TORSDOF 8
ENDMDL
MODEL 8
REMARK VINA RESULT:    -2.842      2.193      4.103
REMARK INTER + INTRA:          -4.348
REMARK INTER:                  -4.023
REMARK INTRA:                  -0.326
REMARK UNBOUND:                -0.509
REMARK SMILES O=C[C@H](O)[C@@H](O)[C@H](O)CO
REMARK SMILES IDX 7 1 9 2 10 3 5 5 3 6 2 7 1 8 4 9 6 11 8 13
REMARK H PARENT 10 4 4 10 6 12 8 14
REMARK Flexibility Score: inf
ROOT
ATOM      1  C   UNL     1       3.945  40.036  65.705  1.00  0.00     0.171 C 
ENDROOT
BRANCH   1   2
ATOM      2  C   UNL     1       3.814  38.537  66.037  1.00  0.00     0.190 C 
BRANCH   2   3
ATOM      3  O   UNL     1       5.009  37.855  65.770  1.00  0.00    -0.394 OA
ATOM      4  H   UNL     1       5.234  37.360  66.600  1.00  0.00     0.210 HD
ENDBRANCH   2   3
ENDBRANCH   1   2
BRANCH   1   5
ATOM      5  C   UNL     1       4.891  40.305  64.500  1.00  0.00     0.181 C 
BRANCH   5   6
ATOM      6  C   UNL     1       6.236  40.953  64.931  1.00  0.00     0.209 C 
BRANCH   6   7
ATOM      7  C   UNL     1       7.185  41.124  63.772  1.00  0.00     0.258 C 
ATOM      8  O   UNL     1       7.456  40.184  63.042  1.00  0.00    -0.300 OA
ENDBRANCH   6   7
BRANCH   6   9
ATOM      9  O   UNL     1       6.852  40.202  65.947  1.00  0.00    -0.383 OA
ATOM     10  H   UNL     1       7.563  40.765  66.351  1.00  0.00     0.211 HD
ENDBRANCH   6   9
ENDBRANCH   5   6
BRANCH   5  11
ATOM     11  O   UNL     1       5.120  39.129  63.761  1.00  0.00    -0.387 OA
ATOM     12  H   UNL     1       5.443  39.391  62.859  1.00  0.00     0.211 HD
ENDBRANCH   5  11
ENDBRANCH   1   5
BRANCH   1  13
ATOM     13  O   UNL     1       4.314  40.783  66.839  1.00  0.00    -0.388 OA
ATOM     14  H   UNL     1       4.834  41.571  66.535  1.00  0.00     0.211 HD
ENDBRANCH   1  13
TORSDOF 8
ENDMDL
MODEL 9
REMARK VINA RESULT:    -2.750     17.454     18.310
REMARK INTER + INTRA:          -4.224
REMARK INTER:                  -4.036
REMARK INTRA:                  -0.189
REMARK UNBOUND:                -0.509
REMARK SMILES O=C[C@H](O)[C@@H](O)[C@H](O)CO
REMARK SMILES IDX 7 1 9 2 10 3 5 5 3 6 2 7 1 8 4 9 6 11 8 13
REMARK H PARENT 10 4 4 10 6 12 8 14
REMARK Flexibility Score: inf
ROOT
ATOM      1  C   UNL     1      15.845  30.175  72.875  1.00  0.00     0.171 C 
ENDROOT
BRANCH   1   2
ATOM      2  C   UNL     1      16.481  28.776  72.989  1.00  0.00     0.190 C 
BRANCH   2   3
ATOM      3  O   UNL     1      15.900  28.042  74.032  1.00  0.00    -0.394 OA
ATOM      4  H   UNL     1      15.708  27.141  73.662  1.00  0.00     0.210 HD
ENDBRANCH   2   3
ENDBRANCH   1   2
BRANCH   1   5
ATOM      5  C   UNL     1      16.152  31.077  74.105  1.00  0.00     0.181 C 
BRANCH   5   6
ATOM      6  C   UNL     1      17.499  31.840  73.963  1.00  0.00     0.209 C 
BRANCH   6   7
ATOM      7  C   UNL     1      17.326  33.332  74.086  1.00  0.00     0.258 C 
ATOM      8  O   UNL     1      16.997  34.005  73.122  1.00  0.00    -0.300 OA
ENDBRANCH   6   7
BRANCH   6   9
ATOM      9  O   UNL     1      18.125  31.529  72.743  1.00  0.00    -0.383 OA
ATOM     10  H   UNL     1      18.705  30.738  72.893  1.00  0.00     0.211 HD
ENDBRANCH   6   9
ENDBRANCH   5   6
BRANCH   5  11
ATOM     11  O   UNL     1      15.097  31.974  74.354  1.00  0.00    -0.387 OA
ATOM     12  H   UNL     1      15.432  32.895  74.194  1.00  0.00     0.211 HD
ENDBRANCH   5  11
ENDBRANCH   1   5
BRANCH   1  13
ATOM     13  O   UNL     1      14.465  30.093  72.616  1.00  0.00    -0.388 OA
ATOM     14  H   UNL     1      13.983  30.146  73.480  1.00  0.00     0.211 HD
ENDBRANCH   1  13
TORSDOF 8
ENDMDL
