MODEL 1
REMARK VINA RESULT:    -3.533      0.000      0.000
REMARK INTER + INTRA:          -7.713
REMARK INTER:                  -6.012
REMARK INTRA:                  -1.702
REMARK UNBOUND:                -1.702
REMARK SMILES CCCCCCCCCCCCCC(=O)[O-]
REMARK SMILES IDX 8 1 9 2 10 3 11 4 12 5 13 6 14 7 15 8 16 9 7 10 6 11 5 12
REMARK SMILES IDX 4 13 3 14 2 15 1 16
REMARK H PARENT
REMARK Flexibility Score: inf
ROOT
ATOM      1  C   UNL     1     155.448 132.553 168.069  1.00  0.00     0.000 C 
ENDROOT
BRANCH   1   2
ATOM      2  C   UNL     1     154.242 132.377 167.129  1.00  0.00     0.000 C 
BRANCH   2   3
ATOM      3  C   UNL     1     154.664 132.022 165.694  1.00  0.00     0.000 C 
BRANCH   3   4
ATOM      4  C   UNL     1     153.892 132.829 164.637  1.00  0.00     0.000 C 
BRANCH   4   5
ATOM      5  C   UNL     1     152.864 131.982 163.865  1.00  0.00     0.006 C 
BRANCH   5   6
ATOM      6  C   UNL     1     151.423 132.114 164.393  1.00  0.00     0.053 C 
BRANCH   6   7
ATOM      7  C   UNL     1     150.657 133.204 163.708  1.00  0.00     0.041 C 
ATOM      8  O   UNL     1     149.903 132.934 162.736  1.00  0.00    -0.550 OA
ATOM      9  O   UNL     1     150.801 134.524 164.117  1.00  0.00    -0.550 OA
ENDBRANCH   6   7
ENDBRANCH   5   6
ENDBRANCH   4   5
ENDBRANCH   3   4
ENDBRANCH   2   3
ENDBRANCH   1   2
BRANCH   1  10
ATOM     10  C   UNL     1     155.174 133.555 169.202  1.00  0.00     0.000 C 
BRANCH  10  11
ATOM     11  C   UNL     1     156.186 134.710 169.233  1.00  0.00    -0.000 C 
BRANCH  11  12
ATOM     12  C   UNL     1     156.849 134.894 167.859  1.00  0.00    -0.000 C 
BRANCH  12  13
ATOM     13  C   UNL     1     156.356 136.149 167.117  1.00  0.00    -0.000 C 
BRANCH  13  14
ATOM     14  C   UNL     1     155.075 135.953 166.287  1.00  0.00    -0.000 C 
BRANCH  14  15
ATOM     15  C   UNL     1     153.849 136.637 166.910  1.00  0.00    -0.003 C 
ATOM     16  C   UNL     1     152.718 135.639 167.138  1.00  0.00     0.004 C 
ENDBRANCH  14  15
ENDBRANCH  13  14
ENDBRANCH  12  13
ENDBRANCH  11  12
ENDBRANCH  10  11
ENDBRANCH   1  10
TORSDOF 12
ENDMDL
MODEL 2
REMARK VINA RESULT:    -3.468      3.887      7.710
REMARK INTER + INTRA:          -7.603
REMARK INTER:                  -6.890
REMARK INTRA:                  -0.714
REMARK UNBOUND:                -1.702
REMARK SMILES CCCCCCCCCCCCCC(=O)[O-]
REMARK SMILES IDX 8 1 9 2 10 3 11 4 12 5 13 6 14 7 15 8 16 9 7 10 6 11 5 12
REMARK SMILES IDX 4 13 3 14 2 15 1 16
REMARK H PARENT
REMARK Flexibility Score: inf
ROOT
ATOM      1  C   UNL     1     150.698 132.586 165.051  1.00  0.00     0.000 C 
ENDROOT
BRANCH   1   2
ATOM      2  C   UNL     1     152.062 131.875 165.016  1.00  0.00     0.000 C 
BRANCH   2   3
ATOM      3  C   UNL     1     153.146 132.720 164.325  1.00  0.00     0.000 C 
BRANCH   3   4
ATOM      4  C   UNL     1     154.091 133.400 165.329  1.00  0.00     0.000 C 
BRANCH   4   5
ATOM      5  C   UNL     1     154.533 132.464 166.469  1.00  0.00     0.006 C 
BRANCH   5   6
ATOM      6  C   UNL     1     156.024 132.080 166.421  1.00  0.00     0.053 C 
BRANCH   6   7
ATOM      7  C   UNL     1     156.826 132.755 167.491  1.00  0.00     0.041 C 
ATOM      8  O   UNL     1     158.066 132.920 167.344  1.00  0.00    -0.550 OA
ATOM      9  O   UNL     1     156.215 133.170 168.668  1.00  0.00    -0.550 OA
ENDBRANCH   6   7
ENDBRANCH   5   6
ENDBRANCH   4   5
ENDBRANCH   3   4
ENDBRANCH   2   3
ENDBRANCH   1   2
BRANCH   1  10
ATOM     10  C   UNL     1     150.548 133.633 163.935  1.00  0.00     0.000 C 
BRANCH  10  11
ATOM     11  C   UNL     1     149.570 133.194 162.836  1.00  0.00    -0.000 C 
BRANCH  11  12
ATOM     12  C   UNL     1     148.491 132.259 163.403  1.00  0.00    -0.000 C 
BRANCH  12  13
ATOM     13  C   UNL     1     147.149 132.367 162.659  1.00  0.00    -0.000 C 
BRANCH  13  14
ATOM     14  C   UNL     1     147.232 132.996 161.256  1.00  0.00    -0.000 C 
BRANCH  14  15
ATOM     15  C   UNL     1     145.851 133.301 160.655  1.00  0.00    -0.003 C 
ATOM     16  C   UNL     1     144.991 132.042 160.589  1.00  0.00     0.004 C 
ENDBRANCH  14  15
ENDBRANCH  13  14
ENDBRANCH  12  13
ENDBRANCH  11  12
ENDBRANCH  10  11
ENDBRANCH   1  10
TORSDOF 12
ENDMDL
MODEL 3
REMARK VINA RESULT:    -3.440      1.779      3.644
REMARK INTER + INTRA:          -7.556
REMARK INTER:                  -6.603
REMARK INTRA:                  -0.952
REMARK UNBOUND:                -1.702
REMARK SMILES CCCCCCCCCCCCCC(=O)[O-]
REMARK SMILES IDX 8 1 9 2 10 3 11 4 12 5 13 6 14 7 15 8 16 9 7 10 6 11 5 12
REMARK SMILES IDX 4 13 3 14 2 15 1 16
REMARK H PARENT
REMARK Flexibility Score: inf
ROOT
ATOM      1  C   UNL     1     153.387 134.026 165.629  1.00  0.00     0.000 C 
ENDROOT
BRANCH   1   2
ATOM      2  C   UNL     1     151.930 133.772 165.207  1.00  0.00     0.000 C 
BRANCH   2   3
ATOM      3  C   UNL     1     151.653 132.287 164.919  1.00  0.00     0.000 C 
BRANCH   3   4
ATOM      4  C   UNL     1     150.629 132.088 163.789  1.00  0.00     0.000 C 
BRANCH   4   5
ATOM      5  C   UNL     1     149.290 132.799 164.057  1.00  0.00     0.006 C 
BRANCH   5   6
ATOM      6  C   UNL     1     148.128 132.297 163.179  1.00  0.00     0.053 C 
BRANCH   6   7
ATOM      7  C   UNL     1     147.629 133.345 162.232  1.00  0.00     0.041 C 
ATOM      8  O   UNL     1     147.478 134.532 162.624  1.00  0.00    -0.550 OA
ATOM      9  O   UNL     1     147.296 133.007 160.926  1.00  0.00    -0.550 OA
ENDBRANCH   6   7
ENDBRANCH   5   6
ENDBRANCH   4   5
ENDBRANCH   3   4
ENDBRANCH   2   3
ENDBRANCH   1   2
BRANCH   1  10
ATOM     10  C   UNL     1     154.373 133.047 164.969  1.00  0.00     0.000 C 
BRANCH  10  11
ATOM     11  C   UNL     1     155.022 132.088 165.978  1.00  0.00    -0.000 C 
BRANCH  11  12
ATOM     12  C   UNL     1     154.906 132.635 167.408  1.00  0.00    -0.000 C 
BRANCH  12  13
ATOM     13  C   UNL     1     156.255 132.679 168.148  1.00  0.00    -0.000 C 
BRANCH  13  14
ATOM     14  C   UNL     1     157.175 133.848 167.753  1.00  0.00    -0.000 C 
BRANCH  14  15
ATOM     15  C   UNL     1     156.635 135.213 168.206  1.00  0.00    -0.003 C 
ATOM     16  C   UNL     1     156.516 136.175 167.027  1.00  0.00     0.004 C 
ENDBRANCH  14  15
ENDBRANCH  13  14
ENDBRANCH  12  13
ENDBRANCH  11  12
ENDBRANCH  10  11
ENDBRANCH   1  10
TORSDOF 12
ENDMDL
MODEL 4
REMARK VINA RESULT:    -3.431      1.495      2.666
REMARK INTER + INTRA:          -7.539
REMARK INTER:                  -6.607
REMARK INTRA:                  -0.933
REMARK UNBOUND:                -1.702
REMARK SMILES CCCCCCCCCCCCCC(=O)[O-]
REMARK SMILES IDX 8 1 9 2 10 3 11 4 12 5 13 6 14 7 15 8 16 9 7 10 6 11 5 12
REMARK SMILES IDX 4 13 3 14 2 15 1 16
REMARK H PARENT
REMARK Flexibility Score: inf
ROOT
ATOM      1  C   UNL     1     153.613 132.426 166.016  1.00  0.00     0.000 C 
ENDROOT
BRANCH   1   2
ATOM      2  C   UNL     1     153.553 132.974 164.580  1.00  0.00     0.000 C 
BRANCH   2   3
ATOM      3  C   UNL     1     152.763 132.053 163.634  1.00  0.00     0.000 C 
BRANCH   3   4
ATOM      4  C   UNL     1     151.300 131.875 164.071  1.00  0.00     0.000 C 
BRANCH   4   5
ATOM      5  C   UNL     1     150.316 132.722 163.243  1.00  0.00     0.006 C 
BRANCH   5   6
ATOM      6  C   UNL     1     148.846 132.284 163.379  1.00  0.00     0.053 C 
BRANCH   6   7
ATOM      7  C   UNL     1     147.895 133.440 163.330  1.00  0.00     0.041 C 
ATOM      8  O   UNL     1     147.256 133.690 162.273  1.00  0.00    -0.550 OA
ATOM      9  O   UNL     1     147.738 134.265 164.436  1.00  0.00    -0.550 OA
ENDBRANCH   6   7
ENDBRANCH   5   6
ENDBRANCH   4   5
ENDBRANCH   3   4
ENDBRANCH   2   3
ENDBRANCH   1   2
BRANCH   1  10
ATOM     10  C   UNL     1     155.052 132.148 166.482  1.00  0.00     0.000 C 
BRANCH  10  11
ATOM     11  C   UNL     1     155.308 132.609 167.925  1.00  0.00    -0.000 C 
BRANCH  11  12
ATOM     12  C   UNL     1     156.814 132.748 168.196  1.00  0.00    -0.000 C 
BRANCH  12  13
ATOM     13  C   UNL     1     157.360 134.146 167.857  1.00  0.00    -0.000 C 
BRANCH  13  14
ATOM     14  C   UNL     1     156.398 135.310 168.155  1.00  0.00    -0.000 C 
BRANCH  14  15
ATOM     15  C   UNL     1     156.163 136.218 166.938  1.00  0.00    -0.003 C 
ATOM     16  C   UNL     1     154.761 136.021 166.368  1.00  0.00     0.004 C 
ENDBRANCH  14  15
ENDBRANCH  13  14
ENDBRANCH  12  13
ENDBRANCH  11  12
ENDBRANCH  10  11
ENDBRANCH   1  10
TORSDOF 12
ENDMDL
MODEL 5
REMARK VINA RESULT:    -3.423      1.687      3.084
REMARK INTER + INTRA:          -7.527
REMARK INTER:                  -6.294
REMARK INTRA:                  -1.232
REMARK UNBOUND:                -1.702
REMARK SMILES CCCCCCCCCCCCCC(=O)[O-]
REMARK SMILES IDX 8 1 9 2 10 3 11 4 12 5 13 6 14 7 15 8 16 9 7 10 6 11 5 12
REMARK SMILES IDX 4 13 3 14 2 15 1 16
REMARK H PARENT
REMARK Flexibility Score: inf
ROOT
ATOM      1  C   UNL     1     155.808 132.236 167.040  1.00  0.00     0.000 C 
ENDROOT
BRANCH   1   2
ATOM      2  C   UNL     1     155.239 132.149 165.613  1.00  0.00     0.000 C 
BRANCH   2   3
ATOM      3  C   UNL     1     154.129 133.183 165.360  1.00  0.00     0.000 C 
BRANCH   3   4
ATOM      4  C   UNL     1     153.056 133.177 166.462  1.00  0.00     0.000 C 
BRANCH   4   5
ATOM      5  C   UNL     1     151.851 132.281 166.123  1.00  0.00     0.006 C 
BRANCH   5   6
ATOM      6  C   UNL     1     151.725 131.941 164.626  1.00  0.00     0.053 C 
BRANCH   6   7
ATOM      7  C   UNL     1     150.660 132.742 163.942  1.00  0.00     0.041 C 
ATOM      8  O   UNL     1     150.772 133.993 163.847  1.00  0.00    -0.550 OA
ATOM      9  O   UNL     1     149.526 132.115 163.441  1.00  0.00    -0.550 OA
ENDBRANCH   6   7
ENDBRANCH   5   6
ENDBRANCH   4   5
ENDBRANCH   3   4
ENDBRANCH   2   3
ENDBRANCH   1   2
BRANCH   1  10
ATOM     10  C   UNL     1     157.342 132.130 167.071  1.00  0.00     0.000 C 
BRANCH  10  11
ATOM     11  C   UNL     1     158.001 133.281 167.846  1.00  0.00    -0.000 C 
BRANCH  11  12
ATOM     12  C   UNL     1     156.994 134.410 168.113  1.00  0.00    -0.000 C 
BRANCH  12  13
ATOM     13  C   UNL     1     156.630 134.552 169.601  1.00  0.00    -0.000 C 
BRANCH  13  14
ATOM     14  C   UNL     1     157.346 133.568 170.543  1.00  0.00    -0.000 C 
BRANCH  14  15
ATOM     15  C   UNL     1     156.387 132.559 171.194  1.00  0.00    -0.003 C 
ATOM     16  C   UNL     1     154.981 132.686 170.616  1.00  0.00     0.004 C 
ENDBRANCH  14  15
ENDBRANCH  13  14
ENDBRANCH  12  13
ENDBRANCH  11  12
ENDBRANCH  10  11
ENDBRANCH   1  10
TORSDOF 12
ENDMDL
MODEL 6
REMARK VINA RESULT:    -3.312      1.920      3.607
REMARK INTER + INTRA:          -7.337
REMARK INTER:                  -5.937
REMARK INTRA:                  -1.400
REMARK UNBOUND:                -1.702
REMARK SMILES CCCCCCCCCCCCCC(=O)[O-]
REMARK SMILES IDX 8 1 9 2 10 3 11 4 12 5 13 6 14 7 15 8 16 9 7 10 6 11 5 12
REMARK SMILES IDX 4 13 3 14 2 15 1 16
REMARK H PARENT
REMARK Flexibility Score: inf
ROOT
ATOM      1  C   UNL     1     152.265 134.172 167.429  1.00  0.00     0.000 C 
ENDROOT
BRANCH   1   2
ATOM      2  C   UNL     1     151.661 132.759 167.340  1.00  0.00     0.000 C 
BRANCH   2   3
ATOM      3  C   UNL     1     150.607 132.641 166.225  1.00  0.00     0.000 C 
BRANCH   3   4
ATOM      4  C   UNL     1     151.193 132.081 164.919  1.00  0.00     0.000 C 
BRANCH   4   5
ATOM      5  C   UNL     1     151.076 133.061 163.737  1.00  0.00     0.006 C 
BRANCH   5   6
ATOM      6  C   UNL     1     149.772 133.879 163.729  1.00  0.00     0.053 C 
BRANCH   6   7
ATOM      7  C   UNL     1     148.651 133.168 163.035  1.00  0.00     0.041 C 
ATOM      8  O   UNL     1     148.440 133.365 161.809  1.00  0.00    -0.550 OA
ATOM      9  O   UNL     1     147.816 132.316 163.746  1.00  0.00    -0.550 OA
ENDBRANCH   6   7
ENDBRANCH   5   6
ENDBRANCH   4   5
ENDBRANCH   3   4
ENDBRANCH   2   3
ENDBRANCH   1   2
BRANCH   1  10
ATOM     10  C   UNL     1     153.792 134.173 167.246  1.00  0.00     0.000 C 
BRANCH  10  11
ATOM     11  C   UNL     1     154.217 133.897 165.797  1.00  0.00    -0.000 C 
BRANCH  11  12
ATOM     12  C   UNL     1     154.968 132.561 165.691  1.00  0.00    -0.000 C 
BRANCH  12  13
ATOM     13  C   UNL     1     155.755 132.210 166.966  1.00  0.00    -0.000 C 
BRANCH  13  14
ATOM     14  C   UNL     1     157.273 132.045 166.769  1.00  0.00    -0.000 C 
BRANCH  14  15
ATOM     15  C   UNL     1     158.097 133.002 167.644  1.00  0.00    -0.003 C 
ATOM     16  C   UNL     1     157.225 133.659 168.710  1.00  0.00     0.004 C 
ENDBRANCH  14  15
ENDBRANCH  13  14
ENDBRANCH  12  13
ENDBRANCH  11  12
ENDBRANCH  10  11
ENDBRANCH   1  10
TORSDOF 12
ENDMDL
MODEL 7
REMARK VINA RESULT:    -3.301      1.184      2.700
REMARK INTER + INTRA:          -7.318
REMARK INTER:                  -5.729
REMARK INTRA:                  -1.590
REMARK UNBOUND:                -1.702
REMARK SMILES CCCCCCCCCCCCCC(=O)[O-]
REMARK SMILES IDX 8 1 9 2 10 3 11 4 12 5 13 6 14 7 15 8 16 9 7 10 6 11 5 12
REMARK SMILES IDX 4 13 3 14 2 15 1 16
REMARK H PARENT
REMARK Flexibility Score: inf
ROOT
ATOM      1  C   UNL     1     153.324 134.418 166.737  1.00  0.00     0.000 C 
ENDROOT
BRANCH   1   2
ATOM      2  C   UNL     1     154.015 133.721 165.552  1.00  0.00     0.000 C 
BRANCH   2   3
ATOM      3  C   UNL     1     153.748 132.207 165.525  1.00  0.00     0.000 C 
BRANCH   3   4
ATOM      4  C   UNL     1     152.254 131.875 165.379  1.00  0.00     0.000 C 
BRANCH   4   5
ATOM      5  C   UNL     1     151.754 131.970 163.925  1.00  0.00     0.006 C 
BRANCH   5   6
ATOM      6  C   UNL     1     150.776 133.132 163.675  1.00  0.00     0.053 C 
BRANCH   6   7
ATOM      7  C   UNL     1     149.386 132.825 164.143  1.00  0.00     0.041 C 
ATOM      8  O   UNL     1     148.581 132.224 163.384  1.00  0.00    -0.550 OA
ATOM      9  O   UNL     1     148.966 133.232 165.403  1.00  0.00    -0.550 OA
ENDBRANCH   6   7
ENDBRANCH   5   6
ENDBRANCH   4   5
ENDBRANCH   3   4
ENDBRANCH   2   3
ENDBRANCH   1   2
BRANCH   1  10
ATOM     10  C   UNL     1     153.965 135.772 167.082  1.00  0.00     0.000 C 
BRANCH  10  11
ATOM     11  C   UNL     1     155.297 136.002 166.352  1.00  0.00    -0.000 C 
BRANCH  11  12
ATOM     12  C   UNL     1     156.423 136.310 167.350  1.00  0.00    -0.000 C 
BRANCH  12  13
ATOM     13  C   UNL     1     156.611 135.206 168.406  1.00  0.00    -0.000 C 
BRANCH  13  14
ATOM     14  C   UNL     1     157.373 133.961 167.916  1.00  0.00    -0.000 C 
BRANCH  14  15
ATOM     15  C   UNL     1     156.556 132.668 168.058  1.00  0.00    -0.003 C 
ATOM     16  C   UNL     1     155.513 132.795 169.163  1.00  0.00     0.004 C 
ENDBRANCH  14  15
ENDBRANCH  13  14
ENDBRANCH  12  13
ENDBRANCH  11  12
ENDBRANCH  10  11
ENDBRANCH   1  10
TORSDOF 12
ENDMDL
MODEL 8
REMARK VINA RESULT:    -3.298      3.507      6.163
REMARK INTER + INTRA:          -7.314
REMARK INTER:                  -5.988
REMARK INTRA:                  -1.326
REMARK UNBOUND:                -1.702
REMARK SMILES CCCCCCCCCCCCCC(=O)[O-]
REMARK SMILES IDX 8 1 9 2 10 3 11 4 12 5 13 6 14 7 15 8 16 9 7 10 6 11 5 12
REMARK SMILES IDX 4 13 3 14 2 15 1 16
REMARK H PARENT
REMARK Flexibility Score: inf
ROOT
ATOM      1  C   UNL     1     156.680 133.775 168.904  1.00  0.00     0.000 C 
ENDROOT
BRANCH   1   2
ATOM      2  C   UNL     1     156.636 135.309 169.014  1.00  0.00     0.000 C 
BRANCH   2   3
ATOM      3  C   UNL     1     156.944 136.002 167.676  1.00  0.00     0.000 C 
BRANCH   3   4
ATOM      4  C   UNL     1     156.390 137.435 167.614  1.00  0.00     0.000 C 
BRANCH   4   5
ATOM      5  C   UNL     1     157.425 138.500 168.023  1.00  0.00     0.006 C 
BRANCH   5   6
ATOM      6  C   UNL     1     157.909 139.382 166.858  1.00  0.00     0.053 C 
BRANCH   6   7
ATOM      7  C   UNL     1     156.792 140.144 166.212  1.00  0.00     0.041 C 
ATOM      8  O   UNL     1     156.148 141.003 166.870  1.00  0.00    -0.550 OA
ATOM      9  O   UNL     1     156.437 139.882 164.895  1.00  0.00    -0.550 OA
ENDBRANCH   6   7
ENDBRANCH   5   6
ENDBRANCH   4   5
ENDBRANCH   3   4
ENDBRANCH   2   3
ENDBRANCH   1   2
BRANCH   1  10
ATOM     10  C   UNL     1     157.647 133.288 167.812  1.00  0.00     0.000 C 
BRANCH  10  11
ATOM     11  C   UNL     1     157.004 132.270 166.859  1.00  0.00    -0.000 C 
BRANCH  11  12
ATOM     12  C   UNL     1     155.472 132.301 166.976  1.00  0.00    -0.000 C 
BRANCH  12  13
ATOM     13  C   UNL     1     154.760 132.011 165.644  1.00  0.00    -0.000 C 
BRANCH  13  14
ATOM     14  C   UNL     1     153.993 133.204 165.044  1.00  0.00    -0.000 C 
BRANCH  14  15
ATOM     15  C   UNL     1     154.358 134.542 165.703  1.00  0.00    -0.003 C 
ATOM     16  C   UNL     1     153.163 135.134 166.443  1.00  0.00     0.004 C 
ENDBRANCH  14  15
ENDBRANCH  13  14
ENDBRANCH  12  13
ENDBRANCH  11  12
ENDBRANCH  10  11
ENDBRANCH   1  10
TORSDOF 12
ENDMDL
MODEL 9
REMARK VINA RESULT:    -3.271      2.517      4.089
REMARK INTER + INTRA:          -7.268
REMARK INTER:                  -6.774
REMARK INTRA:                  -0.493
REMARK UNBOUND:                -1.702
REMARK SMILES CCCCCCCCCCCCCC(=O)[O-]
REMARK SMILES IDX 8 1 9 2 10 3 11 4 12 5 13 6 14 7 15 8 16 9 7 10 6 11 5 12
REMARK SMILES IDX 4 13 3 14 2 15 1 16
REMARK H PARENT
REMARK Flexibility Score: inf
ROOT
ATOM      1  C   UNL     1     154.071 132.902 164.852  1.00  0.00     0.000 C 
ENDROOT
BRANCH   1   2
ATOM      2  C   UNL     1     153.179 132.255 163.778  1.00  0.00     0.000 C 
BRANCH   2   3
ATOM      3  C   UNL     1     151.790 131.876 164.319  1.00  0.00     0.000 C 
BRANCH   3   4
ATOM      4  C   UNL     1     150.818 133.068 164.330  1.00  0.00     0.000 C 
BRANCH   4   5
ATOM      5  C   UNL     1     149.386 132.680 163.917  1.00  0.00     0.006 C 
BRANCH   5   6
ATOM      6  C   UNL     1     149.059 132.977 162.441  1.00  0.00     0.053 C 
BRANCH   6   7
ATOM      7  C   UNL     1     147.678 133.528 162.259  1.00  0.00     0.041 C 
ATOM      8  O   UNL     1     147.076 134.060 163.228  1.00  0.00    -0.550 OA
ATOM      9  O   UNL     1     147.040 133.424 161.029  1.00  0.00    -0.550 OA
ENDBRANCH   6   7
ENDBRANCH   5   6
ENDBRANCH   4   5
ENDBRANCH   3   4
ENDBRANCH   2   3
ENDBRANCH   1   2
BRANCH   1  10
ATOM     10  C   UNL     1     154.405 131.938 166.002  1.00  0.00     0.000 C 
BRANCH  10  11
ATOM     11  C   UNL     1     155.368 132.550 167.030  1.00  0.00    -0.000 C 
BRANCH  11  12
ATOM     12  C   UNL     1     156.825 132.199 166.693  1.00  0.00    -0.000 C 
BRANCH  12  13
ATOM     13  C   UNL     1     157.841 132.882 167.625  1.00  0.00    -0.000 C 
BRANCH  13  14
ATOM     14  C   UNL     1     157.902 132.308 169.052  1.00  0.00    -0.000 C 
BRANCH  14  15
ATOM     15  C   UNL     1     157.569 133.351 170.131  1.00  0.00    -0.003 C 
ATOM     16  C   UNL     1     157.035 132.683 171.394  1.00  0.00     0.004 C 
ENDBRANCH  14  15
ENDBRANCH  13  14
ENDBRANCH  12  13
ENDBRANCH  11  12
ENDBRANCH  10  11
ENDBRANCH   1  10
TORSDOF 12
ENDMDL
