MODEL 1
REMARK VINA RESULT:    -3.669      0.000      0.000
REMARK INTER + INTRA:          -9.292
REMARK INTER:                  -6.671
REMARK INTRA:                  -2.621
REMARK UNBOUND:                -2.621
REMARK SMILES CCCCCCCCCCCCCCCC(=O)[O-]
REMARK SMILES IDX 9 1 10 2 11 3 12 4 13 5 14 6 15 7 16 8 17 9 18 10 8 11 7 12
REMARK SMILES IDX 6 13 5 14 4 15 3 16 2 17 1 18
REMARK H PARENT
REMARK Flexibility Score: inf
ROOT
ATOM      1  C   UNL     1     -33.746 -44.984  30.942  1.00  0.00     0.000 C 
ENDROOT
BRANCH   1   2
ATOM      2  C   UNL     1     -32.817 -45.709  29.957  1.00  0.00     0.000 C 
BRANCH   2   3
ATOM      3  C   UNL     1     -32.903 -47.231  30.140  1.00  0.00     0.000 C 
BRANCH   3   4
ATOM      4  C   UNL     1     -34.134 -47.848  29.452  1.00  0.00     0.000 C 
BRANCH   4   5
ATOM      5  C   UNL     1     -35.103 -48.592  30.392  1.00  0.00     0.000 C 
BRANCH   5   6
ATOM      6  C   UNL     1     -34.995 -48.211  31.882  1.00  0.00     0.006 C 
BRANCH   6   7
ATOM      7  C   UNL     1     -36.159 -47.353  32.402  1.00  0.00     0.053 C 
BRANCH   7   8
ATOM      8  C   UNL     1     -36.006 -47.025  33.857  1.00  0.00     0.041 C 
ATOM      9  O   UNL     1     -36.938 -47.278  34.664  1.00  0.00    -0.550 OA
ATOM     10  O   UNL     1     -34.820 -46.473  34.324  1.00  0.00    -0.550 OA
ENDBRANCH   7   8
ENDBRANCH   6   7
ENDBRANCH   5   6
ENDBRANCH   4   5
ENDBRANCH   3   4
ENDBRANCH   2   3
ENDBRANCH   1   2
BRANCH   1  11
ATOM     11  C   UNL     1     -34.786 -44.089  30.242  1.00  0.00     0.000 C 
BRANCH  11  12
ATOM     12  C   UNL     1     -36.224 -44.637  30.230  1.00  0.00    -0.000 C 
BRANCH  12  13
ATOM     13  C   UNL     1     -36.610 -45.285  28.890  1.00  0.00    -0.000 C 
BRANCH  13  14
ATOM     14  C   UNL     1     -35.902 -44.641  27.684  1.00  0.00    -0.000 C 
BRANCH  14  15
ATOM     15  C   UNL     1     -35.242 -45.627  26.702  1.00  0.00    -0.000 C 
BRANCH  15  16
ATOM     16  C   UNL     1     -33.780 -45.269  26.381  1.00  0.00    -0.000 C 
BRANCH  16  17
ATOM     17  C   UNL     1     -33.424 -43.830  26.788  1.00  0.00    -0.003 C 
ATOM     18  C   UNL     1     -31.944 -43.658  27.130  1.00  0.00     0.004 C 
ENDBRANCH  16  17
ENDBRANCH  15  16
ENDBRANCH  14  15
ENDBRANCH  13  14
ENDBRANCH  12  13
ENDBRANCH  11  12
ENDBRANCH   1  11
TORSDOF 14
ENDMDL
MODEL 2
REMARK VINA RESULT:    -3.528      6.114      8.688
REMARK INTER + INTRA:          -9.036
REMARK INTER:                  -6.973
REMARK INTRA:                  -2.063
REMARK UNBOUND:                -2.621
REMARK SMILES CCCCCCCCCCCCCCCC(=O)[O-]
REMARK SMILES IDX 9 1 10 2 11 3 12 4 13 5 14 6 15 7 16 8 17 9 18 10 8 11 7 12
REMARK SMILES IDX 6 13 5 14 4 15 3 16 2 17 1 18
REMARK H PARENT
REMARK Flexibility Score: inf
ROOT
ATOM      1  C   UNL     1     -32.328 -49.743  22.789  1.00  0.00     0.000 C 
ENDROOT
BRANCH   1   2
ATOM      2  C   UNL     1     -33.577 -48.938  22.401  1.00  0.00     0.000 C 
BRANCH   2   3
ATOM      3  C   UNL     1     -34.488 -48.719  23.618  1.00  0.00     0.000 C 
BRANCH   3   4
ATOM      4  C   UNL     1     -33.702 -48.542  24.930  1.00  0.00     0.000 C 
BRANCH   4   5
ATOM      5  C   UNL     1     -33.403 -47.080  25.319  1.00  0.00     0.000 C 
BRANCH   5   6
ATOM      6  C   UNL     1     -34.221 -46.018  24.558  1.00  0.00     0.006 C 
BRANCH   6   7
ATOM      7  C   UNL     1     -33.392 -45.137  23.611  1.00  0.00     0.053 C 
BRANCH   7   8
ATOM      8  C   UNL     1     -33.206 -43.752  24.154  1.00  0.00     0.041 C 
ATOM      9  O   UNL     1     -33.058 -43.570  25.390  1.00  0.00    -0.550 OA
ATOM     10  O   UNL     1     -33.163 -42.667  23.288  1.00  0.00    -0.550 OA
ENDBRANCH   7   8
ENDBRANCH   6   7
ENDBRANCH   5   6
ENDBRANCH   4   5
ENDBRANCH   3   4
ENDBRANCH   2   3
ENDBRANCH   1   2
BRANCH   1  11
ATOM     11  C   UNL     1     -31.050 -48.885  22.838  1.00  0.00     0.000 C 
BRANCH  11  12
ATOM     12  C   UNL     1     -30.982 -47.747  21.803  1.00  0.00    -0.000 C 
BRANCH  12  13
ATOM     13  C   UNL     1     -30.265 -46.494  22.334  1.00  0.00    -0.000 C 
BRANCH  13  14
ATOM     14  C   UNL     1     -29.906 -46.594  23.828  1.00  0.00    -0.000 C 
BRANCH  14  15
ATOM     15  C   UNL     1     -28.420 -46.370  24.166  1.00  0.00    -0.000 C 
BRANCH  15  16
ATOM     16  C   UNL     1     -27.692 -47.666  24.562  1.00  0.00    -0.000 C 
BRANCH  16  17
ATOM     17  C   UNL     1     -26.703 -48.138  23.484  1.00  0.00    -0.003 C 
ATOM     18  C   UNL     1     -27.381 -48.912  22.354  1.00  0.00     0.004 C 
ENDBRANCH  16  17
ENDBRANCH  15  16
ENDBRANCH  14  15
ENDBRANCH  13  14
ENDBRANCH  12  13
ENDBRANCH  11  12
ENDBRANCH   1  11
TORSDOF 14
ENDMDL
MODEL 3
REMARK VINA RESULT:    -3.501      9.132     11.090
REMARK INTER + INTRA:          -8.986
REMARK INTER:                  -6.651
REMARK INTRA:                  -2.335
REMARK UNBOUND:                -2.621
REMARK SMILES CCCCCCCCCCCCCCCC(=O)[O-]
REMARK SMILES IDX 9 1 10 2 11 3 12 4 13 5 14 6 15 7 16 8 17 9 18 10 8 11 7 12
REMARK SMILES IDX 6 13 5 14 4 15 3 16 2 17 1 18
REMARK H PARENT
REMARK Flexibility Score: inf
ROOT
ATOM      1  C   UNL     1     -27.755 -52.825  29.323  1.00  0.00     0.000 C 
ENDROOT
BRANCH   1   2
ATOM      2  C   UNL     1     -27.933 -51.374  29.795  1.00  0.00     0.000 C 
BRANCH   2   3
ATOM      3  C   UNL     1     -26.858 -50.463  29.184  1.00  0.00     0.000 C 
BRANCH   3   4
ATOM      4  C   UNL     1     -26.140 -49.598  30.235  1.00  0.00     0.000 C 
BRANCH   4   5
ATOM      5  C   UNL     1     -24.935 -50.271  30.922  1.00  0.00     0.000 C 
BRANCH   5   6
ATOM      6  C   UNL     1     -25.034 -50.386  32.456  1.00  0.00     0.006 C 
BRANCH   6   7
ATOM      7  C   UNL     1     -25.383 -51.793  32.965  1.00  0.00     0.053 C 
BRANCH   7   8
ATOM      8  C   UNL     1     -26.815 -51.892  33.398  1.00  0.00     0.041 C 
ATOM      9  O   UNL     1     -27.311 -53.009  33.695  1.00  0.00    -0.550 OA
ATOM     10  O   UNL     1     -27.590 -50.744  33.505  1.00  0.00    -0.550 OA
ENDBRANCH   7   8
ENDBRANCH   6   7
ENDBRANCH   5   6
ENDBRANCH   4   5
ENDBRANCH   3   4
ENDBRANCH   2   3
ENDBRANCH   1   2
BRANCH   1  11
ATOM     11  C   UNL     1     -26.582 -53.543  30.015  1.00  0.00     0.000 C 
BRANCH  11  12
ATOM     12  C   UNL     1     -25.589 -54.243  29.070  1.00  0.00    -0.000 C 
BRANCH  12  13
ATOM     13  C   UNL     1     -24.655 -53.260  28.344  1.00  0.00    -0.000 C 
BRANCH  13  14
ATOM     14  C   UNL     1     -24.824 -53.286  26.814  1.00  0.00    -0.000 C 
BRANCH  14  15
ATOM     15  C   UNL     1     -25.527 -52.058  26.207  1.00  0.00    -0.000 C 
BRANCH  15  16
ATOM     16  C   UNL     1     -26.732 -52.430  25.325  1.00  0.00    -0.000 C 
BRANCH  16  17
ATOM     17  C   UNL     1     -27.330 -53.797  25.693  1.00  0.00    -0.003 C 
ATOM     18  C   UNL     1     -27.717 -54.626  24.468  1.00  0.00     0.004 C 
ENDBRANCH  16  17
ENDBRANCH  15  16
ENDBRANCH  14  15
ENDBRANCH  13  14
ENDBRANCH  12  13
ENDBRANCH  11  12
ENDBRANCH   1  11
TORSDOF 14
ENDMDL
MODEL 4
REMARK VINA RESULT:    -3.486     10.849     12.559
REMARK INTER + INTRA:          -8.960
REMARK INTER:                  -7.524
REMARK INTRA:                  -1.436
REMARK UNBOUND:                -2.621
REMARK SMILES CCCCCCCCCCCCCCCC(=O)[O-]
REMARK SMILES IDX 9 1 10 2 11 3 12 4 13 5 14 6 15 7 16 8 17 9 18 10 8 11 7 12
REMARK SMILES IDX 6 13 5 14 4 15 3 16 2 17 1 18
REMARK H PARENT
REMARK Flexibility Score: inf
ROOT
ATOM      1  C   UNL     1     -26.967 -52.725  30.099  1.00  0.00     0.000 C 
ENDROOT
BRANCH   1   2
ATOM      2  C   UNL     1     -26.023 -53.922  30.278  1.00  0.00     0.000 C 
BRANCH   2   3
ATOM      3  C   UNL     1     -25.585 -54.485  28.917  1.00  0.00     0.000 C 
BRANCH   3   4
ATOM      4  C   UNL     1     -26.755 -54.638  27.929  1.00  0.00     0.000 C 
BRANCH   4   5
ATOM      5  C   UNL     1     -26.540 -53.973  26.555  1.00  0.00     0.000 C 
BRANCH   5   6
ATOM      6  C   UNL     1     -25.422 -52.912  26.507  1.00  0.00     0.006 C 
BRANCH   6   7
ATOM      7  C   UNL     1     -25.877 -51.534  26.003  1.00  0.00     0.053 C 
BRANCH   7   8
ATOM      8  C   UNL     1     -25.651 -51.373  24.530  1.00  0.00     0.041 C 
ATOM      9  O   UNL     1     -26.437 -51.909  23.706  1.00  0.00    -0.550 OA
ATOM     10  O   UNL     1     -24.591 -50.603  24.070  1.00  0.00    -0.550 OA
ENDBRANCH   7   8
ENDBRANCH   6   7
ENDBRANCH   5   6
ENDBRANCH   4   5
ENDBRANCH   3   4
ENDBRANCH   2   3
ENDBRANCH   1   2
BRANCH   1  11
ATOM     11  C   UNL     1     -26.221 -51.407  29.816  1.00  0.00     0.000 C 
BRANCH  11  12
ATOM     12  C   UNL     1     -24.792 -51.326  30.383  1.00  0.00    -0.000 C 
BRANCH  12  13
ATOM     13  C   UNL     1     -24.598 -50.151  31.357  1.00  0.00    -0.000 C 
BRANCH  13  14
ATOM     14  C   UNL     1     -25.584 -50.181  32.539  1.00  0.00    -0.000 C 
BRANCH  14  15
ATOM     15  C   UNL     1     -25.265 -51.210  33.640  1.00  0.00    -0.000 C 
BRANCH  15  16
ATOM     16  C   UNL     1     -24.790 -50.561  34.951  1.00  0.00    -0.000 C 
BRANCH  16  17
ATOM     17  C   UNL     1     -25.391 -49.163  35.166  1.00  0.00    -0.003 C 
ATOM     18  C   UNL     1     -26.815 -49.208  35.722  1.00  0.00     0.004 C 
ENDBRANCH  16  17
ENDBRANCH  15  16
ENDBRANCH  14  15
ENDBRANCH  13  14
ENDBRANCH  12  13
ENDBRANCH  11  12
ENDBRANCH   1  11
TORSDOF 14
ENDMDL
MODEL 5
REMARK VINA RESULT:    -3.486      1.638      3.392
REMARK INTER + INTRA:          -8.960
REMARK INTER:                  -7.159
REMARK INTRA:                  -1.801
REMARK UNBOUND:                -2.621
REMARK SMILES CCCCCCCCCCCCCCCC(=O)[O-]
REMARK SMILES IDX 9 1 10 2 11 3 12 4 13 5 14 6 15 7 16 8 17 9 18 10 8 11 7 12
REMARK SMILES IDX 6 13 5 14 4 15 3 16 2 17 1 18
REMARK H PARENT
REMARK Flexibility Score: inf
ROOT
ATOM      1  C   UNL     1     -34.888 -46.259  28.108  1.00  0.00     0.000 C 
ENDROOT
BRANCH   1   2
ATOM      2  C   UNL     1     -35.965 -45.172  27.976  1.00  0.00     0.000 C 
BRANCH   2   3
ATOM      3  C   UNL     1     -35.555 -43.899  28.732  1.00  0.00     0.000 C 
BRANCH   3   4
ATOM      4  C   UNL     1     -34.629 -44.185  29.928  1.00  0.00     0.000 C 
BRANCH   4   5
ATOM      5  C   UNL     1     -35.339 -44.286  31.293  1.00  0.00     0.000 C 
BRANCH   5   6
ATOM      6  C   UNL     1     -34.798 -45.380  32.234  1.00  0.00     0.006 C 
BRANCH   6   7
ATOM      7  C   UNL     1     -35.838 -46.435  32.644  1.00  0.00     0.053 C 
BRANCH   7   8
ATOM      8  C   UNL     1     -35.597 -46.950  34.030  1.00  0.00     0.041 C 
ATOM      9  O   UNL     1     -36.520 -47.526  34.661  1.00  0.00    -0.550 OA
ATOM     10  O   UNL     1     -34.341 -46.823  34.611  1.00  0.00    -0.550 OA
ENDBRANCH   7   8
ENDBRANCH   6   7
ENDBRANCH   5   6
ENDBRANCH   4   5
ENDBRANCH   3   4
ENDBRANCH   2   3
ENDBRANCH   1   2
BRANCH   1  11
ATOM     11  C   UNL     1     -34.425 -46.815  26.748  1.00  0.00     0.000 C 
BRANCH  11  12
ATOM     12  C   UNL     1     -35.263 -46.370  25.536  1.00  0.00    -0.000 C 
BRANCH  12  13
ATOM     13  C   UNL     1     -34.632 -46.768  24.191  1.00  0.00    -0.000 C 
BRANCH  13  14
ATOM     14  C   UNL     1     -33.295 -46.055  23.918  1.00  0.00    -0.000 C 
BRANCH  14  15
ATOM     15  C   UNL     1     -33.382 -44.525  23.766  1.00  0.00    -0.000 C 
BRANCH  15  16
ATOM     16  C   UNL     1     -32.366 -43.775  24.646  1.00  0.00    -0.000 C 
BRANCH  16  17
ATOM     17  C   UNL     1     -32.930 -43.432  26.034  1.00  0.00    -0.003 C 
ATOM     18  C   UNL     1     -32.070 -43.975  27.175  1.00  0.00     0.004 C 
ENDBRANCH  16  17
ENDBRANCH  15  16
ENDBRANCH  14  15
ENDBRANCH  13  14
ENDBRANCH  12  13
ENDBRANCH  11  12
ENDBRANCH   1  11
TORSDOF 14
ENDMDL
MODEL 6
REMARK VINA RESULT:    -3.446      9.176     10.892
REMARK INTER + INTRA:          -8.888
REMARK INTER:                  -6.613
REMARK INTRA:                  -2.275
REMARK UNBOUND:                -2.621
REMARK SMILES CCCCCCCCCCCCCCCC(=O)[O-]
REMARK SMILES IDX 9 1 10 2 11 3 12 4 13 5 14 6 15 7 16 8 17 9 18 10 8 11 7 12
REMARK SMILES IDX 6 13 5 14 4 15 3 16 2 17 1 18
REMARK H PARENT
REMARK Flexibility Score: inf
ROOT
ATOM      1  C   UNL     1     -27.791 -51.248  30.037  1.00  0.00     0.000 C 
ENDROOT
BRANCH   1   2
ATOM      2  C   UNL     1     -26.607 -50.430  29.501  1.00  0.00     0.000 C 
BRANCH   2   3
ATOM      3  C   UNL     1     -25.917 -49.655  30.634  1.00  0.00     0.000 C 
BRANCH   3   4
ATOM      4  C   UNL     1     -24.639 -50.347  31.140  1.00  0.00     0.000 C 
BRANCH   4   5
ATOM      5  C   UNL     1     -24.563 -50.540  32.668  1.00  0.00     0.000 C 
BRANCH   5   6
ATOM      6  C   UNL     1     -25.610 -51.504  33.261  1.00  0.00     0.006 C 
BRANCH   6   7
ATOM      7  C   UNL     1     -26.788 -50.808  33.959  1.00  0.00     0.053 C 
BRANCH   7   8
ATOM      8  C   UNL     1     -26.405 -49.462  34.497  1.00  0.00     0.041 C 
ATOM      9  O   UNL     1     -26.875 -48.416  33.978  1.00  0.00    -0.550 OA
ATOM     10  O   UNL     1     -25.556 -49.367  35.592  1.00  0.00    -0.550 OA
ENDBRANCH   7   8
ENDBRANCH   6   7
ENDBRANCH   5   6
ENDBRANCH   4   5
ENDBRANCH   3   4
ENDBRANCH   2   3
ENDBRANCH   1   2
BRANCH   1  11
ATOM     11  C   UNL     1     -27.686 -52.748  29.704  1.00  0.00     0.000 C 
BRANCH  11  12
ATOM     12  C   UNL     1     -26.538 -53.498  30.403  1.00  0.00    -0.000 C 
BRANCH  12  13
ATOM     13  C   UNL     1     -25.610 -54.229  29.418  1.00  0.00    -0.000 C 
BRANCH  13  14
ATOM     14  C   UNL     1     -24.569 -53.299  28.769  1.00  0.00    -0.000 C 
BRANCH  14  15
ATOM     15  C   UNL     1     -24.670 -53.161  27.238  1.00  0.00    -0.000 C 
BRANCH  15  16
ATOM     16  C   UNL     1     -25.967 -53.759  26.665  1.00  0.00    -0.000 C 
BRANCH  16  17
ATOM     17  C   UNL     1     -26.774 -52.739  25.846  1.00  0.00    -0.003 C 
ATOM     18  C   UNL     1     -26.173 -51.334  25.891  1.00  0.00     0.004 C 
ENDBRANCH  16  17
ENDBRANCH  15  16
ENDBRANCH  14  15
ENDBRANCH  13  14
ENDBRANCH  12  13
ENDBRANCH  11  12
ENDBRANCH   1  11
TORSDOF 14
ENDMDL
MODEL 7
REMARK VINA RESULT:    -3.409      9.456     11.593
REMARK INTER + INTRA:          -8.820
REMARK INTER:                  -6.708
REMARK INTRA:                  -2.113
REMARK UNBOUND:                -2.621
REMARK SMILES CCCCCCCCCCCCCCCC(=O)[O-]
REMARK SMILES IDX 9 1 10 2 11 3 12 4 13 5 14 6 15 7 16 8 17 9 18 10 8 11 7 12
REMARK SMILES IDX 6 13 5 14 4 15 3 16 2 17 1 18
REMARK H PARENT
REMARK Flexibility Score: inf
ROOT
ATOM      1  C   UNL     1     -26.771 -52.002  25.928  1.00  0.00     0.000 C 
ENDROOT
BRANCH   1   2
ATOM      2  C   UNL     1     -25.546 -51.403  25.223  1.00  0.00     0.000 C 
BRANCH   2   3
ATOM      3  C   UNL     1     -25.805 -51.239  23.717  1.00  0.00     0.000 C 
BRANCH   3   4
ATOM      4  C   UNL     1     -27.129 -50.517  23.413  1.00  0.00     0.000 C 
BRANCH   4   5
ATOM      5  C   UNL     1     -26.984 -49.049  22.963  1.00  0.00     0.000 C 
BRANCH   5   6
ATOM      6  C   UNL     1     -28.196 -48.146  23.268  1.00  0.00     0.006 C 
BRANCH   6   7
ATOM      7  C   UNL     1     -29.505 -48.596  22.604  1.00  0.00     0.053 C 
BRANCH   7   8
ATOM      8  C   UNL     1     -30.336 -47.431  22.158  1.00  0.00     0.041 C 
ATOM      9  O   UNL     1     -29.971 -46.256  22.419  1.00  0.00    -0.550 OA
ATOM     10  O   UNL     1     -31.495 -47.645  21.423  1.00  0.00    -0.550 OA
ENDBRANCH   7   8
ENDBRANCH   6   7
ENDBRANCH   5   6
ENDBRANCH   4   5
ENDBRANCH   3   4
ENDBRANCH   2   3
ENDBRANCH   1   2
BRANCH   1  11
ATOM     11  C   UNL     1     -26.722 -53.539  26.017  1.00  0.00     0.000 C 
BRANCH  11  12
ATOM     12  C   UNL     1     -27.989 -54.266  25.531  1.00  0.00    -0.000 C 
BRANCH  12  13
ATOM     13  C   UNL     1     -27.813 -54.924  24.152  1.00  0.00    -0.000 C 
BRANCH  13  14
ATOM     14  C   UNL     1     -28.226 -54.004  22.988  1.00  0.00    -0.000 C 
BRANCH  14  15
ATOM     15  C   UNL     1     -29.744 -53.866  22.763  1.00  0.00    -0.000 C 
BRANCH  15  16
ATOM     16  C   UNL     1     -30.196 -52.405  22.598  1.00  0.00    -0.000 C 
BRANCH  16  17
ATOM     17  C   UNL     1     -31.126 -51.946  23.732  1.00  0.00    -0.003 C 
ATOM     18  C   UNL     1     -30.365 -51.494  24.978  1.00  0.00     0.004 C 
ENDBRANCH  16  17
ENDBRANCH  15  16
ENDBRANCH  14  15
ENDBRANCH  13  14
ENDBRANCH  12  13
ENDBRANCH  11  12
ENDBRANCH   1  11
TORSDOF 14
ENDMDL
MODEL 8
REMARK VINA RESULT:    -3.403      4.087      7.034
REMARK INTER + INTRA:          -8.808
REMARK INTER:                  -6.553
REMARK INTRA:                  -2.255
REMARK UNBOUND:                -2.621
REMARK SMILES CCCCCCCCCCCCCCCC(=O)[O-]
REMARK SMILES IDX 9 1 10 2 11 3 12 4 13 5 14 6 15 7 16 8 17 9 18 10 8 11 7 12
REMARK SMILES IDX 6 13 5 14 4 15 3 16 2 17 1 18
REMARK H PARENT
REMARK Flexibility Score: inf
ROOT
ATOM      1  C   UNL     1     -30.605 -45.939  33.358  1.00  0.00     0.000 C 
ENDROOT
BRANCH   1   2
ATOM      2  C   UNL     1     -30.978 -44.804  34.322  1.00  0.00     0.000 C 
BRANCH   2   3
ATOM      3  C   UNL     1     -32.450 -44.397  34.149  1.00  0.00     0.000 C 
BRANCH   3   4
ATOM      4  C   UNL     1     -33.407 -45.602  34.152  1.00  0.00     0.000 C 
BRANCH   4   5
ATOM      5  C   UNL     1     -34.324 -45.710  32.918  1.00  0.00     0.000 C 
BRANCH   5   6
ATOM      6  C   UNL     1     -34.284 -44.501  31.962  1.00  0.00     0.006 C 
BRANCH   6   7
ATOM      7  C   UNL     1     -34.163 -44.871  30.476  1.00  0.00     0.053 C 
BRANCH   7   8
ATOM      8  C   UNL     1     -35.235 -44.228  29.650  1.00  0.00     0.041 C 
ATOM      9  O   UNL     1     -36.349 -44.795  29.503  1.00  0.00    -0.550 OA
ATOM     10  O   UNL     1     -35.014 -42.985  29.070  1.00  0.00    -0.550 OA
ENDBRANCH   7   8
ENDBRANCH   6   7
ENDBRANCH   5   6
ENDBRANCH   4   5
ENDBRANCH   3   4
ENDBRANCH   2   3
ENDBRANCH   1   2
BRANCH   1  11
ATOM     11  C   UNL     1     -29.851 -47.091  34.048  1.00  0.00     0.000 C 
BRANCH  11  12
ATOM     12  C   UNL     1     -29.992 -47.145  35.580  1.00  0.00    -0.000 C 
BRANCH  12  13
ATOM     13  C   UNL     1     -30.684 -48.426  36.075  1.00  0.00    -0.000 C 
BRANCH  13  14
ATOM     14  C   UNL     1     -32.071 -48.163  36.689  1.00  0.00    -0.000 C 
BRANCH  14  15
ATOM     15  C   UNL     1     -33.224 -48.995  36.098  1.00  0.00    -0.000 C 
BRANCH  15  16
ATOM     16  C   UNL     1     -32.810 -49.793  34.849  1.00  0.00    -0.000 C 
BRANCH  16  17
ATOM     17  C   UNL     1     -33.538 -49.320  33.580  1.00  0.00    -0.003 C 
ATOM     18  C   UNL     1     -32.580 -48.973  32.440  1.00  0.00     0.004 C 
ENDBRANCH  16  17
ENDBRANCH  15  16
ENDBRANCH  14  15
ENDBRANCH  13  14
ENDBRANCH  12  13
ENDBRANCH  11  12
ENDBRANCH   1  11
TORSDOF 14
ENDMDL
MODEL 9
REMARK VINA RESULT:    -3.390      8.766     10.834
REMARK INTER + INTRA:          -8.784
REMARK INTER:                  -6.216
REMARK INTRA:                  -2.569
REMARK UNBOUND:                -2.621
REMARK SMILES CCCCCCCCCCCCCCCC(=O)[O-]
REMARK SMILES IDX 9 1 10 2 11 3 12 4 13 5 14 6 15 7 16 8 17 9 18 10 8 11 7 12
REMARK SMILES IDX 6 13 5 14 4 15 3 16 2 17 1 18
REMARK H PARENT
REMARK Flexibility Score: inf
ROOT
ATOM      1  C   UNL     1     -25.377 -54.074  29.321  1.00  0.00     0.000 C 
ENDROOT
BRANCH   1   2
ATOM      2  C   UNL     1     -25.847 -54.257  30.771  1.00  0.00     0.000 C 
BRANCH   2   3
ATOM      3  C   UNL     1     -25.502 -53.023  31.620  1.00  0.00     0.000 C 
BRANCH   3   4
ATOM      4  C   UNL     1     -24.669 -51.983  30.851  1.00  0.00     0.000 C 
BRANCH   4   5
ATOM      5  C   UNL     1     -24.693 -50.560  31.444  1.00  0.00     0.000 C 
BRANCH   5   6
ATOM      6  C   UNL     1     -25.124 -50.472  32.922  1.00  0.00     0.006 C 
BRANCH   6   7
ATOM      7  C   UNL     1     -26.416 -49.676  33.159  1.00  0.00     0.053 C 
BRANCH   7   8
ATOM      8  C   UNL     1     -27.456 -50.492  33.866  1.00  0.00     0.041 C 
ATOM      9  O   UNL     1     -28.095 -51.380  33.244  1.00  0.00    -0.550 OA
ATOM     10  O   UNL     1     -27.692 -50.294  35.220  1.00  0.00    -0.550 OA
ENDBRANCH   7   8
ENDBRANCH   6   7
ENDBRANCH   5   6
ENDBRANCH   4   5
ENDBRANCH   3   4
ENDBRANCH   2   3
ENDBRANCH   1   2
BRANCH   1  11
ATOM     11  C   UNL     1     -26.241 -54.846  28.306  1.00  0.00     0.000 C 
BRANCH  11  12
ATOM     12  C   UNL     1     -26.603 -54.071  27.026  1.00  0.00    -0.000 C 
BRANCH  12  13
ATOM     13  C   UNL     1     -25.517 -53.067  26.605  1.00  0.00    -0.000 C 
BRANCH  13  14
ATOM     14  C   UNL     1     -26.022 -51.612  26.572  1.00  0.00    -0.000 C 
BRANCH  14  15
ATOM     15  C   UNL     1     -27.337 -51.353  27.330  1.00  0.00    -0.000 C 
BRANCH  15  16
ATOM     16  C   UNL     1     -27.147 -50.477  28.581  1.00  0.00    -0.000 C 
BRANCH  16  17
ATOM     17  C   UNL     1     -28.044 -50.917  29.749  1.00  0.00    -0.003 C 
ATOM     18  C   UNL     1     -28.750 -52.247  29.487  1.00  0.00     0.004 C 
ENDBRANCH  16  17
ENDBRANCH  15  16
ENDBRANCH  14  15
ENDBRANCH  13  14
ENDBRANCH  12  13
ENDBRANCH  11  12
ENDBRANCH   1  11
TORSDOF 14
ENDMDL
