MODEL 1
REMARK VINA RESULT:    -0.986      0.000      0.000
REMARK INTER + INTRA:          -2.231
REMARK INTER:                  -1.505
REMARK INTRA:                  -0.727
REMARK UNBOUND:                -0.727
REMARK SMILES CC(=O)CCC=C(C)CCC=C(C)CCC=C(C)C
REMARK SMILES IDX 10 1 11 2 12 3 13 4 14 5 15 6 16 7 18 8 17 9 19 10 9 11 7 12
REMARK SMILES IDX 6 13 8 14 5 15 4 16 2 17 3 18 1 19
REMARK H PARENT
REMARK Flexibility Score: inf
ROOT
ATOM      1  C   UNL     1       3.345  11.575  -8.965  1.00  0.00     0.032 C 
ENDROOT
BRANCH   1   2
ATOM      2  C   UNL     1       2.831  12.343  -7.773  1.00  0.00    -0.028 C 
ATOM      3  C   UNL     1       2.381  13.618  -7.822  1.00  0.00    -0.077 C 
ATOM      4  C   UNL     1       2.276  14.379  -9.122  1.00  0.00     0.039 C 
BRANCH   3   5
ATOM      5  C   UNL     1       1.898  14.282  -6.549  1.00  0.00     0.034 C 
BRANCH   5   6
ATOM      6  C   UNL     1       3.068  14.742  -5.668  1.00  0.00     0.032 C 
BRANCH   6   7
ATOM      7  C   UNL     1       3.044  16.234  -5.428  1.00  0.00    -0.028 C 
ATOM      8  C   UNL     1       4.231  16.769  -7.568  1.00  0.00     0.039 C 
ATOM      9  C   UNL     1       3.588  17.152  -6.256  1.00  0.00    -0.080 C 
ATOM     10  C   UNL     1       3.528  18.603  -5.854  1.00  0.00     0.039 C 
ENDBRANCH   6   7
ENDBRANCH   5   6
ENDBRANCH   3   5
ENDBRANCH   1   2
BRANCH   1  11
ATOM     11  C   UNL     1       4.876  11.486  -8.937  1.00  0.00     0.034 C 
BRANCH  11  12
ATOM     12  C   UNL     1       5.455  12.492  -7.965  1.00  0.00    -0.077 C 
ATOM     13  C   UNL     1       5.630  12.129  -6.674  1.00  0.00    -0.028 C 
ATOM     14  C   UNL     1       5.847  13.861  -8.470  1.00  0.00     0.039 C 
BRANCH  13  15
ATOM     15  C   UNL     1       6.156  13.045  -5.596  1.00  0.00     0.035 C 
BRANCH  15  16
ATOM     16  C   UNL     1       6.405  12.268  -4.301  1.00  0.00     0.079 C 
BRANCH  16  17
ATOM     17  C   UNL     1       5.367  12.614  -3.265  1.00  0.00     0.130 C 
ATOM     18  O   UNL     1       4.249  12.952  -3.624  1.00  0.00    -0.300 OA
ATOM     19  C   UNL     1       5.678  12.558  -1.798  1.00  0.00     0.087 C 
ENDBRANCH  16  17
ENDBRANCH  15  16
ENDBRANCH  13  15
ENDBRANCH  11  12
ENDBRANCH   1  11
TORSDOF 9
ENDMDL
MODEL 2
REMARK VINA RESULT:    -0.829      2.608      5.078
REMARK INTER + INTRA:          -1.993
REMARK INTER:                  -0.828
REMARK INTRA:                  -1.164
REMARK UNBOUND:                -0.727
REMARK SMILES CC(=O)CCC=C(C)CCC=C(C)CCC=C(C)C
REMARK SMILES IDX 10 1 11 2 12 3 13 4 14 5 15 6 16 7 18 8 17 9 19 10 9 11 7 12
REMARK SMILES IDX 6 13 8 14 5 15 4 16 2 17 3 18 1 19
REMARK H PARENT
REMARK Flexibility Score: inf
ROOT
ATOM      1  C   UNL     1       2.279  12.436  -6.187  1.00  0.00     0.032 C 
ENDROOT
BRANCH   1   2
ATOM      2  C   UNL     1       3.370  12.200  -7.200  1.00  0.00    -0.028 C 
ATOM      3  C   UNL     1       3.377  11.183  -8.092  1.00  0.00    -0.077 C 
ATOM      4  C   UNL     1       2.225  10.216  -8.211  1.00  0.00     0.039 C 
BRANCH   3   5
ATOM      5  C   UNL     1       4.540  11.051  -9.054  1.00  0.00     0.034 C 
BRANCH   5   6
ATOM      6  C   UNL     1       5.785  11.793  -8.548  1.00  0.00     0.032 C 
BRANCH   6   7
ATOM      7  C   UNL     1       5.890  13.185  -9.125  1.00  0.00    -0.028 C 
ATOM      8  C   UNL     1       5.823  14.304  -6.885  1.00  0.00     0.039 C 
ATOM      9  C   UNL     1       5.878  14.321  -8.394  1.00  0.00    -0.080 C 
ATOM     10  C   UNL     1       5.941  15.639  -9.120  1.00  0.00     0.039 C 
ENDBRANCH   6   7
ENDBRANCH   5   6
ENDBRANCH   3   5
ENDBRANCH   1   2
BRANCH   1  11
ATOM     11  C   UNL     1       1.368  13.590  -6.625  1.00  0.00     0.034 C 
BRANCH  11  12
ATOM     12  C   UNL     1       2.183  14.733  -7.189  1.00  0.00    -0.077 C 
ATOM     13  C   UNL     1       2.626  15.698  -6.352  1.00  0.00    -0.028 C 
ATOM     14  C   UNL     1       2.502  14.750  -8.666  1.00  0.00     0.039 C 
BRANCH  13  15
ATOM     15  C   UNL     1       3.410  16.911  -6.788  1.00  0.00     0.035 C 
BRANCH  15  16
ATOM     16  C   UNL     1       3.760  17.791  -5.584  1.00  0.00     0.079 C 
BRANCH  16  17
ATOM     17  C   UNL     1       3.778  19.245  -5.976  1.00  0.00     0.130 C 
ATOM     18  O   UNL     1       4.506  19.613  -6.887  1.00  0.00    -0.300 OA
ATOM     19  C   UNL     1       2.927  20.257  -5.267  1.00  0.00     0.087 C 
ENDBRANCH  16  17
ENDBRANCH  15  16
ENDBRANCH  13  15
ENDBRANCH  11  12
ENDBRANCH   1  11
TORSDOF 9
ENDMDL
MODEL 3
REMARK VINA RESULT:    -0.819      2.432      4.991
REMARK INTER + INTRA:          -1.977
REMARK INTER:                  -0.984
REMARK INTRA:                  -0.994
REMARK UNBOUND:                -0.727
REMARK SMILES CC(=O)CCC=C(C)CCC=C(C)CCC=C(C)C
REMARK SMILES IDX 10 1 11 2 12 3 13 4 14 5 15 6 16 7 18 8 17 9 19 10 9 11 7 12
REMARK SMILES IDX 6 13 8 14 5 15 4 16 2 17 3 18 1 19
REMARK H PARENT
REMARK Flexibility Score: inf
ROOT
ATOM      1  C   UNL     1       5.994  14.061  -9.055  1.00  0.00     0.032 C 
ENDROOT
BRANCH   1   2
ATOM      2  C   UNL     1       5.007  12.923  -9.125  1.00  0.00    -0.028 C 
ATOM      3  C   UNL     1       5.031  11.841  -8.313  1.00  0.00    -0.077 C 
ATOM      4  C   UNL     1       6.023  11.710  -7.183  1.00  0.00     0.039 C 
BRANCH   3   5
ATOM      5  C   UNL     1       3.985  10.759  -8.491  1.00  0.00     0.034 C 
BRANCH   5   6
ATOM      6  C   UNL     1       2.640  11.159  -7.868  1.00  0.00     0.032 C 
BRANCH   6   7
ATOM      7  C   UNL     1       2.817  11.865  -6.544  1.00  0.00    -0.028 C 
ATOM      8  C   UNL     1       1.693  13.965  -7.320  1.00  0.00     0.039 C 
ATOM      9  C   UNL     1       2.424  13.133  -6.293  1.00  0.00    -0.080 C 
ATOM     10  C   UNL     1       2.715  13.716  -4.935  1.00  0.00     0.039 C 
ENDBRANCH   6   7
ENDBRANCH   5   6
ENDBRANCH   3   5
ENDBRANCH   1   2
BRANCH   1  11
ATOM     11  C   UNL     1       5.267  15.406  -8.941  1.00  0.00     0.034 C 
BRANCH  11  12
ATOM     12  C   UNL     1       4.789  15.641  -7.525  1.00  0.00    -0.077 C 
ATOM     13  C   UNL     1       3.720  16.443  -7.319  1.00  0.00    -0.028 C 
ATOM     14  C   UNL     1       5.501  14.952  -6.384  1.00  0.00     0.039 C 
BRANCH  13  15
ATOM     15  C   UNL     1       3.167  16.794  -5.960  1.00  0.00     0.035 C 
BRANCH  15  16
ATOM     16  C   UNL     1       4.030  17.865  -5.286  1.00  0.00     0.079 C 
BRANCH  16  17
ATOM     17  C   UNL     1       3.776  19.217  -5.900  1.00  0.00     0.130 C 
ATOM     18  O   UNL     1       4.446  19.579  -6.856  1.00  0.00    -0.300 OA
ATOM     19  C   UNL     1       2.721  20.136  -5.358  1.00  0.00     0.087 C 
ENDBRANCH  16  17
ENDBRANCH  15  16
ENDBRANCH  13  15
ENDBRANCH  11  12
ENDBRANCH   1  11
TORSDOF 9
ENDMDL
MODEL 4
REMARK VINA RESULT:    -0.737      2.122      3.337
REMARK INTER + INTRA:          -1.851
REMARK INTER:                  -2.793
REMARK INTRA:                   0.941
REMARK UNBOUND:                -0.727
REMARK SMILES CC(=O)CCC=C(C)CCC=C(C)CCC=C(C)C
REMARK SMILES IDX 10 1 11 2 12 3 13 4 14 5 15 6 16 7 18 8 17 9 19 10 9 11 7 12
REMARK SMILES IDX 6 13 8 14 5 15 4 16 2 17 3 18 1 19
REMARK H PARENT
REMARK Flexibility Score: inf
ROOT
ATOM      1  C   UNL     1       4.703  15.919  -8.952  1.00  0.00     0.032 C 
ENDROOT
BRANCH   1   2
ATOM      2  C   UNL     1       3.814  15.629  -7.770  1.00  0.00    -0.028 C 
ATOM      3  C   UNL     1       2.656  14.933  -7.837  1.00  0.00    -0.077 C 
ATOM      4  C   UNL     1       2.177  14.299  -9.121  1.00  0.00     0.039 C 
BRANCH   3   5
ATOM      5  C   UNL     1       1.847  14.717  -6.574  1.00  0.00     0.034 C 
BRANCH   5   6
ATOM      6  C   UNL     1       2.460  15.451  -5.374  1.00  0.00     0.032 C 
BRANCH   6   7
ATOM      7  C   UNL     1       2.492  16.947  -5.580  1.00  0.00    -0.028 C 
ATOM      8  C   UNL     1       4.980  17.101  -5.332  1.00  0.00     0.039 C 
ATOM      9  C   UNL     1       3.610  17.704  -5.534  1.00  0.00    -0.080 C 
ATOM     10  C   UNL     1       3.473  19.194  -5.711  1.00  0.00     0.039 C 
ENDBRANCH   6   7
ENDBRANCH   5   6
ENDBRANCH   3   5
ENDBRANCH   1   2
BRANCH   1  11
ATOM     11  C   UNL     1       6.003  15.109  -8.869  1.00  0.00     0.034 C 
BRANCH  11  12
ATOM     12  C   UNL     1       5.763  13.775  -8.196  1.00  0.00    -0.077 C 
ATOM     13  C   UNL     1       5.608  12.673  -8.964  1.00  0.00    -0.028 C 
ATOM     14  C   UNL     1       5.732  13.708  -6.687  1.00  0.00     0.039 C 
BRANCH  13  15
ATOM     15  C   UNL     1       5.322  11.293  -8.425  1.00  0.00     0.035 C 
BRANCH  15  16
ATOM     16  C   UNL     1       4.304  11.359  -7.283  1.00  0.00     0.079 C 
BRANCH  16  17
ATOM     17  C   UNL     1       2.970  10.821  -7.727  1.00  0.00     0.130 C 
ATOM     18  O   UNL     1       2.341  10.083  -6.983  1.00  0.00    -0.300 OA
ATOM     19  C   UNL     1       2.396  11.167  -9.069  1.00  0.00     0.087 C 
ENDBRANCH  16  17
ENDBRANCH  15  16
ENDBRANCH  13  15
ENDBRANCH  11  12
ENDBRANCH   1  11
TORSDOF 9
ENDMDL
MODEL 5
REMARK VINA RESULT:    -0.720      1.589      2.854
REMARK INTER + INTRA:          -1.826
REMARK INTER:                  -0.498
REMARK INTRA:                  -1.328
REMARK UNBOUND:                -0.727
REMARK SMILES CC(=O)CCC=C(C)CCC=C(C)CCC=C(C)C
REMARK SMILES IDX 10 1 11 2 12 3 13 4 14 5 15 6 16 7 18 8 17 9 19 10 9 11 7 12
REMARK SMILES IDX 6 13 8 14 5 15 4 16 2 17 3 18 1 19
REMARK H PARENT
REMARK Flexibility Score: inf
ROOT
ATOM      1  C   UNL     1       1.503  14.372  -7.796  1.00  0.00     0.032 C 
ENDROOT
BRANCH   1   2
ATOM      2  C   UNL     1       2.247  15.037  -6.665  1.00  0.00    -0.028 C 
ATOM      3  C   UNL     1       2.782  14.377  -5.612  1.00  0.00    -0.077 C 
ATOM      4  C   UNL     1       2.754  12.871  -5.512  1.00  0.00     0.039 C 
BRANCH   3   5
ATOM      5  C   UNL     1       3.500  15.164  -4.533  1.00  0.00     0.034 C 
BRANCH   5   6
ATOM      6  C   UNL     1       4.449  16.213  -5.130  1.00  0.00     0.032 C 
BRANCH   6   7
ATOM      7  C   UNL     1       3.910  17.616  -4.979  1.00  0.00    -0.028 C 
ATOM      8  C   UNL     1       4.041  18.113  -7.431  1.00  0.00     0.039 C 
ATOM      9  C   UNL     1       3.750  18.489  -5.998  1.00  0.00    -0.080 C 
ATOM     10  C   UNL     1       3.247  19.873  -5.680  1.00  0.00     0.039 C 
ENDBRANCH   6   7
ENDBRANCH   5   6
ENDBRANCH   3   5
ENDBRANCH   1   2
BRANCH   1  11
ATOM     11  C   UNL     1       2.243  14.569  -9.125  1.00  0.00     0.034 C 
BRANCH  11  12
ATOM     12  C   UNL     1       3.666  14.062  -9.029  1.00  0.00    -0.077 C 
ATOM     13  C   UNL     1       3.879  12.734  -8.891  1.00  0.00    -0.028 C 
ATOM     14  C   UNL     1       4.806  15.049  -9.117  1.00  0.00     0.039 C 
BRANCH  13  15
ATOM     15  C   UNL     1       5.240  12.101  -8.741  1.00  0.00     0.035 C 
BRANCH  15  16
ATOM     16  C   UNL     1       5.435  11.566  -7.319  1.00  0.00     0.079 C 
BRANCH  16  17
ATOM     17  C   UNL     1       5.973  12.644  -6.414  1.00  0.00     0.130 C 
ATOM     18  O   UNL     1       6.020  13.798  -6.816  1.00  0.00    -0.300 OA
ATOM     19  C   UNL     1       6.460  12.332  -5.030  1.00  0.00     0.087 C 
ENDBRANCH  16  17
ENDBRANCH  15  16
ENDBRANCH  13  15
ENDBRANCH  11  12
ENDBRANCH   1  11
TORSDOF 9
ENDMDL
MODEL 6
REMARK VINA RESULT:    -0.336      1.601      5.007
REMARK INTER + INTRA:          -1.239
REMARK INTER:                  -0.148
REMARK INTRA:                  -1.091
REMARK UNBOUND:                -0.727
REMARK SMILES CC(=O)CCC=C(C)CCC=C(C)CCC=C(C)C
REMARK SMILES IDX 10 1 11 2 12 3 13 4 14 5 15 6 16 7 18 8 17 9 19 10 9 11 7 12
REMARK SMILES IDX 6 13 8 14 5 15 4 16 2 17 3 18 1 19
REMARK H PARENT
REMARK Flexibility Score: inf
ROOT
ATOM      1  C   UNL     1       2.896  12.617  -9.107  1.00  0.00     0.032 C 
ENDROOT
BRANCH   1   2
ATOM      2  C   UNL     1       3.823  12.242  -7.978  1.00  0.00    -0.028 C 
ATOM      3  C   UNL     1       5.159  12.457  -7.984  1.00  0.00    -0.077 C 
ATOM      4  C   UNL     1       5.847  13.185  -9.113  1.00  0.00     0.039 C 
BRANCH   3   5
ATOM      5  C   UNL     1       5.983  12.025  -6.788  1.00  0.00     0.034 C 
BRANCH   5   6
ATOM      6  C   UNL     1       6.104  13.145  -5.745  1.00  0.00     0.032 C 
BRANCH   6   7
ATOM      7  C   UNL     1       6.220  12.601  -4.340  1.00  0.00    -0.028 C 
ATOM      8  C   UNL     1       3.979  13.470  -3.636  1.00  0.00     0.039 C 
ATOM      9  C   UNL     1       5.288  12.765  -3.375  1.00  0.00    -0.080 C 
ATOM     10  C   UNL     1       5.572  12.205  -2.006  1.00  0.00     0.039 C 
ENDBRANCH   6   7
ENDBRANCH   5   6
ENDBRANCH   3   5
ENDBRANCH   1   2
BRANCH   1  11
ATOM     11  C   UNL     1       2.639  14.129  -9.121  1.00  0.00     0.034 C 
BRANCH  11  12
ATOM     12  C   UNL     1       2.687  14.695  -7.718  1.00  0.00    -0.077 C 
ATOM     13  C   UNL     1       3.632  15.614  -7.415  1.00  0.00    -0.028 C 
ATOM     14  C   UNL     1       1.662  14.240  -6.705  1.00  0.00     0.039 C 
BRANCH  13  15
ATOM     15  C   UNL     1       3.818  16.226  -6.049  1.00  0.00     0.035 C 
BRANCH  15  16
ATOM     16  C   UNL     1       2.874  17.417  -5.857  1.00  0.00     0.079 C 
BRANCH  16  17
ATOM     17  C   UNL     1       3.653  18.668  -5.547  1.00  0.00     0.130 C 
ATOM     18  O   UNL     1       4.834  18.581  -5.243  1.00  0.00    -0.300 OA
ATOM     19  C   UNL     1       3.009  20.022  -5.596  1.00  0.00     0.087 C 
ENDBRANCH  16  17
ENDBRANCH  15  16
ENDBRANCH  13  15
ENDBRANCH  11  12
ENDBRANCH   1  11
TORSDOF 9
ENDMDL
MODEL 7
REMARK VINA RESULT:    -0.037      2.047      5.749
REMARK INTER + INTRA:          -0.784
REMARK INTER:                  -1.163
REMARK INTRA:                   0.379
REMARK UNBOUND:                -0.727
REMARK SMILES CC(=O)CCC=C(C)CCC=C(C)CCC=C(C)C
REMARK SMILES IDX 10 1 11 2 12 3 13 4 14 5 15 6 16 7 18 8 17 9 19 10 9 11 7 12
REMARK SMILES IDX 6 13 8 14 5 15 4 16 2 17 3 18 1 19
REMARK H PARENT
REMARK Flexibility Score: inf
ROOT
ATOM      1  C   UNL     1       3.755  13.616  -4.448  1.00  0.00     0.032 C 
ENDROOT
BRANCH   1   2
ATOM      2  C   UNL     1       4.277  13.322  -5.832  1.00  0.00    -0.028 C 
ATOM      3  C   UNL     1       5.526  12.875  -6.097  1.00  0.00    -0.077 C 
ATOM      4  C   UNL     1       6.508  12.544  -4.999  1.00  0.00     0.039 C 
BRANCH   3   5
ATOM      5  C   UNL     1       5.933  12.625  -7.535  1.00  0.00     0.034 C 
BRANCH   5   6
ATOM      6  C   UNL     1       5.498  11.233  -8.016  1.00  0.00     0.032 C 
BRANCH   6   7
ATOM      7  C   UNL     1       4.182  11.275  -8.756  1.00  0.00    -0.028 C 
ATOM      8  C   UNL     1       2.869  10.378  -6.821  1.00  0.00     0.039 C 
ATOM      9  C   UNL     1       3.000  10.867  -8.243  1.00  0.00    -0.080 C 
ATOM     10  C   UNL     1       1.780  10.924  -9.125  1.00  0.00     0.039 C 
ENDBRANCH   6   7
ENDBRANCH   5   6
ENDBRANCH   3   5
ENDBRANCH   1   2
BRANCH   1  11
ATOM     11  C   UNL     1       3.073  14.989  -4.403  1.00  0.00     0.034 C 
BRANCH  11  12
ATOM     12  C   UNL     1       2.792  15.496  -5.801  1.00  0.00    -0.077 C 
ATOM     13  C   UNL     1       2.522  14.602  -6.780  1.00  0.00    -0.028 C 
ATOM     14  C   UNL     1       2.795  16.985  -6.059  1.00  0.00     0.039 C 
BRANCH  13  15
ATOM     15  C   UNL     1       2.267  14.968  -8.221  1.00  0.00     0.035 C 
BRANCH  15  16
ATOM     16  C   UNL     1       3.383  14.429  -9.121  1.00  0.00     0.079 C 
BRANCH  16  17
ATOM     17  C   UNL     1       4.572  15.354  -9.108  1.00  0.00     0.130 C 
ATOM     18  O   UNL     1       4.393  16.563  -9.122  1.00  0.00    -0.300 OA
ATOM     19  C   UNL     1       5.974  14.823  -9.083  1.00  0.00     0.087 C 
ENDBRANCH  16  17
ENDBRANCH  15  16
ENDBRANCH  13  15
ENDBRANCH  11  12
ENDBRANCH   1  11
TORSDOF 9
ENDMDL
MODEL 8
REMARK VINA RESULT:     0.081      2.342      5.131
REMARK INTER + INTRA:          -0.603
REMARK INTER:                  -0.034
REMARK INTRA:                  -0.569
REMARK UNBOUND:                -0.727
REMARK SMILES CC(=O)CCC=C(C)CCC=C(C)CCC=C(C)C
REMARK SMILES IDX 10 1 11 2 12 3 13 4 14 5 15 6 16 7 18 8 17 9 19 10 9 11 7 12
REMARK SMILES IDX 6 13 8 14 5 15 4 16 2 17 3 18 1 19
REMARK H PARENT
REMARK Flexibility Score: inf
ROOT
ATOM      1  C   UNL     1       1.828  13.991  -8.761  1.00  0.00     0.032 C 
ENDROOT
BRANCH   1   2
ATOM      2  C   UNL     1       2.639  12.735  -8.965  1.00  0.00    -0.028 C 
ATOM      3  C   UNL     1       3.042  11.916  -7.967  1.00  0.00    -0.077 C 
ATOM      4  C   UNL     1       2.638  12.147  -6.530  1.00  0.00     0.039 C 
BRANCH   3   5
ATOM      5  C   UNL     1       3.861  10.687  -8.303  1.00  0.00     0.034 C 
BRANCH   5   6
ATOM      6  C   UNL     1       5.364  10.999  -8.348  1.00  0.00     0.032 C 
BRANCH   6   7
ATOM      7  C   UNL     1       5.646  12.336  -8.992  1.00  0.00    -0.028 C 
ATOM      8  C   UNL     1       5.923  13.524  -6.804  1.00  0.00     0.039 C 
ATOM      9  C   UNL     1       5.868  13.483  -8.313  1.00  0.00    -0.080 C 
ATOM     10  C   UNL     1       6.086  14.749  -9.100  1.00  0.00     0.039 C 
ENDBRANCH   6   7
ENDBRANCH   5   6
ENDBRANCH   3   5
ENDBRANCH   1   2
BRANCH   1  11
ATOM     11  C   UNL     1       2.741  15.220  -8.673  1.00  0.00     0.034 C 
BRANCH  11  12
ATOM     12  C   UNL     1       2.924  15.651  -7.234  1.00  0.00    -0.077 C 
ATOM     13  C   UNL     1       3.911  16.526  -6.933  1.00  0.00    -0.028 C 
ATOM     14  C   UNL     1       1.985  15.113  -6.179  1.00  0.00     0.039 C 
BRANCH  13  15
ATOM     15  C   UNL     1       4.229  17.003  -5.537  1.00  0.00     0.035 C 
BRANCH  15  16
ATOM     16  C   UNL     1       4.393  18.526  -5.511  1.00  0.00     0.079 C 
BRANCH  16  17
ATOM     17  C   UNL     1       3.051  19.207  -5.578  1.00  0.00     0.130 C 
ATOM     18  O   UNL     1       2.046  18.538  -5.771  1.00  0.00    -0.300 OA
ATOM     19  C   UNL     1       2.920  20.693  -5.421  1.00  0.00     0.087 C 
ENDBRANCH  16  17
ENDBRANCH  15  16
ENDBRANCH  13  15
ENDBRANCH  11  12
ENDBRANCH   1  11
TORSDOF 9
ENDMDL
MODEL 9
REMARK VINA RESULT:     0.917      2.011      5.188
REMARK INTER + INTRA:           0.672
REMARK INTER:                   2.033
REMARK INTRA:                  -1.360
REMARK UNBOUND:                -0.727
REMARK SMILES CC(=O)CCC=C(C)CCC=C(C)CCC=C(C)C
REMARK SMILES IDX 10 1 11 2 12 3 13 4 14 5 15 6 16 7 18 8 17 9 19 10 9 11 7 12
REMARK SMILES IDX 6 13 8 14 5 15 4 16 2 17 3 18 1 19
REMARK H PARENT
REMARK Flexibility Score: inf
ROOT
ATOM      1  C   UNL     1       1.892  13.259  -6.156  1.00  0.00     0.032 C 
ENDROOT
BRANCH   1   2
ATOM      2  C   UNL     1       2.514  12.199  -7.030  1.00  0.00    -0.028 C 
ATOM      3  C   UNL     1       2.743  12.340  -8.356  1.00  0.00    -0.077 C 
ATOM      4  C   UNL     1       2.463  13.633  -9.083  1.00  0.00     0.039 C 
BRANCH   3   5
ATOM      5  C   UNL     1       3.368  11.194  -9.125  1.00  0.00     0.034 C 
BRANCH   5   6
ATOM      6  C   UNL     1       4.898  11.191  -8.998  1.00  0.00     0.032 C 
BRANCH   6   7
ATOM      7  C   UNL     1       5.351  11.548  -7.602  1.00  0.00    -0.028 C 
ATOM      8  C   UNL     1       5.921  13.911  -8.206  1.00  0.00     0.039 C 
ATOM      9  C   UNL     1       5.840  12.754  -7.239  1.00  0.00    -0.080 C 
ATOM     10  C   UNL     1       6.299  12.941  -5.816  1.00  0.00     0.039 C 
ENDBRANCH   6   7
ENDBRANCH   5   6
ENDBRANCH   3   5
ENDBRANCH   1   2
BRANCH   1  11
ATOM     11  C   UNL     1       2.835  13.643  -5.010  1.00  0.00     0.034 C 
BRANCH  11  12
ATOM     12  C   UNL     1       3.346  15.057  -5.185  1.00  0.00    -0.077 C 
ATOM     13  C   UNL     1       3.213  15.656  -6.390  1.00  0.00    -0.028 C 
ATOM     14  C   UNL     1       3.963  15.768  -4.004  1.00  0.00     0.039 C 
BRANCH  13  15
ATOM     15  C   UNL     1       3.715  17.042  -6.712  1.00  0.00     0.035 C 
BRANCH  15  16
ATOM     16  C   UNL     1       2.761  18.105  -6.158  1.00  0.00     0.079 C 
BRANCH  16  17
ATOM     17  C   UNL     1       3.533  19.261  -5.577  1.00  0.00     0.130 C 
ATOM     18  O   UNL     1       4.704  19.105  -5.264  1.00  0.00    -0.300 OA
ATOM     19  C   UNL     1       2.892  20.601  -5.368  1.00  0.00     0.087 C 
ENDBRANCH  16  17
ENDBRANCH  15  16
ENDBRANCH  13  15
ENDBRANCH  11  12
ENDBRANCH   1  11
TORSDOF 9
ENDMDL
