MODEL 1
REMARK VINA RESULT:    -6.026      0.000      0.000
REMARK INTER + INTRA:          -6.026
REMARK INTER:                  -6.026
REMARK INTRA:                   0.000
REMARK UNBOUND:                 0.000
REMARK SMILES C[C@@H]1C(=O)CC[C@@H]2[C@]1(C)CC[C@@H]1[C@@]2(C)CC[C@]2(C)[C@H]3CC(C)(C)CC[C@]3(C)CC[C@@]12C
REMARK SMILES IDX 1 1 2 2 3 3 4 4 5 5 6 6 7 7 8 8 10 9 11 10 12 11 13 12 15 13
REMARK SMILES IDX 16 14 17 15 30 16 29 17 28 18 26 19 19 20 20 21 21 22 24 23
REMARK SMILES IDX 25 24 22 25 23 26 27 27 31 28 18 29 14 30 9 31
REMARK H PARENT
REMARK Flexibility Score: inf
ROOT
ATOM      1  C   UNL     1     122.126 121.647 115.622  1.00  0.00     0.016 C 
ATOM      2  C   UNL     1     123.009 120.486 115.120  1.00  0.00     0.059 C 
ATOM      3  C   UNL     1     122.993 120.465 113.603  1.00  0.00     0.136 C 
ATOM      4  O   UNL     1     123.872 121.044 112.980  1.00  0.00    -0.299 OA
ATOM      5  C   UNL     1     121.859 119.806 112.851  1.00  0.00     0.076 C 
ATOM      6  C   UNL     1     121.446 118.456 113.470  1.00  0.00     0.012 C 
ATOM      7  C   UNL     1     121.295 118.583 115.013  1.00  0.00     0.002 C 
ATOM      8  C   UNL     1     122.656 119.053 115.675  1.00  0.00    -0.020 C 
ATOM      9  C   UNL     1     122.548 119.034 117.229  1.00  0.00     0.008 C 
ATOM     10  C   UNL     1     121.108 119.106 117.735  1.00  0.00     0.005 C 
ATOM     11  C   UNL     1     120.266 117.864 117.303  1.00  0.00     0.002 C 
ATOM     12  C   UNL     1     120.521 117.419 115.774  1.00  0.00    -0.026 C 
ATOM     13  C   UNL     1     119.177 117.118 115.009  1.00  0.00     0.008 C 
ATOM     14  C   UNL     1     117.986 116.498 115.789  1.00  0.00     0.008 C 
ATOM     15  C   UNL     1     117.973 116.668 117.344  1.00  0.00    -0.024 C 
ATOM     16  C   UNL     1     118.738 118.018 117.718  1.00  0.00    -0.024 C 
ATOM     17  C   UNL     1     118.597 118.263 119.262  1.00  0.00     0.008 C 
ATOM     18  C   UNL     1     117.130 118.325 119.738  1.00  0.00     0.007 C 
ATOM     19  C   UNL     1     116.302 117.058 119.396  1.00  0.00    -0.029 C 
ATOM     20  C   UNL     1     116.470 116.720 117.870  1.00  0.00     0.002 C 
ATOM     21  C   UNL     1     115.551 115.535 117.435  1.00  0.00     0.011 C 
ATOM     22  C   UNL     1     114.047 115.783 117.754  1.00  0.00    -0.035 C 
ATOM     23  C   UNL     1     113.864 116.230 119.231  1.00  0.00     0.007 C 
ATOM     24  C   UNL     1     114.799 117.383 119.644  1.00  0.00     0.007 C 
ATOM     25  C   UNL     1     113.277 114.461 117.543  1.00  0.00     0.011 C 
ATOM     26  C   UNL     1     113.437 116.834 116.793  1.00  0.00     0.011 C 
ATOM     27  C   UNL     1     116.711 115.914 120.373  1.00  0.00     0.011 C 
ATOM     28  C   UNL     1     118.142 119.300 117.018  1.00  0.00     0.012 C 
ATOM     29  C   UNL     1     118.677 115.402 117.953  1.00  0.00     0.012 C 
ATOM     30  C   UNL     1     121.379 116.117 115.708  1.00  0.00     0.012 C 
ATOM     31  C   UNL     1     123.877 118.147 115.308  1.00  0.00     0.012 C 
ENDROOT
TORSDOF 0
ENDMDL
MODEL 2
REMARK VINA RESULT:    -6.023      3.989      9.090
REMARK INTER + INTRA:          -6.023
REMARK INTER:                  -6.023
REMARK INTRA:                   0.000
REMARK UNBOUND:                 0.000
REMARK SMILES C[C@@H]1C(=O)CC[C@@H]2[C@]1(C)CC[C@@H]1[C@@]2(C)CC[C@]2(C)[C@H]3CC(C)(C)CC[C@]3(C)CC[C@@]12C
REMARK SMILES IDX 1 1 2 2 3 3 4 4 5 5 6 6 7 7 8 8 10 9 11 10 12 11 13 12 15 13
REMARK SMILES IDX 16 14 17 15 30 16 29 17 28 18 26 19 19 20 20 21 21 22 24 23
REMARK SMILES IDX 25 24 22 25 23 26 27 27 31 28 18 29 14 30 9 31
REMARK H PARENT
REMARK Flexibility Score: inf
ROOT
ATOM      1  C   UNL     1     111.141 111.486 115.628  1.00  0.00     0.016 C 
ATOM      2  C   UNL     1     110.253 112.638 115.115  1.00  0.00     0.059 C 
ATOM      3  C   UNL     1     110.284 112.656 113.598  1.00  0.00     0.136 C 
ATOM      4  O   UNL     1     109.417 112.068 112.967  1.00  0.00    -0.299 OA
ATOM      5  C   UNL     1     111.418 113.325 112.857  1.00  0.00     0.076 C 
ATOM      6  C   UNL     1     111.812 114.680 113.478  1.00  0.00     0.012 C 
ATOM      7  C   UNL     1     111.949 114.558 115.022  1.00  0.00     0.002 C 
ATOM      8  C   UNL     1     110.586 114.075 115.671  1.00  0.00    -0.020 C 
ATOM      9  C   UNL     1     110.678 114.098 117.226  1.00  0.00     0.008 C 
ATOM     10  C   UNL     1     112.113 114.040 117.747  1.00  0.00     0.005 C 
ATOM     11  C   UNL     1     112.948 115.290 117.321  1.00  0.00     0.002 C 
ATOM     12  C   UNL     1     112.704 115.730 115.789  1.00  0.00    -0.026 C 
ATOM     13  C   UNL     1     114.053 116.043 115.036  1.00  0.00     0.008 C 
ATOM     14  C   UNL     1     115.229 116.675 115.828  1.00  0.00     0.008 C 
ATOM     15  C   UNL     1     115.228 116.508 117.383  1.00  0.00    -0.024 C 
ATOM     16  C   UNL     1     114.473 115.151 117.752  1.00  0.00    -0.024 C 
ATOM     17  C   UNL     1     114.601 114.910 119.298  1.00  0.00     0.008 C 
ATOM     18  C   UNL     1     116.064 114.863 119.789  1.00  0.00     0.007 C 
ATOM     19  C   UNL     1     116.882 116.137 119.453  1.00  0.00    -0.029 C 
ATOM     20  C   UNL     1     116.727 116.472 117.924  1.00  0.00     0.002 C 
ATOM     21  C   UNL     1     117.638 117.664 117.497  1.00  0.00     0.011 C 
ATOM     22  C   UNL     1     119.141 117.431 117.832  1.00  0.00    -0.035 C 
ATOM     23  C   UNL     1     119.313 116.989 119.311  1.00  0.00     0.007 C 
ATOM     24  C   UNL     1     118.386 115.827 119.716  1.00  0.00     0.007 C 
ATOM     25  C   UNL     1     119.901 118.761 117.626  1.00  0.00     0.011 C 
ATOM     26  C   UNL     1     119.771 116.386 116.878  1.00  0.00     0.011 C 
ATOM     27  C   UNL     1     116.452 117.279 120.423  1.00  0.00     0.011 C 
ATOM     28  C   UNL     1     115.088 113.874 117.060  1.00  0.00     0.012 C 
ATOM     29  C   UNL     1     114.506 117.768 117.983  1.00  0.00     0.012 C 
ATOM     30  C   UNL     1     111.834 117.023 115.712  1.00  0.00     0.012 C 
ATOM     31  C   UNL     1     109.360 114.968 115.290  1.00  0.00     0.012 C 
ENDROOT
TORSDOF 0
ENDMDL
MODEL 3
REMARK VINA RESULT:    -6.013      4.187      6.424
REMARK INTER + INTRA:          -6.013
REMARK INTER:                  -6.013
REMARK INTRA:                   0.000
REMARK UNBOUND:                 0.000
REMARK SMILES C[C@@H]1C(=O)CC[C@@H]2[C@]1(C)CC[C@@H]1[C@@]2(C)CC[C@]2(C)[C@H]3CC(C)(C)CC[C@]3(C)CC[C@@]12C
REMARK SMILES IDX 1 1 2 2 3 3 4 4 5 5 6 6 7 7 8 8 10 9 11 10 12 11 13 12 15 13
REMARK SMILES IDX 16 14 17 15 30 16 29 17 28 18 26 19 19 20 20 21 21 22 24 23
REMARK SMILES IDX 25 24 22 25 23 26 27 27 31 28 18 29 14 30 9 31
REMARK H PARENT
REMARK Flexibility Score: inf
ROOT
ATOM      1  C   UNL     1     121.650 111.083 115.626  1.00  0.00     0.016 C 
ATOM      2  C   UNL     1     120.485 110.210 115.118  1.00  0.00     0.059 C 
ATOM      3  C   UNL     1     120.456 110.247 113.601  1.00  0.00     0.136 C 
ATOM      4  O   UNL     1     121.030 109.376 112.963  1.00  0.00    -0.299 OA
ATOM      5  C   UNL     1     119.795 111.392 112.869  1.00  0.00     0.076 C 
ATOM      6  C   UNL     1     118.449 111.799 113.502  1.00  0.00     0.012 C 
ATOM      7  C   UNL     1     118.584 111.928 115.045  1.00  0.00     0.002 C 
ATOM      8  C   UNL     1     119.056 110.557 115.685  1.00  0.00    -0.020 C 
ATOM      9  C   UNL     1     119.045 110.643 117.241  1.00  0.00     0.008 C 
ATOM     10  C   UNL     1     119.122 112.075 117.767  1.00  0.00     0.005 C 
ATOM     11  C   UNL     1     117.880 112.925 117.353  1.00  0.00     0.002 C 
ATOM     12  C   UNL     1     117.425 112.692 115.824  1.00  0.00    -0.026 C 
ATOM     13  C   UNL     1     117.122 114.048 115.079  1.00  0.00     0.008 C 
ATOM     14  C   UNL     1     116.509 115.228 115.880  1.00  0.00     0.008 C 
ATOM     15  C   UNL     1     116.687 115.219 117.434  1.00  0.00    -0.024 C 
ATOM     16  C   UNL     1     118.038 114.447 117.790  1.00  0.00    -0.024 C 
ATOM     17  C   UNL     1     118.291 114.566 119.334  1.00  0.00     0.008 C 
ATOM     18  C   UNL     1     118.358 116.026 119.831  1.00  0.00     0.007 C 
ATOM     19  C   UNL     1     117.091 116.860 119.507  1.00  0.00    -0.029 C 
ATOM     20  C   UNL     1     116.744 116.715 117.980  1.00  0.00     0.002 C 
ATOM     21  C   UNL     1     115.559 117.641 117.565  1.00  0.00     0.011 C 
ATOM     22  C   UNL     1     115.811 119.140 117.905  1.00  0.00    -0.035 C 
ATOM     23  C   UNL     1     116.266 119.301 119.381  1.00  0.00     0.007 C 
ATOM     24  C   UNL     1     117.420 118.359 119.774  1.00  0.00     0.007 C 
ATOM     25  C   UNL     1     114.488 119.916 117.711  1.00  0.00     0.011 C 
ATOM     26  C   UNL     1     116.857 119.762 116.946  1.00  0.00     0.011 C 
ATOM     27  C   UNL     1     115.952 116.439 120.484  1.00  0.00     0.011 C 
ATOM     28  C   UNL     1     119.317 115.051 117.091  1.00  0.00     0.012 C 
ATOM     29  C   UNL     1     115.424 114.509 118.040  1.00  0.00     0.012 C 
ATOM     30  C   UNL     1     116.122 111.838 115.752  1.00  0.00     0.012 C 
ATOM     31  C   UNL     1     118.146 109.342 115.306  1.00  0.00     0.012 C 
ENDROOT
TORSDOF 0
ENDMDL
MODEL 4
REMARK VINA RESULT:    -6.006      4.558      7.423
REMARK INTER + INTRA:          -6.006
REMARK INTER:                  -6.006
REMARK INTRA:                   0.000
REMARK UNBOUND:                 0.000
REMARK SMILES C[C@@H]1C(=O)CC[C@@H]2[C@]1(C)CC[C@@H]1[C@@]2(C)CC[C@]2(C)[C@H]3CC(C)(C)CC[C@]3(C)CC[C@@]12C
REMARK SMILES IDX 1 1 2 2 3 3 4 4 5 5 6 6 7 7 8 8 10 9 11 10 12 11 13 12 15 13
REMARK SMILES IDX 16 14 17 15 30 16 29 17 28 18 26 19 19 20 20 21 21 22 24 23
REMARK SMILES IDX 25 24 22 25 23 26 27 27 31 28 18 29 14 30 9 31
REMARK H PARENT
REMARK Flexibility Score: inf
ROOT
ATOM      1  C   UNL     1     117.746 117.762 122.238  1.00  0.00     0.016 C 
ATOM      2  C   UNL     1     116.991 116.419 122.295  1.00  0.00     0.059 C 
ATOM      3  C   UNL     1     117.982 115.281 122.132  1.00  0.00     0.136 C 
ATOM      4  O   UNL     1     118.458 114.746 123.124  1.00  0.00    -0.299 OA
ATOM      5  C   UNL     1     118.451 114.855 120.760  1.00  0.00     0.076 C 
ATOM      6  C   UNL     1     117.300 114.794 119.735  1.00  0.00     0.012 C 
ATOM      7  C   UNL     1     116.422 116.075 119.818  1.00  0.00     0.002 C 
ATOM      8  C   UNL     1     115.807 116.241 121.270  1.00  0.00    -0.020 C 
ATOM      9  C   UNL     1     114.809 117.438 121.310  1.00  0.00     0.008 C 
ATOM     10  C   UNL     1     115.043 118.457 120.196  1.00  0.00     0.005 C 
ATOM     11  C   UNL     1     114.811 117.846 118.777  1.00  0.00     0.002 C 
ATOM     12  C   UNL     1     115.432 116.367 118.608  1.00  0.00    -0.026 C 
ATOM     13  C   UNL     1     116.221 116.204 117.254  1.00  0.00     0.008 C 
ATOM     14  C   UNL     1     115.727 116.967 115.996  1.00  0.00     0.008 C 
ATOM     15  C   UNL     1     114.820 118.221 116.218  1.00  0.00    -0.024 C 
ATOM     16  C   UNL     1     115.190 118.877 117.626  1.00  0.00    -0.024 C 
ATOM     17  C   UNL     1     114.385 120.215 117.782  1.00  0.00     0.008 C 
ATOM     18  C   UNL     1     114.642 121.218 116.637  1.00  0.00     0.007 C 
ATOM     19  C   UNL     1     114.329 120.656 115.226  1.00  0.00    -0.029 C 
ATOM     20  C   UNL     1     115.050 119.270 115.042  1.00  0.00     0.002 C 
ATOM     21  C   UNL     1     114.886 118.720 113.591  1.00  0.00     0.011 C 
ATOM     22  C   UNL     1     115.381 119.717 112.502  1.00  0.00    -0.035 C 
ATOM     23  C   UNL     1     114.770 121.127 112.727  1.00  0.00     0.007 C 
ATOM     24  C   UNL     1     114.923 121.639 114.172  1.00  0.00     0.007 C 
ATOM     25  C   UNL     1     114.925 119.200 111.119  1.00  0.00     0.011 C 
ATOM     26  C   UNL     1     116.928 119.796 112.479  1.00  0.00     0.011 C 
ATOM     27  C   UNL     1     112.783 120.624 115.031  1.00  0.00     0.011 C 
ATOM     28  C   UNL     1     116.712 119.265 117.765  1.00  0.00     0.012 C 
ATOM     29  C   UNL     1     113.329 117.728 116.169  1.00  0.00     0.012 C 
ATOM     30  C   UNL     1     114.306 115.287 118.607  1.00  0.00     0.012 C 
ATOM     31  C   UNL     1     115.010 114.988 121.759  1.00  0.00     0.012 C 
ENDROOT
TORSDOF 0
ENDMDL
MODEL 5
REMARK VINA RESULT:    -5.981      4.089      6.411
REMARK INTER + INTRA:          -5.981
REMARK INTER:                  -5.981
REMARK INTRA:                   0.000
REMARK UNBOUND:                 0.000
REMARK SMILES C[C@@H]1C(=O)CC[C@@H]2[C@]1(C)CC[C@@H]1[C@@]2(C)CC[C@]2(C)[C@H]3CC(C)(C)CC[C@]3(C)CC[C@@]12C
REMARK SMILES IDX 1 1 2 2 3 3 4 4 5 5 6 6 7 7 8 8 10 9 11 10 12 11 13 12 15 13
REMARK SMILES IDX 16 14 17 15 30 16 29 17 28 18 26 19 19 20 20 21 21 22 24 23
REMARK SMILES IDX 25 24 22 25 23 26 27 27 31 28 18 29 14 30 9 31
REMARK H PARENT
REMARK Flexibility Score: inf
ROOT
ATOM      1  C   UNL     1     111.613 122.002 115.993  1.00  0.00     0.016 C 
ATOM      2  C   UNL     1     112.738 122.892 115.426  1.00  0.00     0.059 C 
ATOM      3  C   UNL     1     112.665 122.885 113.909  1.00  0.00     0.136 C 
ATOM      4  O   UNL     1     112.046 123.765 113.329  1.00  0.00    -0.299 OA
ATOM      5  C   UNL     1     113.280 121.758 113.112  1.00  0.00     0.076 C 
ATOM      6  C   UNL     1     114.668 121.346 113.645  1.00  0.00     0.012 C 
ATOM      7  C   UNL     1     114.637 121.186 115.191  1.00  0.00     0.002 C 
ATOM      8  C   UNL     1     114.203 122.542 115.889  1.00  0.00    -0.020 C 
ATOM      9  C   UNL     1     114.319 122.425 117.438  1.00  0.00     0.008 C 
ATOM     10  C   UNL     1     114.283 120.982 117.939  1.00  0.00     0.005 C 
ATOM     11  C   UNL     1     115.498 120.147 117.426  1.00  0.00     0.002 C 
ATOM     12  C   UNL     1     115.848 120.413 115.875  1.00  0.00    -0.026 C 
ATOM     13  C   UNL     1     116.106 119.074 115.085  1.00  0.00     0.008 C 
ATOM     14  C   UNL     1     116.776 117.881 115.819  1.00  0.00     0.008 C 
ATOM     15  C   UNL     1     116.703 117.859 117.381  1.00  0.00    -0.024 C 
ATOM     16  C   UNL     1     115.376 118.616 117.842  1.00  0.00    -0.024 C 
ATOM     17  C   UNL     1     115.227 118.465 119.397  1.00  0.00     0.008 C 
ATOM     18  C   UNL     1     115.199 116.995 119.868  1.00  0.00     0.007 C 
ATOM     19  C   UNL     1     116.445 116.175 119.444  1.00  0.00    -0.029 C 
ATOM     20  C   UNL     1     116.689 116.352 117.900  1.00  0.00     0.002 C 
ATOM     21  C   UNL     1     117.847 115.441 117.388  1.00  0.00     0.011 C 
ATOM     22  C   UNL     1     117.625 113.934 117.713  1.00  0.00    -0.035 C 
ATOM     23  C   UNL     1     117.270 113.741 119.213  1.00  0.00     0.007 C 
ATOM     24  C   UNL     1     116.142 114.669 119.702  1.00  0.00     0.007 C 
ATOM     25  C   UNL     1     118.934 113.170 117.416  1.00  0.00     0.011 C 
ATOM     26  C   UNL     1     116.519 113.325 116.815  1.00  0.00     0.011 C 
ATOM     27  C   UNL     1     117.646 116.583 120.350  1.00  0.00     0.011 C 
ATOM     28  C   UNL     1     114.055 118.019 117.219  1.00  0.00     0.012 C 
ATOM     29  C   UNL     1     118.001 118.564 117.915  1.00  0.00     0.012 C 
ATOM     30  C   UNL     1     117.140 121.275 115.734  1.00  0.00     0.012 C 
ATOM     31  C   UNL     1     115.080 123.768 115.474  1.00  0.00     0.012 C 
ENDROOT
TORSDOF 0
ENDMDL
MODEL 6
REMARK VINA RESULT:    -5.981      4.095      7.320
REMARK INTER + INTRA:          -5.981
REMARK INTER:                  -5.981
REMARK INTRA:                   0.000
REMARK UNBOUND:                 0.000
REMARK SMILES C[C@@H]1C(=O)CC[C@@H]2[C@]1(C)CC[C@@H]1[C@@]2(C)CC[C@]2(C)[C@H]3CC(C)(C)CC[C@]3(C)CC[C@@]12C
REMARK SMILES IDX 1 1 2 2 3 3 4 4 5 5 6 6 7 7 8 8 10 9 11 10 12 11 13 12 15 13
REMARK SMILES IDX 16 14 17 15 30 16 29 17 28 18 26 19 19 20 20 21 21 22 24 23
REMARK SMILES IDX 25 24 22 25 23 26 27 27 31 28 18 29 14 30 9 31
REMARK H PARENT
REMARK Flexibility Score: inf
ROOT
ATOM      1  C   UNL     1     115.300 115.466 122.174  1.00  0.00     0.016 C 
ATOM      2  C   UNL     1     116.117 116.771 122.251  1.00  0.00     0.059 C 
ATOM      3  C   UNL     1     115.182 117.956 122.092  1.00  0.00     0.136 C 
ATOM      4  O   UNL     1     114.724 118.503 123.086  1.00  0.00    -0.299 OA
ATOM      5  C   UNL     1     114.746 118.418 120.721  1.00  0.00     0.076 C 
ATOM      6  C   UNL     1     115.907 118.434 119.706  1.00  0.00     0.012 C 
ATOM      7  C   UNL     1     116.722 117.112 119.783  1.00  0.00     0.002 C 
ATOM      8  C   UNL     1     117.317 116.902 121.237  1.00  0.00    -0.020 C 
ATOM      9  C   UNL     1     118.257 115.660 121.273  1.00  0.00     0.008 C 
ATOM     10  C   UNL     1     117.984 114.664 120.147  1.00  0.00     0.005 C 
ATOM     11  C   UNL     1     118.257 115.277 118.736  1.00  0.00     0.002 C 
ATOM     12  C   UNL     1     117.708 116.786 118.578  1.00  0.00    -0.026 C 
ATOM     13  C   UNL     1     116.939 117.000 117.219  1.00  0.00     0.008 C 
ATOM     14  C   UNL     1     117.406 116.227 115.957  1.00  0.00     0.008 C 
ATOM     15  C   UNL     1     118.251 114.929 116.174  1.00  0.00    -0.024 C 
ATOM     16  C   UNL     1     117.839 114.277 117.571  1.00  0.00    -0.024 C 
ATOM     17  C   UNL     1     118.578 112.901 117.720  1.00  0.00     0.008 C 
ATOM     18  C   UNL     1     118.284 111.923 116.562  1.00  0.00     0.007 C 
ATOM     19  C   UNL     1     118.635 112.484 115.159  1.00  0.00    -0.029 C 
ATOM     20  C   UNL     1     117.982 113.903 114.984  1.00  0.00     0.002 C 
ATOM     21  C   UNL     1     118.184 114.460 113.541  1.00  0.00     0.011 C 
ATOM     22  C   UNL     1     117.651 113.499 112.437  1.00  0.00    -0.035 C 
ATOM     23  C   UNL     1     118.193 112.059 112.653  1.00  0.00     0.007 C 
ATOM     24  C   UNL     1     118.004 111.541 114.092  1.00  0.00     0.007 C 
ATOM     25  C   UNL     1     118.143 114.007 111.064  1.00  0.00     0.011 C 
ATOM     26  C   UNL     1     116.102 113.493 112.401  1.00  0.00     0.011 C 
ATOM     27  C   UNL     1     120.182 112.444 114.978  1.00  0.00     0.011 C 
ATOM     28  C   UNL     1     116.299 113.961 117.694  1.00  0.00     0.012 C 
ATOM     29  C   UNL     1     119.764 115.351 116.142  1.00  0.00     0.012 C 
ATOM     30  C   UNL     1     118.884 117.811 118.596  1.00  0.00     0.012 C 
ATOM     31  C   UNL     1     118.169 118.112 121.746  1.00  0.00     0.012 C 
ENDROOT
TORSDOF 0
ENDMDL
MODEL 7
REMARK VINA RESULT:    -5.977      3.145      7.714
REMARK INTER + INTRA:          -5.977
REMARK INTER:                  -5.977
REMARK INTRA:                   0.000
REMARK UNBOUND:                 0.000
REMARK SMILES C[C@@H]1C(=O)CC[C@@H]2[C@]1(C)CC[C@@H]1[C@@]2(C)CC[C@]2(C)[C@H]3CC(C)(C)CC[C@]3(C)CC[C@@]12C
REMARK SMILES IDX 1 1 2 2 3 3 4 4 5 5 6 6 7 7 8 8 10 9 11 10 12 11 13 12 15 13
REMARK SMILES IDX 16 14 17 15 30 16 29 17 28 18 26 19 19 20 20 21 21 22 24 23
REMARK SMILES IDX 25 24 22 25 23 26 27 27 31 28 18 29 14 30 9 31
REMARK H PARENT
REMARK Flexibility Score: inf
ROOT
ATOM      1  C   UNL     1     117.763 115.309 122.191  1.00  0.00     0.016 C 
ATOM      2  C   UNL     1     116.455 116.122 122.259  1.00  0.00     0.059 C 
ATOM      3  C   UNL     1     115.273 115.180 122.113  1.00  0.00     0.136 C 
ATOM      4  O   UNL     1     114.729 114.733 123.113  1.00  0.00    -0.299 OA
ATOM      5  C   UNL     1     114.812 114.725 120.748  1.00  0.00     0.076 C 
ATOM      6  C   UNL     1     114.790 115.873 119.718  1.00  0.00     0.012 C 
ATOM      7  C   UNL     1     116.109 116.694 119.783  1.00  0.00     0.002 C 
ATOM      8  C   UNL     1     116.318 117.308 121.230  1.00  0.00    -0.020 C 
ATOM      9  C   UNL     1     117.557 118.253 121.253  1.00  0.00     0.008 C 
ATOM     10  C   UNL     1     118.552 117.970 120.129  1.00  0.00     0.005 C 
ATOM     11  C   UNL     1     117.937 118.222 118.716  1.00  0.00     0.002 C 
ATOM     12  C   UNL     1     116.431 117.666 118.566  1.00  0.00    -0.026 C 
ATOM     13  C   UNL     1     116.218 116.878 117.217  1.00  0.00     0.008 C 
ATOM     14  C   UNL     1     116.988 117.333 115.948  1.00  0.00     0.008 C 
ATOM     15  C   UNL     1     118.283 118.185 116.153  1.00  0.00    -0.024 C 
ATOM     16  C   UNL     1     118.937 117.794 117.555  1.00  0.00    -0.024 C 
ATOM     17  C   UNL     1     120.312 118.539 117.693  1.00  0.00     0.008 C 
ATOM     18  C   UNL     1     121.289 118.234 116.538  1.00  0.00     0.007 C 
ATOM     19  C   UNL     1     120.726 118.566 115.132  1.00  0.00    -0.029 C 
ATOM     20  C   UNL     1     119.308 117.905 114.966  1.00  0.00     0.002 C 
ATOM     21  C   UNL     1     118.750 118.087 113.521  1.00  0.00     0.011 C 
ATOM     22  C   UNL     1     119.712 117.544 112.423  1.00  0.00    -0.035 C 
ATOM     23  C   UNL     1     121.150 118.094 112.630  1.00  0.00     0.007 C 
ATOM     24  C   UNL     1     121.670 117.925 114.071  1.00  0.00     0.007 C 
ATOM     25  C   UNL     1     119.200 118.016 111.044  1.00  0.00     0.011 C 
ATOM     26  C   UNL     1     119.724 115.995 112.407  1.00  0.00     0.011 C 
ATOM     27  C   UNL     1     120.759 120.111 114.930  1.00  0.00     0.011 C 
ATOM     28  C   UNL     1     119.260 116.256 117.697  1.00  0.00     0.012 C 
ATOM     29  C   UNL     1     117.855 119.696 116.102  1.00  0.00     0.012 C 
ATOM     30  C   UNL     1     115.400 118.837 118.571  1.00  0.00     0.012 C 
ATOM     31  C   UNL     1     115.106 118.161 121.730  1.00  0.00     0.012 C 
ENDROOT
TORSDOF 0
ENDMDL
MODEL 8
REMARK VINA RESULT:    -5.908      4.204      7.561
REMARK INTER + INTRA:          -5.908
REMARK INTER:                  -5.908
REMARK INTRA:                   0.000
REMARK UNBOUND:                 0.000
REMARK SMILES C[C@@H]1C(=O)CC[C@@H]2[C@]1(C)CC[C@@H]1[C@@]2(C)CC[C@]2(C)[C@H]3CC(C)(C)CC[C@]3(C)CC[C@@]12C
REMARK SMILES IDX 1 1 2 2 3 3 4 4 5 5 6 6 7 7 8 8 10 9 11 10 12 11 13 12 15 13
REMARK SMILES IDX 16 14 17 15 30 16 29 17 28 18 26 19 19 20 20 21 21 22 24 23
REMARK SMILES IDX 25 24 22 25 23 26 27 27 31 28 18 29 14 30 9 31
REMARK H PARENT
REMARK Flexibility Score: inf
ROOT
ATOM      1  C   UNL     1     115.918 116.254 121.241  1.00  0.00     0.016 C 
ATOM      2  C   UNL     1     116.358 115.258 120.149  1.00  0.00     0.059 C 
ATOM      3  C   UNL     1     117.836 114.956 120.315  1.00  0.00     0.136 C 
ATOM      4  O   UNL     1     118.185 113.981 120.965  1.00  0.00    -0.299 OA
ATOM      5  C   UNL     1     118.883 115.891 119.755  1.00  0.00     0.076 C 
ATOM      6  C   UNL     1     118.532 116.391 118.339  1.00  0.00     0.012 C 
ATOM      7  C   UNL     1     117.053 116.865 118.275  1.00  0.00     0.002 C 
ATOM      8  C   UNL     1     116.067 115.684 118.660  1.00  0.00    -0.020 C 
ATOM      9  C   UNL     1     114.584 116.114 118.449  1.00  0.00     0.008 C 
ATOM     10  C   UNL     1     114.388 117.629 118.460  1.00  0.00     0.005 C 
ATOM     11  C   UNL     1     115.135 118.332 117.282  1.00  0.00     0.002 C 
ATOM     12  C   UNL     1     116.617 117.751 117.028  1.00  0.00    -0.026 C 
ATOM     13  C   UNL     1     117.679 118.898 116.825  1.00  0.00     0.008 C 
ATOM     14  C   UNL     1     117.247 120.210 116.116  1.00  0.00     0.008 C 
ATOM     15  C   UNL     1     115.721 120.552 116.093  1.00  0.00    -0.024 C 
ATOM     16  C   UNL     1     115.034 119.916 117.386  1.00  0.00    -0.024 C 
ATOM     17  C   UNL     1     113.537 120.383 117.439  1.00  0.00     0.008 C 
ATOM     18  C   UNL     1     113.377 121.918 117.444  1.00  0.00     0.007 C 
ATOM     19  C   UNL     1     114.035 122.624 116.230  1.00  0.00    -0.029 C 
ATOM     20  C   UNL     1     115.522 122.133 116.081  1.00  0.00     0.002 C 
ATOM     21  C   UNL     1     116.279 122.910 114.961  1.00  0.00     0.011 C 
ATOM     22  C   UNL     1     116.257 124.454 115.169  1.00  0.00    -0.035 C 
ATOM     23  C   UNL     1     114.809 124.952 115.431  1.00  0.00     0.007 C 
ATOM     24  C   UNL     1     114.073 124.154 116.524  1.00  0.00     0.007 C 
ATOM     25  C   UNL     1     116.783 125.130 113.884  1.00  0.00     0.011 C 
ATOM     26  C   UNL     1     117.191 124.875 116.330  1.00  0.00     0.011 C 
ATOM     27  C   UNL     1     113.140 122.400 114.974  1.00  0.00     0.011 C 
ATOM     28  C   UNL     1     115.685 120.384 118.745  1.00  0.00     0.012 C 
ATOM     29  C   UNL     1     115.134 119.960 114.761  1.00  0.00     0.012 C 
ATOM     30  C   UNL     1     116.658 116.867 115.743  1.00  0.00     0.012 C 
ATOM     31  C   UNL     1     116.275 114.391 117.804  1.00  0.00     0.012 C 
ENDROOT
TORSDOF 0
ENDMDL
MODEL 9
REMARK VINA RESULT:    -5.871      4.151      6.888
REMARK INTER + INTRA:          -5.871
REMARK INTER:                  -5.871
REMARK INTRA:                   0.000
REMARK UNBOUND:                 0.000
REMARK SMILES C[C@@H]1C(=O)CC[C@@H]2[C@]1(C)CC[C@@H]1[C@@]2(C)CC[C@]2(C)[C@H]3CC(C)(C)CC[C@]3(C)CC[C@@]12C
REMARK SMILES IDX 1 1 2 2 3 3 4 4 5 5 6 6 7 7 8 8 10 9 11 10 12 11 13 12 15 13
REMARK SMILES IDX 16 14 17 15 30 16 29 17 28 18 26 19 19 20 20 21 21 22 24 23
REMARK SMILES IDX 25 24 22 25 23 26 27 27 31 28 18 29 14 30 9 31
REMARK H PARENT
REMARK Flexibility Score: inf
ROOT
ATOM      1  C   UNL     1     119.248 115.705 116.583  1.00  0.00     0.016 C 
ATOM      2  C   UNL     1     118.873 115.535 118.069  1.00  0.00     0.059 C 
ATOM      3  C   UNL     1     118.108 114.236 118.246  1.00  0.00     0.136 C 
ATOM      4  O   UNL     1     118.708 113.218 118.560  1.00  0.00    -0.299 OA
ATOM      5  C   UNL     1     116.625 114.168 117.959  1.00  0.00     0.076 C 
ATOM      6  C   UNL     1     115.861 115.390 118.507  1.00  0.00     0.012 C 
ATOM      7  C   UNL     1     116.595 116.709 118.134  1.00  0.00     0.002 C 
ATOM      8  C   UNL     1     118.066 116.720 118.724  1.00  0.00    -0.020 C 
ATOM      9  C   UNL     1     118.747 118.100 118.481  1.00  0.00     0.008 C 
ATOM     10  C   UNL     1     118.121 118.888 117.332  1.00  0.00     0.005 C 
ATOM     11  C   UNL     1     116.633 119.268 117.615  1.00  0.00     0.002 C 
ATOM     12  C   UNL     1     115.782 118.069 118.279  1.00  0.00    -0.026 C 
ATOM     13  C   UNL     1     114.372 117.892 117.598  1.00  0.00     0.008 C 
ATOM     14  C   UNL     1     113.627 119.147 117.067  1.00  0.00     0.008 C 
ATOM     15  C   UNL     1     114.481 120.422 116.764  1.00  0.00    -0.024 C 
ATOM     16  C   UNL     1     115.955 119.966 116.357  1.00  0.00    -0.024 C 
ATOM     17  C   UNL     1     116.766 121.233 115.911  1.00  0.00     0.008 C 
ATOM     18  C   UNL     1     116.102 122.006 114.752  1.00  0.00     0.007 C 
ATOM     19  C   UNL     1     114.654 122.471 115.053  1.00  0.00    -0.029 C 
ATOM     20  C   UNL     1     113.811 121.251 115.580  1.00  0.00     0.002 C 
ATOM     21  C   UNL     1     112.308 121.625 115.770  1.00  0.00     0.011 C 
ATOM     22  C   UNL     1     111.654 122.193 114.475  1.00  0.00    -0.035 C 
ATOM     23  C   UNL     1     112.527 123.327 113.870  1.00  0.00     0.007 C 
ATOM     24  C   UNL     1     114.011 122.943 113.715  1.00  0.00     0.007 C 
ATOM     25  C   UNL     1     110.272 122.780 114.841  1.00  0.00     0.011 C 
ATOM     26  C   UNL     1     111.421 121.074 113.430  1.00  0.00     0.011 C 
ATOM     27  C   UNL     1     114.710 123.696 116.015  1.00  0.00     0.011 C 
ATOM     28  C   UNL     1     115.996 118.970 115.134  1.00  0.00     0.012 C 
ATOM     29  C   UNL     1     114.473 121.303 118.064  1.00  0.00     0.012 C 
ATOM     30  C   UNL     1     115.520 118.341 119.792  1.00  0.00     0.012 C 
ATOM     31  C   UNL     1     118.125 116.467 120.267  1.00  0.00     0.012 C 
ENDROOT
TORSDOF 0
ENDMDL
