MODEL 1
REMARK VINA RESULT:    -4.285      0.000      0.000
REMARK INTER + INTRA:         -10.025
REMARK INTER:                  -8.042
REMARK INTRA:                  -1.982
REMARK UNBOUND:                -1.982
REMARK SMILES CCCCCCCCC=CCCCCCCCC(=O)[O-]
REMARK SMILES IDX 10 1 9 2 11 3 12 4 13 5 14 6 15 7 16 8 17 9 18 10 19 11
REMARK SMILES IDX 20 12 8 13 7 14 6 15 5 16 4 17 3 18 2 19 1 20
REMARK H PARENT
REMARK Flexibility Score: inf
ROOT
ATOM      1  C   UNL     1      25.257 -32.886  23.584  1.00  0.00    -0.031 C 
ATOM      2  C   UNL     1      24.965 -33.028  22.281  1.00  0.00    -0.031 C 
ENDROOT
BRANCH   1   3
ATOM      3  C   UNL     1      24.416 -32.030  24.491  1.00  0.00     0.027 C 
BRANCH   3   4
ATOM      4  C   UNL     1      24.168 -32.724  25.835  1.00  0.00     0.004 C 
BRANCH   4   5
ATOM      5  C   UNL     1      22.663 -32.906  26.089  1.00  0.00     0.000 C 
BRANCH   5   6
ATOM      6  C   UNL     1      21.803 -31.907  25.298  1.00  0.00     0.000 C 
BRANCH   6   7
ATOM      7  C   UNL     1      20.827 -31.129  26.197  1.00  0.00     0.000 C 
BRANCH   7   8
ATOM      8  C   UNL     1      21.329 -29.713  26.535  1.00  0.00     0.006 C 
BRANCH   8   9
ATOM      9  C   UNL     1      22.181 -29.627  27.812  1.00  0.00     0.053 C 
BRANCH   9  10
ATOM     10  C   UNL     1      23.633 -29.425  27.508  1.00  0.00     0.041 C 
ATOM     11  O   UNL     1      24.495 -29.558  28.415  1.00  0.00    -0.550 OA
ATOM     12  O   UNL     1      24.031 -29.055  26.229  1.00  0.00    -0.550 OA
ENDBRANCH   9  10
ENDBRANCH   8   9
ENDBRANCH   7   8
ENDBRANCH   6   7
ENDBRANCH   5   6
ENDBRANCH   4   5
ENDBRANCH   3   4
ENDBRANCH   1   3
BRANCH   2  13
ATOM     13  C   UNL     1      25.806 -33.885  21.375  1.00  0.00     0.027 C 
BRANCH  13  14
ATOM     14  C   UNL     1      26.311 -35.136  22.109  1.00  0.00     0.004 C 
BRANCH  14  15
ATOM     15  C   UNL     1      25.236 -36.226  22.228  1.00  0.00     0.000 C 
BRANCH  15  16
ATOM     16  C   UNL     1      25.683 -37.407  23.107  1.00  0.00     0.000 C 
BRANCH  16  17
ATOM     17  C   UNL     1      25.492 -37.119  24.612  1.00  0.00    -0.000 C 
BRANCH  17  18
ATOM     18  C   UNL     1      24.233 -36.292  24.924  1.00  0.00    -0.000 C 
BRANCH  18  19
ATOM     19  C   UNL     1      23.448 -36.829  26.126  1.00  0.00    -0.003 C 
ATOM     20  C   UNL     1      22.541 -37.987  25.719  1.00  0.00     0.004 C 
ENDBRANCH  18  19
ENDBRANCH  17  18
ENDBRANCH  16  17
ENDBRANCH  15  16
ENDBRANCH  14  15
ENDBRANCH  13  14
ENDBRANCH   2  13
TORSDOF 15
ENDMDL
MODEL 2
REMARK VINA RESULT:    -4.248      3.958      7.528
REMARK INTER + INTRA:          -9.955
REMARK INTER:                  -8.368
REMARK INTRA:                  -1.587
REMARK UNBOUND:                -1.982
REMARK SMILES CCCCCCCCC=CCCCCCCCC(=O)[O-]
REMARK SMILES IDX 10 1 9 2 11 3 12 4 13 5 14 6 15 7 16 8 17 9 18 10 19 11
REMARK SMILES IDX 20 12 8 13 7 14 6 15 5 16 4 17 3 18 2 19 1 20
REMARK H PARENT
REMARK Flexibility Score: inf
ROOT
ATOM      1  C   UNL     1      24.963 -33.099  22.395  1.00  0.00    -0.031 C 
ATOM      2  C   UNL     1      25.436 -32.157  23.226  1.00  0.00    -0.031 C 
ENDROOT
BRANCH   1   3
ATOM      3  C   UNL     1      25.881 -33.923  21.534  1.00  0.00     0.027 C 
BRANCH   3   4
ATOM      4  C   UNL     1      26.340 -35.190  22.266  1.00  0.00     0.004 C 
BRANCH   4   5
ATOM      5  C   UNL     1      25.281 -35.651  23.281  1.00  0.00     0.000 C 
BRANCH   5   6
ATOM      6  C   UNL     1      25.353 -37.158  23.570  1.00  0.00     0.000 C 
BRANCH   6   7
ATOM      7  C   UNL     1      25.033 -38.013  22.330  1.00  0.00     0.000 C 
BRANCH   7   8
ATOM      8  C   UNL     1      23.701 -37.621  21.664  1.00  0.00     0.006 C 
BRANCH   8   9
ATOM      9  C   UNL     1      22.467 -38.332  22.242  1.00  0.00     0.053 C 
BRANCH   9  10
ATOM     10  C   UNL     1      21.393 -38.518  21.215  1.00  0.00     0.041 C 
ATOM     11  O   UNL     1      21.402 -37.834  20.158  1.00  0.00    -0.550 OA
ATOM     12  O   UNL     1      20.362 -39.422  21.440  1.00  0.00    -0.550 OA
ENDBRANCH   9  10
ENDBRANCH   8   9
ENDBRANCH   7   8
ENDBRANCH   6   7
ENDBRANCH   5   6
ENDBRANCH   4   5
ENDBRANCH   3   4
ENDBRANCH   1   3
BRANCH   2  13
ATOM     13  C   UNL     1      24.517 -31.334  24.087  1.00  0.00     0.027 C 
BRANCH  13  14
ATOM     14  C   UNL     1      23.332 -32.172  24.588  1.00  0.00     0.004 C 
BRANCH  14  15
ATOM     15  C   UNL     1      23.726 -33.140  25.714  1.00  0.00     0.000 C 
BRANCH  15  16
ATOM     16  C   UNL     1      22.717 -33.142  26.876  1.00  0.00     0.000 C 
BRANCH  16  17
ATOM     17  C   UNL     1      21.764 -31.928  26.821  1.00  0.00    -0.000 C 
BRANCH  17  18
ATOM     18  C   UNL     1      22.113 -30.828  27.837  1.00  0.00    -0.000 C 
BRANCH  18  19
ATOM     19  C   UNL     1      22.413 -29.477  27.176  1.00  0.00    -0.003 C 
ATOM     20  C   UNL     1      23.913 -29.201  27.143  1.00  0.00     0.004 C 
ENDBRANCH  18  19
ENDBRANCH  17  18
ENDBRANCH  16  17
ENDBRANCH  15  16
ENDBRANCH  14  15
ENDBRANCH  13  14
ENDBRANCH   2  13
TORSDOF 15
ENDMDL
MODEL 3
REMARK VINA RESULT:    -4.200      1.732      2.438
REMARK INTER + INTRA:          -9.865
REMARK INTER:                  -8.598
REMARK INTRA:                  -1.266
REMARK UNBOUND:                -1.982
REMARK SMILES CCCCCCCCC=CCCCCCCCC(=O)[O-]
REMARK SMILES IDX 10 1 9 2 11 3 12 4 13 5 14 6 15 7 16 8 17 9 18 10 19 11
REMARK SMILES IDX 20 12 8 13 7 14 6 15 5 16 4 17 3 18 2 19 1 20
REMARK H PARENT
REMARK Flexibility Score: inf
ROOT
ATOM      1  C   UNL     1      25.262 -32.875  23.242  1.00  0.00    -0.031 C 
ATOM      2  C   UNL     1      25.652 -33.152  21.988  1.00  0.00    -0.031 C 
ENDROOT
BRANCH   1   3
ATOM      3  C   UNL     1      24.672 -31.541  23.608  1.00  0.00     0.027 C 
BRANCH   3   4
ATOM      4  C   UNL     1      24.086 -31.563  25.025  1.00  0.00     0.004 C 
BRANCH   4   5
ATOM      5  C   UNL     1      22.615 -32.007  25.003  1.00  0.00     0.000 C 
BRANCH   5   6
ATOM      6  C   UNL     1      21.721 -31.143  25.906  1.00  0.00     0.000 C 
BRANCH   6   7
ATOM      7  C   UNL     1      22.273 -29.719  26.095  1.00  0.00     0.000 C 
BRANCH   7   8
ATOM      8  C   UNL     1      22.558 -29.382  27.570  1.00  0.00     0.006 C 
BRANCH   8   9
ATOM      9  C   UNL     1      24.051 -29.303  27.929  1.00  0.00     0.053 C 
BRANCH   9  10
ATOM     10  C   UNL     1      24.461 -30.391  28.873  1.00  0.00     0.041 C 
ATOM     11  O   UNL     1      24.918 -30.104  30.010  1.00  0.00    -0.550 OA
ATOM     12  O   UNL     1      24.369 -31.722  28.484  1.00  0.00    -0.550 OA
ENDBRANCH   9  10
ENDBRANCH   8   9
ENDBRANCH   7   8
ENDBRANCH   6   7
ENDBRANCH   5   6
ENDBRANCH   4   5
ENDBRANCH   3   4
ENDBRANCH   1   3
BRANCH   2  13
ATOM     13  C   UNL     1      26.241 -34.487  21.623  1.00  0.00     0.027 C 
BRANCH  13  14
ATOM     14  C   UNL     1      25.247 -35.624  21.901  1.00  0.00     0.004 C 
BRANCH  14  15
ATOM     15  C   UNL     1      25.737 -36.582  22.998  1.00  0.00     0.000 C 
BRANCH  15  16
ATOM     16  C   UNL     1      25.187 -38.010  22.827  1.00  0.00     0.000 C 
BRANCH  16  17
ATOM     17  C   UNL     1      23.790 -38.175  23.461  1.00  0.00    -0.000 C 
BRANCH  17  18
ATOM     18  C   UNL     1      22.686 -38.498  22.441  1.00  0.00    -0.000 C 
BRANCH  18  19
ATOM     19  C   UNL     1      23.177 -38.442  20.990  1.00  0.00    -0.003 C 
ATOM     20  C   UNL     1      22.270 -37.563  20.134  1.00  0.00     0.004 C 
ENDBRANCH  18  19
ENDBRANCH  17  18
ENDBRANCH  16  17
ENDBRANCH  15  16
ENDBRANCH  14  15
ENDBRANCH  13  14
ENDBRANCH   2  13
TORSDOF 15
ENDMDL
MODEL 4
REMARK VINA RESULT:    -4.170      3.848      7.797
REMARK INTER + INTRA:          -9.808
REMARK INTER:                  -8.024
REMARK INTRA:                  -1.785
REMARK UNBOUND:                -1.982
REMARK SMILES CCCCCCCCC=CCCCCCCCC(=O)[O-]
REMARK SMILES IDX 10 1 9 2 11 3 12 4 13 5 14 6 15 7 16 8 17 9 18 10 19 11
REMARK SMILES IDX 20 12 8 13 7 14 6 15 5 16 4 17 3 18 2 19 1 20
REMARK H PARENT
REMARK Flexibility Score: inf
ROOT
ATOM      1  C   UNL     1      23.911 -31.576  24.472  1.00  0.00    -0.031 C 
ATOM      2  C   UNL     1      23.477 -32.696  25.073  1.00  0.00    -0.031 C 
ENDROOT
BRANCH   1   3
ATOM      3  C   UNL     1      25.112 -31.582  23.567  1.00  0.00     0.027 C 
BRANCH   3   4
ATOM      4  C   UNL     1      25.592 -33.012  23.291  1.00  0.00     0.004 C 
BRANCH   4   5
ATOM      5  C   UNL     1      25.655 -33.287  21.780  1.00  0.00     0.000 C 
BRANCH   5   6
ATOM      6  C   UNL     1      26.079 -34.729  21.457  1.00  0.00     0.000 C 
BRANCH   6   7
ATOM      7  C   UNL     1      26.021 -35.651  22.687  1.00  0.00     0.000 C 
BRANCH   7   8
ATOM      8  C   UNL     1      24.868 -36.670  22.613  1.00  0.00     0.006 C 
BRANCH   8   9
ATOM      9  C   UNL     1      24.160 -36.733  21.250  1.00  0.00     0.053 C 
BRANCH   9  10
ATOM     10  C   UNL     1      23.171 -37.856  21.181  1.00  0.00     0.041 C 
ATOM     11  O   UNL     1      23.362 -38.908  21.844  1.00  0.00    -0.550 OA
ATOM     12  O   UNL     1      22.057 -37.752  20.358  1.00  0.00    -0.550 OA
ENDBRANCH   9  10
ENDBRANCH   8   9
ENDBRANCH   7   8
ENDBRANCH   6   7
ENDBRANCH   5   6
ENDBRANCH   4   5
ENDBRANCH   3   4
ENDBRANCH   1   3
BRANCH   2  13
ATOM     13  C   UNL     1      22.276 -32.689  25.977  1.00  0.00     0.027 C 
BRANCH  13  14
ATOM     14  C   UNL     1      21.310 -31.555  25.605  1.00  0.00     0.004 C 
BRANCH  14  15
ATOM     15  C   UNL     1      20.477 -31.071  26.802  1.00  0.00     0.000 C 
BRANCH  15  16
ATOM     16  C   UNL     1      20.650 -29.566  27.076  1.00  0.00     0.000 C 
BRANCH  16  17
ATOM     17  C   UNL     1      21.502 -29.297  28.334  1.00  0.00    -0.000 C 
BRANCH  17  18
ATOM     18  C   UNL     1      22.887 -28.705  28.023  1.00  0.00    -0.000 C 
BRANCH  18  19
ATOM     19  C   UNL     1      23.918 -29.770  27.631  1.00  0.00    -0.003 C 
ATOM     20  C   UNL     1      24.007 -30.866  28.689  1.00  0.00     0.004 C 
ENDBRANCH  18  19
ENDBRANCH  17  18
ENDBRANCH  16  17
ENDBRANCH  15  16
ENDBRANCH  14  15
ENDBRANCH  13  14
ENDBRANCH   2  13
TORSDOF 15
ENDMDL
MODEL 5
REMARK VINA RESULT:    -4.148      3.376      7.623
REMARK INTER + INTRA:          -9.767
REMARK INTER:                  -7.969
REMARK INTRA:                  -1.798
REMARK UNBOUND:                -1.982
REMARK SMILES CCCCCCCCC=CCCCCCCCC(=O)[O-]
REMARK SMILES IDX 10 1 9 2 11 3 12 4 13 5 14 6 15 7 16 8 17 9 18 10 19 11
REMARK SMILES IDX 20 12 8 13 7 14 6 15 5 16 4 17 3 18 2 19 1 20
REMARK H PARENT
REMARK Flexibility Score: inf
ROOT
ATOM      1  C   UNL     1      24.198 -31.686  24.723  1.00  0.00    -0.031 C 
ATOM      2  C   UNL     1      23.822 -32.779  25.406  1.00  0.00    -0.031 C 
ENDROOT
BRANCH   1   3
ATOM      3  C   UNL     1      25.086 -31.778  23.513  1.00  0.00     0.027 C 
BRANCH   3   4
ATOM      4  C   UNL     1      24.727 -32.995  22.653  1.00  0.00     0.004 C 
BRANCH   4   5
ATOM      5  C   UNL     1      25.903 -33.393  21.747  1.00  0.00     0.000 C 
BRANCH   5   6
ATOM      6  C   UNL     1      26.139 -34.911  21.713  1.00  0.00     0.000 C 
BRANCH   6   7
ATOM      7  C   UNL     1      25.833 -35.587  23.062  1.00  0.00     0.000 C 
BRANCH   7   8
ATOM      8  C   UNL     1      25.529 -37.089  22.919  1.00  0.00     0.006 C 
BRANCH   8   9
ATOM      9  C   UNL     1      26.668 -38.016  23.375  1.00  0.00     0.053 C 
BRANCH   9  10
ATOM     10  C   UNL     1      26.379 -38.653  24.699  1.00  0.00     0.041 C 
ATOM     11  O   UNL     1      26.958 -38.243  25.738  1.00  0.00    -0.550 OA
ATOM     12  O   UNL     1      25.496 -39.722  24.779  1.00  0.00    -0.550 OA
ENDBRANCH   9  10
ENDBRANCH   8   9
ENDBRANCH   7   8
ENDBRANCH   6   7
ENDBRANCH   5   6
ENDBRANCH   4   5
ENDBRANCH   3   4
ENDBRANCH   1   3
BRANCH   2  13
ATOM     13  C   UNL     1      22.933 -32.685  26.615  1.00  0.00     0.027 C 
BRANCH  13  14
ATOM     14  C   UNL     1      21.465 -32.490  26.208  1.00  0.00     0.004 C 
BRANCH  14  15
ATOM     15  C   UNL     1      20.812 -31.290  26.910  1.00  0.00     0.000 C 
BRANCH  15  16
ATOM     16  C   UNL     1      21.412 -29.944  26.463  1.00  0.00     0.000 C 
BRANCH  16  17
ATOM     17  C   UNL     1      22.103 -29.200  27.626  1.00  0.00    -0.000 C 
BRANCH  17  18
ATOM     18  C   UNL     1      23.625 -29.069  27.453  1.00  0.00    -0.000 C 
BRANCH  18  19
ATOM     19  C   UNL     1      24.416 -29.882  28.485  1.00  0.00    -0.003 C 
ATOM     20  C   UNL     1      23.524 -30.318  29.644  1.00  0.00     0.004 C 
ENDBRANCH  18  19
ENDBRANCH  17  18
ENDBRANCH  16  17
ENDBRANCH  15  16
ENDBRANCH  14  15
ENDBRANCH  13  14
ENDBRANCH   2  13
TORSDOF 15
ENDMDL
MODEL 6
REMARK VINA RESULT:    -4.104      2.087      2.677
REMARK INTER + INTRA:          -9.685
REMARK INTER:                  -8.459
REMARK INTRA:                  -1.226
REMARK UNBOUND:                -1.982
REMARK SMILES CCCCCCCCC=CCCCCCCCC(=O)[O-]
REMARK SMILES IDX 10 1 9 2 11 3 12 4 13 5 14 6 15 7 16 8 17 9 18 10 19 11
REMARK SMILES IDX 20 12 8 13 7 14 6 15 5 16 4 17 3 18 2 19 1 20
REMARK H PARENT
REMARK Flexibility Score: inf
ROOT
ATOM      1  C   UNL     1      25.455 -32.158  23.229  1.00  0.00    -0.031 C 
ATOM      2  C   UNL     1      24.889 -33.015  22.365  1.00  0.00    -0.031 C 
ENDROOT
BRANCH   1   3
ATOM      3  C   UNL     1      24.627 -31.283  24.129  1.00  0.00     0.027 C 
BRANCH   3   4
ATOM      4  C   UNL     1      23.488 -32.076  24.781  1.00  0.00     0.004 C 
BRANCH   4   5
ATOM      5  C   UNL     1      22.659 -31.180  25.714  1.00  0.00     0.000 C 
BRANCH   5   6
ATOM      6  C   UNL     1      23.156 -29.725  25.735  1.00  0.00     0.000 C 
BRANCH   6   7
ATOM      7  C   UNL     1      23.746 -29.323  27.098  1.00  0.00     0.000 C 
BRANCH   7   8
ATOM      8  C   UNL     1      23.160 -30.139  28.265  1.00  0.00     0.006 C 
BRANCH   8   9
ATOM      9  C   UNL     1      22.465 -29.296  29.347  1.00  0.00     0.053 C 
BRANCH   9  10
ATOM     10  C   UNL     1      21.268 -28.571  28.812  1.00  0.00     0.041 C 
ATOM     11  O   UNL     1      21.071 -27.365  29.114  1.00  0.00    -0.550 OA
ATOM     12  O   UNL     1      20.352 -29.238  28.008  1.00  0.00    -0.550 OA
ENDBRANCH   9  10
ENDBRANCH   8   9
ENDBRANCH   7   8
ENDBRANCH   6   7
ENDBRANCH   5   6
ENDBRANCH   4   5
ENDBRANCH   3   4
ENDBRANCH   1   3
BRANCH   2  13
ATOM     13  C   UNL     1      25.718 -33.890  21.466  1.00  0.00     0.027 C 
BRANCH  13  14
ATOM     14  C   UNL     1      26.379 -35.027  22.259  1.00  0.00     0.004 C 
BRANCH  14  15
ATOM     15  C   UNL     1      25.359 -35.888  23.020  1.00  0.00     0.000 C 
BRANCH  15  16
ATOM     16  C   UNL     1      25.855 -37.326  23.254  1.00  0.00     0.000 C 
BRANCH  16  17
ATOM     17  C   UNL     1      25.035 -38.362  22.456  1.00  0.00    -0.000 C 
BRANCH  17  18
ATOM     18  C   UNL     1      23.922 -37.737  21.599  1.00  0.00    -0.000 C 
BRANCH  18  19
ATOM     19  C   UNL     1      22.524 -38.242  21.974  1.00  0.00    -0.003 C 
ATOM     20  C   UNL     1      21.772 -38.746  20.745  1.00  0.00     0.004 C 
ENDBRANCH  18  19
ENDBRANCH  17  18
ENDBRANCH  16  17
ENDBRANCH  15  16
ENDBRANCH  14  15
ENDBRANCH  13  14
ENDBRANCH   2  13
TORSDOF 15
ENDMDL
MODEL 7
REMARK VINA RESULT:    -4.077      4.065      7.611
REMARK INTER + INTRA:          -9.635
REMARK INTER:                  -8.201
REMARK INTRA:                  -1.434
REMARK UNBOUND:                -1.982
REMARK SMILES CCCCCCCCC=CCCCCCCCC(=O)[O-]
REMARK SMILES IDX 10 1 9 2 11 3 12 4 13 5 14 6 15 7 16 8 17 9 18 10 19 11
REMARK SMILES IDX 20 12 8 13 7 14 6 15 5 16 4 17 3 18 2 19 1 20
REMARK H PARENT
REMARK Flexibility Score: inf
ROOT
ATOM      1  C   UNL     1      24.565 -32.212  24.172  1.00  0.00    -0.031 C 
ATOM      2  C   UNL     1      25.030 -30.992  23.858  1.00  0.00    -0.031 C 
ENDROOT
BRANCH   1   3
ATOM      3  C   UNL     1      25.296 -33.463  23.770  1.00  0.00     0.027 C 
BRANCH   3   4
ATOM      4  C   UNL     1      25.550 -33.495  22.258  1.00  0.00     0.004 C 
BRANCH   4   5
ATOM      5  C   UNL     1      25.934 -34.911  21.798  1.00  0.00     0.000 C 
BRANCH   5   6
ATOM      6  C   UNL     1      25.987 -35.918  22.957  1.00  0.00     0.000 C 
BRANCH   6   7
ATOM      7  C   UNL     1      25.318 -37.259  22.605  1.00  0.00     0.000 C 
BRANCH   7   8
ATOM      8  C   UNL     1      24.122 -37.094  21.649  1.00  0.00     0.006 C 
BRANCH   8   9
ATOM      9  C   UNL     1      22.953 -38.056  21.920  1.00  0.00     0.053 C 
BRANCH   9  10
ATOM     10  C   UNL     1      21.973 -38.083  20.787  1.00  0.00     0.041 C 
ATOM     11  O   UNL     1      22.205 -37.433  19.735  1.00  0.00    -0.550 OA
ATOM     12  O   UNL     1      20.789 -38.798  20.908  1.00  0.00    -0.550 OA
ENDBRANCH   9  10
ENDBRANCH   8   9
ENDBRANCH   7   8
ENDBRANCH   6   7
ENDBRANCH   5   6
ENDBRANCH   4   5
ENDBRANCH   3   4
ENDBRANCH   1   3
BRANCH   2  13
ATOM     13  C   UNL     1      24.298 -29.742  24.261  1.00  0.00     0.027 C 
BRANCH  13  14
ATOM     14  C   UNL     1      23.359 -30.009  25.446  1.00  0.00     0.004 C 
BRANCH  14  15
ATOM     15  C   UNL     1      23.709 -29.163  26.680  1.00  0.00     0.000 C 
BRANCH  15  16
ATOM     16  C   UNL     1      24.121 -30.022  27.889  1.00  0.00     0.000 C 
BRANCH  16  17
ATOM     17  C   UNL     1      23.702 -31.498  27.725  1.00  0.00    -0.000 C 
BRANCH  17  18
ATOM     18  C   UNL     1      22.841 -32.026  28.885  1.00  0.00    -0.000 C 
BRANCH  18  19
ATOM     19  C   UNL     1      21.460 -31.363  28.954  1.00  0.00    -0.003 C 
ATOM     20  C   UNL     1      20.732 -31.467  27.617  1.00  0.00     0.004 C 
ENDBRANCH  18  19
ENDBRANCH  17  18
ENDBRANCH  16  17
ENDBRANCH  15  16
ENDBRANCH  14  15
ENDBRANCH  13  14
ENDBRANCH   2  13
TORSDOF 15
ENDMDL
MODEL 8
REMARK VINA RESULT:    -4.063      1.997      3.979
REMARK INTER + INTRA:          -9.608
REMARK INTER:                  -7.617
REMARK INTRA:                  -1.990
REMARK UNBOUND:                -1.982
REMARK SMILES CCCCCCCCC=CCCCCCCCC(=O)[O-]
REMARK SMILES IDX 10 1 9 2 11 3 12 4 13 5 14 6 15 7 16 8 17 9 18 10 19 11
REMARK SMILES IDX 20 12 8 13 7 14 6 15 5 16 4 17 3 18 2 19 1 20
REMARK H PARENT
REMARK Flexibility Score: inf
ROOT
ATOM      1  C   UNL     1      25.671 -36.033  23.071  1.00  0.00    -0.031 C 
ATOM      2  C   UNL     1      26.377 -37.113  23.440  1.00  0.00    -0.031 C 
ENDROOT
BRANCH   1   3
ATOM      3  C   UNL     1      26.206 -35.043  22.074  1.00  0.00     0.027 C 
BRANCH   3   4
ATOM      4  C   UNL     1      25.203 -33.910  21.823  1.00  0.00     0.004 C 
BRANCH   4   5
ATOM      5  C   UNL     1      25.582 -32.656  22.627  1.00  0.00     0.000 C 
BRANCH   5   6
ATOM      6  C   UNL     1      24.465 -32.203  23.581  1.00  0.00     0.000 C 
BRANCH   6   7
ATOM      7  C   UNL     1      24.364 -33.090  24.835  1.00  0.00     0.000 C 
BRANCH   7   8
ATOM      8  C   UNL     1      23.371 -32.539  25.875  1.00  0.00     0.006 C 
BRANCH   8   9
ATOM      9  C   UNL     1      22.361 -31.524  25.316  1.00  0.00     0.053 C 
BRANCH   9  10
ATOM     10  C   UNL     1      22.467 -30.192  25.994  1.00  0.00     0.041 C 
ATOM     11  O   UNL     1      21.476 -29.710  26.600  1.00  0.00    -0.550 OA
ATOM     12  O   UNL     1      23.652 -29.470  25.926  1.00  0.00    -0.550 OA
ENDBRANCH   9  10
ENDBRANCH   8   9
ENDBRANCH   7   8
ENDBRANCH   6   7
ENDBRANCH   5   6
ENDBRANCH   4   5
ENDBRANCH   3   4
ENDBRANCH   1   3
BRANCH   2  13
ATOM     13  C   UNL     1      25.840 -38.103  24.436  1.00  0.00     0.027 C 
BRANCH  13  14
ATOM     14  C   UNL     1      26.354 -39.520  24.140  1.00  0.00     0.004 C 
BRANCH  14  15
ATOM     15  C   UNL     1      26.813 -39.689  22.684  1.00  0.00     0.000 C 
BRANCH  15  16
ATOM     16  C   UNL     1      25.853 -40.563  21.857  1.00  0.00     0.000 C 
BRANCH  16  17
ATOM     17  C   UNL     1      24.743 -39.729  21.182  1.00  0.00    -0.000 C 
BRANCH  17  18
ATOM     18  C   UNL     1      23.444 -39.658  22.000  1.00  0.00    -0.000 C 
BRANCH  18  19
ATOM     19  C   UNL     1      22.814 -38.260  22.003  1.00  0.00    -0.003 C 
ATOM     20  C   UNL     1      23.213 -37.474  20.757  1.00  0.00     0.004 C 
ENDBRANCH  18  19
ENDBRANCH  17  18
ENDBRANCH  16  17
ENDBRANCH  15  16
ENDBRANCH  14  15
ENDBRANCH  13  14
ENDBRANCH   2  13
TORSDOF 15
ENDMDL
MODEL 9
REMARK VINA RESULT:    -3.977      3.194      7.027
REMARK INTER + INTRA:          -9.447
REMARK INTER:                  -7.641
REMARK INTRA:                  -1.806
REMARK UNBOUND:                -1.982
REMARK SMILES CCCCCCCCC=CCCCCCCCC(=O)[O-]
REMARK SMILES IDX 10 1 9 2 11 3 12 4 13 5 14 6 15 7 16 8 17 9 18 10 19 11
REMARK SMILES IDX 20 12 8 13 7 14 6 15 5 16 4 17 3 18 2 19 1 20
REMARK H PARENT
REMARK Flexibility Score: inf
ROOT
ATOM      1  C   UNL     1      23.245 -29.835  25.693  1.00  0.00    -0.031 C 
ATOM      2  C   UNL     1      23.743 -29.424  26.870  1.00  0.00    -0.031 C 
ENDROOT
BRANCH   1   3
ATOM      3  C   UNL     1      24.141 -30.267  24.566  1.00  0.00     0.027 C 
BRANCH   3   4
ATOM      4  C   UNL     1      24.228 -31.796  24.481  1.00  0.00     0.004 C 
BRANCH   4   5
ATOM      5  C   UNL     1      25.402 -32.230  23.589  1.00  0.00     0.000 C 
BRANCH   5   6
ATOM      6  C   UNL     1      24.944 -32.994  22.336  1.00  0.00     0.000 C 
BRANCH   6   7
ATOM      7  C   UNL     1      26.073 -33.833  21.711  1.00  0.00     0.000 C 
BRANCH   7   8
ATOM      8  C   UNL     1      26.198 -35.230  22.347  1.00  0.00     0.006 C 
BRANCH   8   9
ATOM      9  C   UNL     1      25.014 -36.168  22.062  1.00  0.00     0.053 C 
BRANCH   9  10
ATOM     10  C   UNL     1      24.616 -36.956  23.272  1.00  0.00     0.041 C 
ATOM     11  O   UNL     1      25.261 -36.834  24.346  1.00  0.00    -0.550 OA
ATOM     12  O   UNL     1      23.556 -37.850  23.203  1.00  0.00    -0.550 OA
ENDBRANCH   9  10
ENDBRANCH   8   9
ENDBRANCH   7   8
ENDBRANCH   6   7
ENDBRANCH   5   6
ENDBRANCH   4   5
ENDBRANCH   3   4
ENDBRANCH   1   3
BRANCH   2  13
ATOM     13  C   UNL     1      22.846 -28.993  27.998  1.00  0.00     0.027 C 
BRANCH  13  14
ATOM     14  C   UNL     1      23.176 -29.755  29.289  1.00  0.00     0.004 C 
BRANCH  14  15
ATOM     15  C   UNL     1      24.162 -30.910  29.058  1.00  0.00     0.000 C 
BRANCH  15  16
ATOM     16  C   UNL     1      23.885 -32.118  29.971  1.00  0.00     0.000 C 
BRANCH  16  17
ATOM     17  C   UNL     1      22.692 -32.962  29.474  1.00  0.00    -0.000 C 
BRANCH  17  18
ATOM     18  C   UNL     1      22.534 -32.962  27.944  1.00  0.00    -0.000 C 
BRANCH  18  19
ATOM     19  C   UNL     1      21.187 -32.391  27.483  1.00  0.00    -0.003 C 
ATOM     20  C   UNL     1      20.983 -32.605  25.986  1.00  0.00     0.004 C 
ENDBRANCH  18  19
ENDBRANCH  17  18
ENDBRANCH  16  17
ENDBRANCH  15  16
ENDBRANCH  14  15
ENDBRANCH  13  14
ENDBRANCH   2  13
TORSDOF 15
ENDMDL
