MODEL 1
REMARK VINA RESULT:    -2.524      0.000      0.000
REMARK INTER + INTRA:          -3.620
REMARK INTER:                  -3.409
REMARK INTRA:                  -0.211
REMARK UNBOUND:                -0.211
REMARK SMILES CCCCCCCC=O
REMARK SMILES IDX 5 1 4 2 3 3 2 4 1 5 6 6 7 7 8 8 9 9
REMARK H PARENT
REMARK Flexibility Score: inf
ROOT
ATOM      1  C   UNL     1     140.281 145.768 140.032  1.00  0.00     0.000 C 
ENDROOT
BRANCH   1   2
ATOM      2  C   UNL     1     140.254 146.781 138.879  1.00  0.00     0.000 C 
BRANCH   2   3
ATOM      3  C   UNL     1     140.491 148.224 139.352  1.00  0.00    -0.000 C 
BRANCH   3   4
ATOM      4  C   UNL     1     141.757 148.847 138.744  1.00  0.00    -0.003 C 
ATOM      5  C   UNL     1     141.982 150.259 139.274  1.00  0.00     0.004 C 
ENDBRANCH   3   4
ENDBRANCH   2   3
ENDBRANCH   1   2
BRANCH   1   6
ATOM      6  C   UNL     1     139.825 146.420 141.346  1.00  0.00     0.008 C 
BRANCH   6   7
ATOM      7  C   UNL     1     139.135 145.418 142.282  1.00  0.00     0.072 C 
BRANCH   7   8
ATOM      8  C   UNL     1     139.970 145.094 143.488  1.00  0.00     0.224 C 
ATOM      9  O   UNL     1     140.696 145.948 143.970  1.00  0.00    -0.303 OA
ENDBRANCH   7   8
ENDBRANCH   6   7
ENDBRANCH   1   6
TORSDOF 6
ENDMDL
MODEL 2
REMARK VINA RESULT:    -2.503      8.220      9.029
REMARK INTER + INTRA:          -3.592
REMARK INTER:                  -3.381
REMARK INTRA:                  -0.210
REMARK UNBOUND:                -0.211
REMARK SMILES CCCCCCCC=O
REMARK SMILES IDX 5 1 4 2 3 3 2 4 1 5 6 6 7 7 8 8 9 9
REMARK H PARENT
REMARK Flexibility Score: inf
ROOT
ATOM      1  C   UNL     1     136.054 140.437 140.241  1.00  0.00     0.000 C 
ENDROOT
BRANCH   1   2
ATOM      2  C   UNL     1     135.119 140.397 139.025  1.00  0.00     0.000 C 
BRANCH   2   3
ATOM      3  C   UNL     1     133.635 140.498 139.413  1.00  0.00    -0.000 C 
BRANCH   3   4
ATOM      4  C   UNL     1     132.879 141.555 138.594  1.00  0.00    -0.003 C 
ATOM      5  C   UNL     1     131.579 141.958 139.284  1.00  0.00     0.004 C 
ENDBRANCH   3   4
ENDBRANCH   2   3
ENDBRANCH   1   2
BRANCH   1   6
ATOM      6  C   UNL     1     135.369 139.840 141.480  1.00  0.00     0.008 C 
BRANCH   6   7
ATOM      7  C   UNL     1     136.352 139.065 142.369  1.00  0.00     0.072 C 
BRANCH   7   8
ATOM      8  C   UNL     1     136.613 139.762 143.674  1.00  0.00     0.224 C 
ATOM      9  O   UNL     1     135.786 140.537 144.125  1.00  0.00    -0.303 OA
ENDBRANCH   7   8
ENDBRANCH   6   7
ENDBRANCH   1   6
TORSDOF 6
ENDMDL
MODEL 3
REMARK VINA RESULT:    -2.499      7.655      8.535
REMARK INTER + INTRA:          -3.587
REMARK INTER:                  -3.320
REMARK INTRA:                  -0.267
REMARK UNBOUND:                -0.211
REMARK SMILES CCCCCCCC=O
REMARK SMILES IDX 5 1 4 2 3 3 2 4 1 5 6 6 7 7 8 8 9 9
REMARK H PARENT
REMARK Flexibility Score: inf
ROOT
ATOM      1  C   UNL     1     146.262 141.880 141.613  1.00  0.00     0.000 C 
ENDROOT
BRANCH   1   2
ATOM      2  C   UNL     1     145.506 141.467 140.342  1.00  0.00     0.000 C 
BRANCH   2   3
ATOM      3  C   UNL     1     146.421 140.815 139.293  1.00  0.00    -0.000 C 
BRANCH   3   4
ATOM      4  C   UNL     1     147.880 141.281 139.408  1.00  0.00    -0.003 C 
ATOM      5  C   UNL     1     148.845 140.158 139.044  1.00  0.00     0.004 C 
ENDBRANCH   3   4
ENDBRANCH   2   3
ENDBRANCH   1   2
BRANCH   1   6
ATOM      6  C   UNL     1     145.296 142.044 142.797  1.00  0.00     0.008 C 
BRANCH   6   7
ATOM      7  C   UNL     1     145.633 141.096 143.956  1.00  0.00     0.072 C 
BRANCH   7   8
ATOM      8  C   UNL     1     144.688 139.930 144.032  1.00  0.00     0.224 C 
ATOM      9  O   UNL     1     143.680 139.919 143.345  1.00  0.00    -0.303 OA
ENDBRANCH   7   8
ENDBRANCH   6   7
ENDBRANCH   1   6
TORSDOF 6
ENDMDL
MODEL 4
REMARK VINA RESULT:    -2.498     10.372     11.854
REMARK INTER + INTRA:          -3.585
REMARK INTER:                  -3.419
REMARK INTRA:                  -0.165
REMARK UNBOUND:                -0.211
REMARK SMILES CCCCCCCC=O
REMARK SMILES IDX 5 1 4 2 3 3 2 4 1 5 6 6 7 7 8 8 9 9
REMARK H PARENT
REMARK Flexibility Score: inf
ROOT
ATOM      1  C   UNL     1     142.444 136.019 142.230  1.00  0.00     0.000 C 
ENDROOT
BRANCH   1   2
ATOM      2  C   UNL     1     141.611 135.827 140.956  1.00  0.00     0.000 C 
BRANCH   2   3
ATOM      3  C   UNL     1     141.742 134.413 140.368  1.00  0.00    -0.000 C 
BRANCH   3   4
ATOM      4  C   UNL     1     140.925 134.228 139.081  1.00  0.00    -0.003 C 
ATOM      5  C   UNL     1     140.246 132.863 139.053  1.00  0.00     0.004 C 
ENDBRANCH   3   4
ENDBRANCH   2   3
ENDBRANCH   1   2
BRANCH   1   6
ATOM      6  C   UNL     1     141.543 136.346 143.431  1.00  0.00     0.008 C 
BRANCH   6   7
ATOM      7  C   UNL     1     140.340 137.212 143.034  1.00  0.00     0.072 C 
BRANCH   7   8
ATOM      8  C   UNL     1     139.289 137.256 144.108  1.00  0.00     0.224 C 
ATOM      9  O   UNL     1     138.115 137.390 143.803  1.00  0.00    -0.303 OA
ENDBRANCH   7   8
ENDBRANCH   6   7
ENDBRANCH   1   6
TORSDOF 6
ENDMDL
MODEL 5
REMARK VINA RESULT:    -2.492      9.179     10.599
REMARK INTER + INTRA:          -3.577
REMARK INTER:                  -3.210
REMARK INTRA:                  -0.367
REMARK UNBOUND:                -0.211
REMARK SMILES CCCCCCCC=O
REMARK SMILES IDX 5 1 4 2 3 3 2 4 1 5 6 6 7 7 8 8 9 9
REMARK H PARENT
REMARK Flexibility Score: inf
ROOT
ATOM      1  C   UNL     1     139.894 137.761 144.118  1.00  0.00     0.000 C 
ENDROOT
BRANCH   1   2
ATOM      2  C   UNL     1     140.632 136.416 144.053  1.00  0.00     0.000 C 
BRANCH   2   3
ATOM      3  C   UNL     1     141.992 136.519 143.345  1.00  0.00    -0.000 C 
BRANCH   3   4
ATOM      4  C   UNL     1     142.053 135.685 142.056  1.00  0.00    -0.003 C 
ATOM      5  C   UNL     1     141.412 136.430 140.890  1.00  0.00     0.004 C 
ENDBRANCH   3   4
ENDBRANCH   2   3
ENDBRANCH   1   2
BRANCH   1   6
ATOM      6  C   UNL     1     138.442 137.614 143.637  1.00  0.00     0.008 C 
BRANCH   6   7
ATOM      7  C   UNL     1     138.284 137.967 142.152  1.00  0.00     0.072 C 
BRANCH   7   8
ATOM      8  C   UNL     1     137.185 138.963 141.916  1.00  0.00     0.224 C 
ATOM      9  O   UNL     1     136.128 138.856 142.517  1.00  0.00    -0.303 OA
ENDBRANCH   7   8
ENDBRANCH   6   7
ENDBRANCH   1   6
TORSDOF 6
ENDMDL
MODEL 6
REMARK VINA RESULT:    -2.461      3.707      5.555
REMARK INTER + INTRA:          -3.536
REMARK INTER:                  -3.219
REMARK INTRA:                  -0.317
REMARK UNBOUND:                -0.211
REMARK SMILES CCCCCCCC=O
REMARK SMILES IDX 5 1 4 2 3 3 2 4 1 5 6 6 7 7 8 8 9 9
REMARK H PARENT
REMARK Flexibility Score: inf
ROOT
ATOM      1  C   UNL     1     142.577 144.389 144.008  1.00  0.00     0.000 C 
ENDROOT
BRANCH   1   2
ATOM      2  C   UNL     1     141.209 145.084 144.033  1.00  0.00     0.000 C 
BRANCH   2   3
ATOM      3  C   UNL     1     140.057 144.141 143.652  1.00  0.00    -0.000 C 
BRANCH   3   4
ATOM      4  C   UNL     1     139.099 144.761 142.624  1.00  0.00    -0.003 C 
ATOM      5  C   UNL     1     139.725 145.981 141.956  1.00  0.00     0.004 C 
ENDBRANCH   3   4
ENDBRANCH   2   3
ENDBRANCH   1   2
BRANCH   1   6
ATOM      6  C   UNL     1     142.836 143.737 142.641  1.00  0.00     0.008 C 
BRANCH   6   7
ATOM      7  C   UNL     1     144.200 143.036 142.582  1.00  0.00     0.072 C 
BRANCH   7   8
ATOM      8  C   UNL     1     144.425 142.126 143.757  1.00  0.00     0.224 C 
ATOM      9  O   UNL     1     145.546 141.703 143.991  1.00  0.00    -0.303 OA
ENDBRANCH   7   8
ENDBRANCH   6   7
ENDBRANCH   1   6
TORSDOF 6
ENDMDL
MODEL 7
REMARK VINA RESULT:    -2.456     10.560     12.302
REMARK INTER + INTRA:          -3.528
REMARK INTER:                  -3.258
REMARK INTRA:                  -0.270
REMARK UNBOUND:                -0.211
REMARK SMILES CCCCCCCC=O
REMARK SMILES IDX 5 1 4 2 3 3 2 4 1 5 6 6 7 7 8 8 9 9
REMARK H PARENT
REMARK Flexibility Score: inf
ROOT
ATOM      1  C   UNL     1     141.350 136.136 140.246  1.00  0.00     0.000 C 
ENDROOT
BRANCH   1   2
ATOM      2  C   UNL     1     141.788 134.699 140.565  1.00  0.00     0.000 C 
BRANCH   2   3
ATOM      3  C   UNL     1     141.720 133.772 139.341  1.00  0.00    -0.000 C 
BRANCH   3   4
ATOM      4  C   UNL     1     140.278 133.486 138.895  1.00  0.00    -0.003 C 
ATOM      5  C   UNL     1     139.919 132.019 139.108  1.00  0.00     0.004 C 
ENDBRANCH   3   4
ENDBRANCH   2   3
ENDBRANCH   1   2
BRANCH   1   6
ATOM      6  C   UNL     1     140.938 136.881 141.526  1.00  0.00     0.008 C 
BRANCH   6   7
ATOM      7  C   UNL     1     141.479 136.202 142.791  1.00  0.00     0.072 C 
BRANCH   7   8
ATOM      8  C   UNL     1     142.459 137.069 143.530  1.00  0.00     0.224 C 
ATOM      9  O   UNL     1     143.372 137.605 142.924  1.00  0.00    -0.303 OA
ENDBRANCH   7   8
ENDBRANCH   6   7
ENDBRANCH   1   6
TORSDOF 6
ENDMDL
MODEL 8
REMARK VINA RESULT:    -2.442      3.995      5.752
REMARK INTER + INTRA:          -3.509
REMARK INTER:                  -3.252
REMARK INTRA:                  -0.258
REMARK UNBOUND:                -0.211
REMARK SMILES CCCCCCCC=O
REMARK SMILES IDX 5 1 4 2 3 3 2 4 1 5 6 6 7 7 8 8 9 9
REMARK H PARENT
REMARK Flexibility Score: inf
ROOT
ATOM      1  C   UNL     1     142.117 143.998 142.181  1.00  0.00     0.000 C 
ENDROOT
BRANCH   1   2
ATOM      2  C   UNL     1     143.476 143.294 142.056  1.00  0.00     0.000 C 
BRANCH   2   3
ATOM      3  C   UNL     1     144.059 142.881 143.416  1.00  0.00    -0.000 C 
BRANCH   3   4
ATOM      4  C   UNL     1     145.286 141.968 143.282  1.00  0.00    -0.003 C 
ATOM      5  C   UNL     1     145.880 142.049 141.879  1.00  0.00     0.004 C 
ENDBRANCH   3   4
ENDBRANCH   2   3
ENDBRANCH   1   2
BRANCH   1   6
ATOM      6  C   UNL     1     141.749 144.221 143.656  1.00  0.00     0.008 C 
BRANCH   6   7
ATOM      7  C   UNL     1     140.705 145.331 143.832  1.00  0.00     0.072 C 
BRANCH   7   8
ATOM      8  C   UNL     1     139.895 145.556 142.586  1.00  0.00     0.224 C 
ATOM      9  O   UNL     1     138.781 145.068 142.489  1.00  0.00    -0.303 OA
ENDBRANCH   7   8
ENDBRANCH   6   7
ENDBRANCH   1   6
TORSDOF 6
ENDMDL
MODEL 9
REMARK VINA RESULT:    -2.408      8.173     10.282
REMARK INTER + INTRA:          -3.463
REMARK INTER:                  -3.130
REMARK INTRA:                  -0.333
REMARK UNBOUND:                -0.211
REMARK SMILES CCCCCCCC=O
REMARK SMILES IDX 5 1 4 2 3 3 2 4 1 5 6 6 7 7 8 8 9 9
REMARK H PARENT
REMARK Flexibility Score: inf
ROOT
ATOM      1  C   UNL     1     143.534 138.103 142.521  1.00  0.00     0.000 C 
ENDROOT
BRANCH   1   2
ATOM      2  C   UNL     1     142.564 136.913 142.515  1.00  0.00     0.000 C 
BRANCH   2   3
ATOM      3  C   UNL     1     142.117 136.504 143.927  1.00  0.00    -0.000 C 
BRANCH   3   4
ATOM      4  C   UNL     1     140.598 136.619 144.125  1.00  0.00    -0.003 C 
ATOM      5  C   UNL     1     139.949 137.370 142.966  1.00  0.00     0.004 C 
ENDBRANCH   3   4
ENDBRANCH   2   3
ENDBRANCH   1   2
BRANCH   1   6
ATOM      6  C   UNL     1     144.049 138.384 143.942  1.00  0.00     0.008 C 
BRANCH   6   7
ATOM      7  C   UNL     1     144.476 139.846 144.125  1.00  0.00     0.072 C 
BRANCH   7   8
ATOM      8  C   UNL     1     144.405 140.627 142.843  1.00  0.00     0.224 C 
ATOM      9  O   UNL     1     145.272 141.445 142.581  1.00  0.00    -0.303 OA
ENDBRANCH   7   8
ENDBRANCH   6   7
ENDBRANCH   1   6
TORSDOF 6
ENDMDL
