MODEL 1
REMARK VINA RESULT:    -3.411      0.000      0.000
REMARK INTER + INTRA:         -11.825
REMARK INTER:                  -7.798
REMARK INTRA:                  -4.027
REMARK UNBOUND:                -4.027
REMARK SMILES CCCCCCCCCCCCCCCCCCCCCCCC(=O)[O-]
REMARK SMILES IDX 13 1 14 2 15 3 16 4 17 5 18 6 19 7 20 8 21 9 22 10 23 11
REMARK SMILES IDX 24 12 25 13 26 14 12 15 11 16 10 17 9 18 8 19 7 20 6 21 5 22
REMARK SMILES IDX 4 23 3 24 2 25 1 26
REMARK H PARENT
REMARK Flexibility Score: inf
ROOT
ATOM      1  C   UNL     1      47.424  31.384  87.794  1.00  0.00     0.000 C 
ENDROOT
BRANCH   1   2
ATOM      2  C   UNL     1      48.158  32.434  86.941  1.00  0.00     0.000 C 
BRANCH   2   3
ATOM      3  C   UNL     1      48.445  33.768  87.657  1.00  0.00     0.000 C 
BRANCH   3   4
ATOM      4  C   UNL     1      48.956  34.902  86.746  1.00  0.00     0.000 C 
BRANCH   4   5
ATOM      5  C   UNL     1      49.847  35.949  87.446  1.00  0.00     0.000 C 
BRANCH   5   6
ATOM      6  C   UNL     1      51.352  35.632  87.441  1.00  0.00     0.000 C 
BRANCH   6   7
ATOM      7  C   UNL     1      51.712  34.441  86.536  1.00  0.00     0.000 C 
BRANCH   7   8
ATOM      8  C   UNL     1      52.876  34.761  85.584  1.00  0.00     0.000 C 
BRANCH   8   9
ATOM      9  C   UNL     1      52.560  34.386  84.126  1.00  0.00     0.000 C 
BRANCH   9  10
ATOM     10  C   UNL     1      51.093  33.974  83.925  1.00  0.00     0.006 C 
BRANCH  10  11
ATOM     11  C   UNL     1      50.478  34.568  82.652  1.00  0.00     0.053 C 
BRANCH  11  12
ATOM     12  C   UNL     1      49.052  34.136  82.510  1.00  0.00     0.041 C 
ATOM     13  O   UNL     1      48.195  34.484  83.364  1.00  0.00    -0.550 OA
ATOM     14  O   UNL     1      48.659  33.393  81.404  1.00  0.00    -0.550 OA
ENDBRANCH  11  12
ENDBRANCH  10  11
ENDBRANCH   9  10
ENDBRANCH   8   9
ENDBRANCH   7   8
ENDBRANCH   6   7
ENDBRANCH   5   6
ENDBRANCH   4   5
ENDBRANCH   3   4
ENDBRANCH   2   3
ENDBRANCH   1   2
BRANCH   1  15
ATOM     15  C   UNL     1      46.845  31.969  89.092  1.00  0.00     0.000 C 
BRANCH  15  16
ATOM     16  C   UNL     1      47.393  31.224  90.319  1.00  0.00     0.000 C 
BRANCH  16  17
ATOM     17  C   UNL     1      48.717  30.494  90.034  1.00  0.00     0.000 C 
BRANCH  17  18
ATOM     18  C   UNL     1      49.967  31.127  90.680  1.00  0.00    -0.000 C 
BRANCH  18  19
ATOM     19  C   UNL     1      50.946  31.790  89.693  1.00  0.00    -0.000 C 
BRANCH  19  20
ATOM     20  C   UNL     1      51.096  31.005  88.382  1.00  0.00    -0.000 C 
BRANCH  20  21
ATOM     21  C   UNL     1      52.568  30.666  88.112  1.00  0.00    -0.000 C 
BRANCH  21  22
ATOM     22  C   UNL     1      52.966  31.043  86.678  1.00  0.00    -0.000 C 
BRANCH  22  23
ATOM     23  C   UNL     1      54.422  31.528  86.575  1.00  0.00    -0.000 C 
BRANCH  23  24
ATOM     24  C   UNL     1      55.011  31.918  87.942  1.00  0.00    -0.000 C 
BRANCH  24  25
ATOM     25  C   UNL     1      54.968  33.434  88.191  1.00  0.00    -0.003 C 
ATOM     26  C   UNL     1      54.082  33.815  89.377  1.00  0.00     0.004 C 
ENDBRANCH  24  25
ENDBRANCH  23  24
ENDBRANCH  22  23
ENDBRANCH  21  22
ENDBRANCH  20  21
ENDBRANCH  19  20
ENDBRANCH  18  19
ENDBRANCH  17  18
ENDBRANCH  16  17
ENDBRANCH  15  16
ENDBRANCH   1  15
TORSDOF 22
ENDMDL
MODEL 2
REMARK VINA RESULT:    -3.337      3.301      6.999
REMARK INTER + INTRA:         -11.656
REMARK INTER:                  -7.958
REMARK INTRA:                  -3.698
REMARK UNBOUND:                -4.027
REMARK SMILES CCCCCCCCCCCCCCCCCCCCCCCC(=O)[O-]
REMARK SMILES IDX 13 1 14 2 15 3 16 4 17 5 18 6 19 7 20 8 21 9 22 10 23 11
REMARK SMILES IDX 24 12 25 13 26 14 12 15 11 16 10 17 9 18 8 19 7 20 6 21 5 22
REMARK SMILES IDX 4 23 3 24 2 25 1 26
REMARK H PARENT
REMARK Flexibility Score: inf
ROOT
ATOM      1  C   UNL     1      54.109  34.280  87.191  1.00  0.00     0.000 C 
ENDROOT
BRANCH   1   2
ATOM      2  C   UNL     1      53.519  32.983  86.609  1.00  0.00     0.000 C 
BRANCH   2   3
ATOM      3  C   UNL     1      53.289  31.856  87.636  1.00  0.00     0.000 C 
BRANCH   3   4
ATOM      4  C   UNL     1      52.917  32.331  89.054  1.00  0.00     0.000 C 
BRANCH   4   5
ATOM      5  C   UNL     1      51.455  32.069  89.467  1.00  0.00     0.000 C 
BRANCH   5   6
ATOM      6  C   UNL     1      51.248  31.727  90.953  1.00  0.00     0.000 C 
BRANCH   6   7
ATOM      7  C   UNL     1      49.824  31.229  91.261  1.00  0.00     0.000 C 
BRANCH   7   8
ATOM      8  C   UNL     1      49.179  30.523  90.057  1.00  0.00     0.000 C 
BRANCH   8   9
ATOM      9  C   UNL     1      47.800  31.106  89.706  1.00  0.00     0.000 C 
BRANCH   9  10
ATOM     10  C   UNL     1      46.871  31.204  90.927  1.00  0.00     0.006 C 
BRANCH  10  11
ATOM     11  C   UNL     1      45.417  31.507  90.543  1.00  0.00     0.053 C 
BRANCH  11  12
ATOM     12  C   UNL     1      44.515  31.317  91.723  1.00  0.00     0.041 C 
ATOM     13  O   UNL     1      43.808  30.280  91.821  1.00  0.00    -0.550 OA
ATOM     14  O   UNL     1      44.496  32.262  92.741  1.00  0.00    -0.550 OA
ENDBRANCH  11  12
ENDBRANCH  10  11
ENDBRANCH   9  10
ENDBRANCH   8   9
ENDBRANCH   7   8
ENDBRANCH   6   7
ENDBRANCH   5   6
ENDBRANCH   4   5
ENDBRANCH   3   4
ENDBRANCH   2   3
ENDBRANCH   1   2
BRANCH   1  15
ATOM     15  C   UNL     1      53.108  35.445  87.185  1.00  0.00     0.000 C 
BRANCH  15  16
ATOM     16  C   UNL     1      51.737  34.986  86.668  1.00  0.00     0.000 C 
BRANCH  16  17
ATOM     17  C   UNL     1      50.564  35.636  87.423  1.00  0.00     0.000 C 
BRANCH  17  18
ATOM     18  C   UNL     1      49.160  35.218  86.938  1.00  0.00    -0.000 C 
BRANCH  18  19
ATOM     19  C   UNL     1      48.675  33.849  87.449  1.00  0.00    -0.000 C 
BRANCH  19  20
ATOM     20  C   UNL     1      48.578  32.795  86.336  1.00  0.00    -0.000 C 
BRANCH  20  21
ATOM     21  C   UNL     1      49.622  31.689  86.538  1.00  0.00    -0.000 C 
BRANCH  21  22
ATOM     22  C   UNL     1      50.383  31.407  85.234  1.00  0.00    -0.000 C 
BRANCH  22  23
ATOM     23  C   UNL     1      50.045  32.413  84.121  1.00  0.00    -0.000 C 
BRANCH  23  24
ATOM     24  C   UNL     1      51.278  33.198  83.641  1.00  0.00    -0.000 C 
BRANCH  24  25
ATOM     25  C   UNL     1      50.904  34.520  82.952  1.00  0.00    -0.003 C 
ATOM     26  C   UNL     1      49.464  34.534  82.438  1.00  0.00     0.004 C 
ENDBRANCH  24  25
ENDBRANCH  23  24
ENDBRANCH  22  23
ENDBRANCH  21  22
ENDBRANCH  20  21
ENDBRANCH  19  20
ENDBRANCH  18  19
ENDBRANCH  17  18
ENDBRANCH  16  17
ENDBRANCH  15  16
ENDBRANCH   1  15
TORSDOF 22
ENDMDL
MODEL 3
REMARK VINA RESULT:    -3.315      3.210      6.406
REMARK INTER + INTRA:         -11.606
REMARK INTER:                  -7.669
REMARK INTRA:                  -3.937
REMARK UNBOUND:                -4.027
REMARK SMILES CCCCCCCCCCCCCCCCCCCCCCCC(=O)[O-]
REMARK SMILES IDX 13 1 14 2 15 3 16 4 17 5 18 6 19 7 20 8 21 9 22 10 23 11
REMARK SMILES IDX 24 12 25 13 26 14 12 15 11 16 10 17 9 18 8 19 7 20 6 21 5 22
REMARK SMILES IDX 4 23 3 24 2 25 1 26
REMARK H PARENT
REMARK Flexibility Score: inf
ROOT
ATOM      1  C   UNL     1      48.988  34.366  85.969  1.00  0.00     0.000 C 
ENDROOT
BRANCH   1   2
ATOM      2  C   UNL     1      48.789  32.880  86.318  1.00  0.00     0.000 C 
BRANCH   2   3
ATOM      3  C   UNL     1      48.290  32.611  87.751  1.00  0.00     0.000 C 
BRANCH   3   4
ATOM      4  C   UNL     1      47.207  31.521  87.872  1.00  0.00     0.000 C 
BRANCH   4   5
ATOM      5  C   UNL     1      46.282  31.654  89.098  1.00  0.00     0.000 C 
BRANCH   5   6
ATOM      6  C   UNL     1      46.963  31.421  90.458  1.00  0.00     0.000 C 
BRANCH   6   7
ATOM      7  C   UNL     1      47.054  29.931  90.835  1.00  0.00     0.000 C 
BRANCH   7   8
ATOM      8  C   UNL     1      48.490  29.390  90.732  1.00  0.00     0.000 C 
BRANCH   8   9
ATOM      9  C   UNL     1      49.536  30.516  90.660  1.00  0.00     0.000 C 
BRANCH   9  10
ATOM     10  C   UNL     1      50.830  30.170  91.413  1.00  0.00     0.006 C 
BRANCH  10  11
ATOM     11  C   UNL     1      51.629  31.413  91.822  1.00  0.00     0.053 C 
BRANCH  11  12
ATOM     12  C   UNL     1      53.098  31.159  91.685  1.00  0.00     0.041 C 
ATOM     13  O   UNL     1      53.866  32.073  91.289  1.00  0.00    -0.550 OA
ATOM     14  O   UNL     1      53.625  29.925  92.046  1.00  0.00    -0.550 OA
ENDBRANCH  11  12
ENDBRANCH  10  11
ENDBRANCH   9  10
ENDBRANCH   8   9
ENDBRANCH   7   8
ENDBRANCH   6   7
ENDBRANCH   5   6
ENDBRANCH   4   5
ENDBRANCH   3   4
ENDBRANCH   2   3
ENDBRANCH   1   2
BRANCH   1  15
ATOM     15  C   UNL     1      48.780  35.295  87.174  1.00  0.00     0.000 C 
BRANCH  15  16
ATOM     16  C   UNL     1      50.079  36.036  87.524  1.00  0.00     0.000 C 
BRANCH  16  17
ATOM     17  C   UNL     1      51.333  35.348  86.955  1.00  0.00     0.000 C 
BRANCH  17  18
ATOM     18  C   UNL     1      52.592  35.443  87.841  1.00  0.00    -0.000 C 
BRANCH  18  19
ATOM     19  C   UNL     1      53.037  34.118  88.487  1.00  0.00    -0.000 C 
BRANCH  19  20
ATOM     20  C   UNL     1      51.897  33.095  88.599  1.00  0.00    -0.000 C 
BRANCH  20  21
ATOM     21  C   UNL     1      52.159  31.884  87.695  1.00  0.00    -0.000 C 
BRANCH  21  22
ATOM     22  C   UNL     1      53.643  31.794  87.311  1.00  0.00    -0.000 C 
BRANCH  22  23
ATOM     23  C   UNL     1      53.867  31.864  85.791  1.00  0.00    -0.000 C 
BRANCH  23  24
ATOM     24  C   UNL     1      52.639  32.405  85.039  1.00  0.00    -0.000 C 
BRANCH  24  25
ATOM     25  C   UNL     1      52.964  33.650  84.198  1.00  0.00    -0.003 C 
ATOM     26  C   UNL     1      51.758  34.170  83.416  1.00  0.00     0.004 C 
ENDBRANCH  24  25
ENDBRANCH  23  24
ENDBRANCH  22  23
ENDBRANCH  21  22
ENDBRANCH  20  21
ENDBRANCH  19  20
ENDBRANCH  18  19
ENDBRANCH  17  18
ENDBRANCH  16  17
ENDBRANCH  15  16
ENDBRANCH   1  15
TORSDOF 22
ENDMDL
MODEL 4
REMARK VINA RESULT:    -3.266     14.718     16.756
REMARK INTER + INTRA:         -11.493
REMARK INTER:                  -7.516
REMARK INTRA:                  -3.977
REMARK UNBOUND:                -4.027
REMARK SMILES CCCCCCCCCCCCCCCCCCCCCCCC(=O)[O-]
REMARK SMILES IDX 13 1 14 2 15 3 16 4 17 5 18 6 19 7 20 8 21 9 22 10 23 11
REMARK SMILES IDX 24 12 25 13 26 14 12 15 11 16 10 17 9 18 8 19 7 20 6 21 5 22
REMARK SMILES IDX 4 23 3 24 2 25 1 26
REMARK H PARENT
REMARK Flexibility Score: inf
ROOT
ATOM      1  C   UNL     1      47.303  20.223  74.293  1.00  0.00     0.000 C 
ENDROOT
BRANCH   1   2
ATOM      2  C   UNL     1      46.089  19.974  75.205  1.00  0.00     0.000 C 
BRANCH   2   3
ATOM      3  C   UNL     1      46.061  18.592  75.886  1.00  0.00     0.000 C 
BRANCH   3   4
ATOM      4  C   UNL     1      45.971  18.624  77.425  1.00  0.00     0.000 C 
BRANCH   4   5
ATOM      5  C   UNL     1      44.915  19.592  77.996  1.00  0.00     0.000 C 
BRANCH   5   6
ATOM      6  C   UNL     1      45.476  20.737  78.857  1.00  0.00     0.000 C 
BRANCH   6   7
ATOM      7  C   UNL     1      44.747  22.072  78.628  1.00  0.00     0.000 C 
BRANCH   7   8
ATOM      8  C   UNL     1      43.803  22.022  77.415  1.00  0.00     0.000 C 
BRANCH   8   9
ATOM      9  C   UNL     1      44.128  23.108  76.375  1.00  0.00     0.000 C 
BRANCH   9  10
ATOM     10  C   UNL     1      43.697  22.714  74.954  1.00  0.00     0.006 C 
BRANCH  10  11
ATOM     11  C   UNL     1      42.794  21.474  74.929  1.00  0.00     0.053 C 
BRANCH  11  12
ATOM     12  C   UNL     1      41.382  21.863  74.619  1.00  0.00     0.041 C 
ATOM     13  O   UNL     1      41.128  22.993  74.127  1.00  0.00    -0.550 OA
ATOM     14  O   UNL     1      40.352  20.955  74.826  1.00  0.00    -0.550 OA
ENDBRANCH  11  12
ENDBRANCH  10  11
ENDBRANCH   9  10
ENDBRANCH   8   9
ENDBRANCH   7   8
ENDBRANCH   6   7
ENDBRANCH   5   6
ENDBRANCH   4   5
ENDBRANCH   3   4
ENDBRANCH   2   3
ENDBRANCH   1   2
BRANCH   1  15
ATOM     15  C   UNL     1      48.378  21.097  74.956  1.00  0.00     0.000 C 
BRANCH  15  16
ATOM     16  C   UNL     1      47.740  22.125  75.903  1.00  0.00     0.000 C 
BRANCH  16  17
ATOM     17  C   UNL     1      48.331  22.079  77.323  1.00  0.00     0.000 C 
BRANCH  17  18
ATOM     18  C   UNL     1      48.991  20.741  77.715  1.00  0.00    -0.000 C 
BRANCH  18  19
ATOM     19  C   UNL     1      49.748  20.756  79.056  1.00  0.00    -0.000 C 
BRANCH  19  20
ATOM     20  C   UNL     1      51.266  20.918  78.885  1.00  0.00    -0.000 C 
BRANCH  20  21
ATOM     21  C   UNL     1      51.653  22.401  78.816  1.00  0.00    -0.000 C 
BRANCH  21  22
ATOM     22  C   UNL     1      52.590  22.670  77.629  1.00  0.00    -0.000 C 
BRANCH  22  23
ATOM     23  C   UNL     1      51.830  23.063  76.352  1.00  0.00    -0.000 C 
BRANCH  23  24
ATOM     24  C   UNL     1      51.812  21.936  75.305  1.00  0.00    -0.000 C 
BRANCH  24  25
ATOM     25  C   UNL     1      53.054  21.953  74.400  1.00  0.00    -0.003 C 
ATOM     26  C   UNL     1      53.213  20.668  73.586  1.00  0.00     0.004 C 
ENDBRANCH  24  25
ENDBRANCH  23  24
ENDBRANCH  22  23
ENDBRANCH  21  22
ENDBRANCH  20  21
ENDBRANCH  19  20
ENDBRANCH  18  19
ENDBRANCH  17  18
ENDBRANCH  16  17
ENDBRANCH  15  16
ENDBRANCH   1  15
TORSDOF 22
ENDMDL
MODEL 5
REMARK VINA RESULT:    -3.263     15.309     18.056
REMARK INTER + INTRA:         -11.485
REMARK INTER:                  -7.467
REMARK INTRA:                  -4.018
REMARK UNBOUND:                -4.027
REMARK SMILES CCCCCCCCCCCCCCCCCCCCCCCC(=O)[O-]
REMARK SMILES IDX 13 1 14 2 15 3 16 4 17 5 18 6 19 7 20 8 21 9 22 10 23 11
REMARK SMILES IDX 24 12 25 13 26 14 12 15 11 16 10 17 9 18 8 19 7 20 6 21 5 22
REMARK SMILES IDX 4 23 3 24 2 25 1 26
REMARK H PARENT
REMARK Flexibility Score: inf
ROOT
ATOM      1  C   UNL     1      45.853  22.473  73.338  1.00  0.00     0.000 C 
ENDROOT
BRANCH   1   2
ATOM      2  C   UNL     1      45.816  22.759  74.850  1.00  0.00     0.000 C 
BRANCH   2   3
ATOM      3  C   UNL     1      44.412  22.715  75.485  1.00  0.00     0.000 C 
BRANCH   3   4
ATOM      4  C   UNL     1      43.563  21.486  75.107  1.00  0.00     0.000 C 
BRANCH   4   5
ATOM      5  C   UNL     1      42.086  21.789  74.780  1.00  0.00     0.000 C 
BRANCH   5   6
ATOM      6  C   UNL     1      41.104  21.580  75.945  1.00  0.00     0.000 C 
BRANCH   6   7
ATOM      7  C   UNL     1      40.847  22.866  76.751  1.00  0.00     0.000 C 
BRANCH   7   8
ATOM      8  C   UNL     1      40.084  22.594  78.058  1.00  0.00     0.000 C 
BRANCH   8   9
ATOM      9  C   UNL     1      40.091  21.104  78.440  1.00  0.00     0.000 C 
BRANCH   9  10
ATOM     10  C   UNL     1      39.965  20.881  79.955  1.00  0.00     0.006 C 
BRANCH  10  11
ATOM     11  C   UNL     1      38.521  21.006  80.456  1.00  0.00     0.053 C 
BRANCH  11  12
ATOM     12  C   UNL     1      37.997  19.670  80.879  1.00  0.00     0.041 C 
ATOM     13  O   UNL     1      38.188  18.656  80.159  1.00  0.00    -0.550 OA
ATOM     14  O   UNL     1      37.344  19.535  82.098  1.00  0.00    -0.550 OA
ENDBRANCH  11  12
ENDBRANCH  10  11
ENDBRANCH   9  10
ENDBRANCH   8   9
ENDBRANCH   7   8
ENDBRANCH   6   7
ENDBRANCH   5   6
ENDBRANCH   4   5
ENDBRANCH   3   4
ENDBRANCH   2   3
ENDBRANCH   1   2
BRANCH   1  15
ATOM     15  C   UNL     1      46.726  21.260  72.983  1.00  0.00     0.000 C 
BRANCH  15  16
ATOM     16  C   UNL     1      47.147  20.499  74.249  1.00  0.00     0.000 C 
BRANCH  16  17
ATOM     17  C   UNL     1      46.382  19.177  74.435  1.00  0.00     0.000 C 
BRANCH  17  18
ATOM     18  C   UNL     1      46.008  18.836  75.892  1.00  0.00    -0.000 C 
BRANCH  18  19
ATOM     19  C   UNL     1      46.795  19.610  76.966  1.00  0.00    -0.000 C 
BRANCH  19  20
ATOM     20  C   UNL     1      45.885  20.349  77.958  1.00  0.00    -0.000 C 
BRANCH  20  21
ATOM     21  C   UNL     1      44.543  19.622  78.116  1.00  0.00    -0.000 C 
BRANCH  21  22
ATOM     22  C   UNL     1      43.514  20.515  78.825  1.00  0.00    -0.000 C 
BRANCH  22  23
ATOM     23  C   UNL     1      44.167  21.680  79.588  1.00  0.00    -0.000 C 
BRANCH  23  24
ATOM     24  C   UNL     1      43.358  22.984  79.478  1.00  0.00    -0.000 C 
BRANCH  24  25
ATOM     25  C   UNL     1      44.188  24.145  78.906  1.00  0.00    -0.003 C 
ATOM     26  C   UNL     1      45.316  24.584  79.839  1.00  0.00     0.004 C 
ENDBRANCH  24  25
ENDBRANCH  23  24
ENDBRANCH  22  23
ENDBRANCH  21  22
ENDBRANCH  20  21
ENDBRANCH  19  20
ENDBRANCH  18  19
ENDBRANCH  17  18
ENDBRANCH  16  17
ENDBRANCH  15  16
ENDBRANCH   1  15
TORSDOF 22
ENDMDL
MODEL 6
REMARK VINA RESULT:    -3.259      2.692      6.681
REMARK INTER + INTRA:         -11.478
REMARK INTER:                  -7.622
REMARK INTRA:                  -3.856
REMARK UNBOUND:                -4.027
REMARK SMILES CCCCCCCCCCCCCCCCCCCCCCCC(=O)[O-]
REMARK SMILES IDX 13 1 14 2 15 3 16 4 17 5 18 6 19 7 20 8 21 9 22 10 23 11
REMARK SMILES IDX 24 12 25 13 26 14 12 15 11 16 10 17 9 18 8 19 7 20 6 21 5 22
REMARK SMILES IDX 4 23 3 24 2 25 1 26
REMARK H PARENT
REMARK Flexibility Score: inf
ROOT
ATOM      1  C   UNL     1      54.181  31.529  86.887  1.00  0.00     0.000 C 
ENDROOT
BRANCH   1   2
ATOM      2  C   UNL     1      55.339  31.845  87.850  1.00  0.00     0.000 C 
BRANCH   2   3
ATOM      3  C   UNL     1      55.039  31.576  89.337  1.00  0.00     0.000 C 
BRANCH   3   4
ATOM      4  C   UNL     1      55.091  32.818  90.249  1.00  0.00     0.000 C 
BRANCH   4   5
ATOM      5  C   UNL     1      53.719  33.332  90.730  1.00  0.00     0.000 C 
BRANCH   5   6
ATOM      6  C   UNL     1      52.520  32.446  90.348  1.00  0.00     0.000 C 
BRANCH   6   7
ATOM      7  C   UNL     1      51.648  32.064  91.557  1.00  0.00     0.000 C 
BRANCH   7   8
ATOM      8  C   UNL     1      50.535  31.071  91.183  1.00  0.00     0.000 C 
BRANCH   8   9
ATOM      9  C   UNL     1      50.192  31.113  89.684  1.00  0.00     0.000 C 
BRANCH   9  10
ATOM     10  C   UNL     1      48.679  31.176  89.424  1.00  0.00     0.006 C 
BRANCH  10  11
ATOM     11  C   UNL     1      47.849  30.831  90.666  1.00  0.00     0.053 C 
BRANCH  11  12
ATOM     12  C   UNL     1      46.401  30.707  90.309  1.00  0.00     0.041 C 
ATOM     13  O   UNL     1      45.838  29.581  90.322  1.00  0.00    -0.550 OA
ATOM     14  O   UNL     1      45.659  31.843  90.012  1.00  0.00    -0.550 OA
ENDBRANCH  11  12
ENDBRANCH  10  11
ENDBRANCH   9  10
ENDBRANCH   8   9
ENDBRANCH   7   8
ENDBRANCH   6   7
ENDBRANCH   5   6
ENDBRANCH   4   5
ENDBRANCH   3   4
ENDBRANCH   2   3
ENDBRANCH   1   2
BRANCH   1  15
ATOM     15  C   UNL     1      53.159  32.671  86.788  1.00  0.00     0.000 C 
BRANCH  15  16
ATOM     16  C   UNL     1      53.857  34.037  86.857  1.00  0.00     0.000 C 
BRANCH  16  17
ATOM     17  C   UNL     1      52.930  35.158  87.359  1.00  0.00     0.000 C 
BRANCH  17  18
ATOM     18  C   UNL     1      51.498  34.712  87.721  1.00  0.00    -0.000 C 
BRANCH  18  19
ATOM     19  C   UNL     1      50.396  35.742  87.411  1.00  0.00    -0.000 C 
BRANCH  19  20
ATOM     20  C   UNL     1      49.014  35.099  87.221  1.00  0.00    -0.000 C 
BRANCH  20  21
ATOM     21  C   UNL     1      49.146  33.650  86.736  1.00  0.00    -0.000 C 
BRANCH  21  22
ATOM     22  C   UNL     1      49.009  33.567  85.208  1.00  0.00    -0.000 C 
BRANCH  22  23
ATOM     23  C   UNL     1      50.324  33.172  84.516  1.00  0.00    -0.000 C 
BRANCH  23  24
ATOM     24  C   UNL     1      51.094  34.389  83.973  1.00  0.00    -0.000 C 
BRANCH  24  25
ATOM     25  C   UNL     1      52.148  34.000  82.925  1.00  0.00    -0.003 C 
ATOM     26  C   UNL     1      53.559  34.449  83.306  1.00  0.00     0.004 C 
ENDBRANCH  24  25
ENDBRANCH  23  24
ENDBRANCH  22  23
ENDBRANCH  21  22
ENDBRANCH  20  21
ENDBRANCH  19  20
ENDBRANCH  18  19
ENDBRANCH  17  18
ENDBRANCH  16  17
ENDBRANCH  15  16
ENDBRANCH   1  15
TORSDOF 22
ENDMDL
MODEL 7
REMARK VINA RESULT:    -3.256      3.003      7.018
REMARK INTER + INTRA:         -11.470
REMARK INTER:                  -7.153
REMARK INTRA:                  -4.317
REMARK UNBOUND:                -4.027
REMARK SMILES CCCCCCCCCCCCCCCCCCCCCCCC(=O)[O-]
REMARK SMILES IDX 13 1 14 2 15 3 16 4 17 5 18 6 19 7 20 8 21 9 22 10 23 11
REMARK SMILES IDX 24 12 25 13 26 14 12 15 11 16 10 17 9 18 8 19 7 20 6 21 5 22
REMARK SMILES IDX 4 23 3 24 2 25 1 26
REMARK H PARENT
REMARK Flexibility Score: inf
ROOT
ATOM      1  C   UNL     1      52.038  31.626  87.963  1.00  0.00     0.000 C 
ENDROOT
BRANCH   1   2
ATOM      2  C   UNL     1      51.426  32.258  89.226  1.00  0.00     0.000 C 
BRANCH   2   3
ATOM      3  C   UNL     1      52.413  32.464  90.392  1.00  0.00     0.000 C 
BRANCH   3   4
ATOM      4  C   UNL     1      51.873  32.067  91.781  1.00  0.00     0.000 C 
BRANCH   4   5
ATOM      5  C   UNL     1      50.720  31.043  91.765  1.00  0.00     0.000 C 
BRANCH   5   6
ATOM      6  C   UNL     1      51.157  29.569  91.731  1.00  0.00     0.000 C 
BRANCH   6   7
ATOM      7  C   UNL     1      50.796  28.866  90.411  1.00  0.00     0.000 C 
BRANCH   7   8
ATOM      8  C   UNL     1      49.279  28.836  90.161  1.00  0.00     0.000 C 
BRANCH   8   9
ATOM      9  C   UNL     1      48.880  29.605  88.889  1.00  0.00     0.000 C 
BRANCH   9  10
ATOM     10  C   UNL     1      47.486  30.241  88.995  1.00  0.00     0.006 C 
BRANCH  10  11
ATOM     11  C   UNL     1      47.322  31.105  90.252  1.00  0.00     0.053 C 
BRANCH  11  12
ATOM     12  C   UNL     1      46.001  30.836  90.903  1.00  0.00     0.041 C 
ATOM     13  O   UNL     1      45.026  31.605  90.702  1.00  0.00    -0.550 OA
ATOM     14  O   UNL     1      45.834  29.703  91.690  1.00  0.00    -0.550 OA
ENDBRANCH  11  12
ENDBRANCH  10  11
ENDBRANCH   9  10
ENDBRANCH   8   9
ENDBRANCH   7   8
ENDBRANCH   6   7
ENDBRANCH   5   6
ENDBRANCH   4   5
ENDBRANCH   3   4
ENDBRANCH   2   3
ENDBRANCH   1   2
BRANCH   1  15
ATOM     15  C   UNL     1      53.565  31.485  88.046  1.00  0.00     0.000 C 
BRANCH  15  16
ATOM     16  C   UNL     1      54.251  32.308  86.945  1.00  0.00     0.000 C 
BRANCH  16  17
ATOM     17  C   UNL     1      53.826  33.787  86.951  1.00  0.00     0.000 C 
BRANCH  17  18
ATOM     18  C   UNL     1      53.153  34.281  85.654  1.00  0.00    -0.000 C 
BRANCH  18  19
ATOM     19  C   UNL     1      51.729  34.840  85.830  1.00  0.00    -0.000 C 
BRANCH  19  20
ATOM     20  C   UNL     1      51.421  35.248  87.278  1.00  0.00    -0.000 C 
BRANCH  20  21
ATOM     21  C   UNL     1      49.986  35.774  87.405  1.00  0.00    -0.000 C 
BRANCH  21  22
ATOM     22  C   UNL     1      49.008  34.904  86.600  1.00  0.00    -0.000 C 
BRANCH  22  23
ATOM     23  C   UNL     1      48.583  33.635  87.358  1.00  0.00    -0.000 C 
BRANCH  23  24
ATOM     24  C   UNL     1      48.241  32.470  86.413  1.00  0.00    -0.000 C 
BRANCH  24  25
ATOM     25  C   UNL     1      49.387  32.143  85.443  1.00  0.00    -0.003 C 
ATOM     26  C   UNL     1      49.644  30.641  85.312  1.00  0.00     0.004 C 
ENDBRANCH  24  25
ENDBRANCH  23  24
ENDBRANCH  22  23
ENDBRANCH  21  22
ENDBRANCH  20  21
ENDBRANCH  19  20
ENDBRANCH  18  19
ENDBRANCH  17  18
ENDBRANCH  16  17
ENDBRANCH  15  16
ENDBRANCH   1  15
TORSDOF 22
ENDMDL
MODEL 8
REMARK VINA RESULT:    -3.227     14.316     16.831
REMARK INTER + INTRA:         -11.405
REMARK INTER:                  -6.865
REMARK INTRA:                  -4.540
REMARK UNBOUND:                -4.027
REMARK SMILES CCCCCCCCCCCCCCCCCCCCCCCC(=O)[O-]
REMARK SMILES IDX 13 1 14 2 15 3 16 4 17 5 18 6 19 7 20 8 21 9 22 10 23 11
REMARK SMILES IDX 24 12 25 13 26 14 12 15 11 16 10 17 9 18 8 19 7 20 6 21 5 22
REMARK SMILES IDX 4 23 3 24 2 25 1 26
REMARK H PARENT
REMARK Flexibility Score: inf
ROOT
ATOM      1  C   UNL     1      45.486  20.397  76.995  1.00  0.00     0.000 C 
ENDROOT
BRANCH   1   2
ATOM      2  C   UNL     1      46.093  19.200  76.241  1.00  0.00     0.000 C 
BRANCH   2   3
ATOM      3  C   UNL     1      46.166  19.367  74.711  1.00  0.00     0.000 C 
BRANCH   3   4
ATOM      4  C   UNL     1      47.327  20.246  74.205  1.00  0.00     0.000 C 
BRANCH   4   5
ATOM      5  C   UNL     1      46.899  21.502  73.418  1.00  0.00     0.000 C 
BRANCH   5   6
ATOM      6  C   UNL     1      46.687  22.765  74.270  1.00  0.00     0.000 C 
BRANCH   6   7
ATOM      7  C   UNL     1      47.935  23.157  75.081  1.00  0.00     0.000 C 
BRANCH   7   8
ATOM      8  C   UNL     1      47.650  23.236  76.590  1.00  0.00     0.000 C 
BRANCH   8   9
ATOM      9  C   UNL     1      48.829  22.727  77.435  1.00  0.00     0.000 C 
BRANCH   9  10
ATOM     10  C   UNL     1      49.152  21.247  77.171  1.00  0.00     0.006 C 
BRANCH  10  11
ATOM     11  C   UNL     1      48.908  20.359  78.398  1.00  0.00     0.053 C 
BRANCH  11  12
ATOM     12  C   UNL     1      49.825  20.747  79.515  1.00  0.00     0.041 C 
ATOM     13  O   UNL     1      51.073  20.681  79.364  1.00  0.00    -0.550 OA
ATOM     14  O   UNL     1      49.301  21.232  80.707  1.00  0.00    -0.550 OA
ENDBRANCH  11  12
ENDBRANCH  10  11
ENDBRANCH   9  10
ENDBRANCH   8   9
ENDBRANCH   7   8
ENDBRANCH   6   7
ENDBRANCH   5   6
ENDBRANCH   4   5
ENDBRANCH   3   4
ENDBRANCH   2   3
ENDBRANCH   1   2
BRANCH   1  15
ATOM     15  C   UNL     1      44.514  19.971  78.106  1.00  0.00     0.000 C 
BRANCH  15  16
ATOM     16  C   UNL     1      44.358  21.085  79.152  1.00  0.00     0.000 C 
BRANCH  16  17
ATOM     17  C   UNL     1      42.889  21.364  79.515  1.00  0.00     0.000 C 
BRANCH  17  18
ATOM     18  C   UNL     1      41.874  20.334  78.979  1.00  0.00    -0.000 C 
BRANCH  18  19
ATOM     19  C   UNL     1      40.542  20.927  78.484  1.00  0.00    -0.000 C 
BRANCH  19  20
ATOM     20  C   UNL     1      40.731  22.007  77.409  1.00  0.00    -0.000 C 
BRANCH  20  21
ATOM     21  C   UNL     1      41.166  21.382  76.077  1.00  0.00    -0.000 C 
BRANCH  21  22
ATOM     22  C   UNL     1      42.475  22.011  75.577  1.00  0.00    -0.000 C 
BRANCH  22  23
ATOM     23  C   UNL     1      42.614  23.489  75.977  1.00  0.00    -0.000 C 
BRANCH  23  24
ATOM     24  C   UNL     1      43.960  23.793  76.656  1.00  0.00    -0.000 C 
BRANCH  24  25
ATOM     25  C   UNL     1      43.804  24.670  77.908  1.00  0.00    -0.003 C 
ATOM     26  C   UNL     1      45.064  24.698  78.774  1.00  0.00     0.004 C 
ENDBRANCH  24  25
ENDBRANCH  23  24
ENDBRANCH  22  23
ENDBRANCH  21  22
ENDBRANCH  20  21
ENDBRANCH  19  20
ENDBRANCH  18  19
ENDBRANCH  17  18
ENDBRANCH  16  17
ENDBRANCH  15  16
ENDBRANCH   1  15
TORSDOF 22
ENDMDL
MODEL 9
REMARK VINA RESULT:    -3.216      2.288      4.415
REMARK INTER + INTRA:         -11.378
REMARK INTER:                  -6.495
REMARK INTRA:                  -4.883
REMARK UNBOUND:                -4.027
REMARK SMILES CCCCCCCCCCCCCCCCCCCCCCCC(=O)[O-]
REMARK SMILES IDX 13 1 14 2 15 3 16 4 17 5 18 6 19 7 20 8 21 9 22 10 23 11
REMARK SMILES IDX 24 12 25 13 26 14 12 15 11 16 10 17 9 18 8 19 7 20 6 21 5 22
REMARK SMILES IDX 4 23 3 24 2 25 1 26
REMARK H PARENT
REMARK Flexibility Score: inf
ROOT
ATOM      1  C   UNL     1      51.994  34.829  86.071  1.00  0.00     0.000 C 
ENDROOT
BRANCH   1   2
ATOM      2  C   UNL     1      51.563  35.469  87.402  1.00  0.00     0.000 C 
BRANCH   2   3
ATOM      3  C   UNL     1      50.061  35.795  87.510  1.00  0.00     0.000 C 
BRANCH   3   4
ATOM      4  C   UNL     1      49.156  35.045  86.512  1.00  0.00     0.000 C 
BRANCH   4   5
ATOM      5  C   UNL     1      48.555  33.727  87.040  1.00  0.00     0.000 C 
BRANCH   5   6
ATOM      6  C   UNL     1      48.526  32.570  86.026  1.00  0.00     0.000 C 
BRANCH   6   7
ATOM      7  C   UNL     1      48.953  33.002  84.612  1.00  0.00     0.000 C 
BRANCH   7   8
ATOM      8  C   UNL     1      50.182  32.227  84.110  1.00  0.00     0.000 C 
BRANCH   8   9
ATOM      9  C   UNL     1      50.641  32.694  82.718  1.00  0.00     0.000 C 
BRANCH   9  10
ATOM     10  C   UNL     1      51.108  34.158  82.709  1.00  0.00     0.006 C 
BRANCH  10  11
ATOM     11  C   UNL     1      52.156  34.440  81.626  1.00  0.00     0.053 C 
BRANCH  11  12
ATOM     12  C   UNL     1      53.536  34.224  82.166  1.00  0.00     0.041 C 
ATOM     13  O   UNL     1      54.082  35.102  82.882  1.00  0.00    -0.550 OA
ATOM     14  O   UNL     1      54.197  33.027  81.920  1.00  0.00    -0.550 OA
ENDBRANCH  11  12
ENDBRANCH  10  11
ENDBRANCH   9  10
ENDBRANCH   8   9
ENDBRANCH   7   8
ENDBRANCH   6   7
ENDBRANCH   5   6
ENDBRANCH   4   5
ENDBRANCH   3   4
ENDBRANCH   2   3
ENDBRANCH   1   2
BRANCH   1  15
ATOM     15  C   UNL     1      53.413  34.243  86.122  1.00  0.00     0.000 C 
BRANCH  15  16
ATOM     16  C   UNL     1      54.012  34.382  87.530  1.00  0.00     0.000 C 
BRANCH  16  17
ATOM     17  C   UNL     1      54.979  33.239  87.885  1.00  0.00     0.000 C 
BRANCH  17  18
ATOM     18  C   UNL     1      54.683  32.521  89.217  1.00  0.00    -0.000 C 
BRANCH  18  19
ATOM     19  C   UNL     1      53.548  33.139  90.054  1.00  0.00    -0.000 C 
BRANCH  19  20
ATOM     20  C   UNL     1      52.382  32.169  90.291  1.00  0.00    -0.000 C 
BRANCH  20  21
ATOM     21  C   UNL     1      51.258  32.406  89.275  1.00  0.00    -0.000 C 
BRANCH  21  22
ATOM     22  C   UNL     1      51.045  31.169  88.390  1.00  0.00    -0.000 C 
BRANCH  22  23
ATOM     23  C   UNL     1      51.794  31.262  87.050  1.00  0.00    -0.000 C 
BRANCH  23  24
ATOM     24  C   UNL     1      52.509  29.951  86.681  1.00  0.00    -0.000 C 
BRANCH  24  25
ATOM     25  C   UNL     1      53.967  30.176  86.251  1.00  0.00    -0.003 C 
ATOM     26  C   UNL     1      54.086  30.880  84.899  1.00  0.00     0.004 C 
ENDBRANCH  24  25
ENDBRANCH  23  24
ENDBRANCH  22  23
ENDBRANCH  21  22
ENDBRANCH  20  21
ENDBRANCH  19  20
ENDBRANCH  18  19
ENDBRANCH  17  18
ENDBRANCH  16  17
ENDBRANCH  15  16
ENDBRANCH   1  15
TORSDOF 22
ENDMDL
