MODEL 1
REMARK VINA RESULT:    -4.183      0.000      0.000
REMARK INTER + INTRA:          -5.413
REMARK INTER:                  -5.161
REMARK INTRA:                  -0.251
REMARK UNBOUND:                -0.251
REMARK SMILES CCCCC=CC(C)=O
REMARK SMILES IDX 4 1 3 2 2 3 1 4 5 5 6 6 7 7 9 8 8 9
REMARK H PARENT
REMARK Flexibility Score: inf
ROOT
ATOM      1  C   UNL     1       0.921 -24.183 -10.273  1.00  0.00     0.027 C 
ENDROOT
BRANCH   1   2
ATOM      2  C   UNL     1       1.761 -24.969 -11.291  1.00  0.00     0.004 C 
BRANCH   2   3
ATOM      3  C   UNL     1       0.906 -25.585 -12.410  1.00  0.00    -0.003 C 
ATOM      4  C   UNL     1       1.111 -27.094 -12.544  1.00  0.00     0.004 C 
ENDBRANCH   2   3
ENDBRANCH   1   2
BRANCH   1   5
ATOM      5  C   UNL     1      -0.523 -24.138 -10.682  1.00  0.00    -0.023 C 
ATOM      6  C   UNL     1      -1.501 -24.019  -9.775  1.00  0.00     0.042 C 
BRANCH   6   7
ATOM      7  C   UNL     1      -2.933 -23.959 -10.129  1.00  0.00     0.152 C 
ATOM      8  O   UNL     1      -3.751 -23.532  -9.270  1.00  0.00    -0.295 OA
ATOM      9  C   UNL     1      -3.449 -24.386 -11.471  1.00  0.00     0.093 C 
ENDBRANCH   6   7
ENDBRANCH   1   5
TORSDOF 4
ENDMDL
MODEL 2
REMARK VINA RESULT:    -4.151      2.639      4.804
REMARK INTER + INTRA:          -5.374
REMARK INTER:                  -5.153
REMARK INTRA:                  -0.221
REMARK UNBOUND:                -0.251
REMARK SMILES CCCCC=CC(C)=O
REMARK SMILES IDX 4 1 3 2 2 3 1 4 5 5 6 6 7 7 9 8 8 9
REMARK H PARENT
REMARK Flexibility Score: inf
ROOT
ATOM      1  C   UNL     1      -2.880 -22.138  -9.335  1.00  0.00     0.027 C 
ENDROOT
BRANCH   1   2
ATOM      2  C   UNL     1      -3.649 -21.797 -10.620  1.00  0.00     0.004 C 
BRANCH   2   3
ATOM      3  C   UNL     1      -2.717 -21.487 -11.801  1.00  0.00    -0.003 C 
ATOM      4  C   UNL     1      -3.126 -20.226 -12.560  1.00  0.00     0.004 C 
ENDBRANCH   2   3
ENDBRANCH   1   2
BRANCH   1   5
ATOM      5  C   UNL     1      -1.531 -22.719  -9.649  1.00  0.00    -0.023 C 
ATOM      6  C   UNL     1      -1.299 -24.034  -9.554  1.00  0.00     0.042 C 
BRANCH   6   7
ATOM      7  C   UNL     1       0.006 -24.652  -9.863  1.00  0.00     0.152 C 
ATOM      8  O   UNL     1       0.515 -25.440  -9.021  1.00  0.00    -0.295 OA
ATOM      9  C   UNL     1       0.745 -24.378 -11.139  1.00  0.00     0.093 C 
ENDBRANCH   6   7
ENDBRANCH   1   5
TORSDOF 4
ENDMDL
MODEL 3
REMARK VINA RESULT:    -4.067      2.529      4.580
REMARK INTER + INTRA:          -5.269
REMARK INTER:                  -4.999
REMARK INTRA:                  -0.270
REMARK UNBOUND:                -0.251
REMARK SMILES CCCCC=CC(C)=O
REMARK SMILES IDX 4 1 3 2 2 3 1 4 5 5 6 6 7 7 9 8 8 9
REMARK H PARENT
REMARK Flexibility Score: inf
ROOT
ATOM      1  C   UNL     1      -1.051 -22.769 -10.490  1.00  0.00     0.027 C 
ENDROOT
BRANCH   1   2
ATOM      2  C   UNL     1      -1.976 -23.205  -9.344  1.00  0.00     0.004 C 
BRANCH   2   3
ATOM      3  C   UNL     1      -3.355 -23.666  -9.842  1.00  0.00    -0.003 C 
ATOM      4  C   UNL     1      -3.297 -24.306 -11.229  1.00  0.00     0.004 C 
ENDBRANCH   2   3
ENDBRANCH   1   2
BRANCH   1   5
ATOM      5  C   UNL     1       0.204 -23.593 -10.516  1.00  0.00    -0.023 C 
ATOM      6  C   UNL     1       0.257 -24.803  -9.945  1.00  0.00     0.042 C 
BRANCH   6   7
ATOM      7  C   UNL     1       1.463 -25.653  -9.954  1.00  0.00     0.152 C 
ATOM      8  O   UNL     1       1.370 -26.838  -9.536  1.00  0.00    -0.295 OA
ATOM      9  C   UNL     1       2.792 -25.159 -10.443  1.00  0.00     0.093 C 
ENDBRANCH   6   7
ENDBRANCH   1   5
TORSDOF 4
ENDMDL
MODEL 4
REMARK VINA RESULT:    -4.058      1.245      1.541
REMARK INTER + INTRA:          -5.258
REMARK INTER:                  -5.017
REMARK INTRA:                  -0.241
REMARK UNBOUND:                -0.251
REMARK SMILES CCCCC=CC(C)=O
REMARK SMILES IDX 4 1 3 2 2 3 1 4 5 5 6 6 7 7 9 8 8 9
REMARK H PARENT
REMARK Flexibility Score: inf
ROOT
ATOM      1  C   UNL     1       0.698 -24.343 -10.573  1.00  0.00     0.027 C 
ENDROOT
BRANCH   1   2
ATOM      2  C   UNL     1       0.681 -25.437  -9.495  1.00  0.00     0.004 C 
BRANCH   2   3
ATOM      3  C   UNL     1       1.409 -26.715  -9.940  1.00  0.00    -0.003 C 
ATOM      4  C   UNL     1       1.405 -26.899 -11.457  1.00  0.00     0.004 C 
ENDBRANCH   2   3
ENDBRANCH   1   2
BRANCH   1   5
ATOM      5  C   UNL     1      -0.652 -23.699 -10.713  1.00  0.00    -0.023 C 
ATOM      6  C   UNL     1      -1.599 -23.855  -9.780  1.00  0.00     0.042 C 
BRANCH   6   7
ATOM      7  C   UNL     1      -2.935 -23.234  -9.867  1.00  0.00     0.152 C 
ATOM      8  O   UNL     1      -3.904 -23.800  -9.294  1.00  0.00    -0.295 OA
ATOM      9  C   UNL     1      -3.181 -21.955 -10.611  1.00  0.00     0.093 C 
ENDBRANCH   6   7
ENDBRANCH   1   5
TORSDOF 4
ENDMDL
MODEL 5
REMARK VINA RESULT:    -4.032      2.893      4.869
REMARK INTER + INTRA:          -5.227
REMARK INTER:                  -5.018
REMARK INTRA:                  -0.209
REMARK UNBOUND:                -0.251
REMARK SMILES CCCCC=CC(C)=O
REMARK SMILES IDX 4 1 3 2 2 3 1 4 5 5 6 6 7 7 9 8 8 9
REMARK H PARENT
REMARK Flexibility Score: inf
ROOT
ATOM      1  C   UNL     1      -1.430 -23.564  -9.548  1.00  0.00     0.027 C 
ENDROOT
BRANCH   1   2
ATOM      2  C   UNL     1      -2.157 -22.227  -9.751  1.00  0.00     0.004 C 
BRANCH   2   3
ATOM      3  C   UNL     1      -1.340 -21.233 -10.592  1.00  0.00    -0.003 C 
ATOM      4  C   UNL     1      -2.144 -20.639 -11.748  1.00  0.00     0.004 C 
ENDBRANCH   2   3
ENDBRANCH   1   2
BRANCH   1   5
ATOM      5  C   UNL     1      -0.413 -23.797 -10.628  1.00  0.00    -0.023 C 
ATOM      6  C   UNL     1       0.540 -24.729 -10.500  1.00  0.00     0.042 C 
BRANCH   6   7
ATOM      7  C   UNL     1       1.553 -25.003 -11.538  1.00  0.00     0.152 C 
ATOM      8  O   UNL     1       2.744 -24.650 -11.327  1.00  0.00    -0.295 OA
ATOM      9  C   UNL     1       1.217 -25.683 -12.831  1.00  0.00     0.093 C 
ENDBRANCH   6   7
ENDBRANCH   1   5
TORSDOF 4
ENDMDL
MODEL 6
REMARK VINA RESULT:    -3.899      2.601      4.930
REMARK INTER + INTRA:          -5.062
REMARK INTER:                  -4.804
REMARK INTRA:                  -0.258
REMARK UNBOUND:                -0.251
REMARK SMILES CCCCC=CC(C)=O
REMARK SMILES IDX 4 1 3 2 2 3 1 4 5 5 6 6 7 7 9 8 8 9
REMARK H PARENT
REMARK Flexibility Score: inf
ROOT
ATOM      1  C   UNL     1      -2.479 -22.347 -12.759  1.00  0.00     0.027 C 
ENDROOT
BRANCH   1   2
ATOM      2  C   UNL     1      -2.838 -21.294 -11.700  1.00  0.00     0.004 C 
BRANCH   2   3
ATOM      3  C   UNL     1      -3.730 -21.860 -10.584  1.00  0.00    -0.003 C 
ATOM      4  C   UNL     1      -2.936 -22.262  -9.342  1.00  0.00     0.004 C 
ENDBRANCH   2   3
ENDBRANCH   1   2
BRANCH   1   5
ATOM      5  C   UNL     1      -1.103 -22.903 -12.525  1.00  0.00    -0.023 C 
ATOM      6  C   UNL     1      -0.922 -24.112 -11.981  1.00  0.00     0.042 C 
BRANCH   6   7
ATOM      7  C   UNL     1       0.409 -24.705 -11.742  1.00  0.00     0.152 C 
ATOM      8  O   UNL     1       1.160 -24.175 -10.879  1.00  0.00    -0.295 OA
ATOM      9  C   UNL     1       0.899 -25.910 -12.487  1.00  0.00     0.093 C 
ENDBRANCH   6   7
ENDBRANCH   1   5
TORSDOF 4
ENDMDL
MODEL 7
REMARK VINA RESULT:    -3.897      2.526      4.781
REMARK INTER + INTRA:          -5.059
REMARK INTER:                  -4.808
REMARK INTRA:                  -0.251
REMARK UNBOUND:                -0.251
REMARK SMILES CCCCC=CC(C)=O
REMARK SMILES IDX 4 1 3 2 2 3 1 4 5 5 6 6 7 7 9 8 8 9
REMARK H PARENT
REMARK Flexibility Score: inf
ROOT
ATOM      1  C   UNL     1      -1.347 -23.084 -12.534  1.00  0.00     0.027 C 
ENDROOT
BRANCH   1   2
ATOM      2  C   UNL     1      -2.711 -23.075 -11.827  1.00  0.00     0.004 C 
BRANCH   2   3
ATOM      3  C   UNL     1      -3.198 -21.654 -11.504  1.00  0.00    -0.003 C 
ATOM      4  C   UNL     1      -2.148 -20.587 -11.808  1.00  0.00     0.004 C 
ENDBRANCH   2   3
ENDBRANCH   1   2
BRANCH   1   5
ATOM      5  C   UNL     1      -0.413 -24.072 -11.897  1.00  0.00    -0.023 C 
ATOM      6  C   UNL     1       0.194 -23.807 -10.733  1.00  0.00     0.042 C 
BRANCH   6   7
ATOM      7  C   UNL     1       1.111 -24.750 -10.063  1.00  0.00     0.152 C 
ATOM      8  O   UNL     1       0.627 -25.602  -9.270  1.00  0.00    -0.295 OA
ATOM      9  C   UNL     1       2.593 -24.731 -10.291  1.00  0.00     0.093 C 
ENDBRANCH   6   7
ENDBRANCH   1   5
TORSDOF 4
ENDMDL
MODEL 8
REMARK VINA RESULT:    -3.857      2.575      3.525
REMARK INTER + INTRA:          -5.010
REMARK INTER:                  -4.771
REMARK INTRA:                  -0.239
REMARK UNBOUND:                -0.251
REMARK SMILES CCCCC=CC(C)=O
REMARK SMILES IDX 4 1 3 2 2 3 1 4 5 5 6 6 7 7 9 8 8 9
REMARK H PARENT
REMARK Flexibility Score: inf
ROOT
ATOM      1  C   UNL     1      -2.703 -23.800  -9.735  1.00  0.00     0.027 C 
ENDROOT
BRANCH   1   2
ATOM      2  C   UNL     1      -1.215 -24.102  -9.510  1.00  0.00     0.004 C 
BRANCH   2   3
ATOM      3  C   UNL     1      -0.329 -23.589 -10.657  1.00  0.00    -0.003 C 
ATOM      4  C   UNL     1       0.233 -24.720 -11.518  1.00  0.00     0.004 C 
ENDBRANCH   2   3
ENDBRANCH   1   2
BRANCH   1   5
ATOM      5  C   UNL     1      -2.894 -22.824 -10.861  1.00  0.00    -0.023 C 
ATOM      6  C   UNL     1      -3.847 -21.885 -10.816  1.00  0.00     0.042 C 
BRANCH   6   7
ATOM      7  C   UNL     1      -4.065 -20.897 -11.891  1.00  0.00     0.152 C 
ATOM      8  O   UNL     1      -5.223 -20.427 -12.054  1.00  0.00    -0.295 OA
ATOM      9  C   UNL     1      -2.962 -20.434 -12.795  1.00  0.00     0.093 C 
ENDBRANCH   6   7
ENDBRANCH   1   5
TORSDOF 4
ENDMDL
MODEL 9
REMARK VINA RESULT:    -3.791      8.672     10.214
REMARK INTER + INTRA:          -4.929
REMARK INTER:                  -4.663
REMARK INTRA:                  -0.266
REMARK UNBOUND:                -0.251
REMARK SMILES CCCCC=CC(C)=O
REMARK SMILES IDX 4 1 3 2 2 3 1 4 5 5 6 6 7 7 9 8 8 9
REMARK H PARENT
REMARK Flexibility Score: inf
ROOT
ATOM      1  C   UNL     1       9.927 -25.424  -8.407  1.00  0.00     0.027 C 
ENDROOT
BRANCH   1   2
ATOM      2  C   UNL     1       9.050 -25.139  -7.179  1.00  0.00     0.004 C 
BRANCH   2   3
ATOM      3  C   UNL     1       8.936 -23.638  -6.871  1.00  0.00    -0.003 C 
ATOM      4  C   UNL     1       8.285 -22.851  -8.008  1.00  0.00     0.004 C 
ENDBRANCH   2   3
ENDBRANCH   1   2
BRANCH   1   5
ATOM      5  C   UNL     1       9.191 -26.259  -9.415  1.00  0.00    -0.023 C 
ATOM      6  C   UNL     1       8.458 -25.698 -10.385  1.00  0.00     0.042 C 
BRANCH   6   7
ATOM      7  C   UNL     1       7.727 -26.476 -11.404  1.00  0.00     0.152 C 
ATOM      8  O   UNL     1       7.924 -26.214 -12.621  1.00  0.00    -0.295 OA
ATOM      9  C   UNL     1       6.761 -27.565 -11.045  1.00  0.00     0.093 C 
ENDBRANCH   6   7
ENDBRANCH   1   5
TORSDOF 4
ENDMDL
