MODEL 1
REMARK VINA RESULT:    -5.173      0.000      0.000
REMARK INTER + INTRA:          -6.360
REMARK INTER:                  -6.080
REMARK INTRA:                  -0.280
REMARK UNBOUND:                -0.280
REMARK SMILES O=c1cc(-c2ccc(O)c(O)c2)oc2cc(O)cc(O)c12
REMARK SMILES IDX 4 1 3 2 2 3 1 4 21 5 19 6 18 7 16 8 15 9 14 10 13 11 5 12
REMARK SMILES IDX 6 13 7 14 8 15 12 16 10 17 9 18 11 20 20 22 17 24
REMARK H PARENT 9 19 11 21 20 23 17 25
REMARK Flexibility Score: inf
ROOT
ATOM      1  C   UNL     1     -29.273  21.192  48.241  1.00  0.00     0.138 A 
ATOM      2  C   UNL     1     -29.221  20.113  49.134  1.00  0.00     0.100 A 
ATOM      3  C   UNL     1     -29.380  20.340  50.501  1.00  0.00     0.197 A 
ATOM      4  O   UNL     1     -29.273  19.359  51.281  1.00  0.00    -0.289 OA
ATOM      5  C   UNL     1     -29.629  21.652  50.973  1.00  0.00     0.107 A 
ATOM      6  C   UNL     1     -29.840  21.998  52.341  1.00  0.00     0.134 A 
ATOM      7  C   UNL     1     -29.978  23.345  52.699  1.00  0.00     0.093 A 
ATOM      8  C   UNL     1     -29.971  24.353  51.731  1.00  0.00     0.123 A 
ATOM      9  C   UNL     1     -29.815  24.020  50.387  1.00  0.00     0.094 A 
ATOM     10  C   UNL     1     -29.640  22.690  50.003  1.00  0.00     0.146 A 
ATOM     11  O   UNL     1     -29.476  22.418  48.712  1.00  0.00    -0.456 OA
ENDROOT
BRANCH   1  12
ATOM     12  C   UNL     1     -29.114  21.008  46.777  1.00  0.00     0.021 A 
ATOM     13  C   UNL     1     -29.883  21.739  45.850  1.00  0.00     0.016 A 
ATOM     14  C   UNL     1     -29.717  21.536  44.476  1.00  0.00     0.051 A 
ATOM     15  C   UNL     1     -28.789  20.600  44.007  1.00  0.00     0.157 A 
ATOM     16  C   UNL     1     -28.193  20.059  46.295  1.00  0.00     0.062 A 
ATOM     17  C   UNL     1     -28.027  19.859  44.917  1.00  0.00     0.158 A 
BRANCH  15  18
ATOM     18  O   UNL     1     -28.621  20.398  42.638  1.00  0.00    -0.504 OA
ATOM     19  H   UNL     1     -28.579  19.467  42.240  1.00  0.00     0.293 HD
ENDBRANCH  15  18
BRANCH  17  20
ATOM     20  O   UNL     1     -27.106  18.924  44.445  1.00  0.00    -0.504 OA
ATOM     21  H   UNL     1     -27.251  18.434  43.570  1.00  0.00     0.293 HD
ENDBRANCH  17  20
ENDBRANCH   1  12
BRANCH   6  22
ATOM     22  O   UNL     1     -29.944  21.066  53.379  1.00  0.00    -0.507 OA
ATOM     23  H   UNL     1     -30.357  20.150  53.296  1.00  0.00     0.293 HD
ENDBRANCH   6  22
BRANCH   8  24
ATOM     24  O   UNL     1     -30.125  25.689  52.094  1.00  0.00    -0.508 OA
ATOM     25  H   UNL     1     -30.397  26.394  51.420  1.00  0.00     0.293 HD
ENDBRANCH   8  24
TORSDOF 5
ENDMDL
MODEL 2
REMARK VINA RESULT:    -4.099      1.559      6.987
REMARK INTER + INTRA:          -5.098
REMARK INTER:                  -4.811
REMARK INTRA:                  -0.286
REMARK UNBOUND:                -0.280
REMARK SMILES O=c1cc(-c2ccc(O)c(O)c2)oc2cc(O)cc(O)c12
REMARK SMILES IDX 4 1 3 2 2 3 1 4 21 5 19 6 18 7 16 8 15 9 14 10 13 11 5 12
REMARK SMILES IDX 6 13 7 14 8 15 12 16 10 17 9 18 11 20 20 22 17 24
REMARK H PARENT 9 19 11 21 20 23 17 25
REMARK Flexibility Score: inf
ROOT
ATOM      1  C   UNL     1     -28.867  21.579  48.450  1.00  0.00     0.138 A 
ATOM      2  C   UNL     1     -28.055  20.443  48.326  1.00  0.00     0.100 A 
ATOM      3  C   UNL     1     -27.777  19.927  47.060  1.00  0.00     0.197 A 
ATOM      4  O   UNL     1     -27.092  18.875  46.986  1.00  0.00    -0.289 OA
ATOM      5  C   UNL     1     -28.284  20.576  45.908  1.00  0.00     0.107 A 
ATOM      6  C   UNL     1     -28.038  20.161  44.565  1.00  0.00     0.134 A 
ATOM      7  C   UNL     1     -28.677  20.825  43.510  1.00  0.00     0.093 A 
ATOM      8  C   UNL     1     -29.506  21.924  43.746  1.00  0.00     0.123 A 
ATOM      9  C   UNL     1     -29.714  22.367  45.050  1.00  0.00     0.094 A 
ATOM     10  C   UNL     1     -29.119  21.705  46.126  1.00  0.00     0.146 A 
ATOM     11  O   UNL     1     -29.358  22.150  47.355  1.00  0.00    -0.456 OA
ENDROOT
BRANCH   1  12
ATOM     12  C   UNL     1     -29.193  22.171  49.771  1.00  0.00     0.021 A 
ATOM     13  C   UNL     1     -29.730  21.396  50.818  1.00  0.00     0.016 A 
ATOM     14  C   UNL     1     -30.038  21.984  52.049  1.00  0.00     0.051 A 
ATOM     15  C   UNL     1     -29.821  23.352  52.252  1.00  0.00     0.157 A 
ATOM     16  C   UNL     1     -28.992  23.548  49.981  1.00  0.00     0.062 A 
ATOM     17  C   UNL     1     -29.299  24.135  51.216  1.00  0.00     0.158 A 
BRANCH  15  18
ATOM     18  O   UNL     1     -30.124  23.939  53.479  1.00  0.00    -0.504 OA
ATOM     19  H   UNL     1     -30.208  23.388  54.325  1.00  0.00     0.293 HD
ENDBRANCH  15  18
BRANCH  17  20
ATOM     20  O   UNL     1     -29.088  25.498  51.422  1.00  0.00    -0.504 OA
ATOM     21  H   UNL     1     -29.279  25.935  52.317  1.00  0.00     0.293 HD
ENDBRANCH  17  20
ENDBRANCH   1  12
BRANCH   6  22
ATOM     22  O   UNL     1     -27.166  19.127  44.211  1.00  0.00    -0.507 OA
ATOM     23  H   UNL     1     -27.399  18.146  44.212  1.00  0.00     0.293 HD
ENDBRANCH   6  22
BRANCH   8  24
ATOM     24  O   UNL     1     -30.125  22.587  42.688  1.00  0.00    -0.508 OA
ATOM     25  H   UNL     1     -29.782  23.478  42.348  1.00  0.00     0.293 HD
ENDBRANCH   8  24
TORSDOF 5
ENDMDL
MODEL 3
REMARK VINA RESULT:    -3.328      1.594      3.065
REMARK INTER + INTRA:          -4.192
REMARK INTER:                  -3.900
REMARK INTRA:                  -0.291
REMARK UNBOUND:                -0.280
REMARK SMILES O=c1cc(-c2ccc(O)c(O)c2)oc2cc(O)cc(O)c12
REMARK SMILES IDX 4 1 3 2 2 3 1 4 21 5 19 6 18 7 16 8 15 9 14 10 13 11 5 12
REMARK SMILES IDX 6 13 7 14 8 15 12 16 10 17 9 18 11 20 20 22 17 24
REMARK H PARENT 9 19 11 21 20 23 17 25
REMARK Flexibility Score: inf
ROOT
ATOM      1  C   UNL     1     -29.167  21.300  48.155  1.00  0.00     0.138 A 
ATOM      2  C   UNL     1     -29.684  22.564  48.471  1.00  0.00     0.100 A 
ATOM      3  C   UNL     1     -29.603  23.035  49.782  1.00  0.00     0.197 A 
ATOM      4  O   UNL     1     -30.125  24.148  50.044  1.00  0.00    -0.289 OA
ATOM      5  C   UNL     1     -28.968  22.250  50.775  1.00  0.00     0.107 A 
ATOM      6  C   UNL     1     -28.797  22.641  52.136  1.00  0.00     0.134 A 
ATOM      7  C   UNL     1     -28.241  21.737  53.050  1.00  0.00     0.093 A 
ATOM      8  C   UNL     1     -27.797  20.478  52.639  1.00  0.00     0.123 A 
ATOM      9  C   UNL     1     -27.915  20.105  51.302  1.00  0.00     0.094 A 
ATOM     10  C   UNL     1     -28.496  20.971  50.374  1.00  0.00     0.146 A 
ATOM     11  O   UNL     1     -28.605  20.568  49.112  1.00  0.00    -0.456 OA
ENDROOT
BRANCH   1  12
ATOM     12  C   UNL     1     -29.224  20.750  46.777  1.00  0.00     0.021 A 
ATOM     13  C   UNL     1     -29.037  19.378  46.519  1.00  0.00     0.016 A 
ATOM     14  C   UNL     1     -29.085  18.891  45.209  1.00  0.00     0.051 A 
ATOM     15  C   UNL     1     -29.314  19.763  44.139  1.00  0.00     0.157 A 
ATOM     16  C   UNL     1     -29.439  21.621  45.693  1.00  0.00     0.062 A 
ATOM     17  C   UNL     1     -29.489  21.130  44.381  1.00  0.00     0.158 A 
BRANCH  15  18
ATOM     18  O   UNL     1     -29.365  19.279  42.833  1.00  0.00    -0.504 OA
ATOM     19  H   UNL     1     -28.646  18.665  42.466  1.00  0.00     0.293 HD
ENDBRANCH  15  18
BRANCH  17  20
ATOM     20  O   UNL     1     -29.713  21.997  43.311  1.00  0.00    -0.504 OA
ATOM     21  H   UNL     1     -29.262  22.903  43.261  1.00  0.00     0.293 HD
ENDBRANCH  17  20
ENDBRANCH   1  12
BRANCH   6  22
ATOM     22  O   UNL     1     -29.132  23.904  52.637  1.00  0.00    -0.507 OA
ATOM     23  H   UNL     1     -29.380  24.703  52.074  1.00  0.00     0.293 HD
ENDBRANCH   6  22
BRANCH   8  24
ATOM     24  O   UNL     1     -27.231  19.592  53.552  1.00  0.00    -0.508 OA
ATOM     25  H   UNL     1     -27.181  19.808  54.541  1.00  0.00     0.293 HD
ENDBRANCH   8  24
TORSDOF 5
ENDMDL
