MODEL 1
REMARK VINA RESULT:    -3.489      0.000      0.000
REMARK INTER + INTRA:          -4.964
REMARK INTER:                  -4.508
REMARK INTRA:                  -0.456
REMARK UNBOUND:                -0.456
REMARK SMILES C=CC(=O)CCCCC
REMARK SMILES IDX 6 1 7 2 8 3 9 4 5 5 3 6 4 7 2 8 1 9
REMARK H PARENT
REMARK Flexibility Score: inf
ROOT
ATOM      1  C   UNL     1      15.648  68.162 -28.505  1.00  0.00     0.008 C 
ENDROOT
BRANCH   1   2
ATOM      2  C   UNL     1      14.904  69.422 -28.968  1.00  0.00     0.000 C 
BRANCH   2   3
ATOM      3  C   UNL     1      13.656  69.716 -28.121  1.00  0.00    -0.003 C 
ATOM      4  C   UNL     1      12.446  68.881 -28.540  1.00  0.00     0.004 C 
ENDBRANCH   2   3
ENDBRANCH   1   2
BRANCH   1   5
ATOM      5  C   UNL     1      15.699  67.114 -29.620  1.00  0.00     0.080 C 
BRANCH   5   6
ATOM      6  C   UNL     1      14.871  65.917 -29.258  1.00  0.00     0.155 C 
ATOM      7  O   UNL     1      14.910  65.474 -28.077  1.00  0.00    -0.295 OA
BRANCH   6   8
ATOM      8  C   UNL     1      13.989  65.296 -30.265  1.00  0.00     0.039 C 
ATOM      9  C   UNL     1      12.961  65.945 -30.812  1.00  0.00     0.012 C 
ENDBRANCH   6   8
ENDBRANCH   5   6
ENDBRANCH   1   5
TORSDOF 5
ENDMDL
MODEL 2
REMARK VINA RESULT:    -3.335      1.614      2.697
REMARK INTER + INTRA:          -4.765
REMARK INTER:                  -4.194
REMARK INTRA:                  -0.570
REMARK UNBOUND:                -0.456
REMARK SMILES C=CC(=O)CCCCC
REMARK SMILES IDX 6 1 7 2 8 3 9 4 5 5 3 6 4 7 2 8 1 9
REMARK H PARENT
REMARK Flexibility Score: inf
ROOT
ATOM      1  C   UNL     1      15.136  65.854 -28.804  1.00  0.00     0.008 C 
ENDROOT
BRANCH   1   2
ATOM      2  C   UNL     1      15.801  67.118 -29.365  1.00  0.00     0.000 C 
BRANCH   2   3
ATOM      3  C   UNL     1      15.546  68.357 -28.492  1.00  0.00    -0.003 C 
ATOM      4  C   UNL     1      15.060  69.560 -29.299  1.00  0.00     0.004 C 
ENDBRANCH   2   3
ENDBRANCH   1   2
BRANCH   1   5
ATOM      5  C   UNL     1      14.297  65.153 -29.876  1.00  0.00     0.080 C 
BRANCH   5   6
ATOM      6  C   UNL     1      13.016  65.898 -30.114  1.00  0.00     0.155 C 
ATOM      7  O   UNL     1      12.635  66.109 -31.298  1.00  0.00    -0.295 OA
BRANCH   6   8
ATOM      8  C   UNL     1      12.195  66.339 -28.970  1.00  0.00     0.039 C 
ATOM      9  C   UNL     1      11.845  67.612 -28.789  1.00  0.00     0.012 C 
ENDBRANCH   6   8
ENDBRANCH   5   6
ENDBRANCH   1   5
TORSDOF 5
ENDMDL
MODEL 3
REMARK VINA RESULT:    -3.306      1.634      3.615
REMARK INTER + INTRA:          -4.728
REMARK INTER:                  -4.269
REMARK INTRA:                  -0.459
REMARK UNBOUND:                -0.456
REMARK SMILES C=CC(=O)CCCCC
REMARK SMILES IDX 6 1 7 2 8 3 9 4 5 5 3 6 4 7 2 8 1 9
REMARK H PARENT
REMARK Flexibility Score: inf
ROOT
ATOM      1  C   UNL     1      15.060  66.139 -28.403  1.00  0.00     0.008 C 
ENDROOT
BRANCH   1   2
ATOM      2  C   UNL     1      14.518  64.876 -29.085  1.00  0.00     0.000 C 
BRANCH   2   3
ATOM      3  C   UNL     1      14.082  65.130 -30.537  1.00  0.00    -0.003 C 
ATOM      4  C   UNL     1      12.563  65.158 -30.702  1.00  0.00     0.004 C 
ENDBRANCH   2   3
ENDBRANCH   1   2
BRANCH   1   5
ATOM      5  C   UNL     1      15.596  67.135 -29.436  1.00  0.00     0.080 C 
BRANCH   5   6
ATOM      6  C   UNL     1      14.881  68.449 -29.323  1.00  0.00     0.155 C 
ATOM      7  O   UNL     1      15.512  69.462 -28.915  1.00  0.00    -0.295 OA
BRANCH   6   8
ATOM      8  C   UNL     1      13.466  68.558 -29.728  1.00  0.00     0.039 C 
ATOM      9  C   UNL     1      12.487  68.777 -28.852  1.00  0.00     0.012 C 
ENDBRANCH   6   8
ENDBRANCH   5   6
ENDBRANCH   1   5
TORSDOF 5
ENDMDL
MODEL 4
REMARK VINA RESULT:    -3.248      1.911      3.805
REMARK INTER + INTRA:          -4.654
REMARK INTER:                  -4.238
REMARK INTRA:                  -0.416
REMARK UNBOUND:                -0.456
REMARK SMILES C=CC(=O)CCCCC
REMARK SMILES IDX 6 1 7 2 8 3 9 4 5 5 3 6 4 7 2 8 1 9
REMARK H PARENT
REMARK Flexibility Score: inf
ROOT
ATOM      1  C   UNL     1      15.653  68.215 -28.481  1.00  0.00     0.008 C 
ENDROOT
BRANCH   1   2
ATOM      2  C   UNL     1      15.722  67.125 -29.559  1.00  0.00     0.000 C 
BRANCH   2   3
ATOM      3  C   UNL     1      14.814  65.926 -29.246  1.00  0.00    -0.003 C 
ATOM      4  C   UNL     1      13.774  65.670 -30.337  1.00  0.00     0.004 C 
ENDBRANCH   2   3
ENDBRANCH   1   2
BRANCH   1   5
ATOM      5  C   UNL     1      14.963  69.473 -29.016  1.00  0.00     0.080 C 
BRANCH   5   6
ATOM      6  C   UNL     1      13.744  69.794 -28.202  1.00  0.00     0.155 C 
ATOM      7  O   UNL     1      13.670  70.907 -27.615  1.00  0.00    -0.295 OA
BRANCH   6   8
ATOM      8  C   UNL     1      12.629  68.830 -28.131  1.00  0.00     0.039 C 
ATOM      9  C   UNL     1      11.401  69.125 -28.555  1.00  0.00     0.012 C 
ENDBRANCH   6   8
ENDBRANCH   5   6
ENDBRANCH   1   5
TORSDOF 5
ENDMDL
MODEL 5
REMARK VINA RESULT:    -3.232     15.032     16.916
REMARK INTER + INTRA:          -4.633
REMARK INTER:                  -4.325
REMARK INTRA:                  -0.308
REMARK UNBOUND:                -0.456
REMARK SMILES C=CC(=O)CCCCC
REMARK SMILES IDX 6 1 7 2 8 3 9 4 5 5 3 6 4 7 2 8 1 9
REMARK H PARENT
REMARK Flexibility Score: inf
ROOT
ATOM      1  C   UNL     1       2.116  78.906 -29.514  1.00  0.00     0.008 C 
ENDROOT
BRANCH   1   2
ATOM      2  C   UNL     1       1.675  79.469 -30.873  1.00  0.00     0.000 C 
BRANCH   2   3
ATOM      3  C   UNL     1       0.173  79.791 -30.920  1.00  0.00    -0.003 C 
ATOM      4  C   UNL     1      -0.408  79.698 -32.330  1.00  0.00     0.004 C 
ENDBRANCH   2   3
ENDBRANCH   1   2
BRANCH   1   5
ATOM      5  C   UNL     1       0.967  78.158 -28.832  1.00  0.00     0.080 C 
BRANCH   5   6
ATOM      6  C   UNL     1       1.384  76.760 -28.479  1.00  0.00     0.155 C 
ATOM      7  O   UNL     1       0.949  76.236 -27.417  1.00  0.00    -0.295 OA
BRANCH   6   8
ATOM      8  C   UNL     1       2.259  75.998 -29.390  1.00  0.00     0.039 C 
ATOM      9  C   UNL     1       1.838  74.919 -30.049  1.00  0.00     0.012 C 
ENDBRANCH   6   8
ENDBRANCH   5   6
ENDBRANCH   1   5
TORSDOF 5
ENDMDL
MODEL 6
REMARK VINA RESULT:    -3.066      1.094      2.988
REMARK INTER + INTRA:          -4.418
REMARK INTER:                  -3.802
REMARK INTRA:                  -0.616
REMARK UNBOUND:                -0.456
REMARK SMILES C=CC(=O)CCCCC
REMARK SMILES IDX 6 1 7 2 8 3 9 4 5 5 3 6 4 7 2 8 1 9
REMARK H PARENT
REMARK Flexibility Score: inf
ROOT
ATOM      1  C   UNL     1      12.949  65.999 -30.616  1.00  0.00     0.008 C 
ENDROOT
BRANCH   1   2
ATOM      2  C   UNL     1      11.871  65.915 -29.526  1.00  0.00     0.000 C 
BRANCH   2   3
ATOM      3  C   UNL     1      11.592  67.275 -28.867  1.00  0.00    -0.003 C 
ATOM      4  C   UNL     1      12.043  67.329 -27.407  1.00  0.00     0.004 C 
ENDBRANCH   2   3
ENDBRANCH   1   2
BRANCH   1   5
ATOM      5  C   UNL     1      14.189  65.190 -30.225  1.00  0.00     0.080 C 
BRANCH   5   6
ATOM      6  C   UNL     1      14.979  65.910 -29.172  1.00  0.00     0.155 C 
ATOM      7  O   UNL     1      15.064  65.413 -28.016  1.00  0.00    -0.295 OA
BRANCH   6   8
ATOM      8  C   UNL     1      15.682  67.165 -29.504  1.00  0.00     0.039 C 
ATOM      9  C   UNL     1      15.270  68.353 -29.065  1.00  0.00     0.012 C 
ENDBRANCH   6   8
ENDBRANCH   5   6
ENDBRANCH   1   5
TORSDOF 5
ENDMDL
MODEL 7
REMARK VINA RESULT:    -3.030     18.299     19.776
REMARK INTER + INTRA:          -4.371
REMARK INTER:                  -3.942
REMARK INTRA:                  -0.429
REMARK UNBOUND:                -0.456
REMARK SMILES C=CC(=O)CCCCC
REMARK SMILES IDX 6 1 7 2 8 3 9 4 5 5 3 6 4 7 2 8 1 9
REMARK H PARENT
REMARK Flexibility Score: inf
ROOT
ATOM      1  C   UNL     1       1.504  81.622 -28.957  1.00  0.00     0.008 C 
ENDROOT
BRANCH   1   2
ATOM      2  C   UNL     1       0.435  82.484 -28.270  1.00  0.00     0.000 C 
BRANCH   2   3
ATOM      3  C   UNL     1       0.172  83.803 -29.014  1.00  0.00    -0.003 C 
ATOM      4  C   UNL     1      -1.241  83.886 -29.589  1.00  0.00     0.004 C 
ENDBRANCH   2   3
ENDBRANCH   1   2
BRANCH   1   5
ATOM      5  C   UNL     1       0.983  80.205 -29.214  1.00  0.00     0.080 C 
BRANCH   5   6
ATOM      6  C   UNL     1       1.116  79.849 -30.665  1.00  0.00     0.155 C 
ATOM      7  O   UNL     1       2.249  79.541 -31.124  1.00  0.00    -0.295 OA
BRANCH   6   8
ATOM      8  C   UNL     1      -0.079  79.819 -31.531  1.00  0.00     0.039 C 
ATOM      9  C   UNL     1      -1.189  80.497 -31.240  1.00  0.00     0.012 C 
ENDBRANCH   6   8
ENDBRANCH   5   6
ENDBRANCH   1   5
TORSDOF 5
ENDMDL
MODEL 8
REMARK VINA RESULT:    -3.001      1.933      3.910
REMARK INTER + INTRA:          -4.333
REMARK INTER:                  -4.029
REMARK INTRA:                  -0.304
REMARK UNBOUND:                -0.456
REMARK SMILES C=CC(=O)CCCCC
REMARK SMILES IDX 6 1 7 2 8 3 9 4 5 5 3 6 4 7 2 8 1 9
REMARK H PARENT
REMARK Flexibility Score: inf
ROOT
ATOM      1  C   UNL     1      12.659  65.752 -31.244  1.00  0.00     0.008 C 
ENDROOT
BRANCH   1   2
ATOM      2  C   UNL     1      11.375  65.037 -30.798  1.00  0.00     0.000 C 
BRANCH   2   3
ATOM      3  C   UNL     1      10.584  65.842 -29.755  1.00  0.00    -0.003 C 
ATOM      4  C   UNL     1       9.109  65.444 -29.696  1.00  0.00     0.004 C 
ENDBRANCH   2   3
ENDBRANCH   1   2
BRANCH   1   5
ATOM      5  C   UNL     1      13.856  65.307 -30.400  1.00  0.00     0.080 C 
BRANCH   5   6
ATOM      6  C   UNL     1      14.403  66.459 -29.610  1.00  0.00     0.155 C 
ATOM      7  O   UNL     1      15.393  66.273 -28.851  1.00  0.00    -0.295 OA
BRANCH   6   8
ATOM      8  C   UNL     1      13.812  67.803 -29.758  1.00  0.00     0.039 C 
ATOM      9  C   UNL     1      14.477  68.915 -29.450  1.00  0.00     0.012 C 
ENDBRANCH   6   8
ENDBRANCH   5   6
ENDBRANCH   1   5
TORSDOF 5
ENDMDL
MODEL 9
REMARK VINA RESULT:    -2.993     14.239     16.082
REMARK INTER + INTRA:          -4.323
REMARK INTER:                  -4.131
REMARK INTRA:                  -0.192
REMARK UNBOUND:                -0.456
REMARK SMILES C=CC(=O)CCCCC
REMARK SMILES IDX 6 1 7 2 8 3 9 4 5 5 3 6 4 7 2 8 1 9
REMARK H PARENT
REMARK Flexibility Score: inf
ROOT
ATOM      1  C   UNL     1       1.799  78.142 -29.751  1.00  0.00     0.008 C 
ENDROOT
BRANCH   1   2
ATOM      2  C   UNL     1       1.617  79.446 -30.539  1.00  0.00     0.000 C 
BRANCH   2   3
ATOM      3  C   UNL     1       0.151  79.905 -30.592  1.00  0.00    -0.003 C 
ATOM      4  C   UNL     1      -0.441  79.835 -31.999  1.00  0.00     0.004 C 
ENDBRANCH   2   3
ENDBRANCH   1   2
BRANCH   1   5
ATOM      5  C   UNL     1       3.187  77.543 -29.995  1.00  0.00     0.080 C 
BRANCH   5   6
ATOM      6  C   UNL     1       3.144  76.048 -29.880  1.00  0.00     0.155 C 
ATOM      7  O   UNL     1       4.226  75.399 -29.859  1.00  0.00    -0.295 OA
BRANCH   6   8
ATOM      8  C   UNL     1       1.848  75.354 -29.749  1.00  0.00     0.039 C 
ATOM      9  C   UNL     1       1.750  74.099 -29.313  1.00  0.00     0.012 C 
ENDBRANCH   6   8
ENDBRANCH   5   6
ENDBRANCH   1   5
TORSDOF 5
ENDMDL
