MODEL 1
REMARK VINA RESULT:    -5.158      0.000      0.000
REMARK INTER + INTRA:          -5.551
REMARK INTER:                  -5.460
REMARK INTRA:                  -0.091
REMARK UNBOUND:                -0.091
REMARK SMILES C=C(C)[C@@H]1CC=C(C)C(=O)C1
REMARK SMILES IDX 8 1 7 2 6 3 5 4 4 5 11 6 9 7 10 8 2 9 1 10 3 11
REMARK H PARENT
REMARK Flexibility Score: inf
ROOT
ATOM      1  C   UNL     1      51.459  25.236  21.175  1.00  0.00     0.048 C 
ATOM      2  C   UNL     1      50.381  24.213  20.951  1.00  0.00    -0.012 C 
ATOM      3  C   UNL     1      49.396  24.071  21.855  1.00  0.00    -0.019 C 
ATOM      4  C   UNL     1      48.282  23.075  21.672  1.00  0.00     0.036 C 
ATOM      5  C   UNL     1      48.774  21.824  20.921  1.00  0.00     0.025 C 
ATOM      6  C   UNL     1      49.423  22.225  19.583  1.00  0.00     0.089 C 
ATOM      7  C   UNL     1      50.473  23.280  19.800  1.00  0.00     0.158 C 
ATOM      8  O   UNL     1      51.416  23.388  18.972  1.00  0.00    -0.295 OA
ENDROOT
BRANCH   5   9
ATOM      9  C   UNL     1      47.655  20.810  20.720  1.00  0.00    -0.077 C 
ATOM     10  C   UNL     1      47.898  19.488  20.737  1.00  0.00     0.008 C 
ATOM     11  C   UNL     1      46.241  21.281  20.493  1.00  0.00     0.039 C 
ENDBRANCH   5   9
TORSDOF 1
ENDMDL
MODEL 2
REMARK VINA RESULT:    -5.038      3.449      5.164
REMARK INTER + INTRA:          -5.423
REMARK INTER:                  -5.330
REMARK INTRA:                  -0.093
REMARK UNBOUND:                -0.091
REMARK SMILES C=C(C)[C@@H]1CC=C(C)C(=O)C1
REMARK SMILES IDX 8 1 7 2 6 3 5 4 4 5 11 6 9 7 10 8 2 9 1 10 3 11
REMARK H PARENT
REMARK Flexibility Score: inf
ROOT
ATOM      1  C   UNL     1      42.865  24.360  21.141  1.00  0.00     0.048 C 
ATOM      2  C   UNL     1      44.128  23.544  21.147  1.00  0.00    -0.012 C 
ATOM      3  C   UNL     1      45.319  24.156  21.266  1.00  0.00    -0.019 C 
ATOM      4  C   UNL     1      46.613  23.387  21.296  1.00  0.00     0.036 C 
ATOM      5  C   UNL     1      46.524  22.119  20.427  1.00  0.00     0.025 C 
ATOM      6  C   UNL     1      45.323  21.257  20.861  1.00  0.00     0.089 C 
ATOM      7  C   UNL     1      44.066  22.082  20.897  1.00  0.00     0.158 C 
ATOM      8  O   UNL     1      42.952  21.512  20.748  1.00  0.00    -0.295 OA
ENDROOT
BRANCH   5   9
ATOM      9  C   UNL     1      47.823  21.324  20.455  1.00  0.00    -0.077 C 
ATOM     10  C   UNL     1      49.003  21.904  20.169  1.00  0.00     0.008 C 
ATOM     11  C   UNL     1      47.806  19.858  20.804  1.00  0.00     0.039 C 
ENDBRANCH   5   9
TORSDOF 1
ENDMDL
MODEL 3
REMARK VINA RESULT:    -4.977      2.293      4.783
REMARK INTER + INTRA:          -5.359
REMARK INTER:                  -5.264
REMARK INTRA:                  -0.096
REMARK UNBOUND:                -0.091
REMARK SMILES C=C(C)[C@@H]1CC=C(C)C(=O)C1
REMARK SMILES IDX 8 1 7 2 6 3 5 4 4 5 11 6 9 7 10 8 2 9 1 10 3 11
REMARK H PARENT
REMARK Flexibility Score: inf
ROOT
ATOM      1  C   UNL     1      44.759  21.492  20.896  1.00  0.00     0.048 C 
ATOM      2  C   UNL     1      46.115  22.129  20.754  1.00  0.00    -0.012 C 
ATOM      3  C   UNL     1      47.123  21.437  20.197  1.00  0.00    -0.019 C 
ATOM      4  C   UNL     1      48.494  22.031  20.013  1.00  0.00     0.036 C 
ATOM      5  C   UNL     1      48.823  23.025  21.143  1.00  0.00     0.025 C 
ATOM      6  C   UNL     1      47.727  24.104  21.241  1.00  0.00     0.089 C 
ATOM      7  C   UNL     1      46.367  23.469  21.340  1.00  0.00     0.158 C 
ATOM      8  O   UNL     1      45.432  24.104  21.896  1.00  0.00    -0.295 OA
ENDROOT
BRANCH   5   9
ATOM      9  C   UNL     1      50.204  23.643  20.966  1.00  0.00    -0.077 C 
ATOM     10  C   UNL     1      50.708  24.500  21.872  1.00  0.00     0.008 C 
ATOM     11  C   UNL     1      51.036  23.301  19.757  1.00  0.00     0.039 C 
ENDBRANCH   5   9
TORSDOF 1
ENDMDL
MODEL 4
REMARK VINA RESULT:    -4.946      2.091      4.521
REMARK INTER + INTRA:          -5.326
REMARK INTER:                  -5.231
REMARK INTRA:                  -0.095
REMARK UNBOUND:                -0.091
REMARK SMILES C=C(C)[C@@H]1CC=C(C)C(=O)C1
REMARK SMILES IDX 8 1 7 2 6 3 5 4 4 5 11 6 9 7 10 8 2 9 1 10 3 11
REMARK H PARENT
REMARK Flexibility Score: inf
ROOT
ATOM      1  C   UNL     1      44.672  21.491  20.979  1.00  0.00     0.048 C 
ATOM      2  C   UNL     1      46.092  21.980  21.056  1.00  0.00    -0.012 C 
ATOM      3  C   UNL     1      46.340  23.297  21.164  1.00  0.00    -0.019 C 
ATOM      4  C   UNL     1      47.740  23.840  21.264  1.00  0.00     0.036 C 
ATOM      5  C   UNL     1      48.730  22.970  20.466  1.00  0.00     0.025 C 
ATOM      6  C   UNL     1      48.639  21.502  20.924  1.00  0.00     0.089 C 
ATOM      7  C   UNL     1      47.214  21.024  20.888  1.00  0.00     0.158 C 
ATOM      8  O   UNL     1      46.982  19.793  20.749  1.00  0.00    -0.295 OA
ENDROOT
BRANCH   5   9
ATOM      9  C   UNL     1      50.154  23.501  20.565  1.00  0.00    -0.077 C 
ATOM     10  C   UNL     1      50.555  24.235  21.619  1.00  0.00     0.008 C 
ATOM     11  C   UNL     1      51.147  23.213  19.468  1.00  0.00     0.039 C 
ENDBRANCH   5   9
TORSDOF 1
ENDMDL
MODEL 5
REMARK VINA RESULT:    -4.915      2.008      2.610
REMARK INTER + INTRA:          -5.293
REMARK INTER:                  -5.196
REMARK INTRA:                  -0.098
REMARK UNBOUND:                -0.091
REMARK SMILES C=C(C)[C@@H]1CC=C(C)C(=O)C1
REMARK SMILES IDX 8 1 7 2 6 3 5 4 4 5 11 6 9 7 10 8 2 9 1 10 3 11
REMARK H PARENT
REMARK Flexibility Score: inf
ROOT
ATOM      1  C   UNL     1      50.190  25.925  21.627  1.00  0.00     0.048 C 
ATOM      2  C   UNL     1      49.337  24.688  21.591  1.00  0.00    -0.012 C 
ATOM      3  C   UNL     1      49.915  23.480  21.474  1.00  0.00    -0.019 C 
ATOM      4  C   UNL     1      49.110  22.208  21.451  1.00  0.00     0.036 C 
ATOM      5  C   UNL     1      47.739  22.432  20.786  1.00  0.00     0.025 C 
ATOM      6  C   UNL     1      46.990  23.584  21.482  1.00  0.00     0.089 C 
ATOM      7  C   UNL     1      47.858  24.810  21.557  1.00  0.00     0.158 C 
ATOM      8  O   UNL     1      47.314  25.945  21.629  1.00  0.00    -0.295 OA
ENDROOT
BRANCH   5   9
ATOM      9  C   UNL     1      46.908  21.155  20.764  1.00  0.00    -0.077 C 
ATOM     10  C   UNL     1      45.567  21.195  20.669  1.00  0.00     0.008 C 
ATOM     11  C   UNL     1      47.584  19.811  20.853  1.00  0.00     0.039 C 
ENDBRANCH   5   9
TORSDOF 1
ENDMDL
MODEL 6
REMARK VINA RESULT:    -4.824      2.718      4.735
REMARK INTER + INTRA:          -5.198
REMARK INTER:                  -5.103
REMARK INTRA:                  -0.095
REMARK UNBOUND:                -0.091
REMARK SMILES C=C(C)[C@@H]1CC=C(C)C(=O)C1
REMARK SMILES IDX 8 1 7 2 6 3 5 4 4 5 11 6 9 7 10 8 2 9 1 10 3 11
REMARK H PARENT
REMARK Flexibility Score: inf
ROOT
ATOM      1  C   UNL     1      47.966  19.851  20.469  1.00  0.00     0.048 C 
ATOM      2  C   UNL     1      47.744  21.313  20.745  1.00  0.00    -0.012 C 
ATOM      3  C   UNL     1      48.781  22.092  21.097  1.00  0.00    -0.019 C 
ATOM      4  C   UNL     1      48.619  23.564  21.366  1.00  0.00     0.036 C 
ATOM      5  C   UNL     1      47.235  23.868  21.971  1.00  0.00     0.025 C 
ATOM      6  C   UNL     1      46.122  23.315  21.062  1.00  0.00     0.089 C 
ATOM      7  C   UNL     1      46.365  21.864  20.750  1.00  0.00     0.158 C 
ATOM      8  O   UNL     1      45.388  21.126  20.456  1.00  0.00    -0.295 OA
ENDROOT
BRANCH   5   9
ATOM      9  C   UNL     1      47.052  25.355  22.241  1.00  0.00    -0.077 C 
ATOM     10  C   UNL     1      47.700  26.283  21.513  1.00  0.00     0.008 C 
ATOM     11  C   UNL     1      46.133  25.817  23.343  1.00  0.00     0.039 C 
ENDBRANCH   5   9
TORSDOF 1
ENDMDL
MODEL 7
REMARK VINA RESULT:    -4.756      2.487      4.496
REMARK INTER + INTRA:          -5.125
REMARK INTER:                  -5.027
REMARK INTRA:                  -0.098
REMARK UNBOUND:                -0.091
REMARK SMILES C=C(C)[C@@H]1CC=C(C)C(=O)C1
REMARK SMILES IDX 8 1 7 2 6 3 5 4 4 5 11 6 9 7 10 8 2 9 1 10 3 11
REMARK H PARENT
REMARK Flexibility Score: inf
ROOT
ATOM      1  C   UNL     1      48.364  19.920  20.362  1.00  0.00     0.048 C 
ATOM      2  C   UNL     1      47.387  20.995  20.749  1.00  0.00    -0.012 C 
ATOM      3  C   UNL     1      46.066  20.752  20.688  1.00  0.00    -0.019 C 
ATOM      4  C   UNL     1      45.045  21.785  21.082  1.00  0.00     0.036 C 
ATOM      5  C   UNL     1      45.544  23.208  20.765  1.00  0.00     0.025 C 
ATOM      6  C   UNL     1      46.911  23.454  21.431  1.00  0.00     0.089 C 
ATOM      7  C   UNL     1      47.877  22.357  21.078  1.00  0.00     0.158 C 
ATOM      8  O   UNL     1      49.114  22.597  21.100  1.00  0.00    -0.295 OA
ENDROOT
BRANCH   5   9
ATOM      9  C   UNL     1      44.525  24.266  21.167  1.00  0.00    -0.077 C 
ATOM     10  C   UNL     1      44.911  25.476  21.608  1.00  0.00     0.008 C 
ATOM     11  C   UNL     1      43.050  23.967  21.078  1.00  0.00     0.039 C 
ENDBRANCH   5   9
TORSDOF 1
ENDMDL
MODEL 8
REMARK VINA RESULT:    -4.738      1.955      2.804
REMARK INTER + INTRA:          -5.106
REMARK INTER:                  -5.010
REMARK INTRA:                  -0.096
REMARK UNBOUND:                -0.091
REMARK SMILES C=C(C)[C@@H]1CC=C(C)C(=O)C1
REMARK SMILES IDX 8 1 7 2 6 3 5 4 4 5 11 6 9 7 10 8 2 9 1 10 3 11
REMARK H PARENT
REMARK Flexibility Score: inf
ROOT
ATOM      1  C   UNL     1      50.998  23.825  20.457  1.00  0.00     0.048 C 
ATOM      2  C   UNL     1      49.577  23.425  20.746  1.00  0.00    -0.012 C 
ATOM      3  C   UNL     1      49.101  22.261  20.271  1.00  0.00    -0.019 C 
ATOM      4  C   UNL     1      47.694  21.803  20.546  1.00  0.00     0.036 C 
ATOM      5  C   UNL     1      46.731  23.001  20.651  1.00  0.00     0.025 C 
ATOM      6  C   UNL     1      47.236  24.000  21.709  1.00  0.00     0.089 C 
ATOM      7  C   UNL     1      48.671  24.369  21.446  1.00  0.00     0.158 C 
ATOM      8  O   UNL     1      49.106  25.477  21.859  1.00  0.00    -0.295 OA
ENDROOT
BRANCH   5   9
ATOM      9  C   UNL     1      45.304  22.554  20.939  1.00  0.00    -0.077 C 
ATOM     10  C   UNL     1      44.987  21.251  21.041  1.00  0.00     0.008 C 
ATOM     11  C   UNL     1      44.211  23.577  21.112  1.00  0.00     0.039 C 
ENDBRANCH   5   9
TORSDOF 1
ENDMDL
MODEL 9
REMARK VINA RESULT:    -4.539      2.916      4.489
REMARK INTER + INTRA:          -4.896
REMARK INTER:                  -4.800
REMARK INTRA:                  -0.095
REMARK UNBOUND:                -0.091
REMARK SMILES C=C(C)[C@@H]1CC=C(C)C(=O)C1
REMARK SMILES IDX 8 1 7 2 6 3 5 4 4 5 11 6 9 7 10 8 2 9 1 10 3 11
REMARK H PARENT
REMARK Flexibility Score: inf
ROOT
ATOM      1  C   UNL     1      43.687  24.857  21.973  1.00  0.00     0.048 C 
ATOM      2  C   UNL     1      44.889  24.121  21.450  1.00  0.00    -0.012 C 
ATOM      3  C   UNL     1      44.725  23.080  20.615  1.00  0.00    -0.019 C 
ATOM      4  C   UNL     1      45.894  22.320  20.048  1.00  0.00     0.036 C 
ATOM      5  C   UNL     1      47.068  22.283  21.045  1.00  0.00     0.025 C 
ATOM      6  C   UNL     1      47.453  23.712  21.471  1.00  0.00     0.089 C 
ATOM      7  C   UNL     1      46.243  24.464  21.954  1.00  0.00     0.158 C 
ATOM      8  O   UNL     1      46.394  25.416  22.765  1.00  0.00    -0.295 OA
ENDROOT
BRANCH   5   9
ATOM      9  C   UNL     1      48.263  21.525  20.481  1.00  0.00    -0.077 C 
ATOM     10  C   UNL     1      49.342  22.172  20.009  1.00  0.00     0.008 C 
ATOM     11  C   UNL     1      48.251  20.018  20.440  1.00  0.00     0.039 C 
ENDBRANCH   5   9
TORSDOF 1
ENDMDL
