MODEL 1
REMARK VINA RESULT:    -2.511      0.000      0.000
REMARK INTER + INTRA:          -2.511
REMARK INTER:                  -2.511
REMARK INTRA:                   0.000
REMARK UNBOUND:                 0.000
REMARK SMILES CC(=O)[O-]
REMARK SMILES IDX 1 1 2 2 3 3 4 4
REMARK H PARENT
REMARK Flexibility Score: inf
ROOT
ATOM      1  C   UNL     1    -102.199 -81.756  30.825  1.00  0.00     0.063 C 
ATOM      2  C   UNL     1    -100.827 -81.868  30.255  1.00  0.00     0.038 C 
ATOM      3  O   UNL     1    -100.002 -82.681  30.748  1.00  0.00    -0.550 OA
ATOM      4  O   UNL     1    -100.436 -81.038  29.212  1.00  0.00    -0.550 OA
ENDROOT
TORSDOF 0
ENDMDL
MODEL 2
REMARK VINA RESULT:    -2.330      1.416      2.072
REMARK INTER + INTRA:          -2.330
REMARK INTER:                  -2.330
REMARK INTRA:                   0.000
REMARK UNBOUND:                 0.000
REMARK SMILES CC(=O)[O-]
REMARK SMILES IDX 1 1 2 2 3 3 4 4
REMARK H PARENT
REMARK Flexibility Score: inf
ROOT
ATOM      1  C   UNL     1     -99.993 -81.542  31.496  1.00  0.00     0.063 C 
ATOM      2  C   UNL     1    -101.019 -81.710  30.428  1.00  0.00     0.038 C 
ATOM      3  O   UNL     1    -100.769 -81.348  29.249  1.00  0.00    -0.550 OA
ATOM      4  O   UNL     1    -102.274 -82.216  30.742  1.00  0.00    -0.550 OA
ENDROOT
TORSDOF 0
ENDMDL
MODEL 3
REMARK VINA RESULT:    -2.234     25.272     25.396
REMARK INTER + INTRA:          -2.234
REMARK INTER:                  -2.234
REMARK INTRA:                   0.000
REMARK UNBOUND:                 0.000
REMARK SMILES CC(=O)[O-]
REMARK SMILES IDX 1 1 2 2 3 3 4 4
REMARK H PARENT
REMARK Flexibility Score: inf
ROOT
ATOM      1  C   UNL     1    -116.655 -98.954  41.347  1.00  0.00     0.063 C 
ATOM      2  C   UNL     1    -117.249 -98.515  40.052  1.00  0.00     0.038 C 
ATOM      3  O   UNL     1    -116.946 -99.109  38.984  1.00  0.00    -0.550 OA
ATOM      4  O   UNL     1    -118.097 -97.415  40.012  1.00  0.00    -0.550 OA
ENDROOT
TORSDOF 0
ENDMDL
MODEL 4
REMARK VINA RESULT:    -2.201     23.623     23.951
REMARK INTER + INTRA:          -2.201
REMARK INTER:                  -2.201
REMARK INTRA:                   0.000
REMARK UNBOUND:                 0.000
REMARK SMILES CC(=O)[O-]
REMARK SMILES IDX 1 1 2 2 3 3 4 4
REMARK H PARENT
REMARK Flexibility Score: inf
ROOT
ATOM      1  C   UNL     1    -115.039 -98.742  35.615  1.00  0.00     0.063 C 
ATOM      2  C   UNL     1    -116.386 -98.984  36.206  1.00  0.00     0.038 C 
ATOM      3  O   UNL     1    -117.400 -99.047  35.464  1.00  0.00    -0.550 OA
ATOM      4  O   UNL     1    -116.534 -99.086  37.584  1.00  0.00    -0.550 OA
ENDROOT
TORSDOF 0
ENDMDL
MODEL 5
REMARK VINA RESULT:    -2.189      1.703      2.335
REMARK INTER + INTRA:          -2.189
REMARK INTER:                  -2.189
REMARK INTRA:                   0.000
REMARK UNBOUND:                 0.000
REMARK SMILES CC(=O)[O-]
REMARK SMILES IDX 1 1 2 2 3 3 4 4
REMARK H PARENT
REMARK Flexibility Score: inf
ROOT
ATOM      1  C   UNL     1     -99.471 -80.659  30.092  1.00  0.00     0.063 C 
ATOM      2  C   UNL     1     -99.928 -81.744  31.006  1.00  0.00     0.038 C 
ATOM      3  O   UNL     1    -100.559 -82.732  30.549  1.00  0.00    -0.550 OA
ATOM      4  O   UNL     1     -99.705 -81.641  32.374  1.00  0.00    -0.550 OA
ENDROOT
TORSDOF 0
ENDMDL
MODEL 6
REMARK VINA RESULT:    -2.163     27.903     28.336
REMARK INTER + INTRA:          -2.163
REMARK INTER:                  -2.163
REMARK INTRA:                   0.000
REMARK UNBOUND:                 0.000
REMARK SMILES CC(=O)[O-]
REMARK SMILES IDX 1 1 2 2 3 3 4 4
REMARK H PARENT
REMARK Flexibility Score: inf
ROOT
ATOM      1  C   UNL     1    -118.321 -96.160  48.896  1.00  0.00     0.063 C 
ATOM      2  C   UNL     1    -118.526 -95.039  47.936  1.00  0.00     0.038 C 
ATOM      3  O   UNL     1    -118.382 -95.230  46.701  1.00  0.00    -0.550 OA
ATOM      4  O   UNL     1    -118.824 -93.765  48.406  1.00  0.00    -0.550 OA
ENDROOT
TORSDOF 0
ENDMDL
MODEL 7
REMARK VINA RESULT:    -2.150     25.783     25.994
REMARK INTER + INTRA:          -2.150
REMARK INTER:                  -2.150
REMARK INTRA:                   0.000
REMARK UNBOUND:                 0.000
REMARK SMILES CC(=O)[O-]
REMARK SMILES IDX 1 1 2 2 3 3 4 4
REMARK H PARENT
REMARK Flexibility Score: inf
ROOT
ATOM      1  C   UNL     1    -116.930 -98.952  43.256  1.00  0.00     0.063 C 
ATOM      2  C   UNL     1    -116.667 -98.903  41.790  1.00  0.00     0.038 C 
ATOM      3  O   UNL     1    -115.689 -99.527  41.301  1.00  0.00    -0.550 OA
ATOM      4  O   UNL     1    -117.469 -98.124  40.964  1.00  0.00    -0.550 OA
ENDROOT
TORSDOF 0
ENDMDL
MODEL 8
REMARK VINA RESULT:    -2.146     23.088     23.477
REMARK INTER + INTRA:          -2.146
REMARK INTER:                  -2.146
REMARK INTRA:                   0.000
REMARK UNBOUND:                 0.000
REMARK SMILES CC(=O)[O-]
REMARK SMILES IDX 1 1 2 2 3 3 4 4
REMARK H PARENT
REMARK Flexibility Score: inf
ROOT
ATOM      1  C   UNL     1    -116.408 -98.361  34.870  1.00  0.00     0.063 C 
ATOM      2  C   UNL     1    -115.772 -98.897  36.106  1.00  0.00     0.038 C 
ATOM      3  O   UNL     1    -114.599 -99.351  36.069  1.00  0.00    -0.550 OA
ATOM      4  O   UNL     1    -116.492 -98.949  37.294  1.00  0.00    -0.550 OA
ENDROOT
TORSDOF 0
ENDMDL
MODEL 9
REMARK VINA RESULT:    -2.142     18.423     18.857
REMARK INTER + INTRA:          -2.142
REMARK INTER:                  -2.142
REMARK INTRA:                   0.000
REMARK UNBOUND:                 0.000
REMARK SMILES CC(=O)[O-]
REMARK SMILES IDX 1 1 2 2 3 3 4 4
REMARK H PARENT
REMARK Flexibility Score: inf
ROOT
ATOM      1  C   UNL     1    -112.284 -80.246  46.879  1.00  0.00     0.063 C 
ATOM      2  C   UNL     1    -111.536 -80.552  45.626  1.00  0.00     0.038 C 
ATOM      3  O   UNL     1    -112.120 -80.499  44.513  1.00  0.00    -0.550 OA
ATOM      4  O   UNL     1    -110.206 -80.949  45.688  1.00  0.00    -0.550 OA
ENDROOT
TORSDOF 0
ENDMDL
