MODEL 1
REMARK VINA RESULT:    -5.305      0.000      0.000
REMARK INTER + INTRA:          -6.917
REMARK INTER:                  -6.391
REMARK INTRA:                  -0.526
REMARK UNBOUND:                -0.526
REMARK SMILES CCCCc1oc(O)c2ccccc12
REMARK SMILES IDX 4 1 5 2 7 3 6 4 9 5 14 6 10 7 13 8 11 9 12 10 8 11 3 13 2 14
REMARK SMILES IDX 1 15
REMARK H PARENT 8 12
REMARK Flexibility Score: inf
ROOT
ATOM      1  C   UNL     1       8.994 -15.933  -4.664  1.00  0.00     0.076 C 
ENDROOT
BRANCH   1   2
ATOM      2  C   UNL     1       7.853 -15.483  -5.527  1.00  0.00     0.116 A 
ATOM      3  C   UNL     1       6.723 -15.055  -7.300  1.00  0.00     0.290 A 
ATOM      4  O   UNL     1       7.887 -15.480  -6.848  1.00  0.00    -0.430 OA
ATOM      5  C   UNL     1       5.888 -14.773  -6.239  1.00  0.00     0.066 A 
ATOM      6  C   UNL     1       6.607 -15.048  -5.106  1.00  0.00     0.027 A 
ATOM      7  C   UNL     1       4.572 -14.314  -6.185  1.00  0.00     0.016 A 
ATOM      8  C   UNL     1       6.059 -14.886  -3.833  1.00  0.00     0.012 A 
ATOM      9  C   UNL     1       3.995 -14.138  -4.914  1.00  0.00     0.001 A 
ATOM     10  C   UNL     1       4.734 -14.424  -3.745  1.00  0.00     0.001 A 
BRANCH   3  11
ATOM     11  O   UNL     1       6.416 -14.928  -8.651  1.00  0.00    -0.480 OA
ATOM     12  H   UNL     1       5.690 -14.297  -8.968  1.00  0.00     0.297 HD
ENDBRANCH   3  11
ENDBRANCH   1   2
BRANCH   1  13
ATOM     13  C   UNL     1      10.182 -14.965  -4.744  1.00  0.00     0.008 C 
BRANCH  13  14
ATOM     14  C   UNL     1       9.868 -13.604  -4.107  1.00  0.00    -0.003 C 
ATOM     15  C   UNL     1       9.447 -13.762  -2.650  1.00  0.00     0.004 C 
ENDBRANCH  13  14
ENDBRANCH   1  13
TORSDOF 4
ENDMDL
MODEL 2
REMARK VINA RESULT:    -5.064     10.649     11.816
REMARK INTER + INTRA:          -6.627
REMARK INTER:                  -6.389
REMARK INTRA:                  -0.238
REMARK UNBOUND:                -0.526
REMARK SMILES CCCCc1oc(O)c2ccccc12
REMARK SMILES IDX 4 1 5 2 7 3 6 4 9 5 14 6 10 7 13 8 11 9 12 10 8 11 3 13 2 14
REMARK SMILES IDX 1 15
REMARK H PARENT 8 12
REMARK Flexibility Score: inf
ROOT
ATOM      1  C   UNL     1       2.428 -22.676   1.935  1.00  0.00     0.076 C 
ENDROOT
BRANCH   1   2
ATOM      2  C   UNL     1       2.216 -23.581   0.757  1.00  0.00     0.116 A 
ATOM      3  C   UNL     1       1.763 -25.361  -0.352  1.00  0.00     0.290 A 
ATOM      4  O   UNL     1       1.905 -24.861   0.861  1.00  0.00    -0.430 OA
ATOM      5  C   UNL     1       1.985 -24.375  -1.289  1.00  0.00     0.066 A 
ATOM      6  C   UNL     1       2.272 -23.237  -0.583  1.00  0.00     0.027 A 
ATOM      7  C   UNL     1       1.948 -24.389  -2.683  1.00  0.00     0.016 A 
ATOM      8  C   UNL     1       2.540 -22.025  -1.222  1.00  0.00     0.012 A 
ATOM      9  C   UNL     1       2.216 -23.183  -3.355  1.00  0.00     0.001 A 
ATOM     10  C   UNL     1       2.510 -22.007  -2.628  1.00  0.00     0.001 A 
BRANCH   3  11
ATOM     11  O   UNL     1       1.436 -26.689  -0.608  1.00  0.00    -0.480 OA
ATOM     12  H   UNL     1       0.592 -27.104  -0.231  1.00  0.00     0.297 HD
ENDBRANCH   3  11
ENDBRANCH   1   2
BRANCH   1  13
ATOM     13  C   UNL     1       1.156 -21.894   2.285  1.00  0.00     0.008 C 
BRANCH  13  14
ATOM     14  C   UNL     1       1.265 -21.182   3.642  1.00  0.00    -0.003 C 
ATOM     15  C   UNL     1       0.961 -19.694   3.507  1.00  0.00     0.004 C 
ENDBRANCH  13  14
ENDBRANCH   1  13
TORSDOF 4
ENDMDL
MODEL 3
REMARK VINA RESULT:    -5.057      1.296      4.417
REMARK INTER + INTRA:          -6.618
REMARK INTER:                  -6.355
REMARK INTRA:                  -0.263
REMARK UNBOUND:                -0.526
REMARK SMILES CCCCc1oc(O)c2ccccc12
REMARK SMILES IDX 4 1 5 2 7 3 6 4 9 5 14 6 10 7 13 8 11 9 12 10 8 11 3 13 2 14
REMARK SMILES IDX 1 15
REMARK H PARENT 8 12
REMARK Flexibility Score: inf
ROOT
ATOM      1  C   UNL     1       5.328 -15.146  -3.835  1.00  0.00     0.076 C 
ENDROOT
BRANCH   1   2
ATOM      2  C   UNL     1       6.165 -15.145  -5.080  1.00  0.00     0.116 A 
ATOM      3  C   UNL     1       6.659 -15.108  -7.168  1.00  0.00     0.290 A 
ATOM      4  O   UNL     1       5.663 -15.133  -6.302  1.00  0.00    -0.430 OA
ATOM      5  C   UNL     1       7.861 -15.100  -6.492  1.00  0.00     0.066 A 
ATOM      6  C   UNL     1       7.547 -15.122  -5.158  1.00  0.00     0.027 A 
ATOM      7  C   UNL     1       9.181 -15.066  -6.939  1.00  0.00     0.016 A 
ATOM      8  C   UNL     1       8.535 -15.107  -4.172  1.00  0.00     0.012 A 
ATOM      9  C   UNL     1      10.199 -15.054  -5.967  1.00  0.00     0.001 A 
ATOM     10  C   UNL     1       9.877 -15.073  -4.592  1.00  0.00     0.001 A 
BRANCH   3  11
ATOM     11  O   UNL     1       6.485 -15.091  -8.548  1.00  0.00    -0.480 OA
ATOM     12  H   UNL     1       5.727 -15.598  -8.988  1.00  0.00     0.297 HD
ENDBRANCH   3  11
ENDBRANCH   1   2
BRANCH   1  13
ATOM     13  C   UNL     1       3.886 -15.585  -4.120  1.00  0.00     0.008 C 
BRANCH  13  14
ATOM     14  C   UNL     1       2.918 -14.395  -4.187  1.00  0.00    -0.003 C 
ATOM     15  C   UNL     1       2.382 -14.201  -5.602  1.00  0.00     0.004 C 
ENDBRANCH  13  14
ENDBRANCH   1  13
TORSDOF 4
ENDMDL
MODEL 4
REMARK VINA RESULT:    -5.016      2.056      4.674
REMARK INTER + INTRA:          -6.569
REMARK INTER:                  -6.077
REMARK INTRA:                  -0.492
REMARK UNBOUND:                -0.526
REMARK SMILES CCCCc1oc(O)c2ccccc12
REMARK SMILES IDX 4 1 5 2 7 3 6 4 9 5 14 6 10 7 13 8 11 9 12 10 8 11 3 13 2 14
REMARK SMILES IDX 1 15
REMARK H PARENT 8 12
REMARK Flexibility Score: inf
ROOT
ATOM      1  C   UNL     1       6.074 -14.074  -3.944  1.00  0.00     0.076 C 
ENDROOT
BRANCH   1   2
ATOM      2  C   UNL     1       7.396 -14.528  -4.487  1.00  0.00     0.116 A 
ATOM      3  C   UNL     1       9.360 -15.393  -4.531  1.00  0.00     0.290 A 
ATOM      4  O   UNL     1       8.339 -15.089  -3.752  1.00  0.00    -0.430 OA
ATOM      5  C   UNL     1       9.077 -15.023  -5.829  1.00  0.00     0.066 A 
ATOM      6  C   UNL     1       7.823 -14.473  -5.803  1.00  0.00     0.027 A 
ATOM      7  C   UNL     1       9.810 -15.135  -7.011  1.00  0.00     0.016 A 
ATOM      8  C   UNL     1       7.207 -13.996  -6.962  1.00  0.00     0.012 A 
ATOM      9  C   UNL     1       9.215 -14.660  -8.194  1.00  0.00     0.001 A 
ATOM     10  C   UNL     1       7.921 -14.095  -8.170  1.00  0.00     0.001 A 
BRANCH   3  11
ATOM     11  O   UNL     1      10.527 -15.998  -4.078  1.00  0.00    -0.480 OA
ATOM     12  H   UNL     1      10.524 -16.605  -3.267  1.00  0.00     0.297 HD
ENDBRANCH   3  11
ENDBRANCH   1   2
BRANCH   1  13
ATOM     13  C   UNL     1       5.076 -15.234  -3.835  1.00  0.00     0.008 C 
BRANCH  13  14
ATOM     14  C   UNL     1       4.351 -15.505  -5.161  1.00  0.00    -0.003 C 
ATOM     15  C   UNL     1       3.534 -14.294  -5.599  1.00  0.00     0.004 C 
ENDBRANCH  13  14
ENDBRANCH   1  13
TORSDOF 4
ENDMDL
MODEL 5
REMARK VINA RESULT:    -5.011      1.471      4.521
REMARK INTER + INTRA:          -6.562
REMARK INTER:                  -6.326
REMARK INTRA:                  -0.237
REMARK UNBOUND:                -0.526
REMARK SMILES CCCCc1oc(O)c2ccccc12
REMARK SMILES IDX 4 1 5 2 7 3 6 4 9 5 14 6 10 7 13 8 11 9 12 10 8 11 3 13 2 14
REMARK SMILES IDX 1 15
REMARK H PARENT 8 12
REMARK Flexibility Score: inf
ROOT
ATOM      1  C   UNL     1       5.254 -12.938  -5.020  1.00  0.00     0.076 C 
ENDROOT
BRANCH   1   2
ATOM      2  C   UNL     1       6.313 -13.999  -5.079  1.00  0.00     0.116 A 
ATOM      3  C   UNL     1       7.371 -15.747  -5.734  1.00  0.00     0.290 A 
ATOM      4  O   UNL     1       6.288 -15.017  -5.920  1.00  0.00    -0.430 OA
ATOM      5  C   UNL     1       8.142 -15.187  -4.737  1.00  0.00     0.066 A 
ATOM      6  C   UNL     1       7.469 -14.069  -4.319  1.00  0.00     0.027 A 
ATOM      7  C   UNL     1       9.365 -15.562  -4.183  1.00  0.00     0.016 A 
ATOM      8  C   UNL     1       7.974 -13.241  -3.315  1.00  0.00     0.012 A 
ATOM      9  C   UNL     1       9.898 -14.748  -3.166  1.00  0.00     0.001 A 
ATOM     10  C   UNL     1       9.207 -13.594  -2.736  1.00  0.00     0.001 A 
BRANCH   3  11
ATOM     11  O   UNL     1       7.662 -16.900  -6.456  1.00  0.00    -0.480 OA
ATOM     12  H   UNL     1       6.950 -17.371  -7.001  1.00  0.00     0.297 HD
ENDBRANCH   3  11
ENDBRANCH   1   2
BRANCH   1  13
ATOM     13  C   UNL     1       4.127 -13.206  -6.026  1.00  0.00     0.008 C 
BRANCH  13  14
ATOM     14  C   UNL     1       2.799 -13.546  -5.336  1.00  0.00    -0.003 C 
ATOM     15  C   UNL     1       2.983 -13.692  -3.829  1.00  0.00     0.004 C 
ENDBRANCH  13  14
ENDBRANCH   1  13
TORSDOF 4
ENDMDL
MODEL 6
REMARK VINA RESULT:    -4.934      2.054      3.912
REMARK INTER + INTRA:          -6.470
REMARK INTER:                  -5.974
REMARK INTRA:                  -0.496
REMARK UNBOUND:                -0.526
REMARK SMILES CCCCc1oc(O)c2ccccc12
REMARK SMILES IDX 4 1 5 2 7 3 6 4 9 5 14 6 10 7 13 8 11 9 12 10 8 11 3 13 2 14
REMARK SMILES IDX 1 15
REMARK H PARENT 8 12
REMARK Flexibility Score: inf
ROOT
ATOM      1  C   UNL     1       7.967 -15.138  -4.469  1.00  0.00     0.076 C 
ENDROOT
BRANCH   1   2
ATOM      2  C   UNL     1       7.977 -14.991  -5.962  1.00  0.00     0.116 A 
ATOM      3  C   UNL     1       7.236 -14.828  -7.969  1.00  0.00     0.290 A 
ATOM      4  O   UNL     1       6.887 -15.007  -6.709  1.00  0.00    -0.430 OA
ATOM      5  C   UNL     1       8.604 -14.685  -8.056  1.00  0.00     0.066 A 
ATOM      6  C   UNL     1       9.079 -14.787  -6.775  1.00  0.00     0.027 A 
ATOM      7  C   UNL     1       9.451 -14.467  -9.142  1.00  0.00     0.016 A 
ATOM      8  C   UNL     1      10.440 -14.674  -6.487  1.00  0.00     0.012 A 
ATOM      9  C   UNL     1      10.829 -14.353  -8.882  1.00  0.00     0.001 A 
ATOM     10  C   UNL     1      11.321 -14.454  -7.561  1.00  0.00     0.001 A 
BRANCH   3  11
ATOM     11  O   UNL     1       6.331 -14.791  -9.025  1.00  0.00    -0.480 OA
ATOM     12  H   UNL     1       5.484 -14.237  -8.972  1.00  0.00     0.297 HD
ENDBRANCH   3  11
ENDBRANCH   1   2
BRANCH   1  13
ATOM     13  C   UNL     1       7.983 -13.776  -3.765  1.00  0.00     0.008 C 
BRANCH  13  14
ATOM     14  C   UNL     1       9.193 -13.615  -2.834  1.00  0.00    -0.003 C 
ATOM     15  C   UNL     1      10.026 -14.892  -2.790  1.00  0.00     0.004 C 
ENDBRANCH  13  14
ENDBRANCH   1  13
TORSDOF 4
ENDMDL
MODEL 7
REMARK VINA RESULT:    -4.919      2.590      4.078
REMARK INTER + INTRA:          -6.452
REMARK INTER:                  -5.929
REMARK INTRA:                  -0.523
REMARK UNBOUND:                -0.526
REMARK SMILES CCCCc1oc(O)c2ccccc12
REMARK SMILES IDX 4 1 5 2 7 3 6 4 9 5 14 6 10 7 13 8 11 9 12 10 8 11 3 13 2 14
REMARK SMILES IDX 1 15
REMARK H PARENT 8 12
REMARK Flexibility Score: inf
ROOT
ATOM      1  C   UNL     1      10.750 -14.740  -6.643  1.00  0.00     0.076 C 
ENDROOT
BRANCH   1   2
ATOM      2  C   UNL     1       9.938 -14.564  -5.394  1.00  0.00     0.116 A 
ATOM      3  C   UNL     1       9.466 -14.080  -3.358  1.00  0.00     0.290 A 
ATOM      4  O   UNL     1      10.441 -14.154  -4.243  1.00  0.00    -0.430 OA
ATOM      5  C   UNL     1       8.276 -14.450  -3.947  1.00  0.00     0.066 A 
ATOM      6  C   UNL     1       8.575 -14.758  -5.248  1.00  0.00     0.027 A 
ATOM      7  C   UNL     1       6.975 -14.530  -3.450  1.00  0.00     0.016 A 
ATOM      8  C   UNL     1       7.591 -15.165  -6.150  1.00  0.00     0.012 A 
ATOM      9  C   UNL     1       5.962 -14.940  -4.336  1.00  0.00     0.001 A 
ATOM     10  C   UNL     1       6.268 -15.255  -5.679  1.00  0.00     0.001 A 
BRANCH   3  11
ATOM     11  O   UNL     1       9.647 -13.681  -2.037  1.00  0.00    -0.480 OA
ATOM     12  H   UNL     1       9.825 -14.357  -1.304  1.00  0.00     0.297 HD
ENDBRANCH   3  11
ENDBRANCH   1   2
BRANCH   1  13
ATOM     13  C   UNL     1      10.753 -13.470  -7.502  1.00  0.00     0.008 C 
BRANCH  13  14
ATOM     14  C   UNL     1       9.865 -13.605  -8.747  1.00  0.00    -0.003 C 
ATOM     15  C   UNL     1       9.794 -15.054  -9.217  1.00  0.00     0.004 C 
ENDBRANCH  13  14
ENDBRANCH   1  13
TORSDOF 4
ENDMDL
MODEL 8
REMARK VINA RESULT:    -4.828     10.496     11.723
REMARK INTER + INTRA:          -6.343
REMARK INTER:                  -6.175
REMARK INTRA:                  -0.168
REMARK UNBOUND:                -0.526
REMARK SMILES CCCCc1oc(O)c2ccccc12
REMARK SMILES IDX 4 1 5 2 7 3 6 4 9 5 14 6 10 7 13 8 11 9 12 10 8 11 3 13 2 14
REMARK SMILES IDX 1 15
REMARK H PARENT 8 12
REMARK Flexibility Score: inf
ROOT
ATOM      1  C   UNL     1       1.667 -22.103   2.104  1.00  0.00     0.076 C 
ENDROOT
BRANCH   1   2
ATOM      2  C   UNL     1       1.696 -22.489   0.654  1.00  0.00     0.116 A 
ATOM      3  C   UNL     1       1.699 -22.277  -1.481  1.00  0.00     0.290 A 
ATOM      4  O   UNL     1       1.619 -21.621  -0.339  1.00  0.00    -0.430 OA
ATOM      5  C   UNL     1       1.838 -23.626  -1.232  1.00  0.00     0.066 A 
ATOM      6  C   UNL     1       1.839 -23.763   0.131  1.00  0.00     0.027 A 
ATOM      7  C   UNL     1       1.972 -24.722  -2.084  1.00  0.00     0.016 A 
ATOM      8  C   UNL     1       1.977 -25.011   0.742  1.00  0.00     0.012 A 
ATOM      9  C   UNL     1       2.110 -25.993  -1.496  1.00  0.00     0.001 A 
ATOM     10  C   UNL     1       2.114 -26.136  -0.091  1.00  0.00     0.001 A 
BRANCH   3  11
ATOM     11  O   UNL     1       1.650 -21.666  -2.730  1.00  0.00    -0.480 OA
ATOM     12  H   UNL     1       1.512 -20.667  -2.820  1.00  0.00     0.297 HD
ENDBRANCH   3  11
ENDBRANCH   1   2
BRANCH   1  13
ATOM     13  C   UNL     1       0.875 -20.810   2.331  1.00  0.00     0.008 C 
BRANCH  13  14
ATOM     14  C   UNL     1       0.913 -20.353   3.796  1.00  0.00    -0.003 C 
ATOM     15  C   UNL     1       1.161 -18.851   3.897  1.00  0.00     0.004 C 
ENDBRANCH  13  14
ENDBRANCH   1  13
TORSDOF 4
ENDMDL
