MODEL 1
REMARK VINA RESULT:    -4.383      0.000      0.000
REMARK INTER + INTRA:         -10.443
REMARK INTER:                  -7.971
REMARK INTRA:                  -2.472
REMARK UNBOUND:                -2.472
REMARK SMILES CCCCCC=CCC=CCCCCCCCC(=O)[O-]
REMARK SMILES IDX 11 1 12 2 13 3 14 4 15 5 16 6 17 7 18 8 19 9 20 10 10 11
REMARK SMILES IDX 9 12 8 13 7 14 6 15 5 16 4 17 3 18 2 19 1 20
REMARK H PARENT
REMARK Flexibility Score: inf
ROOT
ATOM      1  C   UNL     1       9.445   4.896  -3.625  1.00  0.00     0.027 C 
ENDROOT
BRANCH   1   2
ATOM      2  C   UNL     1      10.316   6.158  -3.516  1.00  0.00     0.004 C 
BRANCH   2   3
ATOM      3  C   UNL     1      10.858   6.447  -2.104  1.00  0.00     0.000 C 
BRANCH   3   4
ATOM      4  C   UNL     1      10.308   7.753  -1.509  1.00  0.00     0.000 C 
BRANCH   4   5
ATOM      5  C   UNL     1       9.946   7.625  -0.018  1.00  0.00     0.000 C 
BRANCH   5   6
ATOM      6  C   UNL     1       9.956   6.184   0.532  1.00  0.00     0.006 C 
BRANCH   6   7
ATOM      7  C   UNL     1       8.847   5.882   1.552  1.00  0.00     0.053 C 
BRANCH   7   8
ATOM      8  C   UNL     1       9.141   6.480   2.893  1.00  0.00     0.041 C 
ATOM      9  O   UNL     1      10.315   6.473   3.347  1.00  0.00    -0.550 OA
ATOM     10  O   UNL     1       8.122   7.075   3.629  1.00  0.00    -0.550 OA
ENDBRANCH   7   8
ENDBRANCH   6   7
ENDBRANCH   5   6
ENDBRANCH   4   5
ENDBRANCH   3   4
ENDBRANCH   2   3
ENDBRANCH   1   2
BRANCH   1  11
ATOM     11  C   UNL     1       8.260   4.924  -2.686  1.00  0.00    -0.031 C 
ATOM     12  C   UNL     1       7.956   3.967  -1.789  1.00  0.00    -0.027 C 
BRANCH  12  13
ATOM     13  C   UNL     1       8.728   2.687  -1.600  1.00  0.00     0.054 C 
BRANCH  13  14
ATOM     14  C   UNL     1       9.570   2.739  -0.348  1.00  0.00    -0.027 C 
ATOM     15  C   UNL     1      10.829   2.271  -0.267  1.00  0.00    -0.031 C 
BRANCH  15  16
ATOM     16  C   UNL     1      11.581   1.625  -1.405  1.00  0.00     0.027 C 
BRANCH  16  17
ATOM     17  C   UNL     1      12.095   2.650  -2.435  1.00  0.00     0.004 C 
BRANCH  17  18
ATOM     18  C   UNL     1      11.745   2.297  -3.891  1.00  0.00     0.000 C 
BRANCH  18  19
ATOM     19  C   UNL     1      11.560   0.790  -4.114  1.00  0.00    -0.003 C 
ATOM     20  C   UNL     1      11.617   0.442  -5.599  1.00  0.00     0.004 C 
ENDBRANCH  18  19
ENDBRANCH  17  18
ENDBRANCH  16  17
ENDBRANCH  15  16
ENDBRANCH  13  14
ENDBRANCH  12  13
ENDBRANCH   1  11
TORSDOF 14
ENDMDL
MODEL 2
REMARK VINA RESULT:    -4.336      1.173      3.434
REMARK INTER + INTRA:         -10.357
REMARK INTER:                  -7.781
REMARK INTRA:                  -2.576
REMARK UNBOUND:                -2.472
REMARK SMILES CCCCCC=CCC=CCCCCCCCC(=O)[O-]
REMARK SMILES IDX 11 1 12 2 13 3 14 4 15 5 16 6 17 7 18 8 19 9 20 10 10 11
REMARK SMILES IDX 9 12 8 13 7 14 6 15 5 16 4 17 3 18 2 19 1 20
REMARK H PARENT
REMARK Flexibility Score: inf
ROOT
ATOM      1  C   UNL     1      10.076   4.220  -3.535  1.00  0.00     0.027 C 
ENDROOT
BRANCH   1   2
ATOM      2  C   UNL     1      10.774   5.054  -2.447  1.00  0.00     0.004 C 
BRANCH   2   3
ATOM      3  C   UNL     1      10.682   6.578  -2.646  1.00  0.00     0.000 C 
BRANCH   3   4
ATOM      4  C   UNL     1       9.453   7.196  -1.959  1.00  0.00     0.000 C 
BRANCH   4   5
ATOM      5  C   UNL     1       9.823   8.073  -0.749  1.00  0.00     0.000 C 
BRANCH   5   6
ATOM      6  C   UNL     1       9.997   7.308   0.579  1.00  0.00     0.006 C 
BRANCH   6   7
ATOM      7  C   UNL     1       8.852   7.508   1.585  1.00  0.00     0.053 C 
BRANCH   7   8
ATOM      8  C   UNL     1       9.094   6.767   2.865  1.00  0.00     0.041 C 
ATOM      9  O   UNL     1       8.194   6.709   3.743  1.00  0.00    -0.550 OA
ATOM     10  O   UNL     1      10.303   6.113   3.073  1.00  0.00    -0.550 OA
ENDBRANCH   7   8
ENDBRANCH   6   7
ENDBRANCH   5   6
ENDBRANCH   4   5
ENDBRANCH   3   4
ENDBRANCH   2   3
ENDBRANCH   1   2
BRANCH   1  11
ATOM     11  C   UNL     1      11.056   3.515  -4.445  1.00  0.00    -0.031 C 
ATOM     12  C   UNL     1      11.496   2.252  -4.286  1.00  0.00    -0.027 C 
BRANCH  12  13
ATOM     13  C   UNL     1      11.111   1.344  -3.147  1.00  0.00     0.054 C 
BRANCH  13  14
ATOM     14  C   UNL     1      12.026   1.539  -1.962  1.00  0.00    -0.027 C 
ATOM     15  C   UNL     1      11.604   1.884  -0.733  1.00  0.00    -0.031 C 
BRANCH  15  16
ATOM     16  C   UNL     1      10.162   2.130  -0.357  1.00  0.00     0.027 C 
BRANCH  16  17
ATOM     17  C   UNL     1      10.013   3.138   0.800  1.00  0.00     0.004 C 
BRANCH  17  18
ATOM     18  C   UNL     1       8.626   3.800   0.872  1.00  0.00     0.000 C 
BRANCH  18  19
ATOM     19  C   UNL     1       8.012   4.055  -0.511  1.00  0.00    -0.003 C 
ATOM     20  C   UNL     1       6.905   5.103  -0.438  1.00  0.00     0.004 C 
ENDBRANCH  18  19
ENDBRANCH  17  18
ENDBRANCH  16  17
ENDBRANCH  15  16
ENDBRANCH  13  14
ENDBRANCH  12  13
ENDBRANCH   1  11
TORSDOF 14
ENDMDL
MODEL 3
REMARK VINA RESULT:    -4.321      3.354      6.459
REMARK INTER + INTRA:         -10.331
REMARK INTER:                  -7.211
REMARK INTRA:                  -3.120
REMARK UNBOUND:                -2.472
REMARK SMILES CCCCCC=CCC=CCCCCCCCC(=O)[O-]
REMARK SMILES IDX 11 1 12 2 13 3 14 4 15 5 16 6 17 7 18 8 19 9 20 10 10 11
REMARK SMILES IDX 9 12 8 13 7 14 6 15 5 16 4 17 3 18 2 19 1 20
REMARK H PARENT
REMARK Flexibility Score: inf
ROOT
ATOM      1  C   UNL     1       9.902   5.138   1.291  1.00  0.00     0.027 C 
ENDROOT
BRANCH   1   2
ATOM      2  C   UNL     1       8.768   4.161   0.936  1.00  0.00     0.004 C 
BRANCH   2   3
ATOM      3  C   UNL     1       9.231   2.849   0.276  1.00  0.00     0.000 C 
BRANCH   3   4
ATOM      4  C   UNL     1      10.669   2.463   0.662  1.00  0.00     0.000 C 
BRANCH   4   5
ATOM      5  C   UNL     1      11.399   1.691  -0.452  1.00  0.00     0.000 C 
BRANCH   5   6
ATOM      6  C   UNL     1      10.875   1.957  -1.879  1.00  0.00     0.006 C 
BRANCH   6   7
ATOM      7  C   UNL     1      11.959   2.353  -2.893  1.00  0.00     0.053 C 
BRANCH   7   8
ATOM      8  C   UNL     1      11.618   1.906  -4.282  1.00  0.00     0.041 C 
ATOM      9  O   UNL     1      11.583   0.680  -4.562  1.00  0.00    -0.550 OA
ATOM     10  O   UNL     1      11.308   2.845  -5.259  1.00  0.00    -0.550 OA
ENDBRANCH   7   8
ENDBRANCH   6   7
ENDBRANCH   5   6
ENDBRANCH   4   5
ENDBRANCH   3   4
ENDBRANCH   2   3
ENDBRANCH   1   2
BRANCH   1  11
ATOM     11  C   UNL     1       9.787   6.455   0.558  1.00  0.00    -0.031 C 
ATOM     12  C   UNL     1      10.179   6.675  -0.711  1.00  0.00    -0.027 C 
BRANCH  12  13
ATOM     13  C   UNL     1      10.836   5.650  -1.599  1.00  0.00     0.054 C 
BRANCH  13  14
ATOM     14  C   UNL     1      10.396   5.812  -3.034  1.00  0.00    -0.027 C 
ATOM     15  C   UNL     1       9.311   5.217  -3.562  1.00  0.00    -0.031 C 
BRANCH  15  16
ATOM     16  C   UNL     1       8.379   4.301  -2.805  1.00  0.00     0.027 C 
BRANCH  16  17
ATOM     17  C   UNL     1       7.021   4.960  -2.494  1.00  0.00     0.004 C 
BRANCH  17  18
ATOM     18  C   UNL     1       7.021   6.489  -2.659  1.00  0.00     0.000 C 
BRANCH  18  19
ATOM     19  C   UNL     1       6.215   7.209  -1.569  1.00  0.00    -0.003 C 
ATOM     20  C   UNL     1       6.154   6.379  -0.289  1.00  0.00     0.004 C 
ENDBRANCH  18  19
ENDBRANCH  17  18
ENDBRANCH  16  17
ENDBRANCH  15  16
ENDBRANCH  13  14
ENDBRANCH  12  13
ENDBRANCH   1  11
TORSDOF 14
ENDMDL
MODEL 4
REMARK VINA RESULT:    -4.273      1.352      4.755
REMARK INTER + INTRA:         -10.242
REMARK INTER:                  -7.542
REMARK INTRA:                  -2.700
REMARK UNBOUND:                -2.472
REMARK SMILES CCCCCC=CCC=CCCCCCCCC(=O)[O-]
REMARK SMILES IDX 11 1 12 2 13 3 14 4 15 5 16 6 17 7 18 8 19 9 20 10 10 11
REMARK SMILES IDX 9 12 8 13 7 14 6 15 5 16 4 17 3 18 2 19 1 20
REMARK H PARENT
REMARK Flexibility Score: inf
ROOT
ATOM      1  C   UNL     1      12.275   2.123  -1.846  1.00  0.00     0.027 C 
ENDROOT
BRANCH   1   2
ATOM      2  C   UNL     1      11.687   1.567  -0.538  1.00  0.00     0.004 C 
BRANCH   2   3
ATOM      3  C   UNL     1      10.212   1.929  -0.291  1.00  0.00     0.000 C 
BRANCH   3   4
ATOM      4  C   UNL     1      10.041   3.105   0.686  1.00  0.00     0.000 C 
BRANCH   4   5
ATOM      5  C   UNL     1       8.589   3.610   0.766  1.00  0.00     0.000 C 
BRANCH   5   6
ATOM      6  C   UNL     1       8.435   5.081   1.204  1.00  0.00     0.006 C 
BRANCH   6   7
ATOM      7  C   UNL     1       9.700   5.698   1.823  1.00  0.00     0.053 C 
BRANCH   7   8
ATOM      8  C   UNL     1       9.438   7.056   2.397  1.00  0.00     0.041 C 
ATOM      9  O   UNL     1       8.720   7.183   3.423  1.00  0.00    -0.550 OA
ATOM     10  O   UNL     1      10.013   8.180   1.815  1.00  0.00    -0.550 OA
ENDBRANCH   7   8
ENDBRANCH   6   7
ENDBRANCH   5   6
ENDBRANCH   4   5
ENDBRANCH   3   4
ENDBRANCH   2   3
ENDBRANCH   1   2
BRANCH   1  11
ATOM     11  C   UNL     1      11.758   1.400  -3.069  1.00  0.00    -0.031 C 
ATOM     12  C   UNL     1      11.232   1.993  -4.159  1.00  0.00    -0.027 C 
BRANCH  12  13
ATOM     13  C   UNL     1      11.037   3.479  -4.320  1.00  0.00     0.054 C 
BRANCH  13  14
ATOM     14  C   UNL     1       9.776   3.940  -3.631  1.00  0.00    -0.027 C 
ATOM     15  C   UNL     1       9.753   4.812  -2.607  1.00  0.00    -0.031 C 
BRANCH  15  16
ATOM     16  C   UNL     1      10.976   5.454  -1.996  1.00  0.00     0.027 C 
BRANCH  16  17
ATOM     17  C   UNL     1      10.699   6.872  -1.460  1.00  0.00     0.004 C 
BRANCH  17  18
ATOM     18  C   UNL     1      10.221   7.860  -2.537  1.00  0.00     0.000 C 
BRANCH  18  19
ATOM     19  C   UNL     1       9.046   8.731  -2.072  1.00  0.00    -0.003 C 
ATOM     20  C   UNL     1       8.024   7.908  -1.293  1.00  0.00     0.004 C 
ENDBRANCH  18  19
ENDBRANCH  17  18
ENDBRANCH  16  17
ENDBRANCH  15  16
ENDBRANCH  13  14
ENDBRANCH  12  13
ENDBRANCH   1  11
TORSDOF 14
ENDMDL
MODEL 5
REMARK VINA RESULT:    -4.248      1.815      3.551
REMARK INTER + INTRA:         -10.197
REMARK INTER:                  -8.264
REMARK INTRA:                  -1.933
REMARK UNBOUND:                -2.472
REMARK SMILES CCCCCC=CCC=CCCCCCCCC(=O)[O-]
REMARK SMILES IDX 11 1 12 2 13 3 14 4 15 5 16 6 17 7 18 8 19 9 20 10 10 11
REMARK SMILES IDX 9 12 8 13 7 14 6 15 5 16 4 17 3 18 2 19 1 20
REMARK H PARENT
REMARK Flexibility Score: inf
ROOT
ATOM      1  C   UNL     1       9.541   3.880  -0.181  1.00  0.00     0.027 C 
ENDROOT
BRANCH   1   2
ATOM      2  C   UNL     1       8.204   4.295   0.456  1.00  0.00     0.004 C 
BRANCH   2   3
ATOM      3  C   UNL     1       7.259   5.071  -0.480  1.00  0.00     0.000 C 
BRANCH   3   4
ATOM      4  C   UNL     1       7.104   6.549  -0.081  1.00  0.00     0.000 C 
BRANCH   4   5
ATOM      5  C   UNL     1       6.504   6.728   1.325  1.00  0.00     0.000 C 
BRANCH   5   6
ATOM      6  C   UNL     1       7.386   7.522   2.312  1.00  0.00     0.006 C 
BRANCH   6   7
ATOM      7  C   UNL     1       8.338   6.659   3.154  1.00  0.00     0.053 C 
BRANCH   7   8
ATOM      8  C   UNL     1       9.763   6.807   2.718  1.00  0.00     0.041 C 
ATOM      9  O   UNL     1      10.038   7.401   1.643  1.00  0.00    -0.550 OA
ATOM     10  O   UNL     1      10.790   6.315   3.516  1.00  0.00    -0.550 OA
ENDBRANCH   7   8
ENDBRANCH   6   7
ENDBRANCH   5   6
ENDBRANCH   4   5
ENDBRANCH   3   4
ENDBRANCH   2   3
ENDBRANCH   1   2
BRANCH   1  11
ATOM     11  C   UNL     1      10.216   5.019  -0.910  1.00  0.00    -0.031 C 
ATOM     12  C   UNL     1      10.287   5.153  -2.249  1.00  0.00    -0.027 C 
BRANCH  12  13
ATOM     13  C   UNL     1       9.735   4.164  -3.243  1.00  0.00     0.054 C 
BRANCH  13  14
ATOM     14  C   UNL     1      10.827   3.614  -4.127  1.00  0.00    -0.027 C 
ATOM     15  C   UNL     1      11.502   2.479  -3.874  1.00  0.00    -0.031 C 
BRANCH  15  16
ATOM     16  C   UNL     1      11.273   1.593  -2.672  1.00  0.00     0.027 C 
BRANCH  16  17
ATOM     17  C   UNL     1      12.269   1.871  -1.530  1.00  0.00     0.004 C 
BRANCH  17  18
ATOM     18  C   UNL     1      11.962   1.097  -0.236  1.00  0.00     0.000 C 
BRANCH  18  19
ATOM     19  C   UNL     1      13.055   0.083   0.128  1.00  0.00    -0.003 C 
ATOM     20  C   UNL     1      12.950  -0.339   1.591  1.00  0.00     0.004 C 
ENDBRANCH  18  19
ENDBRANCH  17  18
ENDBRANCH  16  17
ENDBRANCH  15  16
ENDBRANCH  13  14
ENDBRANCH  12  13
ENDBRANCH   1  11
TORSDOF 14
ENDMDL
MODEL 6
REMARK VINA RESULT:    -4.236      1.316      3.887
REMARK INTER + INTRA:         -10.175
REMARK INTER:                  -8.389
REMARK INTRA:                  -1.786
REMARK UNBOUND:                -2.472
REMARK SMILES CCCCCC=CCC=CCCCCCCCC(=O)[O-]
REMARK SMILES IDX 11 1 12 2 13 3 14 4 15 5 16 6 17 7 18 8 19 9 20 10 10 11
REMARK SMILES IDX 9 12 8 13 7 14 6 15 5 16 4 17 3 18 2 19 1 20
REMARK H PARENT
REMARK Flexibility Score: inf
ROOT
ATOM      1  C   UNL     1      10.123   2.200  -0.439  1.00  0.00     0.027 C 
ENDROOT
BRANCH   1   2
ATOM      2  C   UNL     1       9.923   3.075   0.809  1.00  0.00     0.004 C 
BRANCH   2   3
ATOM      3  C   UNL     1       8.578   3.823   0.863  1.00  0.00     0.000 C 
BRANCH   3   4
ATOM      4  C   UNL     1       8.526   5.027  -0.093  1.00  0.00     0.000 C 
BRANCH   4   5
ATOM      5  C   UNL     1       9.739   5.962   0.058  1.00  0.00     0.000 C 
BRANCH   5   6
ATOM      6  C   UNL     1       9.397   7.413   0.454  1.00  0.00     0.006 C 
BRANCH   6   7
ATOM      7  C   UNL     1       9.915   7.837   1.837  1.00  0.00     0.053 C 
BRANCH   7   8
ATOM      8  C   UNL     1       9.696   6.773   2.868  1.00  0.00     0.041 C 
ATOM      9  O   UNL     1      10.672   6.124   3.327  1.00  0.00    -0.550 OA
ATOM     10  O   UNL     1       8.415   6.519   3.346  1.00  0.00    -0.550 OA
ENDBRANCH   7   8
ENDBRANCH   6   7
ENDBRANCH   5   6
ENDBRANCH   4   5
ENDBRANCH   3   4
ENDBRANCH   2   3
ENDBRANCH   1   2
BRANCH   1  11
ATOM     11  C   UNL     1      11.526   1.649  -0.545  1.00  0.00    -0.031 C 
ATOM     12  C   UNL     1      12.311   1.723  -1.637  1.00  0.00    -0.027 C 
BRANCH  12  13
ATOM     13  C   UNL     1      11.902   2.336  -2.951  1.00  0.00     0.054 C 
BRANCH  13  14
ATOM     14  C   UNL     1      11.527   1.273  -3.954  1.00  0.00    -0.027 C 
ATOM     15  C   UNL     1      11.381   1.498  -5.272  1.00  0.00    -0.031 C 
BRANCH  15  16
ATOM     16  C   UNL     1      11.565   2.840  -5.940  1.00  0.00     0.027 C 
BRANCH  16  17
ATOM     17  C   UNL     1      10.323   3.743  -5.813  1.00  0.00     0.004 C 
BRANCH  17  18
ATOM     18  C   UNL     1      10.616   5.115  -5.180  1.00  0.00     0.000 C 
BRANCH  18  19
ATOM     19  C   UNL     1      10.039   5.257  -3.765  1.00  0.00    -0.003 C 
ATOM     20  C   UNL     1       8.537   4.989  -3.752  1.00  0.00     0.004 C 
ENDBRANCH  18  19
ENDBRANCH  17  18
ENDBRANCH  16  17
ENDBRANCH  15  16
ENDBRANCH  13  14
ENDBRANCH  12  13
ENDBRANCH   1  11
TORSDOF 14
ENDMDL
MODEL 7
REMARK VINA RESULT:    -4.210      3.268      6.484
REMARK INTER + INTRA:         -10.128
REMARK INTER:                  -7.463
REMARK INTRA:                  -2.666
REMARK UNBOUND:                -2.472
REMARK SMILES CCCCCC=CCC=CCCCCCCCC(=O)[O-]
REMARK SMILES IDX 11 1 12 2 13 3 14 4 15 5 16 6 17 7 18 8 19 9 20 10 10 11
REMARK SMILES IDX 9 12 8 13 7 14 6 15 5 16 4 17 3 18 2 19 1 20
REMARK H PARENT
REMARK Flexibility Score: inf
ROOT
ATOM      1  C   UNL     1       7.710   4.879  -2.979  1.00  0.00     0.027 C 
ENDROOT
BRANCH   1   2
ATOM      2  C   UNL     1       7.846   4.089  -1.667  1.00  0.00     0.004 C 
BRANCH   2   3
ATOM      3  C   UNL     1       8.814   2.893  -1.733  1.00  0.00     0.000 C 
BRANCH   3   4
ATOM      4  C   UNL     1      10.012   3.042  -0.782  1.00  0.00     0.000 C 
BRANCH   4   5
ATOM      5  C   UNL     1      10.845   1.752  -0.662  1.00  0.00     0.000 C 
BRANCH   5   6
ATOM      6  C   UNL     1      12.065   1.677  -1.604  1.00  0.00     0.006 C 
BRANCH   6   7
ATOM      7  C   UNL     1      12.013   2.646  -2.795  1.00  0.00     0.053 C 
BRANCH   7   8
ATOM      8  C   UNL     1      11.581   1.964  -4.056  1.00  0.00     0.041 C 
ATOM      9  O   UNL     1      11.570   2.594  -5.145  1.00  0.00    -0.550 OA
ATOM     10  O   UNL     1      11.222   0.621  -4.033  1.00  0.00    -0.550 OA
ENDBRANCH   7   8
ENDBRANCH   6   7
ENDBRANCH   5   6
ENDBRANCH   4   5
ENDBRANCH   3   4
ENDBRANCH   2   3
ENDBRANCH   1   2
BRANCH   1  11
ATOM     11  C   UNL     1       8.876   4.659  -3.915  1.00  0.00    -0.031 C 
ATOM     12  C   UNL     1       9.960   5.453  -4.007  1.00  0.00    -0.027 C 
BRANCH  12  13
ATOM     13  C   UNL     1      10.170   6.718  -3.216  1.00  0.00     0.054 C 
BRANCH  13  14
ATOM     14  C   UNL     1      10.976   6.452  -1.968  1.00  0.00    -0.027 C 
ATOM     15  C   UNL     1      10.514   6.638  -0.718  1.00  0.00    -0.031 C 
BRANCH  15  16
ATOM     16  C   UNL     1       9.130   7.140  -0.379  1.00  0.00     0.027 C 
BRANCH  16  17
ATOM     17  C   UNL     1       8.678   6.727   1.035  1.00  0.00     0.004 C 
BRANCH  17  18
ATOM     18  C   UNL     1       9.565   5.650   1.681  1.00  0.00     0.000 C 
BRANCH  18  19
ATOM     19  C   UNL     1      10.371   6.175   2.877  1.00  0.00    -0.003 C 
ATOM     20  C   UNL     1      10.114   7.662   3.105  1.00  0.00     0.004 C 
ENDBRANCH  18  19
ENDBRANCH  17  18
ENDBRANCH  16  17
ENDBRANCH  15  16
ENDBRANCH  13  14
ENDBRANCH  12  13
ENDBRANCH   1  11
TORSDOF 14
ENDMDL
MODEL 8
REMARK VINA RESULT:    -4.198      3.367      6.658
REMARK INTER + INTRA:         -10.106
REMARK INTER:                  -7.887
REMARK INTRA:                  -2.219
REMARK UNBOUND:                -2.472
REMARK SMILES CCCCCC=CCC=CCCCCCCCC(=O)[O-]
REMARK SMILES IDX 11 1 12 2 13 3 14 4 15 5 16 6 17 7 18 8 19 9 20 10 10 11
REMARK SMILES IDX 9 12 8 13 7 14 6 15 5 16 4 17 3 18 2 19 1 20
REMARK H PARENT
REMARK Flexibility Score: inf
ROOT
ATOM      1  C   UNL     1       9.490   5.376   1.551  1.00  0.00     0.027 C 
ENDROOT
BRANCH   1   2
ATOM      2  C   UNL     1      10.011   3.954   1.282  1.00  0.00     0.004 C 
BRANCH   2   3
ATOM      3  C   UNL     1       9.057   3.062   0.467  1.00  0.00     0.000 C 
BRANCH   3   4
ATOM      4  C   UNL     1       9.763   2.329  -0.686  1.00  0.00     0.000 C 
BRANCH   4   5
ATOM      5  C   UNL     1      11.213   1.938  -0.346  1.00  0.00     0.000 C 
BRANCH   5   6
ATOM      6  C   UNL     1      12.120   1.681  -1.566  1.00  0.00     0.006 C 
BRANCH   6   7
ATOM      7  C   UNL     1      11.940   2.682  -2.718  1.00  0.00     0.053 C 
BRANCH   7   8
ATOM      8  C   UNL     1      11.539   2.005  -3.993  1.00  0.00     0.041 C 
ATOM      9  O   UNL     1      11.491   2.656  -5.068  1.00  0.00    -0.550 OA
ATOM     10  O   UNL     1      11.248   0.645  -3.997  1.00  0.00    -0.550 OA
ENDBRANCH   7   8
ENDBRANCH   6   7
ENDBRANCH   5   6
ENDBRANCH   4   5
ENDBRANCH   3   4
ENDBRANCH   2   3
ENDBRANCH   1   2
BRANCH   1  11
ATOM     11  C   UNL     1      10.309   6.108   2.590  1.00  0.00    -0.031 C 
ATOM     12  C   UNL     1      10.191   7.415   2.893  1.00  0.00    -0.027 C 
BRANCH  12  13
ATOM     13  C   UNL     1       9.247   8.374   2.215  1.00  0.00     0.054 C 
BRANCH  13  14
ATOM     14  C   UNL     1       9.905   9.042   1.032  1.00  0.00    -0.027 C 
ATOM     15  C   UNL     1       9.399   9.036  -0.214  1.00  0.00    -0.031 C 
BRANCH  15  16
ATOM     16  C   UNL     1       8.109   8.362  -0.615  1.00  0.00     0.027 C 
BRANCH  16  17
ATOM     17  C   UNL     1       8.316   6.903  -1.069  1.00  0.00     0.004 C 
BRANCH  17  18
ATOM     18  C   UNL     1       8.765   6.767  -2.534  1.00  0.00     0.000 C 
BRANCH  18  19
ATOM     19  C   UNL     1       9.951   5.809  -2.709  1.00  0.00    -0.003 C 
ATOM     20  C   UNL     1      11.049   6.097  -1.688  1.00  0.00     0.004 C 
ENDBRANCH  18  19
ENDBRANCH  17  18
ENDBRANCH  16  17
ENDBRANCH  15  16
ENDBRANCH  13  14
ENDBRANCH  12  13
ENDBRANCH   1  11
TORSDOF 14
ENDMDL
MODEL 9
REMARK VINA RESULT:    -4.176      1.874      3.194
REMARK INTER + INTRA:         -10.067
REMARK INTER:                  -7.344
REMARK INTRA:                  -2.723
REMARK UNBOUND:                -2.472
REMARK SMILES CCCCCC=CCC=CCCCCCCCC(=O)[O-]
REMARK SMILES IDX 11 1 12 2 13 3 14 4 15 5 16 6 17 7 18 8 19 9 20 10 10 11
REMARK SMILES IDX 9 12 8 13 7 14 6 15 5 16 4 17 3 18 2 19 1 20
REMARK H PARENT
REMARK Flexibility Score: inf
ROOT
ATOM      1  C   UNL     1      10.651   5.776  -0.875  1.00  0.00     0.027 C 
ENDROOT
BRANCH   1   2
ATOM      2  C   UNL     1      10.323   6.887  -1.887  1.00  0.00     0.004 C 
BRANCH   2   3
ATOM      3  C   UNL     1       9.743   6.390  -3.223  1.00  0.00     0.000 C 
BRANCH   3   4
ATOM      4  C   UNL     1       9.374   4.897  -3.196  1.00  0.00     0.000 C 
BRANCH   4   5
ATOM      5  C   UNL     1       7.864   4.651  -3.370  1.00  0.00     0.000 C 
BRANCH   5   6
ATOM      6  C   UNL     1       7.146   4.103  -2.119  1.00  0.00     0.006 C 
BRANCH   6   7
ATOM      7  C   UNL     1       5.904   4.902  -1.695  1.00  0.00     0.053 C 
BRANCH   7   8
ATOM      8  C   UNL     1       6.249   6.022  -0.762  1.00  0.00     0.041 C 
ATOM      9  O   UNL     1       6.659   7.122  -1.216  1.00  0.00    -0.550 OA
ATOM     10  O   UNL     1       6.086   5.861   0.610  1.00  0.00    -0.550 OA
ENDBRANCH   7   8
ENDBRANCH   6   7
ENDBRANCH   5   6
ENDBRANCH   4   5
ENDBRANCH   3   4
ENDBRANCH   2   3
ENDBRANCH   1   2
BRANCH   1  11
ATOM     11  C   UNL     1       9.630   5.681   0.236  1.00  0.00    -0.031 C 
ATOM     12  C   UNL     1       9.423   4.599   1.011  1.00  0.00    -0.027 C 
BRANCH  12  13
ATOM     13  C   UNL     1      10.152   3.288   0.872  1.00  0.00     0.054 C 
BRANCH  13  14
ATOM     14  C   UNL     1       9.507   2.415  -0.178  1.00  0.00    -0.027 C 
ATOM     15  C   UNL     1      10.165   1.883  -1.224  1.00  0.00    -0.031 C 
BRANCH  15  16
ATOM     16  C   UNL     1      11.636   2.081  -1.505  1.00  0.00     0.027 C 
BRANCH  16  17
ATOM     17  C   UNL     1      11.936   2.253  -3.007  1.00  0.00     0.004 C 
BRANCH  17  18
ATOM     18  C   UNL     1      11.470   1.070  -3.873  1.00  0.00     0.000 C 
BRANCH  18  19
ATOM     19  C   UNL     1      11.559   1.358  -5.377  1.00  0.00    -0.003 C 
ATOM     20  C   UNL     1      11.255   2.823  -5.677  1.00  0.00     0.004 C 
ENDBRANCH  18  19
ENDBRANCH  17  18
ENDBRANCH  16  17
ENDBRANCH  15  16
ENDBRANCH  13  14
ENDBRANCH  12  13
ENDBRANCH   1  11
TORSDOF 14
ENDMDL
