MODEL 1
REMARK VINA RESULT:    -4.470      0.000      0.000
REMARK INTER + INTRA:         -10.100
REMARK INTER:                  -8.129
REMARK INTRA:                  -1.971
REMARK UNBOUND:                -1.971
REMARK SMILES CCCCCCCCCCCCCCCC(=O)[O-]
REMARK SMILES IDX 9 1 10 2 11 3 12 4 13 5 14 6 15 7 16 8 17 9 18 10 8 11 7 12
REMARK SMILES IDX 6 13 5 14 4 15 3 16 2 17 1 18
REMARK H PARENT
REMARK Flexibility Score: inf
ROOT
ATOM      1  C   UNL     1     115.658 120.134 134.224  1.00  0.00     0.000 C 
ENDROOT
BRANCH   1   2
ATOM      2  C   UNL     1     116.764 121.163 133.936  1.00  0.00     0.000 C 
BRANCH   2   3
ATOM      3  C   UNL     1     117.183 121.181 132.455  1.00  0.00     0.000 C 
BRANCH   3   4
ATOM      4  C   UNL     1     117.176 122.598 131.858  1.00  0.00     0.000 C 
BRANCH   4   5
ATOM      5  C   UNL     1     115.794 123.270 131.941  1.00  0.00     0.000 C 
BRANCH   5   6
ATOM      6  C   UNL     1     115.711 124.554 131.101  1.00  0.00     0.006 C 
BRANCH   6   7
ATOM      7  C   UNL     1     117.059 125.277 130.995  1.00  0.00     0.053 C 
BRANCH   7   8
ATOM      8  C   UNL     1     116.876 126.752 131.173  1.00  0.00     0.041 C 
ATOM      9  O   UNL     1     116.621 127.225 132.311  1.00  0.00    -0.550 OA
ATOM     10  O   UNL     1     117.037 127.608 130.091  1.00  0.00    -0.550 OA
ENDBRANCH   7   8
ENDBRANCH   6   7
ENDBRANCH   5   6
ENDBRANCH   4   5
ENDBRANCH   3   4
ENDBRANCH   2   3
ENDBRANCH   1   2
BRANCH   1  11
ATOM     11  C   UNL     1     114.247 120.697 133.994  1.00  0.00     0.000 C 
BRANCH  11  12
ATOM     12  C   UNL     1     113.562 119.991 132.814  1.00  0.00    -0.000 C 
BRANCH  12  13
ATOM     13  C   UNL     1     113.676 120.782 131.500  1.00  0.00    -0.000 C 
BRANCH  13  14
ATOM     14  C   UNL     1     114.374 119.983 130.388  1.00  0.00    -0.000 C 
BRANCH  14  15
ATOM     15  C   UNL     1     114.081 120.536 128.984  1.00  0.00    -0.000 C 
BRANCH  15  16
ATOM     16  C   UNL     1     114.881 121.811 128.639  1.00  0.00    -0.000 C 
BRANCH  16  17
ATOM     17  C   UNL     1     113.994 122.903 128.024  1.00  0.00    -0.003 C 
ATOM     18  C   UNL     1     112.925 123.366 129.009  1.00  0.00     0.004 C 
ENDBRANCH  16  17
ENDBRANCH  15  16
ENDBRANCH  14  15
ENDBRANCH  13  14
ENDBRANCH  12  13
ENDBRANCH  11  12
ENDBRANCH   1  11
TORSDOF 14
ENDMDL
MODEL 2
REMARK VINA RESULT:    -4.446      2.129      2.970
REMARK INTER + INTRA:         -10.056
REMARK INTER:                  -7.757
REMARK INTRA:                  -2.299
REMARK UNBOUND:                -1.971
REMARK SMILES CCCCCCCCCCCCCCCC(=O)[O-]
REMARK SMILES IDX 9 1 10 2 11 3 12 4 13 5 14 6 15 7 16 8 17 9 18 10 8 11 7 12
REMARK SMILES IDX 6 13 5 14 4 15 3 16 2 17 1 18
REMARK H PARENT
REMARK Flexibility Score: inf
ROOT
ATOM      1  C   UNL     1     115.728 119.998 134.464  1.00  0.00     0.000 C 
ENDROOT
BRANCH   1   2
ATOM      2  C   UNL     1     116.947 120.816 134.005  1.00  0.00     0.000 C 
BRANCH   2   3
ATOM      3  C   UNL     1     117.603 120.239 132.739  1.00  0.00     0.000 C 
BRANCH   3   4
ATOM      4  C   UNL     1     117.577 121.225 131.560  1.00  0.00     0.000 C 
BRANCH   4   5
ATOM      5  C   UNL     1     116.941 122.576 131.931  1.00  0.00     0.000 C 
BRANCH   5   6
ATOM      6  C   UNL     1     116.831 123.526 130.728  1.00  0.00     0.006 C 
BRANCH   6   7
ATOM      7  C   UNL     1     116.904 122.789 129.386  1.00  0.00     0.053 C 
BRANCH   7   8
ATOM      8  C   UNL     1     116.212 123.576 128.318  1.00  0.00     0.041 C 
ATOM      9  O   UNL     1     115.024 123.306 128.000  1.00  0.00    -0.550 OA
ATOM     10  O   UNL     1     116.862 124.642 127.709  1.00  0.00    -0.550 OA
ENDBRANCH   7   8
ENDBRANCH   6   7
ENDBRANCH   5   6
ENDBRANCH   4   5
ENDBRANCH   3   4
ENDBRANCH   2   3
ENDBRANCH   1   2
BRANCH   1  11
ATOM     11  C   UNL     1     114.397 120.721 134.206  1.00  0.00     0.000 C 
BRANCH  11  12
ATOM     12  C   UNL     1     113.806 120.310 132.849  1.00  0.00    -0.000 C 
BRANCH  12  13
ATOM     13  C   UNL     1     113.439 121.517 131.969  1.00  0.00    -0.000 C 
BRANCH  13  14
ATOM     14  C   UNL     1     113.771 121.289 130.486  1.00  0.00    -0.000 C 
BRANCH  14  15
ATOM     15  C   UNL     1     114.466 119.941 130.231  1.00  0.00    -0.000 C 
BRANCH  15  16
ATOM     16  C   UNL     1     114.504 119.534 128.742  1.00  0.00    -0.000 C 
BRANCH  16  17
ATOM     17  C   UNL     1     115.905 119.088 128.300  1.00  0.00    -0.003 C 
ATOM     18  C   UNL     1     116.028 117.567 128.307  1.00  0.00     0.004 C 
ENDBRANCH  16  17
ENDBRANCH  15  16
ENDBRANCH  14  15
ENDBRANCH  13  14
ENDBRANCH  12  13
ENDBRANCH  11  12
ENDBRANCH   1  11
TORSDOF 14
ENDMDL
MODEL 3
REMARK VINA RESULT:    -4.442      2.866      5.195
REMARK INTER + INTRA:         -10.049
REMARK INTER:                  -7.563
REMARK INTRA:                  -2.487
REMARK UNBOUND:                -1.971
REMARK SMILES CCCCCCCCCCCCCCCC(=O)[O-]
REMARK SMILES IDX 9 1 10 2 11 3 12 4 13 5 14 6 15 7 16 8 17 9 18 10 8 11 7 12
REMARK SMILES IDX 6 13 5 14 4 15 3 16 2 17 1 18
REMARK H PARENT
REMARK Flexibility Score: inf
ROOT
ATOM      1  C   UNL     1     113.316 122.905 130.038  1.00  0.00     0.000 C 
ENDROOT
BRANCH   1   2
ATOM      2  C   UNL     1     113.882 123.495 131.340  1.00  0.00     0.000 C 
BRANCH   2   3
ATOM      3  C   UNL     1     114.359 122.411 132.322  1.00  0.00     0.000 C 
BRANCH   3   4
ATOM      4  C   UNL     1     113.601 121.085 132.149  1.00  0.00     0.000 C 
BRANCH   4   5
ATOM      5  C   UNL     1     114.069 120.000 133.135  1.00  0.00     0.000 C 
BRANCH   5   6
ATOM      6  C   UNL     1     114.893 120.576 134.297  1.00  0.00     0.006 C 
BRANCH   6   7
ATOM      7  C   UNL     1     115.980 119.610 134.785  1.00  0.00     0.053 C 
BRANCH   7   8
ATOM      8  C   UNL     1     117.316 120.007 134.239  1.00  0.00     0.041 C 
ATOM      9  O   UNL     1     118.326 119.286 134.450  1.00  0.00    -0.550 OA
ATOM     10  O   UNL     1     117.434 121.148 133.454  1.00  0.00    -0.550 OA
ENDBRANCH   7   8
ENDBRANCH   6   7
ENDBRANCH   5   6
ENDBRANCH   4   5
ENDBRANCH   3   4
ENDBRANCH   2   3
ENDBRANCH   1   2
BRANCH   1  11
ATOM     11  C   UNL     1     113.815 123.640 128.785  1.00  0.00     0.000 C 
BRANCH  11  12
ATOM     12  C   UNL     1     115.294 124.031 128.934  1.00  0.00    -0.000 C 
BRANCH  12  13
ATOM     13  C   UNL     1     116.252 122.920 128.477  1.00  0.00    -0.000 C 
BRANCH  13  14
ATOM     14  C   UNL     1     117.061 122.323 129.640  1.00  0.00    -0.000 C 
BRANCH  14  15
ATOM     15  C   UNL     1     116.631 120.889 129.991  1.00  0.00    -0.000 C 
BRANCH  15  16
ATOM     16  C   UNL     1     116.151 120.069 128.773  1.00  0.00    -0.000 C 
BRANCH  16  17
ATOM     17  C   UNL     1     114.687 119.630 128.912  1.00  0.00    -0.003 C 
ATOM     18  C   UNL     1     113.863 120.068 127.705  1.00  0.00     0.004 C 
ENDBRANCH  16  17
ENDBRANCH  15  16
ENDBRANCH  14  15
ENDBRANCH  13  14
ENDBRANCH  12  13
ENDBRANCH  11  12
ENDBRANCH   1  11
TORSDOF 14
ENDMDL
MODEL 4
REMARK VINA RESULT:    -4.435      2.840      5.129
REMARK INTER + INTRA:         -10.036
REMARK INTER:                  -7.599
REMARK INTRA:                  -2.437
REMARK UNBOUND:                -1.971
REMARK SMILES CCCCCCCCCCCCCCCC(=O)[O-]
REMARK SMILES IDX 9 1 10 2 11 3 12 4 13 5 14 6 15 7 16 8 17 9 18 10 8 11 7 12
REMARK SMILES IDX 6 13 5 14 4 15 3 16 2 17 1 18
REMARK H PARENT
REMARK Flexibility Score: inf
ROOT
ATOM      1  C   UNL     1     113.148 123.122 129.800  1.00  0.00     0.000 C 
ENDROOT
BRANCH   1   2
ATOM      2  C   UNL     1     114.496 123.130 130.540  1.00  0.00     0.000 C 
BRANCH   2   3
ATOM      3  C   UNL     1     114.420 122.441 131.913  1.00  0.00     0.000 C 
BRANCH   3   4
ATOM      4  C   UNL     1     113.488 121.218 131.908  1.00  0.00     0.000 C 
BRANCH   4   5
ATOM      5  C   UNL     1     113.975 120.096 132.842  1.00  0.00     0.000 C 
BRANCH   5   6
ATOM      6  C   UNL     1     114.556 120.636 134.158  1.00  0.00     0.006 C 
BRANCH   6   7
ATOM      7  C   UNL     1     115.688 119.758 134.706  1.00  0.00     0.053 C 
BRANCH   7   8
ATOM      8  C   UNL     1     116.978 120.518 134.721  1.00  0.00     0.041 C 
ATOM      9  O   UNL     1     117.777 120.390 135.685  1.00  0.00    -0.550 OA
ATOM     10  O   UNL     1     117.319 121.329 133.646  1.00  0.00    -0.550 OA
ENDBRANCH   7   8
ENDBRANCH   6   7
ENDBRANCH   5   6
ENDBRANCH   4   5
ENDBRANCH   3   4
ENDBRANCH   2   3
ENDBRANCH   1   2
BRANCH   1  11
ATOM     11  C   UNL     1     113.309 123.078 128.273  1.00  0.00     0.000 C 
BRANCH  11  12
ATOM     12  C   UNL     1     114.339 122.015 127.861  1.00  0.00    -0.000 C 
BRANCH  12  13
ATOM     13  C   UNL     1     113.765 120.589 127.889  1.00  0.00    -0.000 C 
BRANCH  13  14
ATOM     14  C   UNL     1     114.554 119.652 128.818  1.00  0.00    -0.000 C 
BRANCH  14  15
ATOM     15  C   UNL     1     116.067 119.929 128.797  1.00  0.00    -0.000 C 
BRANCH  15  16
ATOM     16  C   UNL     1     116.672 120.174 130.196  1.00  0.00    -0.000 C 
BRANCH  16  17
ATOM     17  C   UNL     1     117.846 121.163 130.154  1.00  0.00    -0.003 C 
ATOM     18  C   UNL     1     117.710 122.131 128.982  1.00  0.00     0.004 C 
ENDBRANCH  16  17
ENDBRANCH  15  16
ENDBRANCH  14  15
ENDBRANCH  13  14
ENDBRANCH  12  13
ENDBRANCH  11  12
ENDBRANCH   1  11
TORSDOF 14
ENDMDL
MODEL 5
REMARK VINA RESULT:    -4.435      1.392      4.095
REMARK INTER + INTRA:         -10.036
REMARK INTER:                  -7.328
REMARK INTRA:                  -2.708
REMARK UNBOUND:                -1.971
REMARK SMILES CCCCCCCCCCCCCCCC(=O)[O-]
REMARK SMILES IDX 9 1 10 2 11 3 12 4 13 5 14 6 15 7 16 8 17 9 18 10 8 11 7 12
REMARK SMILES IDX 6 13 5 14 4 15 3 16 2 17 1 18
REMARK H PARENT
REMARK Flexibility Score: inf
ROOT
ATOM      1  C   UNL     1     114.172 120.059 128.506  1.00  0.00     0.000 C 
ENDROOT
BRANCH   1   2
ATOM      2  C   UNL     1     114.051 121.590 128.422  1.00  0.00     0.000 C 
BRANCH   2   3
ATOM      3  C   UNL     1     113.466 122.208 129.704  1.00  0.00     0.000 C 
BRANCH   3   4
ATOM      4  C   UNL     1     114.244 123.451 130.167  1.00  0.00     0.000 C 
BRANCH   4   5
ATOM      5  C   UNL     1     115.396 123.819 129.215  1.00  0.00     0.000 C 
BRANCH   5   6
ATOM      6  C   UNL     1     116.470 124.682 129.895  1.00  0.00     0.006 C 
BRANCH   6   7
ATOM      7  C   UNL     1     115.964 125.349 131.180  1.00  0.00     0.053 C 
BRANCH   7   8
ATOM      8  C   UNL     1     116.687 126.638 131.419  1.00  0.00     0.041 C 
ATOM      9  O   UNL     1     117.642 126.976 130.672  1.00  0.00    -0.550 OA
ATOM     10  O   UNL     1     116.272 127.488 132.436  1.00  0.00    -0.550 OA
ENDBRANCH   7   8
ENDBRANCH   6   7
ENDBRANCH   5   6
ENDBRANCH   4   5
ENDBRANCH   3   4
ENDBRANCH   2   3
ENDBRANCH   1   2
BRANCH   1  11
ATOM     11  C   UNL     1     115.273 119.602 129.475  1.00  0.00     0.000 C 
BRANCH  11  12
ATOM     12  C   UNL     1     116.658 120.042 128.975  1.00  0.00    -0.000 C 
BRANCH  12  13
ATOM     13  C   UNL     1     117.401 120.929 129.987  1.00  0.00    -0.000 C 
BRANCH  13  14
ATOM     14  C   UNL     1     117.095 120.547 131.444  1.00  0.00    -0.000 C 
BRANCH  14  15
ATOM     15  C   UNL     1     116.851 121.771 132.342  1.00  0.00    -0.000 C 
BRANCH  15  16
ATOM     16  C   UNL     1     115.480 121.757 133.051  1.00  0.00    -0.000 C 
BRANCH  16  17
ATOM     17  C   UNL     1     114.988 120.330 133.334  1.00  0.00    -0.003 C 
ATOM     18  C   UNL     1     113.607 120.093 132.732  1.00  0.00     0.004 C 
ENDBRANCH  16  17
ENDBRANCH  15  16
ENDBRANCH  14  15
ENDBRANCH  13  14
ENDBRANCH  12  13
ENDBRANCH  11  12
ENDBRANCH   1  11
TORSDOF 14
ENDMDL
MODEL 6
REMARK VINA RESULT:    -4.413      3.178      5.253
REMARK INTER + INTRA:          -9.996
REMARK INTER:                  -7.709
REMARK INTRA:                  -2.287
REMARK UNBOUND:                -1.971
REMARK SMILES CCCCCCCCCCCCCCCC(=O)[O-]
REMARK SMILES IDX 9 1 10 2 11 3 12 4 13 5 14 6 15 7 16 8 17 9 18 10 8 11 7 12
REMARK SMILES IDX 6 13 5 14 4 15 3 16 2 17 1 18
REMARK H PARENT
REMARK Flexibility Score: inf
ROOT
ATOM      1  C   UNL     1     114.116 120.123 129.215  1.00  0.00     0.000 C 
ENDROOT
BRANCH   1   2
ATOM      2  C   UNL     1     113.906 121.232 128.170  1.00  0.00     0.000 C 
BRANCH   2   3
ATOM      3  C   UNL     1     113.667 122.610 128.810  1.00  0.00     0.000 C 
BRANCH   3   4
ATOM      4  C   UNL     1     113.440 122.522 130.328  1.00  0.00     0.000 C 
BRANCH   4   5
ATOM      5  C   UNL     1     114.538 123.239 131.135  1.00  0.00     0.000 C 
BRANCH   5   6
ATOM      6  C   UNL     1     115.141 122.346 132.231  1.00  0.00     0.006 C 
BRANCH   6   7
ATOM      7  C   UNL     1     114.190 121.227 132.670  1.00  0.00     0.053 C 
BRANCH   7   8
ATOM      8  C   UNL     1     114.600 120.684 134.003  1.00  0.00     0.041 C 
ATOM      9  O   UNL     1     114.011 121.062 135.049  1.00  0.00    -0.550 OA
ATOM     10  O   UNL     1     115.600 119.723 134.084  1.00  0.00    -0.550 OA
ENDBRANCH   7   8
ENDBRANCH   6   7
ENDBRANCH   5   6
ENDBRANCH   4   5
ENDBRANCH   3   4
ENDBRANCH   2   3
ENDBRANCH   1   2
BRANCH   1  11
ATOM     11  C   UNL     1     115.433 119.359 129.014  1.00  0.00     0.000 C 
BRANCH  11  12
ATOM     12  C   UNL     1     116.580 120.033 129.783  1.00  0.00    -0.000 C 
BRANCH  12  13
ATOM     13  C   UNL     1     117.496 120.869 128.874  1.00  0.00    -0.000 C 
BRANCH  13  14
ATOM     14  C   UNL     1     117.623 122.327 129.343  1.00  0.00    -0.000 C 
BRANCH  14  15
ATOM     15  C   UNL     1     117.862 123.308 128.183  1.00  0.00    -0.000 C 
BRANCH  15  16
ATOM     16  C   UNL     1     116.634 124.180 127.845  1.00  0.00    -0.000 C 
BRANCH  16  17
ATOM     17  C   UNL     1     116.657 125.524 128.587  1.00  0.00    -0.003 C 
ATOM     18  C   UNL     1     117.876 126.352 128.193  1.00  0.00     0.004 C 
ENDBRANCH  16  17
ENDBRANCH  15  16
ENDBRANCH  14  15
ENDBRANCH  13  14
ENDBRANCH  12  13
ENDBRANCH  11  12
ENDBRANCH   1  11
TORSDOF 14
ENDMDL
MODEL 7
REMARK VINA RESULT:    -4.398      3.229      5.589
REMARK INTER + INTRA:          -9.968
REMARK INTER:                  -7.772
REMARK INTRA:                  -2.196
REMARK UNBOUND:                -1.971
REMARK SMILES CCCCCCCCCCCCCCCC(=O)[O-]
REMARK SMILES IDX 9 1 10 2 11 3 12 4 13 5 14 6 15 7 16 8 17 9 18 10 8 11 7 12
REMARK SMILES IDX 6 13 5 14 4 15 3 16 2 17 1 18
REMARK H PARENT
REMARK Flexibility Score: inf
ROOT
ATOM      1  C   UNL     1     116.027 125.192 131.292  1.00  0.00     0.000 C 
ENDROOT
BRANCH   1   2
ATOM      2  C   UNL     1     115.099 124.030 131.686  1.00  0.00     0.000 C 
BRANCH   2   3
ATOM      3  C   UNL     1     114.055 123.714 130.601  1.00  0.00     0.000 C 
BRANCH   3   4
ATOM      4  C   UNL     1     113.263 122.431 130.902  1.00  0.00     0.000 C 
BRANCH   4   5
ATOM      5  C   UNL     1     114.103 121.156 130.709  1.00  0.00     0.000 C 
BRANCH   5   6
ATOM      6  C   UNL     1     114.160 120.290 131.977  1.00  0.00     0.006 C 
BRANCH   6   7
ATOM      7  C   UNL     1     115.411 120.564 132.822  1.00  0.00     0.053 C 
BRANCH   7   8
ATOM      8  C   UNL     1     115.129 120.310 134.270  1.00  0.00     0.041 C 
ATOM      9  O   UNL     1     115.854 119.517 134.926  1.00  0.00    -0.550 OA
ATOM     10  O   UNL     1     114.098 120.988 134.906  1.00  0.00    -0.550 OA
ENDBRANCH   7   8
ENDBRANCH   6   7
ENDBRANCH   5   6
ENDBRANCH   4   5
ENDBRANCH   3   4
ENDBRANCH   2   3
ENDBRANCH   1   2
BRANCH   1  11
ATOM     11  C   UNL     1     117.509 124.790 131.279  1.00  0.00     0.000 C 
BRANCH  11  12
ATOM     12  C   UNL     1     117.663 123.275 131.070  1.00  0.00    -0.000 C 
BRANCH  12  13
ATOM     13  C   UNL     1     118.127 122.916 129.649  1.00  0.00    -0.000 C 
BRANCH  13  14
ATOM     14  C   UNL     1     116.952 122.662 128.690  1.00  0.00    -0.000 C 
BRANCH  14  15
ATOM     15  C   UNL     1     116.595 123.897 127.847  1.00  0.00    -0.000 C 
BRANCH  15  16
ATOM     16  C   UNL     1     117.806 124.798 127.521  1.00  0.00    -0.000 C 
BRANCH  16  17
ATOM     17  C   UNL     1     117.593 126.245 127.987  1.00  0.00    -0.003 C 
ATOM     18  C   UNL     1     118.923 126.926 128.298  1.00  0.00     0.004 C 
ENDBRANCH  16  17
ENDBRANCH  15  16
ENDBRANCH  14  15
ENDBRANCH  13  14
ENDBRANCH  12  13
ENDBRANCH  11  12
ENDBRANCH   1  11
TORSDOF 14
ENDMDL
MODEL 8
REMARK VINA RESULT:    -4.370      3.877      5.533
REMARK INTER + INTRA:          -9.918
REMARK INTER:                  -7.514
REMARK INTRA:                  -2.404
REMARK UNBOUND:                -1.971
REMARK SMILES CCCCCCCCCCCCCCCC(=O)[O-]
REMARK SMILES IDX 9 1 10 2 11 3 12 4 13 5 14 6 15 7 16 8 17 9 18 10 8 11 7 12
REMARK SMILES IDX 6 13 5 14 4 15 3 16 2 17 1 18
REMARK H PARENT
REMARK Flexibility Score: inf
ROOT
ATOM      1  C   UNL     1     114.370 120.569 133.925  1.00  0.00     0.000 C 
ENDROOT
BRANCH   1   2
ATOM      2  C   UNL     1     113.759 120.281 132.544  1.00  0.00     0.000 C 
BRANCH   2   3
ATOM      3  C   UNL     1     113.411 121.566 131.772  1.00  0.00     0.000 C 
BRANCH   3   4
ATOM      4  C   UNL     1     113.769 121.472 130.280  1.00  0.00     0.000 C 
BRANCH   4   5
ATOM      5  C   UNL     1     114.237 120.065 129.870  1.00  0.00     0.000 C 
BRANCH   5   6
ATOM      6  C   UNL     1     115.156 120.085 128.638  1.00  0.00     0.006 C 
BRANCH   6   7
ATOM      7  C   UNL     1     116.367 119.156 128.792  1.00  0.00     0.053 C 
BRANCH   7   8
ATOM      8  C   UNL     1     116.173 117.907 127.991  1.00  0.00     0.041 C 
ATOM      9  O   UNL     1     115.695 116.876 128.532  1.00  0.00    -0.550 OA
ATOM     10  O   UNL     1     116.472 117.898 126.634  1.00  0.00    -0.550 OA
ENDBRANCH   7   8
ENDBRANCH   6   7
ENDBRANCH   5   6
ENDBRANCH   4   5
ENDBRANCH   3   4
ENDBRANCH   2   3
ENDBRANCH   1   2
BRANCH   1  11
ATOM     11  C   UNL     1     115.834 120.114 134.033  1.00  0.00     0.000 C 
BRANCH  11  12
ATOM     12  C   UNL     1     116.777 121.157 133.414  1.00  0.00    -0.000 C 
BRANCH  12  13
ATOM     13  C   UNL     1     117.273 120.755 132.015  1.00  0.00    -0.000 C 
BRANCH  13  14
ATOM     14  C   UNL     1     117.598 121.970 131.132  1.00  0.00    -0.000 C 
BRANCH  14  15
ATOM     15  C   UNL     1     116.739 123.200 131.470  1.00  0.00    -0.000 C 
BRANCH  15  16
ATOM     16  C   UNL     1     116.551 124.171 130.285  1.00  0.00    -0.000 C 
BRANCH  16  17
ATOM     17  C   UNL     1     116.549 123.442 128.933  1.00  0.00    -0.003 C 
ATOM     18  C   UNL     1     117.313 124.235 127.878  1.00  0.00     0.004 C 
ENDBRANCH  16  17
ENDBRANCH  15  16
ENDBRANCH  14  15
ENDBRANCH  13  14
ENDBRANCH  12  13
ENDBRANCH  11  12
ENDBRANCH   1  11
TORSDOF 14
ENDMDL
MODEL 9
REMARK VINA RESULT:    -4.285      1.789      3.854
REMARK INTER + INTRA:          -9.763
REMARK INTER:                  -7.259
REMARK INTRA:                  -2.503
REMARK UNBOUND:                -1.971
REMARK SMILES CCCCCCCCCCCCCCCC(=O)[O-]
REMARK SMILES IDX 9 1 10 2 11 3 12 4 13 5 14 6 15 7 16 8 17 9 18 10 8 11 7 12
REMARK SMILES IDX 6 13 5 14 4 15 3 16 2 17 1 18
REMARK H PARENT
REMARK Flexibility Score: inf
ROOT
ATOM      1  C   UNL     1     115.473 119.908 128.672  1.00  0.00     0.000 C 
ENDROOT
BRANCH   1   2
ATOM      2  C   UNL     1     116.645 120.418 129.527  1.00  0.00     0.000 C 
BRANCH   2   3
ATOM      3  C   UNL     1     117.528 121.429 128.774  1.00  0.00     0.000 C 
BRANCH   3   4
ATOM      4  C   UNL     1     117.313 122.873 129.257  1.00  0.00     0.000 C 
BRANCH   4   5
ATOM      5  C   UNL     1     116.926 123.829 128.115  1.00  0.00     0.000 C 
BRANCH   5   6
ATOM      6  C   UNL     1     116.362 125.163 128.629  1.00  0.00     0.006 C 
BRANCH   6   7
ATOM      7  C   UNL     1     117.455 126.214 128.861  1.00  0.00     0.053 C 
BRANCH   7   8
ATOM      8  C   UNL     1     117.385 126.741 130.260  1.00  0.00     0.041 C 
ATOM      9  O   UNL     1     117.578 127.964 130.486  1.00  0.00    -0.550 OA
ATOM     10  O   UNL     1     117.055 125.890 131.307  1.00  0.00    -0.550 OA
ENDBRANCH   7   8
ENDBRANCH   6   7
ENDBRANCH   5   6
ENDBRANCH   4   5
ENDBRANCH   3   4
ENDBRANCH   2   3
ENDBRANCH   1   2
BRANCH   1  11
ATOM     11  C   UNL     1     114.125 120.517 129.088  1.00  0.00     0.000 C 
BRANCH  11  12
ATOM     12  C   UNL     1     113.817 121.778 128.265  1.00  0.00    -0.000 C 
BRANCH  12  13
ATOM     13  C   UNL     1     113.402 122.973 129.139  1.00  0.00    -0.000 C 
BRANCH  13  14
ATOM     14  C   UNL     1     113.331 122.615 130.632  1.00  0.00    -0.000 C 
BRANCH  14  15
ATOM     15  C   UNL     1     114.405 123.330 131.468  1.00  0.00    -0.000 C 
BRANCH  15  16
ATOM     16  C   UNL     1     115.254 122.376 132.335  1.00  0.00    -0.000 C 
BRANCH  16  17
ATOM     17  C   UNL     1     114.479 121.112 132.734  1.00  0.00    -0.003 C 
ATOM     18  C   UNL     1     114.590 120.847 134.232  1.00  0.00     0.004 C 
ENDBRANCH  16  17
ENDBRANCH  15  16
ENDBRANCH  14  15
ENDBRANCH  13  14
ENDBRANCH  12  13
ENDBRANCH  11  12
ENDBRANCH   1  11
TORSDOF 14
ENDMDL
