MODEL 1
REMARK VINA RESULT:    -5.182      0.000      0.000
REMARK INTER + INTRA:         -17.509
REMARK INTER:                 -13.512
REMARK INTRA:                  -3.997
REMARK UNBOUND:                -3.997
REMARK SMILES CCCCCCCCCCCCCCCCCCCCCCCCCCCCCO
REMARK SMILES IDX 16 1 15 2 14 3 13 4 12 5 11 6 10 7 9 8 8 9 7 10 6 11 5 12
REMARK SMILES IDX 4 13 3 14 2 15 1 16 17 17 18 18 19 19 20 20 21 21 22 22
REMARK SMILES IDX 23 23 24 24 25 25 26 26 27 27 28 28 29 29 30 30
REMARK H PARENT 30 31
REMARK Flexibility Score: inf
ROOT
ATOM      1  C   UNL     1      10.763   5.070  -4.828  1.00  0.00     0.000 C 
ENDROOT
BRANCH   1   2
ATOM      2  C   UNL     1      11.673   5.653  -3.734  1.00  0.00     0.000 C 
BRANCH   2   3
ATOM      3  C   UNL     1      11.998   4.636  -2.625  1.00  0.00     0.000 C 
BRANCH   3   4
ATOM      4  C   UNL     1      11.335   3.269  -2.881  1.00  0.00     0.000 C 
BRANCH   4   5
ATOM      5  C   UNL     1      10.323   2.879  -1.789  1.00  0.00     0.000 C 
BRANCH   5   6
ATOM      6  C   UNL     1      10.198   3.965  -0.705  1.00  0.00     0.000 C 
BRANCH   6   7
ATOM      7  C   UNL     1       8.740   4.405  -0.469  1.00  0.00     0.000 C 
BRANCH   7   8
ATOM      8  C   UNL     1       8.212   5.466  -1.464  1.00  0.00    -0.000 C 
BRANCH   8   9
ATOM      9  C   UNL     1       8.885   6.855  -1.380  1.00  0.00    -0.000 C 
BRANCH   9  10
ATOM     10  C   UNL     1       7.904   8.036  -1.282  1.00  0.00    -0.000 C 
BRANCH  10  11
ATOM     11  C   UNL     1       7.553   8.625  -2.661  1.00  0.00    -0.000 C 
BRANCH  11  12
ATOM     12  C   UNL     1       6.470   9.721  -2.567  1.00  0.00    -0.000 C 
BRANCH  12  13
ATOM     13  C   UNL     1       5.395   9.614  -3.663  1.00  0.00    -0.000 C 
BRANCH  13  14
ATOM     14  C   UNL     1       4.016   9.232  -3.109  1.00  0.00    -0.000 C 
BRANCH  14  15
ATOM     15  C   UNL     1       2.960   9.210  -4.220  1.00  0.00    -0.003 C 
ATOM     16  C   UNL     1       3.555   9.648  -5.556  1.00  0.00     0.004 C 
ENDBRANCH  14  15
ENDBRANCH  13  14
ENDBRANCH  12  13
ENDBRANCH  11  12
ENDBRANCH  10  11
ENDBRANCH   9  10
ENDBRANCH   8   9
ENDBRANCH   7   8
ENDBRANCH   6   7
ENDBRANCH   5   6
ENDBRANCH   4   5
ENDBRANCH   3   4
ENDBRANCH   2   3
ENDBRANCH   1   2
BRANCH   1  17
ATOM     17  C   UNL     1       9.498   5.914  -5.056  1.00  0.00     0.000 C 
BRANCH  17  18
ATOM     18  C   UNL     1       9.774   7.425  -4.978  1.00  0.00     0.000 C 
BRANCH  18  19
ATOM     19  C   UNL     1      10.498   7.965  -6.223  1.00  0.00     0.000 C 
BRANCH  19  20
ATOM     20  C   UNL     1      10.465   9.501  -6.307  1.00  0.00     0.000 C 
BRANCH  20  21
ATOM     21  C   UNL     1       9.206  10.161  -5.709  1.00  0.00     0.000 C 
BRANCH  21  22
ATOM     22  C   UNL     1       8.185  10.632  -6.767  1.00  0.00     0.000 C 
BRANCH  22  23
ATOM     23  C   UNL     1       7.075   9.593  -7.014  1.00  0.00     0.000 C 
BRANCH  23  24
ATOM     24  C   UNL     1       7.468   8.566  -8.099  1.00  0.00     0.000 C 
BRANCH  24  25
ATOM     25  C   UNL     1       6.299   8.156  -9.011  1.00  0.00     0.000 C 
BRANCH  25  26
ATOM     26  C   UNL     1       5.113   9.132  -8.935  1.00  0.00     0.000 C 
BRANCH  26  27
ATOM     27  C   UNL     1       3.754   8.442  -9.152  1.00  0.00     0.002 C 
BRANCH  27  28
ATOM     28  C   UNL     1       3.567   7.125  -8.371  1.00  0.00     0.028 C 
BRANCH  28  29
ATOM     29  C   UNL     1       3.194   5.928  -9.258  1.00  0.00     0.156 C 
BRANCH  29  30
ATOM     30  O   UNL     1       2.415   5.001  -8.551  1.00  0.00    -0.396 OA
ATOM     31  H   UNL     1       3.042   4.328  -8.179  1.00  0.00     0.210 HD
ENDBRANCH  29  30
ENDBRANCH  28  29
ENDBRANCH  27  28
ENDBRANCH  26  27
ENDBRANCH  25  26
ENDBRANCH  24  25
ENDBRANCH  23  24
ENDBRANCH  22  23
ENDBRANCH  21  22
ENDBRANCH  20  21
ENDBRANCH  19  20
ENDBRANCH  18  19
ENDBRANCH  17  18
ENDBRANCH   1  17
TORSDOF 28
ENDMDL
MODEL 2
REMARK VINA RESULT:    -5.131      1.862      4.989
REMARK INTER + INTRA:         -17.378
REMARK INTER:                 -13.657
REMARK INTRA:                  -3.721
REMARK UNBOUND:                -3.997
REMARK SMILES CCCCCCCCCCCCCCCCCCCCCCCCCCCCCO
REMARK SMILES IDX 16 1 15 2 14 3 13 4 12 5 11 6 10 7 9 8 8 9 7 10 6 11 5 12
REMARK SMILES IDX 4 13 3 14 2 15 1 16 17 17 18 18 19 19 20 20 21 21 22 22
REMARK SMILES IDX 23 23 24 24 25 25 26 26 27 27 28 28 29 29 30 30
REMARK H PARENT 30 31
REMARK Flexibility Score: inf
ROOT
ATOM      1  C   UNL     1      10.235   3.652  -0.658  1.00  0.00     0.000 C 
ENDROOT
BRANCH   1   2
ATOM      2  C   UNL     1      10.198   2.906  -2.002  1.00  0.00     0.000 C 
BRANCH   2   3
ATOM      3  C   UNL     1      11.355   3.303  -2.936  1.00  0.00     0.000 C 
BRANCH   3   4
ATOM      4  C   UNL     1      11.908   4.703  -2.608  1.00  0.00     0.000 C 
BRANCH   4   5
ATOM      5  C   UNL     1      11.688   5.717  -3.744  1.00  0.00     0.000 C 
BRANCH   5   6
ATOM      6  C   UNL     1      10.617   5.240  -4.742  1.00  0.00     0.000 C 
BRANCH   6   7
ATOM      7  C   UNL     1       9.528   6.300  -4.998  1.00  0.00     0.000 C 
BRANCH   7   8
ATOM      8  C   UNL     1      10.020   7.577  -5.720  1.00  0.00    -0.000 C 
BRANCH   8   9
ATOM      9  C   UNL     1       9.946   8.883  -4.897  1.00  0.00    -0.000 C 
BRANCH   9  10
ATOM     10  C   UNL     1       8.560   9.551  -4.881  1.00  0.00    -0.000 C 
BRANCH  10  11
ATOM     11  C   UNL     1       7.893   9.552  -6.269  1.00  0.00    -0.000 C 
BRANCH  11  12
ATOM     12  C   UNL     1       6.413   9.987  -6.202  1.00  0.00    -0.000 C 
BRANCH  12  13
ATOM     13  C   UNL     1       5.605   9.601  -7.454  1.00  0.00    -0.000 C 
BRANCH  13  14
ATOM     14  C   UNL     1       6.489   9.097  -8.601  1.00  0.00    -0.000 C 
BRANCH  14  15
ATOM     15  C   UNL     1       6.124   7.660  -8.990  1.00  0.00    -0.003 C 
ATOM     16  C   UNL     1       4.632   7.398  -8.801  1.00  0.00     0.004 C 
ENDBRANCH  14  15
ENDBRANCH  13  14
ENDBRANCH  12  13
ENDBRANCH  11  12
ENDBRANCH  10  11
ENDBRANCH   9  10
ENDBRANCH   8   9
ENDBRANCH   7   8
ENDBRANCH   6   7
ENDBRANCH   5   6
ENDBRANCH   4   5
ENDBRANCH   3   4
ENDBRANCH   2   3
ENDBRANCH   1   2
BRANCH   1  17
ATOM     17  C   UNL     1       8.893   4.322  -0.318  1.00  0.00     0.000 C 
BRANCH  17  18
ATOM     18  C   UNL     1       8.399   5.257  -1.435  1.00  0.00     0.000 C 
BRANCH  18  19
ATOM     19  C   UNL     1       8.991   6.673  -1.333  1.00  0.00     0.000 C 
BRANCH  19  20
ATOM     20  C   UNL     1       8.059   7.748  -1.919  1.00  0.00     0.000 C 
BRANCH  20  21
ATOM     21  C   UNL     1       7.808   8.963  -1.005  1.00  0.00     0.000 C 
BRANCH  21  22
ATOM     22  C   UNL     1       6.513   9.738  -1.335  1.00  0.00     0.000 C 
BRANCH  22  23
ATOM     23  C   UNL     1       5.714   9.084  -2.477  1.00  0.00     0.000 C 
BRANCH  23  24
ATOM     24  C   UNL     1       4.512   9.948  -2.919  1.00  0.00     0.000 C 
BRANCH  24  25
ATOM     25  C   UNL     1       3.251   9.130  -3.241  1.00  0.00     0.000 C 
BRANCH  25  26
ATOM     26  C   UNL     1       2.780   9.306  -4.695  1.00  0.00     0.000 C 
BRANCH  26  27
ATOM     27  C   UNL     1       1.273   9.053  -4.872  1.00  0.00     0.002 C 
BRANCH  27  28
ATOM     28  C   UNL     1       0.428   9.266  -3.599  1.00  0.00     0.028 C 
BRANCH  28  29
ATOM     29  C   UNL     1      -0.940   8.569  -3.640  1.00  0.00     0.156 C 
BRANCH  29  30
ATOM     30  O   UNL     1      -1.239   7.971  -2.408  1.00  0.00    -0.396 OA
ATOM     31  H   UNL     1      -0.804   8.527  -1.710  1.00  0.00     0.210 HD
ENDBRANCH  29  30
ENDBRANCH  28  29
ENDBRANCH  27  28
ENDBRANCH  26  27
ENDBRANCH  25  26
ENDBRANCH  24  25
ENDBRANCH  23  24
ENDBRANCH  22  23
ENDBRANCH  21  22
ENDBRANCH  20  21
ENDBRANCH  19  20
ENDBRANCH  18  19
ENDBRANCH  17  18
ENDBRANCH   1  17
TORSDOF 28
ENDMDL
MODEL 3
REMARK VINA RESULT:    -5.057      1.793      5.695
REMARK INTER + INTRA:         -17.183
REMARK INTER:                 -12.905
REMARK INTRA:                  -4.278
REMARK UNBOUND:                -3.997
REMARK SMILES CCCCCCCCCCCCCCCCCCCCCCCCCCCCCO
REMARK SMILES IDX 16 1 15 2 14 3 13 4 12 5 11 6 10 7 9 8 8 9 7 10 6 11 5 12
REMARK SMILES IDX 4 13 3 14 2 15 1 16 17 17 18 18 19 19 20 20 21 21 22 22
REMARK SMILES IDX 23 23 24 24 25 25 26 26 27 27 28 28 29 29 30 30
REMARK H PARENT 30 31
REMARK Flexibility Score: inf
ROOT
ATOM      1  C   UNL     1      11.222   3.370  -3.063  1.00  0.00     0.000 C 
ENDROOT
BRANCH   1   2
ATOM      2  C   UNL     1      12.034   4.605  -2.638  1.00  0.00     0.000 C 
BRANCH   2   3
ATOM      3  C   UNL     1      11.965   5.747  -3.667  1.00  0.00     0.000 C 
BRANCH   3   4
ATOM      4  C   UNL     1      11.012   5.419  -4.833  1.00  0.00     0.000 C 
BRANCH   4   5
ATOM      5  C   UNL     1      10.725   6.632  -5.734  1.00  0.00     0.000 C 
BRANCH   5   6
ATOM      6  C   UNL     1       9.276   7.129  -5.588  1.00  0.00     0.000 C 
BRANCH   6   7
ATOM      7  C   UNL     1       9.190   8.642  -5.309  1.00  0.00     0.000 C 
BRANCH   7   8
ATOM      8  C   UNL     1      10.516   9.415  -5.510  1.00  0.00    -0.000 C 
BRANCH   8   9
ATOM      9  C   UNL     1      10.589  10.301  -6.774  1.00  0.00    -0.000 C 
BRANCH   9  10
ATOM     10  C   UNL     1      11.273   9.636  -7.982  1.00  0.00    -0.000 C 
BRANCH  10  11
ATOM     11  C   UNL     1      10.258   9.101  -9.010  1.00  0.00    -0.000 C 
BRANCH  11  12
ATOM     12  C   UNL     1       8.900   9.829  -8.919  1.00  0.00    -0.000 C 
BRANCH  12  13
ATOM     13  C   UNL     1       7.702   8.873  -8.776  1.00  0.00    -0.000 C 
BRANCH  13  14
ATOM     14  C   UNL     1       6.644   9.388  -7.792  1.00  0.00    -0.000 C 
BRANCH  14  15
ATOM     15  C   UNL     1       5.236   8.957  -8.218  1.00  0.00    -0.003 C 
ATOM     16  C   UNL     1       4.200   9.335  -7.162  1.00  0.00     0.004 C 
ENDBRANCH  14  15
ENDBRANCH  13  14
ENDBRANCH  12  13
ENDBRANCH  11  12
ENDBRANCH  10  11
ENDBRANCH   9  10
ENDBRANCH   8   9
ENDBRANCH   7   8
ENDBRANCH   6   7
ENDBRANCH   5   6
ENDBRANCH   4   5
ENDBRANCH   3   4
ENDBRANCH   2   3
ENDBRANCH   1   2
BRANCH   1  17
ATOM     17  C   UNL     1      10.205   2.937  -1.994  1.00  0.00     0.000 C 
BRANCH  17  18
ATOM     18  C   UNL     1      10.358   3.718  -0.679  1.00  0.00     0.000 C 
BRANCH  18  19
ATOM     19  C   UNL     1       9.157   4.634  -0.385  1.00  0.00     0.000 C 
BRANCH  19  20
ATOM     20  C   UNL     1       8.269   4.861  -1.621  1.00  0.00     0.000 C 
BRANCH  20  21
ATOM     21  C   UNL     1       8.477   6.212  -2.334  1.00  0.00     0.000 C 
BRANCH  21  22
ATOM     22  C   UNL     1       9.051   7.319  -1.423  1.00  0.00     0.000 C 
BRANCH  22  23
ATOM     23  C   UNL     1       8.295   8.651  -1.572  1.00  0.00     0.000 C 
BRANCH  23  24
ATOM     24  C   UNL     1       7.069   8.527  -2.502  1.00  0.00     0.000 C 
BRANCH  24  25
ATOM     25  C   UNL     1       6.103   9.720  -2.410  1.00  0.00     0.000 C 
BRANCH  25  26
ATOM     26  C   UNL     1       4.978   9.659  -3.457  1.00  0.00     0.000 C 
BRANCH  26  27
ATOM     27  C   UNL     1       3.733   8.906  -2.956  1.00  0.00     0.002 C 
BRANCH  27  28
ATOM     28  C   UNL     1       2.415   9.302  -3.652  1.00  0.00     0.028 C 
BRANCH  28  29
ATOM     29  C   UNL     1       1.190   9.268  -2.725  1.00  0.00     0.156 C 
BRANCH  29  30
ATOM     30  O   UNL     1       0.847   7.950  -2.392  1.00  0.00    -0.396 OA
ATOM     31  H   UNL     1       0.106   7.688  -2.997  1.00  0.00     0.210 HD
ENDBRANCH  29  30
ENDBRANCH  28  29
ENDBRANCH  27  28
ENDBRANCH  26  27
ENDBRANCH  25  26
ENDBRANCH  24  25
ENDBRANCH  23  24
ENDBRANCH  22  23
ENDBRANCH  21  22
ENDBRANCH  20  21
ENDBRANCH  19  20
ENDBRANCH  18  19
ENDBRANCH  17  18
ENDBRANCH   1  17
TORSDOF 28
ENDMDL
MODEL 4
REMARK VINA RESULT:    -5.055      1.513      3.206
REMARK INTER + INTRA:         -17.179
REMARK INTER:                 -12.467
REMARK INTRA:                  -4.713
REMARK UNBOUND:                -3.997
REMARK SMILES CCCCCCCCCCCCCCCCCCCCCCCCCCCCCO
REMARK SMILES IDX 16 1 15 2 14 3 13 4 12 5 11 6 10 7 9 8 8 9 7 10 6 11 5 12
REMARK SMILES IDX 4 13 3 14 2 15 1 16 17 17 18 18 19 19 20 20 21 21 22 22
REMARK SMILES IDX 23 23 24 24 25 25 26 26 27 27 28 28 29 29 30 30
REMARK H PARENT 30 31
REMARK Flexibility Score: inf
ROOT
ATOM      1  C   UNL     1      11.278   3.375  -3.016  1.00  0.00     0.000 C 
ENDROOT
BRANCH   1   2
ATOM      2  C   UNL     1      10.229   2.866  -2.014  1.00  0.00     0.000 C 
BRANCH   2   3
ATOM      3  C   UNL     1      10.281   3.609  -0.667  1.00  0.00     0.000 C 
BRANCH   3   4
ATOM      4  C   UNL     1       8.885   4.067  -0.204  1.00  0.00     0.000 C 
BRANCH   4   5
ATOM      5  C   UNL     1       8.703   5.594  -0.266  1.00  0.00     0.000 C 
BRANCH   5   6
ATOM      6  C   UNL     1       8.343   6.074  -1.683  1.00  0.00     0.000 C 
BRANCH   6   7
ATOM      7  C   UNL     1       8.615   7.577  -1.888  1.00  0.00     0.000 C 
BRANCH   7   8
ATOM      8  C   UNL     1       7.485   8.515  -1.399  1.00  0.00    -0.000 C 
BRANCH   8   9
ATOM      9  C   UNL     1       7.876  10.000  -1.225  1.00  0.00    -0.000 C 
BRANCH   9  10
ATOM     10  C   UNL     1       6.698  10.986  -1.315  1.00  0.00    -0.000 C 
BRANCH  10  11
ATOM     11  C   UNL     1       5.351  10.325  -0.971  1.00  0.00    -0.000 C 
BRANCH  11  12
ATOM     12  C   UNL     1       4.297  10.546  -2.076  1.00  0.00    -0.000 C 
BRANCH  12  13
ATOM     13  C   UNL     1       4.269   9.422  -3.129  1.00  0.00    -0.000 C 
BRANCH  13  14
ATOM     14  C   UNL     1       2.911   8.714  -3.208  1.00  0.00    -0.000 C 
BRANCH  14  15
ATOM     15  C   UNL     1       2.181   9.063  -4.510  1.00  0.00    -0.003 C 
ATOM     16  C   UNL     1       3.170   9.371  -5.632  1.00  0.00     0.004 C 
ENDBRANCH  14  15
ENDBRANCH  13  14
ENDBRANCH  12  13
ENDBRANCH  11  12
ENDBRANCH  10  11
ENDBRANCH   9  10
ENDBRANCH   8   9
ENDBRANCH   7   8
ENDBRANCH   6   7
ENDBRANCH   5   6
ENDBRANCH   4   5
ENDBRANCH   3   4
ENDBRANCH   2   3
ENDBRANCH   1   2
BRANCH   1  17
ATOM     17  C   UNL     1      11.804   4.775  -2.659  1.00  0.00     0.000 C 
BRANCH  17  18
ATOM     18  C   UNL     1      11.582   5.797  -3.787  1.00  0.00     0.000 C 
BRANCH  18  19
ATOM     19  C   UNL     1      10.424   5.410  -4.723  1.00  0.00     0.000 C 
BRANCH  19  20
ATOM     20  C   UNL     1       9.720   6.635  -5.332  1.00  0.00     0.000 C 
BRANCH  20  21
ATOM     21  C   UNL     1      10.554   7.421  -6.364  1.00  0.00     0.000 C 
BRANCH  21  22
ATOM     22  C   UNL     1      10.530   8.951  -6.152  1.00  0.00     0.000 C 
BRANCH  22  23
ATOM     23  C   UNL     1      10.036   9.341  -4.747  1.00  0.00     0.000 C 
BRANCH  23  24
ATOM     24  C   UNL     1       8.864  10.345  -4.798  1.00  0.00     0.000 C 
BRANCH  24  25
ATOM     25  C   UNL     1       7.491   9.680  -4.995  1.00  0.00     0.000 C 
BRANCH  25  26
ATOM     26  C   UNL     1       6.676  10.318  -6.132  1.00  0.00     0.000 C 
BRANCH  26  27
ATOM     27  C   UNL     1       7.240   9.996  -7.527  1.00  0.00     0.002 C 
BRANCH  27  28
ATOM     28  C   UNL     1       7.330   8.492  -7.856  1.00  0.00     0.028 C 
BRANCH  28  29
ATOM     29  C   UNL     1       6.569   8.090  -9.129  1.00  0.00     0.156 C 
BRANCH  29  30
ATOM     30  O   UNL     1       5.267   7.667  -8.825  1.00  0.00    -0.396 OA
ATOM     31  H   UNL     1       5.329   6.705  -8.589  1.00  0.00     0.210 HD
ENDBRANCH  29  30
ENDBRANCH  28  29
ENDBRANCH  27  28
ENDBRANCH  26  27
ENDBRANCH  25  26
ENDBRANCH  24  25
ENDBRANCH  23  24
ENDBRANCH  22  23
ENDBRANCH  21  22
ENDBRANCH  20  21
ENDBRANCH  19  20
ENDBRANCH  18  19
ENDBRANCH  17  18
ENDBRANCH   1  17
TORSDOF 28
ENDMDL
MODEL 5
REMARK VINA RESULT:    -5.013      1.091      5.079
REMARK INTER + INTRA:         -17.069
REMARK INTER:                 -12.676
REMARK INTRA:                  -4.394
REMARK UNBOUND:                -3.997
REMARK SMILES CCCCCCCCCCCCCCCCCCCCCCCCCCCCCO
REMARK SMILES IDX 16 1 15 2 14 3 13 4 12 5 11 6 10 7 9 8 8 9 7 10 6 11 5 12
REMARK SMILES IDX 4 13 3 14 2 15 1 16 17 17 18 18 19 19 20 20 21 21 22 22
REMARK SMILES IDX 23 23 24 24 25 25 26 26 27 27 28 28 29 29 30 30
REMARK H PARENT 30 31
REMARK Flexibility Score: inf
ROOT
ATOM      1  C   UNL     1      10.386   2.882  -2.124  1.00  0.00     0.000 C 
ENDROOT
BRANCH   1   2
ATOM      2  C   UNL     1      11.218   3.516  -3.251  1.00  0.00     0.000 C 
BRANCH   2   3
ATOM      3  C   UNL     1      11.855   4.856  -2.841  1.00  0.00     0.000 C 
BRANCH   3   4
ATOM      4  C   UNL     1      11.434   6.007  -3.774  1.00  0.00     0.000 C 
BRANCH   4   5
ATOM      5  C   UNL     1      10.330   5.602  -4.767  1.00  0.00     0.000 C 
BRANCH   5   6
ATOM      6  C   UNL     1       9.517   6.816  -5.251  1.00  0.00     0.000 C 
BRANCH   6   7
ATOM      7  C   UNL     1      10.313   7.719  -6.213  1.00  0.00     0.000 C 
BRANCH   7   8
ATOM      8  C   UNL     1      10.433   9.196  -5.768  1.00  0.00    -0.000 C 
BRANCH   8   9
ATOM      9  C   UNL     1       9.331   9.698  -4.808  1.00  0.00    -0.000 C 
BRANCH   9  10
ATOM     10  C   UNL     1       8.250  10.567  -5.474  1.00  0.00    -0.000 C 
BRANCH  10  11
ATOM     11  C   UNL     1       7.040   9.741  -5.946  1.00  0.00    -0.000 C 
BRANCH  11  12
ATOM     12  C   UNL     1       6.909   9.728  -7.484  1.00  0.00    -0.000 C 
BRANCH  12  13
ATOM     13  C   UNL     1       7.291   8.379  -8.119  1.00  0.00    -0.000 C 
BRANCH  13  14
ATOM     14  C   UNL     1       6.528   8.096  -9.419  1.00  0.00    -0.000 C 
BRANCH  14  15
ATOM     15  C   UNL     1       5.013   8.197  -9.204  1.00  0.00    -0.003 C 
ATOM     16  C   UNL     1       4.431   6.863  -8.743  1.00  0.00     0.004 C 
ENDBRANCH  14  15
ENDBRANCH  13  14
ENDBRANCH  12  13
ENDBRANCH  11  12
ENDBRANCH  10  11
ENDBRANCH   9  10
ENDBRANCH   8   9
ENDBRANCH   7   8
ENDBRANCH   6   7
ENDBRANCH   5   6
ENDBRANCH   4   5
ENDBRANCH   3   4
ENDBRANCH   2   3
ENDBRANCH   1   2
BRANCH   1  17
ATOM     17  C   UNL     1      10.429   3.705  -0.825  1.00  0.00     0.000 C 
BRANCH  17  18
ATOM     18  C   UNL     1       9.030   4.118  -0.339  1.00  0.00     0.000 C 
BRANCH  18  19
ATOM     19  C   UNL     1       8.865   5.643  -0.220  1.00  0.00     0.000 C 
BRANCH  19  20
ATOM     20  C   UNL     1       8.313   6.281  -1.507  1.00  0.00     0.000 C 
BRANCH  20  21
ATOM     21  C   UNL     1       8.804   7.715  -1.787  1.00  0.00     0.000 C 
BRANCH  21  22
ATOM     22  C   UNL     1       7.800   8.812  -1.371  1.00  0.00     0.000 C 
BRANCH  22  23
ATOM     23  C   UNL     1       6.591   8.891  -2.321  1.00  0.00     0.000 C 
BRANCH  23  24
ATOM     24  C   UNL     1       5.796  10.204  -2.146  1.00  0.00     0.000 C 
BRANCH  24  25
ATOM     25  C   UNL     1       4.271  10.013  -2.204  1.00  0.00     0.000 C 
BRANCH  25  26
ATOM     26  C   UNL     1       3.832   9.053  -3.322  1.00  0.00     0.000 C 
BRANCH  26  27
ATOM     27  C   UNL     1       2.843   9.696  -4.311  1.00  0.00     0.002 C 
BRANCH  27  28
ATOM     28  C   UNL     1       3.323   9.728  -5.776  1.00  0.00     0.028 C 
BRANCH  28  29
ATOM     29  C   UNL     1       2.262   9.266  -6.785  1.00  0.00     0.156 C 
BRANCH  29  30
ATOM     30  O   UNL     1       1.547   8.163  -6.296  1.00  0.00    -0.396 OA
ATOM     31  H   UNL     1       2.171   7.392  -6.308  1.00  0.00     0.210 HD
ENDBRANCH  29  30
ENDBRANCH  28  29
ENDBRANCH  27  28
ENDBRANCH  26  27
ENDBRANCH  25  26
ENDBRANCH  24  25
ENDBRANCH  23  24
ENDBRANCH  22  23
ENDBRANCH  21  22
ENDBRANCH  20  21
ENDBRANCH  19  20
ENDBRANCH  18  19
ENDBRANCH  17  18
ENDBRANCH   1  17
TORSDOF 28
ENDMDL
MODEL 6
REMARK VINA RESULT:    -5.006      3.023      6.377
REMARK INTER + INTRA:         -17.051
REMARK INTER:                 -14.070
REMARK INTRA:                  -2.981
REMARK UNBOUND:                -3.997
REMARK SMILES CCCCCCCCCCCCCCCCCCCCCCCCCCCCCO
REMARK SMILES IDX 16 1 15 2 14 3 13 4 12 5 11 6 10 7 9 8 8 9 7 10 6 11 5 12
REMARK SMILES IDX 4 13 3 14 2 15 1 16 17 17 18 18 19 19 20 20 21 21 22 22
REMARK SMILES IDX 23 23 24 24 25 25 26 26 27 27 28 28 29 29 30 30
REMARK H PARENT 30 31
REMARK Flexibility Score: inf
ROOT
ATOM      1  C   UNL     1       8.551   8.840  -1.898  1.00  0.00     0.000 C 
ENDROOT
BRANCH   1   2
ATOM      2  C   UNL     1       9.050   7.397  -1.720  1.00  0.00     0.000 C 
BRANCH   2   3
ATOM      3  C   UNL     1       7.909   6.403  -1.434  1.00  0.00     0.000 C 
BRANCH   3   4
ATOM      4  C   UNL     1       8.358   4.940  -1.611  1.00  0.00     0.000 C 
BRANCH   4   5
ATOM      5  C   UNL     1       8.980   4.344  -0.336  1.00  0.00     0.000 C 
BRANCH   5   6
ATOM      6  C   UNL     1      10.124   3.365  -0.657  1.00  0.00     0.000 C 
BRANCH   6   7
ATOM      7  C   UNL     1      10.153   2.950  -2.140  1.00  0.00     0.000 C 
BRANCH   7   8
ATOM      8  C   UNL     1      11.427   3.376  -2.910  1.00  0.00    -0.000 C 
BRANCH   8   9
ATOM      9  C   UNL     1      12.012   4.753  -2.524  1.00  0.00    -0.000 C 
BRANCH   9  10
ATOM     10  C   UNL     1      11.956   5.808  -3.643  1.00  0.00    -0.000 C 
BRANCH  10  11
ATOM     11  C   UNL     1      11.128   5.337  -4.853  1.00  0.00    -0.000 C 
BRANCH  11  12
ATOM     12  C   UNL     1      10.750   6.506  -5.788  1.00  0.00    -0.000 C 
BRANCH  12  13
ATOM     13  C   UNL     1       9.346   7.076  -5.519  1.00  0.00    -0.000 C 
BRANCH  13  14
ATOM     14  C   UNL     1       9.339   8.605  -5.392  1.00  0.00    -0.000 C 
BRANCH  14  15
ATOM     15  C   UNL     1      10.561   9.223  -6.082  1.00  0.00    -0.003 C 
ATOM     16  C   UNL     1      10.187   9.816  -7.438  1.00  0.00     0.004 C 
ENDBRANCH  14  15
ENDBRANCH  13  14
ENDBRANCH  12  13
ENDBRANCH  11  12
ENDBRANCH  10  11
ENDBRANCH   9  10
ENDBRANCH   8   9
ENDBRANCH   7   8
ENDBRANCH   6   7
ENDBRANCH   5   6
ENDBRANCH   4   5
ENDBRANCH   3   4
ENDBRANCH   2   3
ENDBRANCH   1   2
BRANCH   1  17
ATOM     17  C   UNL     1       7.566   9.265  -0.796  1.00  0.00     0.000 C 
BRANCH  17  18
ATOM     18  C   UNL     1       6.202   9.700  -1.357  1.00  0.00     0.000 C 
BRANCH  18  19
ATOM     19  C   UNL     1       5.988   9.259  -2.815  1.00  0.00     0.000 C 
BRANCH  19  20
ATOM     20  C   UNL     1       4.505   9.267  -3.225  1.00  0.00     0.000 C 
BRANCH  20  21
ATOM     21  C   UNL     1       3.669  10.417  -2.628  1.00  0.00     0.000 C 
BRANCH  21  22
ATOM     22  C   UNL     1       2.302   9.970  -2.066  1.00  0.00     0.000 C 
BRANCH  22  23
ATOM     23  C   UNL     1       1.607   8.935  -2.969  1.00  0.00     0.000 C 
BRANCH  23  24
ATOM     24  C   UNL     1       0.137   8.695  -2.559  1.00  0.00     0.000 C 
BRANCH  24  25
ATOM     25  C   UNL     1      -0.781   9.901  -2.824  1.00  0.00     0.000 C 
BRANCH  25  26
ATOM     26  C   UNL     1      -1.844   9.617  -3.898  1.00  0.00     0.000 C 
BRANCH  26  27
ATOM     27  C   UNL     1      -3.281   9.678  -3.350  1.00  0.00     0.002 C 
BRANCH  27  28
ATOM     28  C   UNL     1      -4.187   8.508  -3.783  1.00  0.00     0.028 C 
BRANCH  28  29
ATOM     29  C   UNL     1      -3.424   7.337  -4.420  1.00  0.00     0.156 C 
BRANCH  29  30
ATOM     30  O   UNL     1      -3.681   6.138  -3.740  1.00  0.00    -0.396 OA
ATOM     31  H   UNL     1      -2.943   6.018  -3.087  1.00  0.00     0.210 HD
ENDBRANCH  29  30
ENDBRANCH  28  29
ENDBRANCH  27  28
ENDBRANCH  26  27
ENDBRANCH  25  26
ENDBRANCH  24  25
ENDBRANCH  23  24
ENDBRANCH  22  23
ENDBRANCH  21  22
ENDBRANCH  20  21
ENDBRANCH  19  20
ENDBRANCH  18  19
ENDBRANCH  17  18
ENDBRANCH   1  17
TORSDOF 28
ENDMDL
MODEL 7
REMARK VINA RESULT:    -4.989      1.125      2.366
REMARK INTER + INTRA:         -17.006
REMARK INTER:                 -13.207
REMARK INTRA:                  -3.798
REMARK UNBOUND:                -3.997
REMARK SMILES CCCCCCCCCCCCCCCCCCCCCCCCCCCCCO
REMARK SMILES IDX 16 1 15 2 14 3 13 4 12 5 11 6 10 7 9 8 8 9 7 10 6 11 5 12
REMARK SMILES IDX 4 13 3 14 2 15 1 16 17 17 18 18 19 19 20 20 21 21 22 22
REMARK SMILES IDX 23 23 24 24 25 25 26 26 27 27 28 28 29 29 30 30
REMARK H PARENT 30 31
REMARK Flexibility Score: inf
ROOT
ATOM      1  C   UNL     1      10.202   3.259  -3.562  1.00  0.00     0.000 C 
ENDROOT
BRANCH   1   2
ATOM      2  C   UNL     1      10.410   3.239  -2.038  1.00  0.00     0.000 C 
BRANCH   2   3
ATOM      3  C   UNL     1      11.232   4.438  -1.534  1.00  0.00     0.000 C 
BRANCH   3   4
ATOM      4  C   UNL     1      10.468   5.263  -0.481  1.00  0.00     0.000 C 
BRANCH   4   5
ATOM      5  C   UNL     1       8.945   5.046  -0.538  1.00  0.00     0.000 C 
BRANCH   5   6
ATOM      6  C   UNL     1       8.189   6.350  -0.851  1.00  0.00     0.000 C 
BRANCH   6   7
ATOM      7  C   UNL     1       8.978   7.284  -1.789  1.00  0.00     0.000 C 
BRANCH   7   8
ATOM      8  C   UNL     1       8.470   8.746  -1.826  1.00  0.00    -0.000 C 
BRANCH   8   9
ATOM      9  C   UNL     1       6.937   8.925  -1.753  1.00  0.00    -0.000 C 
BRANCH   9  10
ATOM     10  C   UNL     1       6.260   9.198  -3.108  1.00  0.00    -0.000 C 
BRANCH  10  11
ATOM     11  C   UNL     1       5.160  10.271  -3.009  1.00  0.00    -0.000 C 
BRANCH  11  12
ATOM     12  C   UNL     1       3.757   9.651  -2.840  1.00  0.00    -0.000 C 
BRANCH  12  13
ATOM     13  C   UNL     1       3.187   9.063  -4.144  1.00  0.00    -0.000 C 
BRANCH  13  14
ATOM     14  C   UNL     1       3.752   9.741  -5.399  1.00  0.00    -0.000 C 
BRANCH  14  15
ATOM     15  C   UNL     1       3.340   8.987  -6.668  1.00  0.00    -0.003 C 
ATOM     16  C   UNL     1       2.425   9.839  -7.544  1.00  0.00     0.004 C 
ENDBRANCH  14  15
ENDBRANCH  13  14
ENDBRANCH  12  13
ENDBRANCH  11  12
ENDBRANCH  10  11
ENDBRANCH   9  10
ENDBRANCH   8   9
ENDBRANCH   7   8
ENDBRANCH   6   7
ENDBRANCH   5   6
ENDBRANCH   4   5
ENDBRANCH   3   4
ENDBRANCH   2   3
ENDBRANCH   1   2
BRANCH   1  17
ATOM     17  C   UNL     1       8.850   3.871  -3.965  1.00  0.00     0.000 C 
BRANCH  17  18
ATOM     18  C   UNL     1       9.005   5.195  -4.732  1.00  0.00     0.000 C 
BRANCH  18  19
ATOM     19  C   UNL     1      10.468   5.513  -5.084  1.00  0.00     0.000 C 
BRANCH  19  20
ATOM     20  C   UNL     1      10.627   6.877  -5.779  1.00  0.00     0.000 C 
BRANCH  20  21
ATOM     21  C   UNL     1       9.501   7.890  -5.494  1.00  0.00     0.000 C 
BRANCH  21  22
ATOM     22  C   UNL     1       8.983   8.620  -6.752  1.00  0.00     0.000 C 
BRANCH  22  23
ATOM     23  C   UNL     1       7.651   9.350  -6.500  1.00  0.00     0.000 C 
BRANCH  23  24
ATOM     24  C   UNL     1       6.840   9.552  -7.800  1.00  0.00     0.000 C 
BRANCH  24  25
ATOM     25  C   UNL     1       7.020   8.415  -8.820  1.00  0.00     0.000 C 
BRANCH  25  26
ATOM     26  C   UNL     1       5.747   8.141  -9.638  1.00  0.00     0.000 C 
BRANCH  26  27
ATOM     27  C   UNL     1       5.037   6.840  -9.224  1.00  0.00     0.002 C 
BRANCH  27  28
ATOM     28  C   UNL     1       3.572   6.727  -9.691  1.00  0.00     0.028 C 
BRANCH  28  29
ATOM     29  C   UNL     1       2.982   5.316  -9.545  1.00  0.00     0.156 C 
BRANCH  29  30
ATOM     30  O   UNL     1       2.431   5.130  -8.270  1.00  0.00    -0.396 OA
ATOM     31  H   UNL     1       1.446   5.106  -8.386  1.00  0.00     0.210 HD
ENDBRANCH  29  30
ENDBRANCH  28  29
ENDBRANCH  27  28
ENDBRANCH  26  27
ENDBRANCH  25  26
ENDBRANCH  24  25
ENDBRANCH  23  24
ENDBRANCH  22  23
ENDBRANCH  21  22
ENDBRANCH  20  21
ENDBRANCH  19  20
ENDBRANCH  18  19
ENDBRANCH  17  18
ENDBRANCH   1  17
TORSDOF 28
ENDMDL
MODEL 8
REMARK VINA RESULT:    -4.886      3.483      7.767
REMARK INTER + INTRA:         -16.738
REMARK INTER:                 -13.487
REMARK INTRA:                  -3.251
REMARK UNBOUND:                -3.997
REMARK SMILES CCCCCCCCCCCCCCCCCCCCCCCCCCCCCO
REMARK SMILES IDX 16 1 15 2 14 3 13 4 12 5 11 6 10 7 9 8 8 9 7 10 6 11 5 12
REMARK SMILES IDX 4 13 3 14 2 15 1 16 17 17 18 18 19 19 20 20 21 21 22 22
REMARK SMILES IDX 23 23 24 24 25 25 26 26 27 27 28 28 29 29 30 30
REMARK H PARENT 30 31
REMARK Flexibility Score: inf
ROOT
ATOM      1  C   UNL     1       8.291   9.228  -1.848  1.00  0.00     0.000 C 
ENDROOT
BRANCH   1   2
ATOM      2  C   UNL     1       7.047   9.186  -0.946  1.00  0.00     0.000 C 
BRANCH   2   3
ATOM      3  C   UNL     1       5.762   9.604  -1.683  1.00  0.00     0.000 C 
BRANCH   3   4
ATOM      4  C   UNL     1       5.910   9.492  -3.213  1.00  0.00     0.000 C 
BRANCH   4   5
ATOM      5  C   UNL     1       4.592   9.751  -3.964  1.00  0.00     0.000 C 
BRANCH   5   6
ATOM      6  C   UNL     1       3.378   9.735  -3.019  1.00  0.00     0.000 C 
BRANCH   6   7
ATOM      7  C   UNL     1       2.284   8.748  -3.474  1.00  0.00     0.000 C 
BRANCH   7   8
ATOM      8  C   UNL     1       1.094   8.601  -2.495  1.00  0.00    -0.000 C 
BRANCH   8   9
ATOM      9  C   UNL     1       0.671   9.891  -1.757  1.00  0.00    -0.000 C 
BRANCH   9  10
ATOM     10  C   UNL     1      -0.416  10.711  -2.475  1.00  0.00    -0.000 C 
BRANCH  10  11
ATOM     11  C   UNL     1      -1.728  10.778  -1.672  1.00  0.00    -0.000 C 
BRANCH  11  12
ATOM     12  C   UNL     1      -2.550   9.478  -1.793  1.00  0.00    -0.000 C 
BRANCH  12  13
ATOM     13  C   UNL     1      -3.579   9.509  -2.938  1.00  0.00    -0.000 C 
BRANCH  13  14
ATOM     14  C   UNL     1      -3.662   8.180  -3.700  1.00  0.00    -0.000 C 
BRANCH  14  15
ATOM     15  C   UNL     1      -2.264   7.645  -4.033  1.00  0.00    -0.003 C 
ATOM     16  C   UNL     1      -1.652   8.397  -5.213  1.00  0.00     0.004 C 
ENDBRANCH  14  15
ENDBRANCH  13  14
ENDBRANCH  12  13
ENDBRANCH  11  12
ENDBRANCH  10  11
ENDBRANCH   9  10
ENDBRANCH   8   9
ENDBRANCH   7   8
ENDBRANCH   6   7
ENDBRANCH   5   6
ENDBRANCH   4   5
ENDBRANCH   3   4
ENDBRANCH   2   3
ENDBRANCH   1   2
BRANCH   1  17
ATOM     17  C   UNL     1       9.062   7.897  -1.852  1.00  0.00     0.000 C 
BRANCH  17  18
ATOM     18  C   UNL     1       8.221   6.724  -1.321  1.00  0.00     0.000 C 
BRANCH  18  19
ATOM     19  C   UNL     1       8.990   5.840  -0.325  1.00  0.00     0.000 C 
BRANCH  19  20
ATOM     20  C   UNL     1       8.665   4.345  -0.486  1.00  0.00     0.000 C 
BRANCH  20  21
ATOM     21  C   UNL     1       9.875   3.444  -0.803  1.00  0.00     0.000 C 
BRANCH  21  22
ATOM     22  C   UNL     1      10.292   3.456  -2.290  1.00  0.00     0.000 C 
BRANCH  22  23
ATOM     23  C   UNL     1      11.665   4.117  -2.509  1.00  0.00     0.000 C 
BRANCH  23  24
ATOM     24  C   UNL     1      11.552   5.466  -3.253  1.00  0.00     0.000 C 
BRANCH  24  25
ATOM     25  C   UNL     1      10.663   5.405  -4.507  1.00  0.00     0.000 C 
BRANCH  25  26
ATOM     26  C   UNL     1      11.350   5.985  -5.754  1.00  0.00     0.000 C 
BRANCH  26  27
ATOM     27  C   UNL     1      10.670   7.265  -6.272  1.00  0.00     0.002 C 
BRANCH  27  28
ATOM     28  C   UNL     1       9.438   7.715  -5.461  1.00  0.00     0.028 C 
BRANCH  28  29
ATOM     29  C   UNL     1       9.276   9.241  -5.377  1.00  0.00     0.156 C 
BRANCH  29  30
ATOM     30  O   UNL     1      10.386   9.832  -4.757  1.00  0.00    -0.396 OA
ATOM     31  H   UNL     1      10.428   9.461  -3.837  1.00  0.00     0.210 HD
ENDBRANCH  29  30
ENDBRANCH  28  29
ENDBRANCH  27  28
ENDBRANCH  26  27
ENDBRANCH  25  26
ENDBRANCH  24  25
ENDBRANCH  23  24
ENDBRANCH  22  23
ENDBRANCH  21  22
ENDBRANCH  20  21
ENDBRANCH  19  20
ENDBRANCH  18  19
ENDBRANCH  17  18
ENDBRANCH   1  17
TORSDOF 28
ENDMDL
MODEL 9
REMARK VINA RESULT:    -4.837      1.708      5.685
REMARK INTER + INTRA:         -16.609
REMARK INTER:                 -12.993
REMARK INTRA:                  -3.616
REMARK UNBOUND:                -3.997
REMARK SMILES CCCCCCCCCCCCCCCCCCCCCCCCCCCCCO
REMARK SMILES IDX 16 1 15 2 14 3 13 4 12 5 11 6 10 7 9 8 8 9 7 10 6 11 5 12
REMARK SMILES IDX 4 13 3 14 2 15 1 16 17 17 18 18 19 19 20 20 21 21 22 22
REMARK SMILES IDX 23 23 24 24 25 25 26 26 27 27 28 28 29 29 30 30
REMARK H PARENT 30 31
REMARK Flexibility Score: inf
ROOT
ATOM      1  C   UNL     1      11.030   3.555  -3.387  1.00  0.00     0.000 C 
ENDROOT
BRANCH   1   2
ATOM      2  C   UNL     1      11.780   4.846  -3.021  1.00  0.00     0.000 C 
BRANCH   2   3
ATOM      3  C   UNL     1      11.261   6.075  -3.790  1.00  0.00     0.000 C 
BRANCH   3   4
ATOM      4  C   UNL     1       9.987   5.758  -4.596  1.00  0.00     0.000 C 
BRANCH   4   5
ATOM      5  C   UNL     1       9.515   6.939  -5.462  1.00  0.00     0.000 C 
BRANCH   5   6
ATOM      6  C   UNL     1      10.068   8.282  -4.955  1.00  0.00     0.000 C 
BRANCH   6   7
ATOM      7  C   UNL     1      10.144   9.351  -6.063  1.00  0.00     0.000 C 
BRANCH   7   8
ATOM      8  C   UNL     1       9.598   8.899  -7.439  1.00  0.00    -0.000 C 
BRANCH   8   9
ATOM      9  C   UNL     1       8.233   9.498  -7.847  1.00  0.00    -0.000 C 
BRANCH   9  10
ATOM     10  C   UNL     1       7.229   9.650  -6.691  1.00  0.00    -0.000 C 
BRANCH  10  11
ATOM     11  C   UNL     1       6.105  10.651  -7.016  1.00  0.00    -0.000 C 
BRANCH  11  12
ATOM     12  C   UNL     1       4.705  10.060  -6.746  1.00  0.00    -0.000 C 
BRANCH  12  13
ATOM     13  C   UNL     1       4.030   9.485  -8.004  1.00  0.00    -0.000 C 
BRANCH  13  14
ATOM     14  C   UNL     1       3.363   8.127  -7.754  1.00  0.00    -0.000 C 
BRANCH  14  15
ATOM     15  C   UNL     1       3.818   7.089  -8.787  1.00  0.00    -0.003 C 
ATOM     16  C   UNL     1       5.327   7.155  -9.008  1.00  0.00     0.004 C 
ENDBRANCH  14  15
ENDBRANCH  13  14
ENDBRANCH  12  13
ENDBRANCH  11  12
ENDBRANCH  10  11
ENDBRANCH   9  10
ENDBRANCH   8   9
ENDBRANCH   7   8
ENDBRANCH   6   7
ENDBRANCH   5   6
ENDBRANCH   4   5
ENDBRANCH   3   4
ENDBRANCH   2   3
ENDBRANCH   1   2
BRANCH   1  17
ATOM     17  C   UNL     1      10.393   2.875  -2.163  1.00  0.00     0.000 C 
BRANCH  17  18
ATOM     18  C   UNL     1      10.479   3.740  -0.895  1.00  0.00     0.000 C 
BRANCH  18  19
ATOM     19  C   UNL     1       9.097   4.155  -0.360  1.00  0.00     0.000 C 
BRANCH  19  20
ATOM     20  C   UNL     1       8.342   5.083  -1.329  1.00  0.00     0.000 C 
BRANCH  20  21
ATOM     21  C   UNL     1       8.469   6.588  -1.024  1.00  0.00     0.000 C 
BRANCH  21  22
ATOM     22  C   UNL     1       7.889   7.501  -2.126  1.00  0.00     0.000 C 
BRANCH  22  23
ATOM     23  C   UNL     1       7.162   8.728  -1.548  1.00  0.00     0.000 C 
BRANCH  23  24
ATOM     24  C   UNL     1       6.222   9.390  -2.581  1.00  0.00     0.000 C 
BRANCH  24  25
ATOM     25  C   UNL     1       5.363  10.523  -1.994  1.00  0.00     0.000 C 
BRANCH  25  26
ATOM     26  C   UNL     1       3.859  10.321  -2.242  1.00  0.00     0.000 C 
BRANCH  26  27
ATOM     27  C   UNL     1       3.567   9.453  -3.479  1.00  0.00     0.002 C 
BRANCH  27  28
ATOM     28  C   UNL     1       2.417   8.441  -3.301  1.00  0.00     0.028 C 
BRANCH  28  29
ATOM     29  C   UNL     1       1.151   9.045  -2.675  1.00  0.00     0.156 C 
BRANCH  29  30
ATOM     30  O   UNL     1       0.311   8.043  -2.170  1.00  0.00    -0.396 OA
ATOM     31  H   UNL     1      -0.581   8.458  -2.042  1.00  0.00     0.210 HD
ENDBRANCH  29  30
ENDBRANCH  28  29
ENDBRANCH  27  28
ENDBRANCH  26  27
ENDBRANCH  25  26
ENDBRANCH  24  25
ENDBRANCH  23  24
ENDBRANCH  22  23
ENDBRANCH  21  22
ENDBRANCH  20  21
ENDBRANCH  19  20
ENDBRANCH  18  19
ENDBRANCH  17  18
ENDBRANCH   1  17
TORSDOF 28
ENDMDL
