MODEL 1
REMARK VINA RESULT:    -7.092      0.000      0.000
REMARK INTER + INTRA:          -7.300
REMARK INTER:                  -7.300
REMARK INTRA:                   0.000
REMARK UNBOUND:                 0.000
REMARK SMILES C[C@H]1CC[C@]2(OC1)O[C@H]1C[C@@H]3[C@@H]4CC=C5C[C@@H](O)CC[C@]5(C)[C@H]4CC[C@]3(C)[C@@H]1[C@@H]2C
REMARK SMILES IDX 1 1 2 2 3 3 4 4 5 5 29 6 28 7 9 8 8 9 10 10 11 11 26 12
REMARK SMILES IDX 25 13 24 14 23 15 12 16 13 17 14 18 15 19 21 20 20 21 19 22
REMARK SMILES IDX 17 23 16 24 22 25 27 26 30 27 6 28 7 29 18 30
REMARK H PARENT 18 31
REMARK Flexibility Score: inf
ROOT
ATOM      1  C   UNL     1     -17.341  20.721  -7.835  1.00  0.00     0.010 C 
ATOM      2  C   UNL     1     -17.611  19.861  -9.075  1.00  0.00     0.012 C 
ATOM      3  C   UNL     1     -16.651  18.666  -9.129  1.00  0.00     0.011 C 
ATOM      4  C   UNL     1     -17.023  17.754 -10.298  1.00  0.00     0.066 C 
ATOM      5  C   UNL     1     -18.525  17.365 -10.235  1.00  0.00     0.171 C 
ATOM      6  C   UNL     1     -19.014  16.485 -11.459  1.00  0.00     0.052 C 
ATOM      7  C   UNL     1     -19.801  15.433 -10.699  1.00  0.00     0.033 C 
ATOM      8  C   UNL     1     -19.006  15.310  -9.460  1.00  0.00     0.126 C 
ATOM      9  O   UNL     1     -18.766  16.620  -9.033  1.00  0.00    -0.346 OA
ATOM     10  C   UNL     1     -19.863  14.431  -8.568  1.00  0.00     0.037 C 
ATOM     11  C   UNL     1     -20.633  13.493  -9.558  1.00  0.00     0.002 C 
ATOM     12  C   UNL     1     -20.322  14.005 -11.014  1.00  0.00    -0.024 C 
ATOM     13  C   UNL     1     -19.357  13.031 -11.776  1.00  0.00     0.008 C 
ATOM     14  C   UNL     1     -18.291  12.331 -10.919  1.00  0.00     0.005 C 
ATOM     15  C   UNL     1     -18.865  11.612  -9.657  1.00  0.00     0.003 C 
ATOM     16  C   UNL     1     -20.346  11.978  -9.385  1.00  0.00     0.000 C 
ATOM     17  C   UNL     1     -20.783  11.459  -8.005  1.00  0.00     0.031 C 
ATOM     18  C   UNL     1     -20.366  10.034  -7.764  1.00  0.00    -0.027 C 
ATOM     19  C   UNL     1     -19.333   9.434  -8.399  1.00  0.00    -0.065 C 
ATOM     20  C   UNL     1     -18.658  10.047  -9.638  1.00  0.00    -0.008 C 
ATOM     21  C   UNL     1     -17.124   9.745  -9.574  1.00  0.00     0.014 C 
ATOM     22  C   UNL     1     -16.788   8.285  -9.236  1.00  0.00     0.033 C 
ATOM     23  C   UNL     1     -17.439   7.858  -7.917  1.00  0.00     0.118 C 
ATOM     24  C   UNL     1     -18.962   8.020  -7.993  1.00  0.00     0.063 C 
ATOM     25  C   UNL     1     -19.275   9.373 -10.896  1.00  0.00     0.016 C 
ATOM     26  C   UNL     1     -21.625  14.114 -11.845  1.00  0.00     0.012 C 
ATOM     27  C   UNL     1     -17.919  15.938 -12.389  1.00  0.00     0.014 C 
ATOM     28  O   UNL     1     -19.318  18.549 -10.226  1.00  0.00    -0.349 OA
ATOM     29  C   UNL     1     -19.064  19.358  -9.089  1.00  0.00     0.167 C 
ENDROOT
BRANCH  23  30
ATOM     30  O   UNL     1     -17.113   6.518  -7.659  1.00  0.00    -0.393 OA
ATOM     31  H   UNL     1     -16.672   6.498  -6.770  1.00  0.00     0.210 HD
ENDBRANCH  23  30
TORSDOF 1
ENDMDL
MODEL 2
REMARK VINA RESULT:    -6.659      2.867      4.403
REMARK INTER + INTRA:          -6.853
REMARK INTER:                  -6.853
REMARK INTRA:                   0.000
REMARK UNBOUND:                 0.000
REMARK SMILES C[C@H]1CC[C@]2(OC1)O[C@H]1C[C@@H]3[C@@H]4CC=C5C[C@@H](O)CC[C@]5(C)[C@H]4CC[C@]3(C)[C@@H]1[C@@H]2C
REMARK SMILES IDX 1 1 2 2 3 3 4 4 5 5 29 6 28 7 9 8 8 9 10 10 11 11 26 12
REMARK SMILES IDX 25 13 24 14 23 15 12 16 13 17 14 18 15 19 21 20 20 21 19 22
REMARK SMILES IDX 17 23 16 24 22 25 27 26 30 27 6 28 7 29 18 30
REMARK H PARENT 18 31
REMARK Flexibility Score: inf
ROOT
ATOM      1  C   UNL     1     -22.109  17.374 -15.812  1.00  0.00     0.010 C 
ATOM      2  C   UNL     1     -22.404  17.036 -14.346  1.00  0.00     0.012 C 
ATOM      3  C   UNL     1     -22.897  15.590 -14.209  1.00  0.00     0.011 C 
ATOM      4  C   UNL     1     -23.059  15.235 -12.731  1.00  0.00     0.066 C 
ATOM      5  C   UNL     1     -21.755  15.543 -11.946  1.00  0.00     0.171 C 
ATOM      6  C   UNL     1     -21.864  15.279 -10.387  1.00  0.00     0.052 C 
ATOM      7  C   UNL     1     -20.559  14.536 -10.176  1.00  0.00     0.033 C 
ATOM      8  C   UNL     1     -20.437  13.790 -11.447  1.00  0.00     0.126 C 
ATOM      9  O   UNL     1     -20.695  14.722 -12.458  1.00  0.00    -0.346 OA
ATOM     10  C   UNL     1     -19.043  13.196 -11.384  1.00  0.00     0.037 C 
ATOM     11  C   UNL     1     -18.784  12.952  -9.859  1.00  0.00     0.002 C 
ATOM     12  C   UNL     1     -19.988  13.599  -9.078  1.00  0.00    -0.024 C 
ATOM     13  C   UNL     1     -20.946  12.508  -8.484  1.00  0.00     0.008 C 
ATOM     14  C   UNL     1     -21.117  11.232  -9.323  1.00  0.00     0.005 C 
ATOM     15  C   UNL     1     -19.769  10.566  -9.746  1.00  0.00     0.003 C 
ATOM     16  C   UNL     1     -18.543  11.471  -9.462  1.00  0.00     0.000 C 
ATOM     17  C   UNL     1     -17.283  10.891 -10.125  1.00  0.00     0.031 C 
ATOM     18  C   UNL     1     -17.127   9.416  -9.879  1.00  0.00    -0.027 C 
ATOM     19  C   UNL     1     -18.154   8.589  -9.577  1.00  0.00    -0.065 C 
ATOM     20  C   UNL     1     -19.543   9.113  -9.172  1.00  0.00    -0.008 C 
ATOM     21  C   UNL     1     -20.631   8.163  -9.770  1.00  0.00     0.014 C 
ATOM     22  C   UNL     1     -20.348   6.669  -9.548  1.00  0.00     0.033 C 
ATOM     23  C   UNL     1     -18.978   6.278 -10.108  1.00  0.00     0.118 C 
ATOM     24  C   UNL     1     -17.870   7.105  -9.445  1.00  0.00     0.063 C 
ATOM     25  C   UNL     1     -19.622   9.093  -7.619  1.00  0.00     0.016 C 
ATOM     26  C   UNL     1     -19.475  14.460  -7.897  1.00  0.00     0.012 C 
ATOM     27  C   UNL     1     -23.124  14.541  -9.905  1.00  0.00     0.014 C 
ATOM     28  O   UNL     1     -21.416  16.917 -12.117  1.00  0.00    -0.349 OA
ATOM     29  C   UNL     1     -21.155  17.241 -13.473  1.00  0.00     0.167 C 
ENDROOT
BRANCH  23  30
ATOM     30  O   UNL     1     -18.760   4.912  -9.872  1.00  0.00    -0.393 OA
ATOM     31  H   UNL     1     -17.937   4.845  -9.321  1.00  0.00     0.210 HD
ENDBRANCH  23  30
TORSDOF 1
ENDMDL
MODEL 3
REMARK VINA RESULT:    -6.592      1.107      1.266
REMARK INTER + INTRA:          -6.784
REMARK INTER:                  -6.784
REMARK INTRA:                   0.000
REMARK UNBOUND:                 0.000
REMARK SMILES C[C@H]1CC[C@]2(OC1)O[C@H]1C[C@@H]3[C@@H]4CC=C5C[C@@H](O)CC[C@]5(C)[C@H]4CC[C@]3(C)[C@@H]1[C@@H]2C
REMARK SMILES IDX 1 1 2 2 3 3 4 4 5 5 29 6 28 7 9 8 8 9 10 10 11 11 26 12
REMARK SMILES IDX 25 13 24 14 23 15 12 16 13 17 14 18 15 19 21 20 20 21 19 22
REMARK SMILES IDX 17 23 16 24 22 25 27 26 30 27 6 28 7 29 18 30
REMARK H PARENT 18 31
REMARK Flexibility Score: inf
ROOT
ATOM      1  C   UNL     1     -16.393  20.543  -6.570  1.00  0.00     0.010 C 
ATOM      2  C   UNL     1     -17.056  19.844  -7.762  1.00  0.00     0.012 C 
ATOM      3  C   UNL     1     -16.231  18.632  -8.211  1.00  0.00     0.011 C 
ATOM      4  C   UNL     1     -16.976  17.875  -9.311  1.00  0.00     0.066 C 
ATOM      5  C   UNL     1     -18.421  17.532  -8.859  1.00  0.00     0.171 C 
ATOM      6  C   UNL     1     -19.291  16.817  -9.974  1.00  0.00     0.052 C 
ATOM      7  C   UNL     1     -19.899  15.711  -9.132  1.00  0.00     0.033 C 
ATOM      8  C   UNL     1     -18.797  15.418  -8.193  1.00  0.00     0.126 C 
ATOM      9  O   UNL     1     -18.362  16.660  -7.721  1.00  0.00    -0.346 OA
ATOM     10  C   UNL     1     -19.423  14.470  -7.187  1.00  0.00     0.037 C 
ATOM     11  C   UNL     1     -20.500  13.680  -8.004  1.00  0.00     0.002 C 
ATOM     12  C   UNL     1     -20.580  14.348  -9.428  1.00  0.00    -0.024 C 
ATOM     13  C   UNL     1     -19.935  13.438 -10.530  1.00  0.00     0.008 C 
ATOM     14  C   UNL     1     -18.719  12.607 -10.092  1.00  0.00     0.005 C 
ATOM     15  C   UNL     1     -18.959  11.765  -8.799  1.00  0.00     0.003 C 
ATOM     16  C   UNL     1     -20.277  12.146  -8.077  1.00  0.00     0.000 C 
ATOM     17  C   UNL     1     -20.340  11.484  -6.690  1.00  0.00     0.031 C 
ATOM     18  C   UNL     1     -19.966  10.029  -6.726  1.00  0.00    -0.027 C 
ATOM     19  C   UNL     1     -19.195   9.472  -7.689  1.00  0.00    -0.065 C 
ATOM     20  C   UNL     1     -18.857  10.202  -9.000  1.00  0.00    -0.008 C 
ATOM     21  C   UNL     1     -17.391   9.845  -9.410  1.00  0.00     0.014 C 
ATOM     22  C   UNL     1     -17.069   8.344  -9.334  1.00  0.00     0.033 C 
ATOM     23  C   UNL     1     -17.349   7.789  -7.935  1.00  0.00     0.118 C 
ATOM     24  C   UNL     1     -18.817   8.009  -7.554  1.00  0.00     0.063 C 
ATOM     25  C   UNL     1     -19.846   9.701 -10.090  1.00  0.00     0.016 C 
ATOM     26  C   UNL     1     -22.054  14.596  -9.834  1.00  0.00     0.012 C 
ATOM     27  C   UNL     1     -18.541  16.346 -11.231  1.00  0.00     0.014 C 
ATOM     28  O   UNL     1     -19.101  18.733  -8.502  1.00  0.00    -0.349 OA
ATOM     29  C   UNL     1     -18.484  19.394  -7.409  1.00  0.00     0.167 C 
ENDROOT
BRANCH  23  30
ATOM     30  O   UNL     1     -17.052   6.418  -7.919  1.00  0.00    -0.393 OA
ATOM     31  H   UNL     1     -16.125   6.330  -7.574  1.00  0.00     0.210 HD
ENDBRANCH  23  30
TORSDOF 1
ENDMDL
MODEL 4
REMARK VINA RESULT:    -6.453      1.972      8.330
REMARK INTER + INTRA:          -6.642
REMARK INTER:                  -6.642
REMARK INTRA:                   0.000
REMARK UNBOUND:                 0.000
REMARK SMILES C[C@H]1CC[C@]2(OC1)O[C@H]1C[C@@H]3[C@@H]4CC=C5C[C@@H](O)CC[C@]5(C)[C@H]4CC[C@]3(C)[C@@H]1[C@@H]2C
REMARK SMILES IDX 1 1 2 2 3 3 4 4 5 5 29 6 28 7 9 8 8 9 10 10 11 11 26 12
REMARK SMILES IDX 25 13 24 14 23 15 12 16 13 17 14 18 15 19 21 20 20 21 19 22
REMARK SMILES IDX 17 23 16 24 22 25 27 26 30 27 6 28 7 29 18 30
REMARK H PARENT 18 31
REMARK Flexibility Score: inf
ROOT
ATOM      1  C   UNL     1     -17.876   5.613  -8.983  1.00  0.00     0.010 C 
ATOM      2  C   UNL     1     -18.726   6.605  -8.182  1.00  0.00     0.012 C 
ATOM      3  C   UNL     1     -17.847   7.692  -7.551  1.00  0.00     0.011 C 
ATOM      4  C   UNL     1     -18.726   8.740  -6.869  1.00  0.00     0.066 C 
ATOM      5  C   UNL     1     -19.800   9.279  -7.852  1.00  0.00     0.171 C 
ATOM      6  C   UNL     1     -20.808  10.313  -7.200  1.00  0.00     0.052 C 
ATOM      7  C   UNL     1     -20.807  11.370  -8.289  1.00  0.00     0.033 C 
ATOM      8  C   UNL     1     -19.411  11.295  -8.768  1.00  0.00     0.126 C 
ATOM      9  O   UNL     1     -19.146   9.934  -8.948  1.00  0.00    -0.346 OA
ATOM     10  C   UNL     1     -19.407  12.176 -10.004  1.00  0.00     0.037 C 
ATOM     11  C   UNL     1     -20.482  13.276  -9.710  1.00  0.00     0.002 C 
ATOM     12  C   UNL     1     -21.206  12.867  -8.373  1.00  0.00    -0.024 C 
ATOM     13  C   UNL     1     -20.788  13.798  -7.182  1.00  0.00     0.008 C 
ATOM     14  C   UNL     1     -19.336  14.301  -7.196  1.00  0.00     0.005 C 
ATOM     15  C   UNL     1     -18.906  14.960  -8.545  1.00  0.00     0.003 C 
ATOM     16  C   UNL     1     -19.942  14.730  -9.676  1.00  0.00     0.000 C 
ATOM     17  C   UNL     1     -19.362  15.166 -11.031  1.00  0.00     0.031 C 
ATOM     18  C   UNL     1     -18.691  16.510 -10.969  1.00  0.00    -0.027 C 
ATOM     19  C   UNL     1     -18.195  17.052  -9.833  1.00  0.00    -0.065 C 
ATOM     20  C   UNL     1     -18.515  16.486  -8.439  1.00  0.00    -0.008 C 
ATOM     21  C   UNL     1     -17.242  16.615  -7.540  1.00  0.00     0.014 C 
ATOM     22  C   UNL     1     -16.570  17.995  -7.604  1.00  0.00     0.033 C 
ATOM     23  C   UNL     1     -16.207  18.367  -9.044  1.00  0.00     0.118 C 
ATOM     24  C   UNL     1     -17.459  18.376  -9.928  1.00  0.00     0.063 C 
ATOM     25  C   UNL     1     -19.673  17.332  -7.839  1.00  0.00     0.016 C 
ATOM     26  C   UNL     1     -22.743  12.973  -8.528  1.00  0.00     0.012 C 
ATOM     27  C   UNL     1     -20.452  10.822  -5.793  1.00  0.00     0.014 C 
ATOM     28  O   UNL     1     -20.576   8.190  -8.345  1.00  0.00    -0.349 OA
ATOM     29  C   UNL     1     -19.793   7.259  -9.075  1.00  0.00     0.167 C 
ENDROOT
BRANCH  23  30
ATOM     30  O   UNL     1     -15.608  19.636  -9.052  1.00  0.00    -0.393 OA
ATOM     31  H   UNL     1     -15.522  19.905 -10.003  1.00  0.00     0.210 HD
ENDBRANCH  23  30
TORSDOF 1
ENDMDL
MODEL 5
REMARK VINA RESULT:    -6.451      2.882      9.378
REMARK INTER + INTRA:          -6.640
REMARK INTER:                  -6.640
REMARK INTRA:                   0.000
REMARK UNBOUND:                 0.000
REMARK SMILES C[C@H]1CC[C@]2(OC1)O[C@H]1C[C@@H]3[C@@H]4CC=C5C[C@@H](O)CC[C@]5(C)[C@H]4CC[C@]3(C)[C@@H]1[C@@H]2C
REMARK SMILES IDX 1 1 2 2 3 3 4 4 5 5 29 6 28 7 9 8 8 9 10 10 11 11 26 12
REMARK SMILES IDX 25 13 24 14 23 15 12 16 13 17 14 18 15 19 21 20 20 21 19 22
REMARK SMILES IDX 17 23 16 24 22 25 27 26 30 27 6 28 7 29 18 30
REMARK H PARENT 18 31
REMARK Flexibility Score: inf
ROOT
ATOM      1  C   UNL     1     -21.917   3.524  -4.488  1.00  0.00     0.010 C 
ATOM      2  C   UNL     1     -21.125   3.843  -5.761  1.00  0.00     0.012 C 
ATOM      3  C   UNL     1     -21.976   4.656  -6.743  1.00  0.00     0.011 C 
ATOM      4  C   UNL     1     -21.127   5.074  -7.944  1.00  0.00     0.066 C 
ATOM      5  C   UNL     1     -19.832   5.790  -7.477  1.00  0.00     0.171 C 
ATOM      6  C   UNL     1     -18.852   6.185  -8.659  1.00  0.00     0.052 C 
ATOM      7  C   UNL     1     -18.525   7.605  -8.237  1.00  0.00     0.033 C 
ATOM      8  C   UNL     1     -19.804   8.033  -7.632  1.00  0.00     0.126 C 
ATOM      9  O   UNL     1     -20.186   6.993  -6.779  1.00  0.00    -0.346 OA
ATOM     10  C   UNL     1     -19.472   9.370  -6.997  1.00  0.00     0.037 C 
ATOM     11  C   UNL     1     -18.353   9.976  -7.909  1.00  0.00     0.002 C 
ATOM     12  C   UNL     1     -17.947   8.861  -8.943  1.00  0.00    -0.024 C 
ATOM     13  C   UNL     1     -18.473   9.189 -10.384  1.00  0.00     0.008 C 
ATOM     14  C   UNL     1     -19.829   9.910 -10.459  1.00  0.00     0.005 C 
ATOM     15  C   UNL     1     -19.916  11.191  -9.570  1.00  0.00     0.003 C 
ATOM     16  C   UNL     1     -18.718  11.320  -8.594  1.00  0.00     0.000 C 
ATOM     17  C   UNL     1     -18.977  12.440  -7.573  1.00  0.00     0.031 C 
ATOM     18  C   UNL     1     -19.487  13.701  -8.213  1.00  0.00    -0.027 C 
ATOM     19  C   UNL     1     -20.124  13.735  -9.407  1.00  0.00    -0.065 C 
ATOM     20  C   UNL     1     -20.141  12.534 -10.368  1.00  0.00    -0.008 C 
ATOM     21  C   UNL     1     -21.537  12.472 -11.069  1.00  0.00     0.014 C 
ATOM     22  C   UNL     1     -22.022  13.823 -11.617  1.00  0.00     0.033 C 
ATOM     23  C   UNL     1     -22.060  14.886 -10.516  1.00  0.00     0.118 C 
ATOM     24  C   UNL     1     -20.670  15.064  -9.894  1.00  0.00     0.063 C 
ATOM     25  C   UNL     1     -19.028  12.762 -11.430  1.00  0.00     0.016 C 
ATOM     26  C   UNL     1     -16.407   8.728  -9.030  1.00  0.00     0.012 C 
ATOM     27  C   UNL     1     -19.407   6.037 -10.086  1.00  0.00     0.014 C 
ATOM     28  O   UNL     1     -19.107   4.930  -6.601  1.00  0.00    -0.349 OA
ATOM     29  C   UNL     1     -19.839   4.618  -5.428  1.00  0.00     0.167 C 
ENDROOT
BRANCH  23  30
ATOM     30  O   UNL     1     -22.496  16.100 -11.067  1.00  0.00    -0.393 OA
ATOM     31  H   UNL     1     -21.688  16.663 -11.193  1.00  0.00     0.210 HD
ENDBRANCH  23  30
TORSDOF 1
ENDMDL
MODEL 6
REMARK VINA RESULT:    -6.372      4.025      7.824
REMARK INTER + INTRA:          -6.558
REMARK INTER:                  -6.558
REMARK INTRA:                   0.000
REMARK UNBOUND:                 0.000
REMARK SMILES C[C@H]1CC[C@]2(OC1)O[C@H]1C[C@@H]3[C@@H]4CC=C5C[C@@H](O)CC[C@]5(C)[C@H]4CC[C@]3(C)[C@@H]1[C@@H]2C
REMARK SMILES IDX 1 1 2 2 3 3 4 4 5 5 29 6 28 7 9 8 8 9 10 10 11 11 26 12
REMARK SMILES IDX 25 13 24 14 23 15 12 16 13 17 14 18 15 19 21 20 20 21 19 22
REMARK SMILES IDX 17 23 16 24 22 25 27 26 30 27 6 28 7 29 18 30
REMARK H PARENT 18 31
REMARK Flexibility Score: inf
ROOT
ATOM      1  C   UNL     1     -13.389  18.735  -6.595  1.00  0.00     0.010 C 
ATOM      2  C   UNL     1     -14.866  18.348  -6.464  1.00  0.00     0.012 C 
ATOM      3  C   UNL     1     -15.763  19.381  -7.159  1.00  0.00     0.011 C 
ATOM      4  C   UNL     1     -17.217  18.908  -7.130  1.00  0.00     0.066 C 
ATOM      5  C   UNL     1     -17.338  17.470  -7.701  1.00  0.00     0.171 C 
ATOM      6  C   UNL     1     -18.804  16.871  -7.631  1.00  0.00     0.052 C 
ATOM      7  C   UNL     1     -18.896  16.296  -9.032  1.00  0.00     0.033 C 
ATOM      8  C   UNL     1     -18.107  17.278  -9.805  1.00  0.00     0.126 C 
ATOM      9  O   UNL     1     -16.930  17.475  -9.076  1.00  0.00    -0.346 OA
ATOM     10  C   UNL     1     -17.981  16.641 -11.176  1.00  0.00     0.037 C 
ATOM     11  C   UNL     1     -19.295  15.806 -11.348  1.00  0.00     0.002 C 
ATOM     12  C   UNL     1     -20.051  15.848  -9.967  1.00  0.00    -0.024 C 
ATOM     13  C   UNL     1     -21.326  16.760 -10.034  1.00  0.00     0.008 C 
ATOM     14  C   UNL     1     -21.223  17.997 -10.941  1.00  0.00     0.005 C 
ATOM     15  C   UNL     1     -20.733  17.682 -12.389  1.00  0.00     0.003 C 
ATOM     16  C   UNL     1     -20.196  16.235 -12.535  1.00  0.00     0.000 C 
ATOM     17  C   UNL     1     -19.493  16.058 -13.891  1.00  0.00     0.031 C 
ATOM     18  C   UNL     1     -20.292  16.619 -15.034  1.00  0.00    -0.027 C 
ATOM     19  C   UNL     1     -21.227  17.587 -14.897  1.00  0.00    -0.065 C 
ATOM     20  C   UNL     1     -21.777  18.014 -13.526  1.00  0.00    -0.008 C 
ATOM     21  C   UNL     1     -22.024  19.558 -13.544  1.00  0.00     0.014 C 
ATOM     22  C   UNL     1     -22.770  20.058 -14.791  1.00  0.00     0.033 C 
ATOM     23  C   UNL     1     -22.038  19.652 -16.073  1.00  0.00     0.118 C 
ATOM     24  C   UNL     1     -21.893  18.127 -16.149  1.00  0.00     0.063 C 
ATOM     25  C   UNL     1     -23.122  17.268 -13.302  1.00  0.00     0.016 C 
ATOM     26  C   UNL     1     -20.515  14.430  -9.554  1.00  0.00     0.012 C 
ATOM     27  C   UNL     1     -19.927  17.852  -7.251  1.00  0.00     0.014 C 
ATOM     28  O   UNL     1     -16.492  16.595  -6.958  1.00  0.00    -0.349 OA
ATOM     29  C   UNL     1     -15.124  16.955  -7.062  1.00  0.00     0.167 C 
ENDROOT
BRANCH  23  30
ATOM     30  O   UNL     1     -22.761  20.119 -17.180  1.00  0.00    -0.393 OA
ATOM     31  H   UNL     1     -23.050  19.318 -17.691  1.00  0.00     0.210 HD
ENDBRANCH  23  30
TORSDOF 1
ENDMDL
MODEL 7
REMARK VINA RESULT:    -6.189      1.808      8.441
REMARK INTER + INTRA:          -6.369
REMARK INTER:                  -6.369
REMARK INTRA:                   0.000
REMARK UNBOUND:                 0.000
REMARK SMILES C[C@H]1CC[C@]2(OC1)O[C@H]1C[C@@H]3[C@@H]4CC=C5C[C@@H](O)CC[C@]5(C)[C@H]4CC[C@]3(C)[C@@H]1[C@@H]2C
REMARK SMILES IDX 1 1 2 2 3 3 4 4 5 5 29 6 28 7 9 8 8 9 10 10 11 11 26 12
REMARK SMILES IDX 25 13 24 14 23 15 12 16 13 17 14 18 15 19 21 20 20 21 19 22
REMARK SMILES IDX 17 23 16 24 22 25 27 26 30 27 6 28 7 29 18 30
REMARK H PARENT 18 31
REMARK Flexibility Score: inf
ROOT
ATOM      1  C   UNL     1     -17.501   4.810  -8.726  1.00  0.00     0.010 C 
ATOM      2  C   UNL     1     -18.590   5.736  -8.174  1.00  0.00     0.012 C 
ATOM      3  C   UNL     1     -17.969   6.949  -7.470  1.00  0.00     0.011 C 
ATOM      4  C   UNL     1     -19.069   7.922  -7.044  1.00  0.00     0.066 C 
ATOM      5  C   UNL     1     -19.980   8.280  -8.248  1.00  0.00     0.171 C 
ATOM      6  C   UNL     1     -21.199   9.222  -7.876  1.00  0.00     0.052 C 
ATOM      7  C   UNL     1     -21.096  10.214  -9.019  1.00  0.00     0.033 C 
ATOM      8  C   UNL     1     -19.633  10.277  -9.221  1.00  0.00     0.126 C 
ATOM      9  O   UNL     1     -19.197   8.949  -9.247  1.00  0.00    -0.346 OA
ATOM     10  C   UNL     1     -19.480  11.087 -10.494  1.00  0.00     0.037 C 
ATOM     11  C   UNL     1     -20.700  12.069 -10.489  1.00  0.00     0.002 C 
ATOM     12  C   UNL     1     -21.624  11.648  -9.286  1.00  0.00    -0.024 C 
ATOM     13  C   UNL     1     -21.546  12.682  -8.109  1.00  0.00     0.008 C 
ATOM     14  C   UNL     1     -20.179  13.349  -7.887  1.00  0.00     0.005 C 
ATOM     15  C   UNL     1     -19.566  13.983  -9.175  1.00  0.00     0.003 C 
ATOM     16  C   UNL     1     -20.332  13.576 -10.461  1.00  0.00     0.000 C 
ATOM     17  C   UNL     1     -19.547  14.005 -11.711  1.00  0.00     0.031 C 
ATOM     18  C   UNL     1     -19.045  15.420 -11.622  1.00  0.00    -0.027 C 
ATOM     19  C   UNL     1     -18.839  16.074 -10.456  1.00  0.00    -0.065 C 
ATOM     20  C   UNL     1     -19.365  15.547  -9.110  1.00  0.00    -0.008 C 
ATOM     21  C   UNL     1     -18.312  15.870  -8.000  1.00  0.00     0.014 C 
ATOM     22  C   UNL     1     -17.788  17.314  -8.037  1.00  0.00     0.033 C 
ATOM     23  C   UNL     1     -17.192  17.651  -9.406  1.00  0.00     0.118 C 
ATOM     24  C   UNL     1     -18.242  17.468 -10.508  1.00  0.00     0.063 C 
ATOM     25  C   UNL     1     -20.699  16.283  -8.802  1.00  0.00     0.016 C 
ATOM     26  C   UNL     1     -23.104  11.566  -9.735  1.00  0.00     0.012 C 
ATOM     27  C   UNL     1     -21.179   9.842  -6.468  1.00  0.00     0.014 C 
ATOM     28  O   UNL     1     -20.528   7.084  -8.798  1.00  0.00    -0.349 OA
ATOM     29  C   UNL     1     -19.525   6.214  -9.297  1.00  0.00     0.167 C 
ENDROOT
BRANCH  23  30
ATOM     30  O   UNL     1     -16.739  18.979  -9.394  1.00  0.00    -0.393 OA
ATOM     31  H   UNL     1     -17.023  19.385 -10.253  1.00  0.00     0.210 HD
ENDBRANCH  23  30
TORSDOF 1
ENDMDL
MODEL 8
REMARK VINA RESULT:    -5.994      2.882      8.585
REMARK INTER + INTRA:          -6.169
REMARK INTER:                  -6.169
REMARK INTRA:                   0.000
REMARK UNBOUND:                 0.000
REMARK SMILES C[C@H]1CC[C@]2(OC1)O[C@H]1C[C@@H]3[C@@H]4CC=C5C[C@@H](O)CC[C@]5(C)[C@H]4CC[C@]3(C)[C@@H]1[C@@H]2C
REMARK SMILES IDX 1 1 2 2 3 3 4 4 5 5 29 6 28 7 9 8 8 9 10 10 11 11 26 12
REMARK SMILES IDX 25 13 24 14 23 15 12 16 13 17 14 18 15 19 21 20 20 21 19 22
REMARK SMILES IDX 17 23 16 24 22 25 27 26 30 27 6 28 7 29 18 30
REMARK H PARENT 18 31
REMARK Flexibility Score: inf
ROOT
ATOM      1  C   UNL     1     -22.689   5.071  -8.524  1.00  0.00     0.010 C 
ATOM      2  C   UNL     1     -21.467   5.990  -8.413  1.00  0.00     0.012 C 
ATOM      3  C   UNL     1     -21.101   6.578  -9.781  1.00  0.00     0.011 C 
ATOM      4  C   UNL     1     -19.966   7.590  -9.624  1.00  0.00     0.066 C 
ATOM      5  C   UNL     1     -20.322   8.651  -8.548  1.00  0.00     0.171 C 
ATOM      6  C   UNL     1     -19.163   9.694  -8.263  1.00  0.00     0.052 C 
ATOM      7  C   UNL     1     -19.981  10.971  -8.271  1.00  0.00     0.033 C 
ATOM      8  C   UNL     1     -21.000  10.661  -9.294  1.00  0.00     0.126 C 
ATOM      9  O   UNL     1     -21.478   9.385  -8.977  1.00  0.00    -0.346 OA
ATOM     10  C   UNL     1     -21.978  11.816  -9.192  1.00  0.00     0.037 C 
ATOM     11  C   UNL     1     -21.103  13.038  -8.751  1.00  0.00     0.002 C 
ATOM     12  C   UNL     1     -19.665  12.482  -8.431  1.00  0.00    -0.024 C 
ATOM     13  C   UNL     1     -18.627  12.894  -9.534  1.00  0.00     0.008 C 
ATOM     14  C   UNL     1     -19.166  12.970 -10.971  1.00  0.00     0.005 C 
ATOM     15  C   UNL     1     -20.454  13.839 -11.120  1.00  0.00     0.003 C 
ATOM     16  C   UNL     1     -21.075  14.223  -9.753  1.00  0.00     0.000 C 
ATOM     17  C   UNL     1     -22.466  14.847  -9.951  1.00  0.00     0.031 C 
ATOM     18  C   UNL     1     -22.484  15.887 -11.036  1.00  0.00    -0.027 C 
ATOM     19  C   UNL     1     -21.588  15.936 -12.048  1.00  0.00    -0.065 C 
ATOM     20  C   UNL     1     -20.290  15.110 -12.042  1.00  0.00    -0.008 C 
ATOM     21  C   UNL     1     -19.991  14.635 -13.501  1.00  0.00     0.014 C 
ATOM     22  C   UNL     1     -20.118  15.743 -14.558  1.00  0.00     0.033 C 
ATOM     23  C   UNL     1     -21.504  16.391 -14.516  1.00  0.00     0.118 C 
ATOM     24  C   UNL     1     -21.778  16.984 -13.129  1.00  0.00     0.063 C 
ATOM     25  C   UNL     1     -19.144  16.034 -11.543  1.00  0.00     0.016 C 
ATOM     26  C   UNL     1     -19.151  13.038  -7.079  1.00  0.00     0.012 C 
ATOM     27  C   UNL     1     -17.970   9.673  -9.234  1.00  0.00     0.014 C 
ATOM     28  O   UNL     1     -20.608   7.994  -7.315  1.00  0.00    -0.349 OA
ATOM     29  C   UNL     1     -21.728   7.130  -7.414  1.00  0.00     0.167 C 
ENDROOT
BRANCH  23  30
ATOM     30  O   UNL     1     -21.567  17.402 -15.488  1.00  0.00    -0.393 OA
ATOM     31  H   UNL     1     -20.778  17.280 -16.078  1.00  0.00     0.210 HD
ENDBRANCH  23  30
TORSDOF 1
ENDMDL
MODEL 9
REMARK VINA RESULT:    -5.799      2.080      4.132
REMARK INTER + INTRA:          -5.968
REMARK INTER:                  -5.968
REMARK INTRA:                   0.000
REMARK UNBOUND:                 0.000
REMARK SMILES C[C@H]1CC[C@]2(OC1)O[C@H]1C[C@@H]3[C@@H]4CC=C5C[C@@H](O)CC[C@]5(C)[C@H]4CC[C@]3(C)[C@@H]1[C@@H]2C
REMARK SMILES IDX 1 1 2 2 3 3 4 4 5 5 29 6 28 7 9 8 8 9 10 10 11 11 26 12
REMARK SMILES IDX 25 13 24 14 23 15 12 16 13 17 14 18 15 19 21 20 20 21 19 22
REMARK SMILES IDX 17 23 16 24 22 25 27 26 30 27 6 28 7 29 18 30
REMARK H PARENT 18 31
REMARK Flexibility Score: inf
ROOT
ATOM      1  C   UNL     1     -18.069  17.509 -10.121  1.00  0.00     0.010 C 
ATOM      2  C   UNL     1     -19.271  16.562 -10.202  1.00  0.00     0.012 C 
ATOM      3  C   UNL     1     -18.911  15.288 -10.975  1.00  0.00     0.011 C 
ATOM      4  C   UNL     1     -20.081  14.305 -10.931  1.00  0.00     0.066 C 
ATOM      5  C   UNL     1     -20.534  14.057  -9.467  1.00  0.00     0.171 C 
ATOM      6  C   UNL     1     -21.798  13.111  -9.335  1.00  0.00     0.052 C 
ATOM      7  C   UNL     1     -21.309  12.209  -8.218  1.00  0.00     0.033 C 
ATOM      8  C   UNL     1     -19.863  12.135  -8.512  1.00  0.00     0.126 C 
ATOM      9  O   UNL     1     -19.455  13.454  -8.738  1.00  0.00    -0.346 OA
ATOM     10  C   UNL     1     -19.285  11.423  -7.304  1.00  0.00     0.037 C 
ATOM     11  C   UNL     1     -20.428  10.466  -6.823  1.00  0.00     0.002 C 
ATOM     12  C   UNL     1     -21.705  10.809  -7.677  1.00  0.00    -0.024 C 
ATOM     13  C   UNL     1     -22.016   9.686  -8.728  1.00  0.00     0.008 C 
ATOM     14  C   UNL     1     -20.797   8.980  -9.341  1.00  0.00     0.005 C 
ATOM     15  C   UNL     1     -19.782   8.437  -8.285  1.00  0.00     0.003 C 
ATOM     16  C   UNL     1     -20.077   8.955  -6.854  1.00  0.00     0.000 C 
ATOM     17  C   UNL     1     -18.915   8.610  -5.909  1.00  0.00     0.031 C 
ATOM     18  C   UNL     1     -18.460   7.184  -6.049  1.00  0.00    -0.027 C 
ATOM     19  C   UNL     1     -18.650   6.438  -7.161  1.00  0.00    -0.065 C 
ATOM     20  C   UNL     1     -19.600   6.869  -8.291  1.00  0.00    -0.008 C 
ATOM     21  C   UNL     1     -18.977   6.442  -9.660  1.00  0.00     0.014 C 
ATOM     22  C   UNL     1     -18.458   4.996  -9.687  1.00  0.00     0.033 C 
ATOM     23  C   UNL     1     -17.435   4.755  -8.574  1.00  0.00     0.118 C 
ATOM     24  C   UNL     1     -18.057   5.042  -7.202  1.00  0.00     0.063 C 
ATOM     25  C   UNL     1     -20.954   6.135  -8.076  1.00  0.00     0.016 C 
ATOM     26  C   UNL     1     -22.950  10.952  -6.767  1.00  0.00     0.012 C 
ATOM     27  C   UNL     1     -22.245  12.385 -10.615  1.00  0.00     0.014 C 
ATOM     28  O   UNL     1     -20.877  15.302  -8.862  1.00  0.00    -0.349 OA
ATOM     29  C   UNL     1     -19.772  16.189  -8.797  1.00  0.00     0.167 C 
ENDROOT
BRANCH  23  30
ATOM     30  O   UNL     1     -17.000   3.422  -8.632  1.00  0.00    -0.393 OA
ATOM     31  H   UNL     1     -16.009   3.447  -8.675  1.00  0.00     0.210 HD
ENDBRANCH  23  30
TORSDOF 1
ENDMDL
