MODEL 1
REMARK VINA RESULT:    -4.440      0.000      0.000
REMARK INTER + INTRA:          -6.631
REMARK INTER:                  -5.997
REMARK INTRA:                  -0.634
REMARK UNBOUND:                -0.634
REMARK SMILES CC(=O)CCC=C(C)CCC=C(C)C
REMARK SMILES IDX 7 1 6 2 8 3 9 4 10 5 11 6 13 7 12 8 14 9 5 10 4 11 2 12 3 13
REMARK SMILES IDX 1 14
REMARK H PARENT
REMARK Flexibility Score: inf
ROOT
ATOM      1  C   UNL     1      78.764  15.006   3.960  1.00  0.00    -0.077 C 
ATOM      2  C   UNL     1      79.471  13.976   4.478  1.00  0.00    -0.028 C 
ATOM      3  C   UNL     1      78.725  16.363   4.625  1.00  0.00     0.039 C 
ENDROOT
BRANCH   1   4
ATOM      4  C   UNL     1      77.944  14.786   2.707  1.00  0.00     0.034 C 
BRANCH   4   5
ATOM      5  C   UNL     1      78.616  15.399   1.471  1.00  0.00     0.032 C 
BRANCH   5   6
ATOM      6  C   UNL     1      77.904  16.656   1.024  1.00  0.00    -0.028 C 
ATOM      7  C   UNL     1      77.539  19.063   0.702  1.00  0.00     0.039 C 
ATOM      8  C   UNL     1      78.401  17.907   1.137  1.00  0.00    -0.080 C 
ATOM      9  C   UNL     1      79.781  18.176   1.688  1.00  0.00     0.039 C 
ENDBRANCH   5   6
ENDBRANCH   4   5
ENDBRANCH   1   4
BRANCH   2  10
ATOM     10  C   UNL     1      80.322  14.063   5.720  1.00  0.00     0.035 C 
BRANCH  10  11
ATOM     11  C   UNL     1      79.450  14.065   6.980  1.00  0.00     0.079 C 
BRANCH  11  12
ATOM     12  C   UNL     1      80.212  14.624   8.152  1.00  0.00     0.130 C 
ATOM     13  O   UNL     1      80.889  13.877   8.841  1.00  0.00    -0.300 OA
ATOM     14  C   UNL     1      80.163  16.085   8.490  1.00  0.00     0.087 C 
ENDBRANCH  11  12
ENDBRANCH  10  11
ENDBRANCH   2  10
TORSDOF 6
ENDMDL
MODEL 2
REMARK VINA RESULT:    -4.379      2.708      6.644
REMARK INTER + INTRA:          -6.549
REMARK INTER:                  -5.804
REMARK INTRA:                  -0.745
REMARK UNBOUND:                -0.634
REMARK SMILES CC(=O)CCC=C(C)CCC=C(C)C
REMARK SMILES IDX 7 1 6 2 8 3 9 4 10 5 11 6 13 7 12 8 14 9 5 10 4 11 2 12 3 13
REMARK SMILES IDX 1 14
REMARK H PARENT
REMARK Flexibility Score: inf
ROOT
ATOM      1  C   UNL     1      79.279  15.323   4.507  1.00  0.00    -0.077 C 
ATOM      2  C   UNL     1      78.738  14.870   3.354  1.00  0.00    -0.028 C 
ATOM      3  C   UNL     1      79.210  16.780   4.904  1.00  0.00     0.039 C 
ENDROOT
BRANCH   1   4
ATOM      4  C   UNL     1      80.023  14.358   5.405  1.00  0.00     0.034 C 
BRANCH   4   5
ATOM      5  C   UNL     1      79.335  14.202   6.768  1.00  0.00     0.032 C 
BRANCH   5   6
ATOM      6  C   UNL     1      80.336  13.895   7.858  1.00  0.00    -0.028 C 
ATOM      7  C   UNL     1      81.784  14.325   9.795  1.00  0.00     0.039 C 
ATOM      8  C   UNL     1      80.727  14.765   8.815  1.00  0.00    -0.080 C 
ATOM      9  C   UNL     1      80.145  16.154   8.925  1.00  0.00     0.039 C 
ENDBRANCH   5   6
ENDBRANCH   4   5
ENDBRANCH   1   4
BRANCH   2  10
ATOM     10  C   UNL     1      77.977  15.726   2.373  1.00  0.00     0.035 C 
BRANCH  10  11
ATOM     11  C   UNL     1      78.904  16.245   1.269  1.00  0.00     0.079 C 
BRANCH  11  12
ATOM     12  C   UNL     1      78.961  17.750   1.285  1.00  0.00     0.130 C 
ATOM     13  O   UNL     1      77.989  18.392   0.919  1.00  0.00    -0.300 OA
ATOM     14  C   UNL     1      80.186  18.480   1.751  1.00  0.00     0.087 C 
ENDBRANCH  11  12
ENDBRANCH  10  11
ENDBRANCH   2  10
TORSDOF 6
ENDMDL
MODEL 3
REMARK VINA RESULT:    -4.045      2.444      6.599
REMARK INTER + INTRA:          -6.098
REMARK INTER:                  -5.696
REMARK INTRA:                  -0.402
REMARK UNBOUND:                -0.634
REMARK SMILES CC(=O)CCC=C(C)CCC=C(C)C
REMARK SMILES IDX 7 1 6 2 8 3 9 4 10 5 11 6 13 7 12 8 14 9 5 10 4 11 2 12 3 13
REMARK SMILES IDX 1 14
REMARK H PARENT
REMARK Flexibility Score: inf
ROOT
ATOM      1  C   UNL     1      79.411  15.090   4.072  1.00  0.00    -0.077 C 
ATOM      2  C   UNL     1      78.441  15.747   3.397  1.00  0.00    -0.028 C 
ATOM      3  C   UNL     1      80.197  13.961   3.445  1.00  0.00     0.039 C 
ENDROOT
BRANCH   1   4
ATOM      4  C   UNL     1      79.687  15.455   5.515  1.00  0.00     0.034 C 
BRANCH   4   5
ATOM      5  C   UNL     1      79.053  14.454   6.488  1.00  0.00     0.032 C 
BRANCH   5   6
ATOM      6  C   UNL     1      80.078  13.892   7.446  1.00  0.00    -0.028 C 
ATOM      7  C   UNL     1      81.650  13.875   9.334  1.00  0.00     0.039 C 
ATOM      8  C   UNL     1      80.584  14.552   8.511  1.00  0.00    -0.080 C 
ATOM      9  C   UNL     1      80.120  15.937   8.892  1.00  0.00     0.039 C 
ENDBRANCH   5   6
ENDBRANCH   4   5
ENDBRANCH   1   4
BRANCH   2  10
ATOM     10  C   UNL     1      78.066  15.477   1.962  1.00  0.00     0.035 C 
BRANCH  10  11
ATOM     11  C   UNL     1      79.009  16.212   1.004  1.00  0.00     0.079 C 
BRANCH  11  12
ATOM     12  C   UNL     1      79.001  17.692   1.282  1.00  0.00     0.130 C 
ATOM     13  O   UNL     1      80.002  18.222   1.740  1.00  0.00    -0.300 OA
ATOM     14  C   UNL     1      77.792  18.533   1.001  1.00  0.00     0.087 C 
ENDBRANCH  11  12
ENDBRANCH  10  11
ENDBRANCH   2  10
TORSDOF 6
ENDMDL
MODEL 4
REMARK VINA RESULT:    -3.569      1.915      2.826
REMARK INTER + INTRA:          -5.455
REMARK INTER:                  -5.133
REMARK INTRA:                  -0.322
REMARK UNBOUND:                -0.634
REMARK SMILES CC(=O)CCC=C(C)CCC=C(C)C
REMARK SMILES IDX 7 1 6 2 8 3 9 4 10 5 11 6 13 7 12 8 14 9 5 10 4 11 2 12 3 13
REMARK SMILES IDX 1 14
REMARK H PARENT
REMARK Flexibility Score: inf
ROOT
ATOM      1  C   UNL     1      79.669  15.455   6.146  1.00  0.00    -0.077 C 
ATOM      2  C   UNL     1      79.966  14.618   7.166  1.00  0.00    -0.028 C 
ATOM      3  C   UNL     1      79.651  16.956   6.323  1.00  0.00     0.039 C 
ENDROOT
BRANCH   1   4
ATOM      4  C   UNL     1      79.292  14.876   4.799  1.00  0.00     0.034 C 
BRANCH   4   5
ATOM      5  C   UNL     1      79.727  15.788   3.645  1.00  0.00     0.032 C 
BRANCH   5   6
ATOM      6  C   UNL     1      79.339  15.205   2.305  1.00  0.00    -0.028 C 
ATOM      7  C   UNL     1      78.612  15.198  -0.041  1.00  0.00     0.039 C 
ATOM      8  C   UNL     1      79.043  15.929   1.204  1.00  0.00    -0.080 C 
ATOM      9  C   UNL     1      79.126  17.437   1.187  1.00  0.00     0.039 C 
ENDBRANCH   5   6
ENDBRANCH   4   5
ENDBRANCH   1   4
BRANCH   2  10
ATOM     10  C   UNL     1      80.352  15.065   8.553  1.00  0.00     0.035 C 
BRANCH  10  11
ATOM     11  C   UNL     1      81.269  14.037   9.223  1.00  0.00     0.079 C 
BRANCH  11  12
ATOM     12  C   UNL     1      82.029  14.663  10.361  1.00  0.00     0.130 C 
ATOM     13  O   UNL     1      81.834  15.836  10.641  1.00  0.00    -0.300 OA
ATOM     14  C   UNL     1      83.019  13.875  11.167  1.00  0.00     0.087 C 
ENDBRANCH  11  12
ENDBRANCH  10  11
ENDBRANCH   2  10
TORSDOF 6
ENDMDL
MODEL 5
REMARK VINA RESULT:    -3.377      1.314      2.381
REMARK INTER + INTRA:          -5.195
REMARK INTER:                  -4.520
REMARK INTRA:                  -0.675
REMARK UNBOUND:                -0.634
REMARK SMILES CC(=O)CCC=C(C)CCC=C(C)C
REMARK SMILES IDX 7 1 6 2 8 3 9 4 10 5 11 6 13 7 12 8 14 9 5 10 4 11 2 12 3 13
REMARK SMILES IDX 1 14
REMARK H PARENT
REMARK Flexibility Score: inf
ROOT
ATOM      1  C   UNL     1      79.711  16.521   4.553  1.00  0.00    -0.077 C 
ATOM      2  C   UNL     1      79.669  15.226   4.941  1.00  0.00    -0.028 C 
ATOM      3  C   UNL     1      79.129  17.628   5.400  1.00  0.00     0.039 C 
ENDROOT
BRANCH   1   4
ATOM      4  C   UNL     1      80.311  16.872   3.208  1.00  0.00     0.034 C 
BRANCH   4   5
ATOM      5  C   UNL     1      79.232  17.062   2.134  1.00  0.00     0.032 C 
BRANCH   5   6
ATOM      6  C   UNL     1      78.171  15.990   2.224  1.00  0.00    -0.028 C 
ATOM      7  C   UNL     1      77.016  13.891   1.683  1.00  0.00     0.039 C 
ATOM      8  C   UNL     1      78.183  14.831   1.530  1.00  0.00    -0.080 C 
ATOM      9  C   UNL     1      79.321  14.457   0.610  1.00  0.00     0.039 C 
ENDBRANCH   5   6
ENDBRANCH   4   5
ENDBRANCH   1   4
BRANCH   2  10
ATOM     10  C   UNL     1      79.096  14.745   6.250  1.00  0.00     0.035 C 
BRANCH  10  11
ATOM     11  C   UNL     1      80.109  13.875   7.002  1.00  0.00     0.079 C 
BRANCH  11  12
ATOM     12  C   UNL     1      80.531  14.540   8.285  1.00  0.00     0.130 C 
ATOM     13  O   UNL     1      81.242  13.932   9.070  1.00  0.00    -0.300 OA
ATOM     14  C   UNL     1      80.103  15.938   8.618  1.00  0.00     0.087 C 
ENDBRANCH  11  12
ENDBRANCH  10  11
ENDBRANCH   2  10
TORSDOF 6
ENDMDL
MODEL 6
REMARK VINA RESULT:    -3.318      2.664      5.750
REMARK INTER + INTRA:          -5.116
REMARK INTER:                  -4.718
REMARK INTRA:                  -0.398
REMARK UNBOUND:                -0.634
REMARK SMILES CC(=O)CCC=C(C)CCC=C(C)C
REMARK SMILES IDX 7 1 6 2 8 3 9 4 10 5 11 6 13 7 12 8 14 9 5 10 4 11 2 12 3 13
REMARK SMILES IDX 1 14
REMARK H PARENT
REMARK Flexibility Score: inf
ROOT
ATOM      1  C   UNL     1      78.398  14.743   2.157  1.00  0.00    -0.077 C 
ATOM      2  C   UNL     1      78.946  15.979   2.116  1.00  0.00    -0.028 C 
ATOM      3  C   UNL     1      77.547  14.209   1.028  1.00  0.00     0.039 C 
ENDROOT
BRANCH   1   4
ATOM      4  C   UNL     1      78.596  13.886   3.388  1.00  0.00     0.034 C 
BRANCH   4   5
ATOM      5  C   UNL     1      80.001  14.055   3.981  1.00  0.00     0.032 C 
BRANCH   5   6
ATOM      6  C   UNL     1      79.989  13.882   5.483  1.00  0.00    -0.028 C 
ATOM      7  C   UNL     1      79.830  14.548   7.842  1.00  0.00     0.039 C 
ATOM      8  C   UNL     1      79.741  14.869   6.372  1.00  0.00    -0.080 C 
ATOM      9  C   UNL     1      79.386  16.271   5.939  1.00  0.00     0.039 C 
ENDBRANCH   5   6
ENDBRANCH   4   5
ENDBRANCH   1   4
BRANCH   2  10
ATOM     10  C   UNL     1      78.821  16.931   0.953  1.00  0.00     0.035 C 
BRANCH  10  11
ATOM     11  C   UNL     1      78.915  18.385   1.426  1.00  0.00     0.079 C 
BRANCH  11  12
ATOM     12  C   UNL     1      80.257  18.655   2.052  1.00  0.00     0.130 C 
ATOM     13  O   UNL     1      81.157  19.118   1.368  1.00  0.00    -0.300 OA
ATOM     14  C   UNL     1      80.512  18.375   3.503  1.00  0.00     0.087 C 
ENDBRANCH  11  12
ENDBRANCH  10  11
ENDBRANCH   2  10
TORSDOF 6
ENDMDL
MODEL 7
REMARK VINA RESULT:    -2.905      1.809      2.604
REMARK INTER + INTRA:          -4.558
REMARK INTER:                  -3.961
REMARK INTRA:                  -0.597
REMARK UNBOUND:                -0.634
REMARK SMILES CC(=O)CCC=C(C)CCC=C(C)C
REMARK SMILES IDX 7 1 6 2 8 3 9 4 10 5 11 6 13 7 12 8 14 9 5 10 4 11 2 12 3 13
REMARK SMILES IDX 1 14
REMARK H PARENT
REMARK Flexibility Score: inf
ROOT
ATOM      1  C   UNL     1      78.504  14.290   1.816  1.00  0.00    -0.077 C 
ATOM      2  C   UNL     1      79.784  14.025   2.164  1.00  0.00    -0.028 C 
ATOM      3  C   UNL     1      77.406  14.416   2.847  1.00  0.00     0.039 C 
ENDROOT
BRANCH   1   4
ATOM      4  C   UNL     1      78.145  14.413   0.351  1.00  0.00     0.034 C 
BRANCH   4   5
ATOM      5  C   UNL     1      78.162  15.873  -0.119  1.00  0.00     0.032 C 
BRANCH   5   6
ATOM      6  C   UNL     1      79.161  16.693   0.665  1.00  0.00    -0.028 C 
ATOM      7  C   UNL     1      80.086  18.668   1.795  1.00  0.00     0.039 C 
ATOM      8  C   UNL     1      78.964  17.964   1.077  1.00  0.00    -0.080 C 
ATOM      9  C   UNL     1      77.665  18.695   0.836  1.00  0.00     0.039 C 
ENDBRANCH   5   6
ENDBRANCH   4   5
ENDBRANCH   1   4
BRANCH   2  10
ATOM     10  C   UNL     1      80.270  13.875   3.584  1.00  0.00     0.035 C 
BRANCH  10  11
ATOM     11  C   UNL     1      80.508  15.245   4.226  1.00  0.00     0.079 C 
BRANCH  11  12
ATOM     12  C   UNL     1      79.631  15.424   5.437  1.00  0.00     0.130 C 
ATOM     13  O   UNL     1      79.148  16.521   5.673  1.00  0.00    -0.300 OA
ATOM     14  C   UNL     1      79.330  14.280   6.359  1.00  0.00     0.087 C 
ENDBRANCH  11  12
ENDBRANCH  10  11
ENDBRANCH   2  10
TORSDOF 6
ENDMDL
