MODEL 1
REMARK VINA RESULT:    -3.133      0.000      0.000
REMARK INTER + INTRA:          -5.476
REMARK INTER:                  -4.782
REMARK INTRA:                  -0.694
REMARK UNBOUND:                -0.694
REMARK SMILES O=C([O-])CCCCCCCCC(=O)[O-]
REMARK SMILES IDX 7 1 6 2 5 3 4 4 2 5 1 6 3 7 8 8 9 9 10 10 11 11 12 12 13 13
REMARK SMILES IDX 14 14
REMARK H PARENT
REMARK Flexibility Score: inf
ROOT
ATOM      1  C   UNL     1      11.951  41.384 150.323  1.00  0.00     0.000 C 
ENDROOT
BRANCH   1   2
ATOM      2  C   UNL     1      12.009  40.379 151.487  1.00  0.00     0.000 C 
BRANCH   2   3
ATOM      3  C   UNL     1      10.644  39.734 151.777  1.00  0.00     0.006 C 
BRANCH   3   4
ATOM      4  C   UNL     1       9.809  39.524 150.507  1.00  0.00     0.053 C 
BRANCH   4   5
ATOM      5  C   UNL     1       9.967  38.124 150.003  1.00  0.00     0.041 C 
ATOM      6  O   UNL     1      11.111  37.602 149.933  1.00  0.00    -0.550 OA
ATOM      7  O   UNL     1       8.847  37.379 149.659  1.00  0.00    -0.550 OA
ENDBRANCH   4   5
ENDBRANCH   3   4
ENDBRANCH   2   3
ENDBRANCH   1   2
BRANCH   1   8
ATOM      8  C   UNL     1      11.614  42.811 150.788  1.00  0.00     0.000 C 
BRANCH   8   9
ATOM      9  C   UNL     1      12.341  43.194 152.087  1.00  0.00     0.000 C 
BRANCH   9  10
ATOM     10  C   UNL     1      11.370  43.554 153.229  1.00  0.00     0.006 C 
BRANCH  10  11
ATOM     11  C   UNL     1      11.581  42.746 154.520  1.00  0.00     0.053 C 
BRANCH  11  12
ATOM     12  C   UNL     1      10.285  42.287 155.113  1.00  0.00     0.041 C 
ATOM     13  O   UNL     1      10.090  42.372 156.353  1.00  0.00    -0.550 OA
ATOM     14  O   UNL     1       9.279  41.796 154.289  1.00  0.00    -0.550 OA
ENDBRANCH  11  12
ENDBRANCH  10  11
ENDBRANCH   9  10
ENDBRANCH   8   9
ENDBRANCH   1   8
TORSDOF 9
ENDMDL
MODEL 2
REMARK VINA RESULT:    -3.112      2.670      5.086
REMARK INTER + INTRA:          -5.443
REMARK INTER:                  -4.457
REMARK INTRA:                  -0.987
REMARK UNBOUND:                -0.694
REMARK SMILES O=C([O-])CCCCCCCCC(=O)[O-]
REMARK SMILES IDX 7 1 6 2 5 3 4 4 2 5 1 6 3 7 8 8 9 9 10 10 11 11 12 12 13 13
REMARK SMILES IDX 14 14
REMARK H PARENT
REMARK Flexibility Score: inf
ROOT
ATOM      1  C   UNL     1       9.424  40.360 151.661  1.00  0.00     0.000 C 
ENDROOT
BRANCH   1   2
ATOM      2  C   UNL     1       9.003  40.305 153.140  1.00  0.00     0.000 C 
BRANCH   2   3
ATOM      3  C   UNL     1       8.987  41.694 153.799  1.00  0.00     0.006 C 
BRANCH   3   4
ATOM      4  C   UNL     1      10.272  41.991 154.582  1.00  0.00     0.053 C 
BRANCH   4   5
ATOM      5  C   UNL     1       9.946  42.492 155.953  1.00  0.00     0.041 C 
ATOM      6  O   UNL     1       9.040  43.351 156.114  1.00  0.00    -0.550 OA
ATOM      7  O   UNL     1      10.608  41.974 157.058  1.00  0.00    -0.550 OA
ENDBRANCH   4   5
ENDBRANCH   3   4
ENDBRANCH   2   3
ENDBRANCH   1   2
BRANCH   1   8
ATOM      8  C   UNL     1      10.726  39.590 151.386  1.00  0.00     0.000 C 
BRANCH   8   9
ATOM      9  C   UNL     1      11.980  40.436 151.658  1.00  0.00     0.000 C 
BRANCH   9  10
ATOM     10  C   UNL     1      12.085  41.661 150.729  1.00  0.00     0.006 C 
BRANCH  10  11
ATOM     11  C   UNL     1      12.234  43.003 151.462  1.00  0.00     0.053 C 
BRANCH  11  12
ATOM     12  C   UNL     1      10.984  43.824 151.390  1.00  0.00     0.041 C 
ATOM     13  O   UNL     1      10.754  44.706 152.258  1.00  0.00    -0.550 OA
ATOM     14  O   UNL     1      10.088  43.636 150.345  1.00  0.00    -0.550 OA
ENDBRANCH  11  12
ENDBRANCH  10  11
ENDBRANCH   9  10
ENDBRANCH   8   9
ENDBRANCH   1   8
TORSDOF 9
ENDMDL
MODEL 3
REMARK VINA RESULT:    -3.081      2.407      2.990
REMARK INTER + INTRA:          -5.397
REMARK INTER:                  -4.384
REMARK INTRA:                  -1.012
REMARK UNBOUND:                -0.694
REMARK SMILES O=C([O-])CCCCCCCCC(=O)[O-]
REMARK SMILES IDX 7 1 6 2 5 3 4 4 2 5 1 6 3 7 8 8 9 9 10 10 11 11 12 12 13 13
REMARK SMILES IDX 14 14
REMARK H PARENT
REMARK Flexibility Score: inf
ROOT
ATOM      1  C   UNL     1      12.019  40.688 149.876  1.00  0.00     0.000 C 
ENDROOT
BRANCH   1   2
ATOM      2  C   UNL     1      11.970  39.997 151.250  1.00  0.00     0.000 C 
BRANCH   2   3
ATOM      3  C   UNL     1      10.534  39.676 151.696  1.00  0.00     0.006 C 
BRANCH   3   4
ATOM      4  C   UNL     1      10.131  40.425 152.973  1.00  0.00     0.053 C 
BRANCH   4   5
ATOM      5  C   UNL     1       8.696  40.840 152.903  1.00  0.00     0.041 C 
ATOM      6  O   UNL     1       7.799  40.102 153.388  1.00  0.00    -0.550 OA
ATOM      7  O   UNL     1       8.353  42.066 152.347  1.00  0.00    -0.550 OA
ENDBRANCH   4   5
ENDBRANCH   3   4
ENDBRANCH   2   3
ENDBRANCH   1   2
BRANCH   1   8
ATOM      8  C   UNL     1      12.474  42.154 149.965  1.00  0.00     0.000 C 
BRANCH   8   9
ATOM      9  C   UNL     1      11.296  43.128 150.132  1.00  0.00     0.000 C 
BRANCH   9  10
ATOM     10  C   UNL     1      11.275  43.804 151.516  1.00  0.00     0.006 C 
BRANCH  10  11
ATOM     11  C   UNL     1      12.542  43.573 152.355  1.00  0.00     0.053 C 
BRANCH  11  12
ATOM     12  C   UNL     1      12.224  43.342 153.800  1.00  0.00     0.041 C 
ATOM     13  O   UNL     1      13.124  42.965 154.596  1.00  0.00    -0.550 OA
ATOM     14  O   UNL     1      10.939  43.574 154.275  1.00  0.00    -0.550 OA
ENDBRANCH  11  12
ENDBRANCH  10  11
ENDBRANCH   9  10
ENDBRANCH   8   9
ENDBRANCH   1   8
TORSDOF 9
ENDMDL
MODEL 4
REMARK VINA RESULT:    -3.028      1.545      2.245
REMARK INTER + INTRA:          -5.315
REMARK INTER:                  -4.248
REMARK INTRA:                  -1.067
REMARK UNBOUND:                -0.694
REMARK SMILES O=C([O-])CCCCCCCCC(=O)[O-]
REMARK SMILES IDX 7 1 6 2 5 3 4 4 2 5 1 6 3 7 8 8 9 9 10 10 11 11 12 12 13 13
REMARK SMILES IDX 14 14
REMARK H PARENT
REMARK Flexibility Score: inf
ROOT
ATOM      1  C   UNL     1      12.086  43.057 151.735  1.00  0.00     0.000 C 
ENDROOT
BRANCH   1   2
ATOM      2  C   UNL     1      11.942  41.770 150.904  1.00  0.00     0.000 C 
BRANCH   2   3
ATOM      3  C   UNL     1      11.915  40.505 151.777  1.00  0.00     0.006 C 
BRANCH   3   4
ATOM      4  C   UNL     1      10.785  39.543 151.388  1.00  0.00     0.053 C 
BRANCH   4   5
ATOM      5  C   UNL     1      11.019  38.989 150.019  1.00  0.00     0.041 C 
ATOM      6  O   UNL     1      11.960  38.177 149.816  1.00  0.00    -0.550 OA
ATOM      7  O   UNL     1      10.167  39.330 148.977  1.00  0.00    -0.550 OA
ENDBRANCH   4   5
ENDBRANCH   3   4
ENDBRANCH   2   3
ENDBRANCH   1   2
BRANCH   1   8
ATOM      8  C   UNL     1      12.238  42.777 153.240  1.00  0.00     0.000 C 
BRANCH   8   9
ATOM      9  C   UNL     1      11.143  43.454 154.080  1.00  0.00     0.000 C 
BRANCH   9  10
ATOM     10  C   UNL     1      10.344  42.453 154.935  1.00  0.00     0.006 C 
BRANCH  10  11
ATOM     11  C   UNL     1       9.314  41.626 154.150  1.00  0.00     0.053 C 
BRANCH  11  12
ATOM     12  C   UNL     1       8.473  42.482 153.253  1.00  0.00     0.041 C 
ATOM     13  O   UNL     1       7.652  43.299 153.744  1.00  0.00    -0.550 OA
ATOM     14  O   UNL     1       8.622  42.399 151.874  1.00  0.00    -0.550 OA
ENDBRANCH  11  12
ENDBRANCH  10  11
ENDBRANCH   9  10
ENDBRANCH   8   9
ENDBRANCH   1   8
TORSDOF 9
ENDMDL
MODEL 5
REMARK VINA RESULT:    -3.026      1.258      5.438
REMARK INTER + INTRA:          -5.313
REMARK INTER:                  -4.666
REMARK INTRA:                  -0.646
REMARK UNBOUND:                -0.694
REMARK SMILES O=C([O-])CCCCCCCCC(=O)[O-]
REMARK SMILES IDX 7 1 6 2 5 3 4 4 2 5 1 6 3 7 8 8 9 9 10 10 11 11 12 12 13 13
REMARK SMILES IDX 14 14
REMARK H PARENT
REMARK Flexibility Score: inf
ROOT
ATOM      1  C   UNL     1      11.887  43.749 152.167  1.00  0.00     0.000 C 
ENDROOT
BRANCH   1   2
ATOM      2  C   UNL     1      12.664  43.667 153.493  1.00  0.00     0.000 C 
BRANCH   2   3
ATOM      3  C   UNL     1      11.981  42.749 154.520  1.00  0.00     0.006 C 
BRANCH   3   4
ATOM      4  C   UNL     1      10.491  42.536 154.222  1.00  0.00     0.053 C 
BRANCH   4   5
ATOM      5  C   UNL     1       9.654  43.037 155.356  1.00  0.00     0.041 C 
ATOM      6  O   UNL     1       9.870  42.632 156.528  1.00  0.00    -0.550 OA
ATOM      7  O   UNL     1       8.669  43.988 155.126  1.00  0.00    -0.550 OA
ENDBRANCH   4   5
ENDBRANCH   3   4
ENDBRANCH   2   3
ENDBRANCH   1   2
BRANCH   1   8
ATOM      8  C   UNL     1      12.686  43.191 150.977  1.00  0.00     0.000 C 
BRANCH   8   9
ATOM      9  C   UNL     1      12.053  41.920 150.386  1.00  0.00     0.000 C 
BRANCH   9  10
ATOM     10  C   UNL     1      12.053  40.740 151.376  1.00  0.00     0.006 C 
BRANCH  10  11
ATOM     11  C   UNL     1      12.050  39.354 150.712  1.00  0.00     0.053 C 
BRANCH  11  12
ATOM     12  C   UNL     1      10.670  38.780 150.617  1.00  0.00     0.041 C 
ATOM     13  O   UNL     1       9.689  39.401 151.104  1.00  0.00    -0.550 OA
ATOM     14  O   UNL     1      10.463  37.573 149.961  1.00  0.00    -0.550 OA
ENDBRANCH  11  12
ENDBRANCH  10  11
ENDBRANCH   9  10
ENDBRANCH   8   9
ENDBRANCH   1   8
TORSDOF 9
ENDMDL
MODEL 6
REMARK VINA RESULT:    -2.981     12.947     14.557
REMARK INTER + INTRA:          -5.245
REMARK INTER:                  -4.499
REMARK INTRA:                  -0.746
REMARK UNBOUND:                -0.694
REMARK SMILES O=C([O-])CCCCCCCCC(=O)[O-]
REMARK SMILES IDX 7 1 6 2 5 3 4 4 2 5 1 6 3 7 8 8 9 9 10 10 11 11 12 12 13 13
REMARK SMILES IDX 14 14
REMARK H PARENT
REMARK Flexibility Score: inf
ROOT
ATOM      1  C   UNL     1       9.171  35.488 140.830  1.00  0.00     0.000 C 
ENDROOT
BRANCH   1   2
ATOM      2  C   UNL     1      10.455  35.011 140.130  1.00  0.00     0.000 C 
BRANCH   2   3
ATOM      3  C   UNL     1      10.651  35.662 138.752  1.00  0.00     0.006 C 
BRANCH   3   4
ATOM      4  C   UNL     1      11.809  36.669 138.733  1.00  0.00     0.053 C 
BRANCH   4   5
ATOM      5  C   UNL     1      11.340  38.013 139.192  1.00  0.00     0.041 C 
ATOM      6  O   UNL     1      10.816  38.814 138.375  1.00  0.00    -0.550 OA
ATOM      7  O   UNL     1      11.436  38.362 140.533  1.00  0.00    -0.550 OA
ENDBRANCH   4   5
ENDBRANCH   3   4
ENDBRANCH   2   3
ENDBRANCH   1   2
BRANCH   1   8
ATOM      8  C   UNL     1       7.900  34.875 140.219  1.00  0.00     0.000 C 
BRANCH   8   9
ATOM      9  C   UNL     1       6.850  35.938 139.852  1.00  0.00     0.000 C 
BRANCH   9  10
ATOM     10  C   UNL     1       7.233  36.741 138.594  1.00  0.00     0.006 C 
BRANCH  10  11
ATOM     11  C   UNL     1       7.353  38.257 138.821  1.00  0.00     0.053 C 
BRANCH  11  12
ATOM     12  C   UNL     1       6.518  39.037 137.853  1.00  0.00     0.041 C 
ATOM     13  O   UNL     1       5.942  38.454 136.898  1.00  0.00    -0.550 OA
ATOM     14  O   UNL     1       6.349  40.405 138.027  1.00  0.00    -0.550 OA
ENDBRANCH  11  12
ENDBRANCH  10  11
ENDBRANCH   9  10
ENDBRANCH   8   9
ENDBRANCH   1   8
TORSDOF 9
ENDMDL
MODEL 7
REMARK VINA RESULT:    -2.946      2.209      3.414
REMARK INTER + INTRA:          -5.190
REMARK INTER:                  -4.262
REMARK INTRA:                  -0.928
REMARK UNBOUND:                -0.694
REMARK SMILES O=C([O-])CCCCCCCCC(=O)[O-]
REMARK SMILES IDX 7 1 6 2 5 3 4 4 2 5 1 6 3 7 8 8 9 9 10 10 11 11 12 12 13 13
REMARK SMILES IDX 14 14
REMARK H PARENT
REMARK Flexibility Score: inf
ROOT
ATOM      1  C   UNL     1       8.503  41.615 153.474  1.00  0.00     0.000 C 
ENDROOT
BRANCH   1   2
ATOM      2  C   UNL     1       9.498  40.506 153.086  1.00  0.00     0.000 C 
BRANCH   2   3
ATOM      3  C   UNL     1      10.027  40.667 151.652  1.00  0.00     0.006 C 
BRANCH   3   4
ATOM      4  C   UNL     1      11.396  40.003 151.451  1.00  0.00     0.053 C 
BRANCH   4   5
ATOM      5  C   UNL     1      11.320  38.965 150.377  1.00  0.00     0.041 C 
ATOM      6  O   UNL     1      10.413  38.092 150.402  1.00  0.00    -0.550 OA
ATOM      7  O   UNL     1      12.222  38.990 149.320  1.00  0.00    -0.550 OA
ENDBRANCH   4   5
ENDBRANCH   3   4
ENDBRANCH   2   3
ENDBRANCH   1   2
BRANCH   1   8
ATOM      8  C   UNL     1       8.957  42.413 154.708  1.00  0.00     0.000 C 
BRANCH   8   9
ATOM      9  C   UNL     1      10.485  42.414 154.880  1.00  0.00     0.000 C 
BRANCH   9  10
ATOM     10  C   UNL     1      11.161  43.618 154.197  1.00  0.00     0.006 C 
BRANCH  10  11
ATOM     11  C   UNL     1      12.347  43.251 153.291  1.00  0.00     0.053 C 
BRANCH  11  12
ATOM     12  C   UNL     1      12.108  43.649 151.867  1.00  0.00     0.041 C 
ATOM     13  O   UNL     1      10.999  44.133 151.520  1.00  0.00    -0.550 OA
ATOM     14  O   UNL     1      13.124  43.514 150.928  1.00  0.00    -0.550 OA
ENDBRANCH  11  12
ENDBRANCH  10  11
ENDBRANCH   9  10
ENDBRANCH   8   9
ENDBRANCH   1   8
TORSDOF 9
ENDMDL
MODEL 8
REMARK VINA RESULT:    -2.945     12.791     14.005
REMARK INTER + INTRA:          -5.190
REMARK INTER:                  -4.177
REMARK INTRA:                  -1.013
REMARK UNBOUND:                -0.694
REMARK SMILES O=C([O-])CCCCCCCCC(=O)[O-]
REMARK SMILES IDX 7 1 6 2 5 3 4 4 2 5 1 6 3 7 8 8 9 9 10 10 11 11 12 12 13 13
REMARK SMILES IDX 14 14
REMARK H PARENT
REMARK Flexibility Score: inf
ROOT
ATOM      1  C   UNL     1      11.226  39.184 138.766  1.00  0.00     0.000 C 
ENDROOT
BRANCH   1   2
ATOM      2  C   UNL     1       9.703  38.980 138.673  1.00  0.00     0.000 C 
BRANCH   2   3
ATOM      3  C   UNL     1       9.137  38.214 139.879  1.00  0.00     0.006 C 
BRANCH   3   4
ATOM      4  C   UNL     1       7.624  37.982 139.775  1.00  0.00     0.053 C 
BRANCH   4   5
ATOM      5  C   UNL     1       7.336  36.776 138.940  1.00  0.00     0.041 C 
ATOM      6  O   UNL     1       7.132  36.896 137.703  1.00  0.00    -0.550 OA
ATOM      7  O   UNL     1       7.342  35.513 139.517  1.00  0.00    -0.550 OA
ENDBRANCH   4   5
ENDBRANCH   3   4
ENDBRANCH   2   3
ENDBRANCH   1   2
BRANCH   1   8
ATOM      8  C   UNL     1      11.773  38.929 140.180  1.00  0.00     0.000 C 
BRANCH   8   9
ATOM      9  C   UNL     1      12.968  37.961 140.185  1.00  0.00     0.000 C 
BRANCH   9  10
ATOM     10  C   UNL     1      13.027  37.084 138.920  1.00  0.00     0.006 C 
BRANCH  10  11
ATOM     11  C   UNL     1      12.729  35.596 139.164  1.00  0.00     0.053 C 
BRANCH  11  12
ATOM     12  C   UNL     1      11.259  35.310 139.162  1.00  0.00     0.041 C 
ATOM     13  O   UNL     1      10.696  34.875 140.200  1.00  0.00    -0.550 OA
ATOM     14  O   UNL     1      10.505  35.556 138.021  1.00  0.00    -0.550 OA
ENDBRANCH  11  12
ENDBRANCH  10  11
ENDBRANCH   9  10
ENDBRANCH   8   9
ENDBRANCH   1   8
TORSDOF 9
ENDMDL
MODEL 9
REMARK VINA RESULT:    -2.938      2.380      4.849
REMARK INTER + INTRA:          -5.178
REMARK INTER:                  -4.163
REMARK INTRA:                  -1.016
REMARK UNBOUND:                -0.694
REMARK SMILES O=C([O-])CCCCCCCCC(=O)[O-]
REMARK SMILES IDX 7 1 6 2 5 3 4 4 2 5 1 6 3 7 8 8 9 9 10 10 11 11 12 12 13 13
REMARK SMILES IDX 14 14
REMARK H PARENT
REMARK Flexibility Score: inf
ROOT
ATOM      1  C   UNL     1      12.014  41.086 150.605  1.00  0.00     0.000 C 
ENDROOT
BRANCH   1   2
ATOM      2  C   UNL     1      11.899  42.374 151.440  1.00  0.00     0.000 C 
BRANCH   2   3
ATOM      3  C   UNL     1      12.028  42.110 152.949  1.00  0.00     0.006 C 
BRANCH   3   4
ATOM      4  C   UNL     1      11.795  43.372 153.790  1.00  0.00     0.053 C 
BRANCH   4   5
ATOM      5  C   UNL     1      10.536  43.242 154.587  1.00  0.00     0.041 C 
ATOM      6  O   UNL     1       9.692  44.177 154.595  1.00  0.00    -0.550 OA
ATOM      7  O   UNL     1      10.270  42.070 155.282  1.00  0.00    -0.550 OA
ENDBRANCH   4   5
ENDBRANCH   3   4
ENDBRANCH   2   3
ENDBRANCH   1   2
BRANCH   1   8
ATOM      8  C   UNL     1      11.606  39.831 151.393  1.00  0.00     0.000 C 
BRANCH   8   9
ATOM      9  C   UNL     1      10.441  39.073 150.733  1.00  0.00     0.000 C 
BRANCH   9  10
ATOM     10  C   UNL     1       9.071  39.709 151.034  1.00  0.00     0.006 C 
BRANCH  10  11
ATOM     11  C   UNL     1       8.922  40.249 152.466  1.00  0.00     0.053 C 
BRANCH  11  12
ATOM     12  C   UNL     1       8.046  41.462 152.520  1.00  0.00     0.041 C 
ATOM     13  O   UNL     1       8.383  42.515 151.919  1.00  0.00    -0.550 OA
ATOM     14  O   UNL     1       6.840  41.419 153.209  1.00  0.00    -0.550 OA
ENDBRANCH  11  12
ENDBRANCH  10  11
ENDBRANCH   9  10
ENDBRANCH   8   9
ENDBRANCH   1   8
TORSDOF 9
ENDMDL
