MODEL 1
REMARK VINA RESULT:    -4.550      0.000      0.000
REMARK INTER + INTRA:          -4.851
REMARK INTER:                  -4.816
REMARK INTRA:                  -0.036
REMARK UNBOUND:                -0.036
REMARK SMILES COc1ccc2ccc(=O)oc2c1
REMARK SMILES IDX 3 1 13 2 12 3 6 4 5 5 4 6 7 7 8 8 9 9 10 10 11 11 2 12 1 13
REMARK H PARENT
REMARK Flexibility Score: inf
ROOT
ATOM      1  C   UNL     1       5.836 -19.300  14.678  1.00  0.00     0.122 A 
ATOM      2  C   UNL     1       5.124 -18.315  13.963  1.00  0.00     0.094 A 
ATOM      3  C   UNL     1       4.443 -17.302  14.647  1.00  0.00     0.142 A 
ATOM      4  C   UNL     1       4.469 -17.266  16.057  1.00  0.00     0.018 A 
ATOM      5  C   UNL     1       5.175 -18.244  16.768  1.00  0.00     0.016 A 
ATOM      6  C   UNL     1       5.853 -19.253  16.078  1.00  0.00     0.047 A 
ATOM      7  C   UNL     1       3.779 -16.241  16.711  1.00  0.00     0.019 A 
ATOM      8  C   UNL     1       3.090 -15.290  15.958  1.00  0.00     0.094 A 
ATOM      9  C   UNL     1       3.108 -15.388  14.563  1.00  0.00     0.336 A 
ATOM     10  O   UNL     1       2.494 -14.540  13.865  1.00  0.00    -0.246 OA
ATOM     11  O   UNL     1       3.774 -16.374  13.966  1.00  0.00    -0.423 OA
ENDROOT
BRANCH   1  12
ATOM     12  O   UNL     1       6.533 -20.335  14.038  1.00  0.00    -0.497 OA
ATOM     13  C   UNL     1       7.407 -20.151  12.929  1.00  0.00     0.278 C 
ENDBRANCH   1  12
TORSDOF 1
ENDMDL
MODEL 2
REMARK VINA RESULT:    -4.491      1.776      2.137
REMARK INTER + INTRA:          -4.789
REMARK INTER:                  -4.750
REMARK INTRA:                  -0.039
REMARK UNBOUND:                -0.036
REMARK SMILES COc1ccc2ccc(=O)oc2c1
REMARK SMILES IDX 3 1 13 2 12 3 6 4 5 5 4 6 7 7 8 8 9 9 10 10 11 11 2 12 1 13
REMARK H PARENT
REMARK Flexibility Score: inf
ROOT
ATOM      1  C   UNL     1       6.451 -17.760  14.473  1.00  0.00     0.122 A 
ATOM      2  C   UNL     1       5.072 -17.519  14.307  1.00  0.00     0.094 A 
ATOM      3  C   UNL     1       4.563 -16.221  14.426  1.00  0.00     0.142 A 
ATOM      4  C   UNL     1       5.435 -15.149  14.713  1.00  0.00     0.018 A 
ATOM      5  C   UNL     1       6.804 -15.388  14.879  1.00  0.00     0.016 A 
ATOM      6  C   UNL     1       7.305 -16.687  14.759  1.00  0.00     0.047 A 
ATOM      7  C   UNL     1       4.897 -13.863  14.826  1.00  0.00     0.019 A 
ATOM      8  C   UNL     1       3.525 -13.678  14.653  1.00  0.00     0.094 A 
ATOM      9  C   UNL     1       2.722 -14.787  14.370  1.00  0.00     0.336 A 
ATOM     10  O   UNL     1       1.482 -14.641  14.209  1.00  0.00    -0.246 OA
ATOM     11  O   UNL     1       3.261 -16.000  14.267  1.00  0.00    -0.423 OA
ENDROOT
BRANCH   1  12
ATOM     12  O   UNL     1       7.008 -19.043  14.363  1.00  0.00    -0.497 OA
ATOM     13  C   UNL     1       6.253 -20.250  14.368  1.00  0.00     0.278 C 
ENDBRANCH   1  12
TORSDOF 1
ENDMDL
MODEL 3
REMARK VINA RESULT:    -4.284      1.825      5.035
REMARK INTER + INTRA:          -4.570
REMARK INTER:                  -4.531
REMARK INTRA:                  -0.039
REMARK UNBOUND:                -0.036
REMARK SMILES COc1ccc2ccc(=O)oc2c1
REMARK SMILES IDX 3 1 13 2 12 3 6 4 5 5 4 6 7 7 8 8 9 9 10 10 11 11 2 12 1 13
REMARK H PARENT
REMARK Flexibility Score: inf
ROOT
ATOM      1  C   UNL     1       4.051 -14.994  14.847  1.00  0.00     0.122 A 
ATOM      2  C   UNL     1       3.974 -16.394  14.703  1.00  0.00     0.094 A 
ATOM      3  C   UNL     1       5.135 -17.146  14.490  1.00  0.00     0.142 A 
ATOM      4  C   UNL     1       6.387 -16.500  14.420  1.00  0.00     0.018 A 
ATOM      5  C   UNL     1       6.464 -15.109  14.562  1.00  0.00     0.016 A 
ATOM      6  C   UNL     1       5.301 -14.365  14.775  1.00  0.00     0.047 A 
ATOM      7  C   UNL     1       7.529 -17.279  14.206  1.00  0.00     0.019 A 
ATOM      8  C   UNL     1       7.399 -18.661  14.070  1.00  0.00     0.094 A 
ATOM      9  C   UNL     1       6.126 -19.233  14.151  1.00  0.00     0.336 A 
ATOM     10  O   UNL     1       5.986 -20.478  14.031  1.00  0.00    -0.246 OA
ATOM     11  O   UNL     1       5.055 -18.468  14.355  1.00  0.00    -0.423 OA
ENDROOT
BRANCH   1  12
ATOM     12  O   UNL     1       2.917 -14.198  15.061  1.00  0.00    -0.497 OA
ATOM     13  C   UNL     1       1.576 -14.643  14.882  1.00  0.00     0.278 C 
ENDBRANCH   1  12
TORSDOF 1
ENDMDL
MODEL 4
REMARK VINA RESULT:    -4.236      2.584      3.125
REMARK INTER + INTRA:          -4.519
REMARK INTER:                  -4.486
REMARK INTRA:                  -0.033
REMARK UNBOUND:                -0.036
REMARK SMILES COc1ccc2ccc(=O)oc2c1
REMARK SMILES IDX 3 1 13 2 12 3 6 4 5 5 4 6 7 7 8 8 9 9 10 10 11 11 2 12 1 13
REMARK H PARENT
REMARK Flexibility Score: inf
ROOT
ATOM      1  C   UNL     1       5.429 -17.426  15.210  1.00  0.00     0.122 A 
ATOM      2  C   UNL     1       6.234 -16.312  14.898  1.00  0.00     0.094 A 
ATOM      3  C   UNL     1       5.655 -15.050  14.728  1.00  0.00     0.142 A 
ATOM      4  C   UNL     1       4.260 -14.892  14.870  1.00  0.00     0.018 A 
ATOM      5  C   UNL     1       3.460 -15.999  15.180  1.00  0.00     0.016 A 
ATOM      6  C   UNL     1       4.046 -17.257  15.348  1.00  0.00     0.047 A 
ATOM      7  C   UNL     1       3.710 -13.618  14.694  1.00  0.00     0.019 A 
ATOM      8  C   UNL     1       4.550 -12.547  14.386  1.00  0.00     0.094 A 
ATOM      9  C   UNL     1       5.923 -12.778  14.261  1.00  0.00     0.336 A 
ATOM     10  O   UNL     1       6.698 -11.825  13.983  1.00  0.00    -0.246 OA
ATOM     11  O   UNL     1       6.420 -14.001  14.434  1.00  0.00    -0.423 OA
ENDROOT
BRANCH   1  12
ATOM     12  O   UNL     1       5.963 -18.711  15.389  1.00  0.00    -0.497 OA
ATOM     13  C   UNL     1       5.985 -19.720  14.385  1.00  0.00     0.278 C 
ENDBRANCH   1  12
TORSDOF 1
ENDMDL
MODEL 5
REMARK VINA RESULT:    -4.204      4.841      6.974
REMARK INTER + INTRA:          -4.486
REMARK INTER:                  -4.452
REMARK INTRA:                  -0.034
REMARK UNBOUND:                -0.036
REMARK SMILES COc1ccc2ccc(=O)oc2c1
REMARK SMILES IDX 3 1 13 2 12 3 6 4 5 5 4 6 7 7 8 8 9 9 10 10 11 11 2 12 1 13
REMARK H PARENT
REMARK Flexibility Score: inf
ROOT
ATOM      1  C   UNL     1       3.527 -12.886  15.260  1.00  0.00     0.122 A 
ATOM      2  C   UNL     1       4.596 -12.869  14.342  1.00  0.00     0.094 A 
ATOM      3  C   UNL     1       5.155 -11.653  13.933  1.00  0.00     0.142 A 
ATOM      4  C   UNL     1       4.647 -10.439  14.444  1.00  0.00     0.018 A 
ATOM      5  C   UNL     1       3.585 -10.456  15.356  1.00  0.00     0.016 A 
ATOM      6  C   UNL     1       3.031 -11.674  15.759  1.00  0.00     0.047 A 
ATOM      7  C   UNL     1       5.228  -9.241  14.017  1.00  0.00     0.019 A 
ATOM      8  C   UNL     1       6.284  -9.278  13.106  1.00  0.00     0.094 A 
ATOM      9  C   UNL     1       6.735 -10.517  12.643  1.00  0.00     0.336 A 
ATOM     10  O   UNL     1       7.688 -10.573  11.821  1.00  0.00    -0.246 OA
ATOM     11  O   UNL     1       6.165 -11.643  13.067  1.00  0.00    -0.423 OA
ENDROOT
BRANCH   1  12
ATOM     12  O   UNL     1       2.932 -14.078  15.699  1.00  0.00    -0.497 OA
ATOM     13  C   UNL     1       2.160 -14.943  14.873  1.00  0.00     0.278 C 
ENDBRANCH   1  12
TORSDOF 1
ENDMDL
MODEL 6
REMARK VINA RESULT:    -4.198      3.074      4.015
REMARK INTER + INTRA:          -4.479
REMARK INTER:                  -4.443
REMARK INTRA:                  -0.036
REMARK UNBOUND:                -0.036
REMARK SMILES COc1ccc2ccc(=O)oc2c1
REMARK SMILES IDX 3 1 13 2 12 3 6 4 5 5 4 6 7 7 8 8 9 9 10 10 11 11 2 12 1 13
REMARK H PARENT
REMARK Flexibility Score: inf
ROOT
ATOM      1  C   UNL     1       4.536 -16.600  14.790  1.00  0.00     0.122 A 
ATOM      2  C   UNL     1       5.679 -15.775  14.757  1.00  0.00     0.094 A 
ATOM      3  C   UNL     1       5.542 -14.384  14.699  1.00  0.00     0.142 A 
ATOM      4  C   UNL     1       4.256 -13.804  14.674  1.00  0.00     0.018 A 
ATOM      5  C   UNL     1       3.121 -14.623  14.707  1.00  0.00     0.016 A 
ATOM      6  C   UNL     1       3.265 -16.012  14.764  1.00  0.00     0.047 A 
ATOM      7  C   UNL     1       4.153 -12.411  14.616  1.00  0.00     0.019 A 
ATOM      8  C   UNL     1       5.314 -11.639  14.586  1.00  0.00     0.094 A 
ATOM      9  C   UNL     1       6.556 -12.282  14.613  1.00  0.00     0.336 A 
ATOM     10  O   UNL     1       7.616 -11.604  14.587  1.00  0.00    -0.246 OA
ATOM     11  O   UNL     1       6.625 -13.611  14.669  1.00  0.00    -0.423 OA
ENDROOT
BRANCH   1  12
ATOM     12  O   UNL     1       4.621 -17.999  14.847  1.00  0.00    -0.497 OA
ATOM     13  C   UNL     1       5.516 -18.783  14.066  1.00  0.00     0.278 C 
ENDBRANCH   1  12
TORSDOF 1
ENDMDL
MODEL 7
REMARK VINA RESULT:    -4.169      1.041      4.782
REMARK INTER + INTRA:          -4.449
REMARK INTER:                  -4.412
REMARK INTRA:                  -0.037
REMARK UNBOUND:                -0.036
REMARK SMILES COc1ccc2ccc(=O)oc2c1
REMARK SMILES IDX 3 1 13 2 12 3 6 4 5 5 4 6 7 7 8 8 9 9 10 10 11 11 2 12 1 13
REMARK H PARENT
REMARK Flexibility Score: inf
ROOT
ATOM      1  C   UNL     1       3.763 -16.421  14.715  1.00  0.00     0.122 A 
ATOM      2  C   UNL     1       4.444 -17.367  13.921  1.00  0.00     0.094 A 
ATOM      3  C   UNL     1       5.209 -18.373  14.523  1.00  0.00     0.142 A 
ATOM      4  C   UNL     1       5.299 -18.440  15.929  1.00  0.00     0.018 A 
ATOM      5  C   UNL     1       4.624 -17.500  16.718  1.00  0.00     0.016 A 
ATOM      6  C   UNL     1       3.862 -16.499  16.110  1.00  0.00     0.047 A 
ATOM      7  C   UNL     1       6.071 -19.456  16.501  1.00  0.00     0.019 A 
ATOM      8  C   UNL     1       6.725 -20.368  15.672  1.00  0.00     0.094 A 
ATOM      9  C   UNL     1       6.590 -20.240  14.286  1.00  0.00     0.336 A 
ATOM     10  O   UNL     1       7.172 -21.052  13.520  1.00  0.00    -0.246 OA
ATOM     11  O   UNL     1       5.848 -19.263  13.768  1.00  0.00    -0.423 OA
ENDROOT
BRANCH   1  12
ATOM     12  O   UNL     1       2.985 -15.396  14.159  1.00  0.00    -0.497 OA
ATOM     13  C   UNL     1       1.799 -14.875  14.751  1.00  0.00     0.278 C 
ENDBRANCH   1  12
TORSDOF 1
ENDMDL
MODEL 8
REMARK VINA RESULT:    -4.000      2.948      5.266
REMARK INTER + INTRA:          -4.270
REMARK INTER:                  -4.231
REMARK INTRA:                  -0.038
REMARK UNBOUND:                -0.036
REMARK SMILES COc1ccc2ccc(=O)oc2c1
REMARK SMILES IDX 3 1 13 2 12 3 6 4 5 5 4 6 7 7 8 8 9 9 10 10 11 11 2 12 1 13
REMARK H PARENT
REMARK Flexibility Score: inf
ROOT
ATOM      1  C   UNL     1       5.779 -13.021  14.307  1.00  0.00     0.122 A 
ATOM      2  C   UNL     1       6.388 -14.257  14.607  1.00  0.00     0.094 A 
ATOM      3  C   UNL     1       5.604 -15.367  14.940  1.00  0.00     0.142 A 
ATOM      4  C   UNL     1       4.198 -15.248  14.977  1.00  0.00     0.018 A 
ATOM      5  C   UNL     1       3.593 -14.020  14.680  1.00  0.00     0.016 A 
ATOM      6  C   UNL     1       4.383 -12.916  14.348  1.00  0.00     0.047 A 
ATOM      7  C   UNL     1       3.441 -16.375  15.314  1.00  0.00     0.019 A 
ATOM      8  C   UNL     1       4.092 -17.575  15.601  1.00  0.00     0.094 A 
ATOM      9  C   UNL     1       5.488 -17.619  15.545  1.00  0.00     0.336 A 
ATOM     10  O   UNL     1       6.095 -18.692  15.801  1.00  0.00    -0.246 OA
ATOM     11  O   UNL     1       6.184 -16.531  15.221  1.00  0.00    -0.423 OA
ENDROOT
BRANCH   1  12
ATOM     12  O   UNL     1       6.522 -11.881  13.968  1.00  0.00    -0.497 OA
ATOM     13  C   UNL     1       6.038 -10.819  13.152  1.00  0.00     0.278 C 
ENDBRANCH   1  12
TORSDOF 1
ENDMDL
