MODEL 1
REMARK VINA RESULT:    -3.651      0.000      0.000
REMARK INTER + INTRA:          -5.159
REMARK INTER:                  -4.931
REMARK INTRA:                  -0.228
REMARK UNBOUND:                -0.228
REMARK SMILES CCCCCCCC(=O)[O-]
REMARK SMILES IDX 5 1 6 2 7 3 8 4 9 5 10 6 4 7 3 8 2 9 1 10
REMARK H PARENT
REMARK Flexibility Score: inf
ROOT
ATOM      1  C   UNL     1      -8.371  16.007 -12.104  1.00  0.00     0.000 C 
ENDROOT
BRANCH   1   2
ATOM      2  C   UNL     1      -8.742  17.455 -12.472  1.00  0.00     0.006 C 
BRANCH   2   3
ATOM      3  C   UNL     1      -8.093  17.957 -13.774  1.00  0.00     0.053 C 
BRANCH   3   4
ATOM      4  C   UNL     1      -7.759  19.417 -13.730  1.00  0.00     0.041 C 
ATOM      5  O   UNL     1      -8.004  20.156 -14.720  1.00  0.00    -0.550 OA
ATOM      6  O   UNL     1      -7.206  19.969 -12.581  1.00  0.00    -0.550 OA
ENDBRANCH   3   4
ENDBRANCH   2   3
ENDBRANCH   1   2
BRANCH   1   7
ATOM      7  C   UNL     1      -8.234  15.092 -13.329  1.00  0.00     0.000 C 
BRANCH   7   8
ATOM      8  C   UNL     1      -7.245  13.952 -13.055  1.00  0.00    -0.000 C 
BRANCH   8   9
ATOM      9  C   UNL     1      -7.421  12.814 -14.069  1.00  0.00    -0.003 C 
ATOM     10  C   UNL     1      -8.637  13.052 -14.959  1.00  0.00     0.004 C 
ENDBRANCH   8   9
ENDBRANCH   7   8
ENDBRANCH   1   7
TORSDOF 6
ENDMDL
MODEL 2
REMARK VINA RESULT:    -3.640      2.951      5.385
REMARK INTER + INTRA:          -5.144
REMARK INTER:                  -4.866
REMARK INTRA:                  -0.278
REMARK UNBOUND:                -0.228
REMARK SMILES CCCCCCCC(=O)[O-]
REMARK SMILES IDX 5 1 6 2 7 3 8 4 9 5 10 6 4 7 3 8 2 9 1 10
REMARK H PARENT
REMARK Flexibility Score: inf
ROOT
ATOM      1  C   UNL     1      -8.626  17.952 -12.531  1.00  0.00     0.000 C 
ENDROOT
BRANCH   1   2
ATOM      2  C   UNL     1      -9.101  16.492 -12.420  1.00  0.00     0.006 C 
BRANCH   2   3
ATOM      3  C   UNL     1      -8.250  15.495 -13.227  1.00  0.00     0.053 C 
BRANCH   3   4
ATOM      4  C   UNL     1      -7.362  14.656 -12.358  1.00  0.00     0.041 C 
ATOM      5  O   UNL     1      -6.716  13.694 -12.850  1.00  0.00    -0.550 OA
ATOM      6  O   UNL     1      -7.224  14.958 -11.008  1.00  0.00    -0.550 OA
ENDBRANCH   3   4
ENDBRANCH   2   3
ENDBRANCH   1   2
BRANCH   1   7
ATOM      7  C   UNL     1      -7.868  18.242 -13.834  1.00  0.00     0.000 C 
BRANCH   7   8
ATOM      8  C   UNL     1      -7.737  19.751 -14.070  1.00  0.00    -0.000 C 
BRANCH   8   9
ATOM      9  C   UNL     1      -7.182  20.457 -12.827  1.00  0.00    -0.003 C 
ATOM     10  C   UNL     1      -5.753  20.939 -13.058  1.00  0.00     0.004 C 
ENDBRANCH   8   9
ENDBRANCH   7   8
ENDBRANCH   1   7
TORSDOF 6
ENDMDL
MODEL 3
REMARK VINA RESULT:    -3.590      0.444      1.115
REMARK INTER + INTRA:          -5.077
REMARK INTER:                  -4.846
REMARK INTRA:                  -0.231
REMARK UNBOUND:                -0.228
REMARK SMILES CCCCCCCC(=O)[O-]
REMARK SMILES IDX 5 1 6 2 7 3 8 4 9 5 10 6 4 7 3 8 2 9 1 10
REMARK H PARENT
REMARK Flexibility Score: inf
ROOT
ATOM      1  C   UNL     1      -8.974  16.259 -12.455  1.00  0.00     0.000 C 
ENDROOT
BRANCH   1   2
ATOM      2  C   UNL     1      -8.728  17.779 -12.469  1.00  0.00     0.006 C 
BRANCH   2   3
ATOM      3  C   UNL     1      -7.754  18.245 -13.566  1.00  0.00     0.053 C 
BRANCH   3   4
ATOM      4  C   UNL     1      -7.526  19.726 -13.547  1.00  0.00     0.041 C 
ATOM      5  O   UNL     1      -6.971  20.272 -12.558  1.00  0.00    -0.550 OA
ATOM      6  O   UNL     1      -7.901  20.501 -14.639  1.00  0.00    -0.550 OA
ENDBRANCH   3   4
ENDBRANCH   2   3
ENDBRANCH   1   2
BRANCH   1   7
ATOM      7  C   UNL     1      -8.129  15.504 -13.490  1.00  0.00     0.000 C 
BRANCH   7   8
ATOM      8  C   UNL     1      -7.420  14.304 -12.851  1.00  0.00    -0.000 C 
BRANCH   8   9
ATOM      9  C   UNL     1      -7.347  13.123 -13.826  1.00  0.00    -0.003 C 
ATOM     10  C   UNL     1      -8.538  13.118 -14.778  1.00  0.00     0.004 C 
ENDBRANCH   8   9
ENDBRANCH   7   8
ENDBRANCH   1   7
TORSDOF 6
ENDMDL
MODEL 4
REMARK VINA RESULT:    -3.451      1.603      1.700
REMARK INTER + INTRA:          -4.889
REMARK INTER:                  -4.518
REMARK INTRA:                  -0.371
REMARK UNBOUND:                -0.228
REMARK SMILES CCCCCCCC(=O)[O-]
REMARK SMILES IDX 5 1 6 2 7 3 8 4 9 5 10 6 4 7 3 8 2 9 1 10
REMARK H PARENT
REMARK Flexibility Score: inf
ROOT
ATOM      1  C   UNL     1      -9.078  16.801 -12.620  1.00  0.00     0.000 C 
ENDROOT
BRANCH   1   2
ATOM      2  C   UNL     1      -8.377  18.118 -13.001  1.00  0.00     0.006 C 
BRANCH   2   3
ATOM      3  C   UNL     1      -7.582  18.046 -14.317  1.00  0.00     0.053 C 
BRANCH   3   4
ATOM      4  C   UNL     1      -6.112  18.260 -14.119  1.00  0.00     0.041 C 
ATOM      5  O   UNL     1      -5.549  19.282 -14.593  1.00  0.00    -0.550 OA
ATOM      6  O   UNL     1      -5.369  17.345 -13.383  1.00  0.00    -0.550 OA
ENDBRANCH   3   4
ENDBRANCH   2   3
ENDBRANCH   1   2
BRANCH   1   7
ATOM      7  C   UNL     1      -8.503  15.580 -13.352  1.00  0.00     0.000 C 
BRANCH   7   8
ATOM      8  C   UNL     1      -7.615  14.748 -12.418  1.00  0.00    -0.000 C 
BRANCH   8   9
ATOM      9  C   UNL     1      -6.958  13.586 -13.174  1.00  0.00    -0.003 C 
ATOM     10  C   UNL     1      -7.884  13.036 -14.253  1.00  0.00     0.004 C 
ENDBRANCH   8   9
ENDBRANCH   7   8
ENDBRANCH   1   7
TORSDOF 6
ENDMDL
MODEL 5
REMARK VINA RESULT:    -3.425      2.650      5.333
REMARK INTER + INTRA:          -4.855
REMARK INTER:                  -4.530
REMARK INTRA:                  -0.324
REMARK UNBOUND:                -0.228
REMARK SMILES CCCCCCCC(=O)[O-]
REMARK SMILES IDX 5 1 6 2 7 3 8 4 9 5 10 6 4 7 3 8 2 9 1 10
REMARK H PARENT
REMARK Flexibility Score: inf
ROOT
ATOM      1  C   UNL     1      -7.654  17.319 -14.725  1.00  0.00     0.000 C 
ENDROOT
BRANCH   1   2
ATOM      2  C   UNL     1      -8.600  16.849 -13.606  1.00  0.00     0.006 C 
BRANCH   2   3
ATOM      3  C   UNL     1      -8.455  15.359 -13.248  1.00  0.00     0.053 C 
BRANCH   3   4
ATOM      4  C   UNL     1      -7.412  15.115 -12.199  1.00  0.00     0.041 C 
ATOM      5  O   UNL     1      -7.135  16.008 -11.357  1.00  0.00    -0.550 OA
ATOM      6  O   UNL     1      -6.766  13.885 -12.134  1.00  0.00    -0.550 OA
ENDBRANCH   3   4
ENDBRANCH   2   3
ENDBRANCH   1   2
BRANCH   1   7
ATOM      7  C   UNL     1      -7.051  18.706 -14.461  1.00  0.00     0.000 C 
BRANCH   7   8
ATOM      8  C   UNL     1      -7.840  19.450 -13.377  1.00  0.00    -0.000 C 
BRANCH   8   9
ATOM      9  C   UNL     1      -7.012  20.595 -12.781  1.00  0.00    -0.003 C 
ATOM     10  C   UNL     1      -5.671  20.736 -13.494  1.00  0.00     0.004 C 
ENDBRANCH   8   9
ENDBRANCH   7   8
ENDBRANCH   1   7
TORSDOF 6
ENDMDL
MODEL 6
REMARK VINA RESULT:    -3.383      2.399      3.057
REMARK INTER + INTRA:          -4.797
REMARK INTER:                  -4.206
REMARK INTRA:                  -0.591
REMARK UNBOUND:                -0.228
REMARK SMILES CCCCCCCC(=O)[O-]
REMARK SMILES IDX 5 1 6 2 7 3 8 4 9 5 10 6 4 7 3 8 2 9 1 10
REMARK H PARENT
REMARK Flexibility Score: inf
ROOT
ATOM      1  C   UNL     1      -5.712  15.606 -14.954  1.00  0.00     0.000 C 
ENDROOT
BRANCH   1   2
ATOM      2  C   UNL     1      -7.048  16.371 -14.973  1.00  0.00     0.006 C 
BRANCH   2   3
ATOM      3  C   UNL     1      -7.294  17.233 -13.722  1.00  0.00     0.053 C 
BRANCH   3   4
ATOM      4  C   UNL     1      -8.043  16.499 -12.651  1.00  0.00     0.041 C 
ATOM      5  O   UNL     1      -7.424  15.970 -11.691  1.00  0.00    -0.550 OA
ATOM      6  O   UNL     1      -9.430  16.426 -12.699  1.00  0.00    -0.550 OA
ENDBRANCH   3   4
ENDBRANCH   2   3
ENDBRANCH   1   2
BRANCH   1   7
ATOM      7  C   UNL     1      -5.884  14.090 -15.119  1.00  0.00     0.000 C 
BRANCH   7   8
ATOM      8  C   UNL     1      -6.075  13.407 -13.759  1.00  0.00    -0.000 C 
BRANCH   8   9
ATOM      9  C   UNL     1      -7.511  12.893 -13.598  1.00  0.00    -0.003 C 
ATOM     10  C   UNL     1      -8.248  12.885 -14.933  1.00  0.00     0.004 C 
ENDBRANCH   8   9
ENDBRANCH   7   8
ENDBRANCH   1   7
TORSDOF 6
ENDMDL
MODEL 7
REMARK VINA RESULT:    -3.300      2.314      4.971
REMARK INTER + INTRA:          -4.685
REMARK INTER:                  -4.202
REMARK INTRA:                  -0.483
REMARK UNBOUND:                -0.228
REMARK SMILES CCCCCCCC(=O)[O-]
REMARK SMILES IDX 5 1 6 2 7 3 8 4 9 5 10 6 4 7 3 8 2 9 1 10
REMARK H PARENT
REMARK Flexibility Score: inf
ROOT
ATOM      1  C   UNL     1      -6.205  16.939 -14.371  1.00  0.00     0.000 C 
ENDROOT
BRANCH   1   2
ATOM      2  C   UNL     1      -7.633  16.431 -14.636  1.00  0.00     0.006 C 
BRANCH   2   3
ATOM      3  C   UNL     1      -8.244  15.641 -13.464  1.00  0.00     0.053 C 
BRANCH   3   4
ATOM      4  C   UNL     1      -7.949  16.261 -12.132  1.00  0.00     0.041 C 
ATOM      5  O   UNL     1      -7.197  15.675 -11.309  1.00  0.00    -0.550 OA
ATOM      6  O   UNL     1      -8.483  17.504 -11.811  1.00  0.00    -0.550 OA
ENDBRANCH   3   4
ENDBRANCH   2   3
ENDBRANCH   1   2
BRANCH   1   7
ATOM      7  C   UNL     1      -6.092  18.470 -14.423  1.00  0.00     0.000 C 
BRANCH   7   8
ATOM      8  C   UNL     1      -7.404  19.102 -14.902  1.00  0.00    -0.000 C 
BRANCH   8   9
ATOM      9  C   UNL     1      -7.563  20.525 -14.354  1.00  0.00    -0.003 C 
ATOM     10  C   UNL     1      -7.037  20.628 -12.926  1.00  0.00     0.004 C 
ENDBRANCH   8   9
ENDBRANCH   7   8
ENDBRANCH   1   7
TORSDOF 6
ENDMDL
MODEL 8
REMARK VINA RESULT:    -3.262      1.589      2.262
REMARK INTER + INTRA:          -4.634
REMARK INTER:                  -4.280
REMARK INTRA:                  -0.354
REMARK UNBOUND:                -0.228
REMARK SMILES CCCCCCCC(=O)[O-]
REMARK SMILES IDX 5 1 6 2 7 3 8 4 9 5 10 6 4 7 3 8 2 9 1 10
REMARK H PARENT
REMARK Flexibility Score: inf
ROOT
ATOM      1  C   UNL     1      -8.571  18.034 -12.548  1.00  0.00     0.000 C 
ENDROOT
BRANCH   1   2
ATOM      2  C   UNL     1      -8.045  18.446 -13.935  1.00  0.00     0.006 C 
BRANCH   2   3
ATOM      3  C   UNL     1      -7.471  19.873 -13.989  1.00  0.00     0.053 C 
BRANCH   3   4
ATOM      4  C   UNL     1      -6.215  20.023 -13.185  1.00  0.00     0.041 C 
ATOM      5  O   UNL     1      -6.160  20.850 -12.238  1.00  0.00    -0.550 OA
ATOM      6  O   UNL     1      -5.112  19.224 -13.464  1.00  0.00    -0.550 OA
ENDBRANCH   3   4
ENDBRANCH   2   3
ENDBRANCH   1   2
BRANCH   1   7
ATOM      7  C   UNL     1      -9.029  16.570 -12.488  1.00  0.00     0.000 C 
BRANCH   7   8
ATOM      8  C   UNL     1      -7.875  15.650 -12.071  1.00  0.00    -0.000 C 
BRANCH   8   9
ATOM      9  C   UNL     1      -7.631  14.560 -13.122  1.00  0.00    -0.003 C 
ATOM     10  C   UNL     1      -6.629  15.022 -14.174  1.00  0.00     0.004 C 
ENDBRANCH   8   9
ENDBRANCH   7   8
ENDBRANCH   1   7
TORSDOF 6
ENDMDL
MODEL 9
REMARK VINA RESULT:    -3.196      2.393      4.969
REMARK INTER + INTRA:          -4.545
REMARK INTER:                  -4.022
REMARK INTRA:                  -0.523
REMARK UNBOUND:                -0.228
REMARK SMILES CCCCCCCC(=O)[O-]
REMARK SMILES IDX 5 1 6 2 7 3 8 4 9 5 10 6 4 7 3 8 2 9 1 10
REMARK H PARENT
REMARK Flexibility Score: inf
ROOT
ATOM      1  C   UNL     1      -5.603  17.681 -14.238  1.00  0.00     0.000 C 
ENDROOT
BRANCH   1   2
ATOM      2  C   UNL     1      -6.875  16.860 -14.516  1.00  0.00     0.006 C 
BRANCH   2   3
ATOM      3  C   UNL     1      -7.486  16.209 -13.261  1.00  0.00     0.053 C 
BRANCH   3   4
ATOM      4  C   UNL     1      -8.674  16.958 -12.740  1.00  0.00     0.041 C 
ATOM      5  O   UNL     1      -9.839  16.524 -12.940  1.00  0.00    -0.550 OA
ATOM      6  O   UNL     1      -8.493  18.124 -12.005  1.00  0.00    -0.550 OA
ENDBRANCH   3   4
ENDBRANCH   2   3
ENDBRANCH   1   2
BRANCH   1   7
ATOM      7  C   UNL     1      -5.693  19.123 -14.755  1.00  0.00     0.000 C 
BRANCH   7   8
ATOM      8  C   UNL     1      -5.824  20.116 -13.593  1.00  0.00    -0.000 C 
BRANCH   8   9
ATOM      9  C   UNL     1      -7.116  20.933 -13.709  1.00  0.00    -0.003 C 
ATOM     10  C   UNL     1      -7.933  20.505 -14.924  1.00  0.00     0.004 C 
ENDBRANCH   8   9
ENDBRANCH   7   8
ENDBRANCH   1   7
TORSDOF 6
ENDMDL
