MODEL 1
REMARK VINA RESULT:    -4.709      0.000      0.000
REMARK INTER + INTRA:          -5.541
REMARK INTER:                  -5.397
REMARK INTRA:                  -0.144
REMARK UNBOUND:                -0.144
REMARK SMILES CC=Cc1ccc(O)c(OC)c1
REMARK SMILES IDX 4 1 12 2 9 3 7 4 6 5 5 6 3 7 1 8 2 9 10 10 11 11 8 12
REMARK H PARENT 8 13
REMARK Flexibility Score: inf
ROOT
ATOM      1  C   UNL     1     117.759 117.884 118.441  1.00  0.00    -0.022 A 
ATOM      2  C   UNL     1     117.267 119.055 119.051  1.00  0.00     0.058 A 
ATOM      3  C   UNL     1     116.827 119.036 120.391  1.00  0.00     0.161 A 
ATOM      4  C   UNL     1     116.872 117.836 121.114  1.00  0.00     0.157 A 
ATOM      5  C   UNL     1     117.344 116.668 120.505  1.00  0.00     0.051 A 
ATOM      6  C   UNL     1     117.778 116.691 119.179  1.00  0.00     0.012 A 
ENDROOT
BRANCH   1   7
ATOM      7  C   UNL     1     118.224 117.853 117.032  1.00  0.00     0.003 C 
ATOM      8  C   UNL     1     118.959 118.834 114.895  1.00  0.00     0.035 C 
ATOM      9  C   UNL     1     118.477 118.948 116.307  1.00  0.00    -0.030 C 
ENDBRANCH   1   7
BRANCH   3  10
ATOM     10  O   UNL     1     116.336 120.184 121.035  1.00  0.00    -0.493 OA
ATOM     11  C   UNL     1     116.340 121.491 120.470  1.00  0.00     0.278 C 
ENDBRANCH   3  10
BRANCH   4  12
ATOM     12  O   UNL     1     116.441 117.813 122.439  1.00  0.00    -0.504 OA
ATOM     13  H   UNL     1     116.406 116.951 122.971  1.00  0.00     0.293 HD
ENDBRANCH   4  12
TORSDOF 3
ENDMDL
MODEL 2
REMARK VINA RESULT:    -4.702      3.351      4.238
REMARK INTER + INTRA:          -5.533
REMARK INTER:                  -5.390
REMARK INTRA:                  -0.144
REMARK UNBOUND:                -0.144
REMARK SMILES CC=Cc1ccc(O)c(OC)c1
REMARK SMILES IDX 4 1 12 2 9 3 7 4 6 5 5 6 3 7 1 8 2 9 10 10 11 11 8 12
REMARK H PARENT 8 13
REMARK Flexibility Score: inf
ROOT
ATOM      1  C   UNL     1     119.831 119.724 118.428  1.00  0.00    -0.022 A 
ATOM      2  C   UNL     1     120.314 118.556 119.053  1.00  0.00     0.058 A 
ATOM      3  C   UNL     1     120.740 118.584 120.397  1.00  0.00     0.161 A 
ATOM      4  C   UNL     1     120.690 119.789 121.110  1.00  0.00     0.157 A 
ATOM      5  C   UNL     1     120.228 120.954 120.487  1.00  0.00     0.051 A 
ATOM      6  C   UNL     1     119.807 120.922 119.157  1.00  0.00     0.012 A 
ENDROOT
BRANCH   1   7
ATOM      7  C   UNL     1     119.381 119.745 117.015  1.00  0.00     0.003 C 
ATOM      8  C   UNL     1     118.666 118.750 114.877  1.00  0.00     0.035 C 
ATOM      9  C   UNL     1     119.133 118.645 116.294  1.00  0.00    -0.030 C 
ENDBRANCH   1   7
BRANCH   3  10
ATOM     10  O   UNL     1     121.221 117.439 121.054  1.00  0.00    -0.493 OA
ATOM     11  C   UNL     1     121.265 116.137 120.481  1.00  0.00     0.278 C 
ENDBRANCH   3  10
BRANCH   4  12
ATOM     12  O   UNL     1     121.107 119.822 122.439  1.00  0.00    -0.504 OA
ATOM     13  H   UNL     1     122.005 120.210 122.705  1.00  0.00     0.293 HD
ENDBRANCH   4  12
TORSDOF 3
ENDMDL
MODEL 3
REMARK VINA RESULT:    -4.686      2.383      3.009
REMARK INTER + INTRA:          -5.514
REMARK INTER:                  -5.371
REMARK INTRA:                  -0.144
REMARK UNBOUND:                -0.144
REMARK SMILES CC=Cc1ccc(O)c(OC)c1
REMARK SMILES IDX 4 1 12 2 9 3 7 4 6 5 5 6 3 7 1 8 2 9 10 10 11 11 8 12
REMARK H PARENT 8 13
REMARK Flexibility Score: inf
ROOT
ATOM      1  C   UNL     1     117.944 119.790 118.407  1.00  0.00    -0.022 A 
ATOM      2  C   UNL     1     119.118 120.298 118.999  1.00  0.00     0.058 A 
ATOM      3  C   UNL     1     119.114 120.736 120.340  1.00  0.00     0.161 A 
ATOM      4  C   UNL     1     117.928 120.674 121.081  1.00  0.00     0.157 A 
ATOM      5  C   UNL     1     116.756 120.186 120.491  1.00  0.00     0.051 A 
ATOM      6  C   UNL     1     116.763 119.754 119.164  1.00  0.00     0.012 A 
ENDROOT
BRANCH   1   7
ATOM      7  C   UNL     1     117.896 119.326 116.998  1.00  0.00     0.003 C 
ATOM      8  C   UNL     1     118.851 118.663 114.826  1.00  0.00     0.035 C 
ATOM      9  C   UNL     1     118.980 119.150 116.235  1.00  0.00    -0.030 C 
ENDBRANCH   1   7
BRANCH   3  10
ATOM     10  O   UNL     1     120.266 121.242 120.965  1.00  0.00    -0.493 OA
ATOM     11  C   UNL     1     121.562 121.262 120.377  1.00  0.00     0.278 C 
ENDBRANCH   3  10
BRANCH   4  12
ATOM     12  O   UNL     1     117.920 121.103 122.407  1.00  0.00    -0.504 OA
ATOM     13  H   UNL     1     117.679 122.056 122.655  1.00  0.00     0.293 HD
ENDBRANCH   4  12
TORSDOF 3
ENDMDL
MODEL 4
REMARK VINA RESULT:    -4.667      2.331      3.004
REMARK INTER + INTRA:          -5.492
REMARK INTER:                  -5.348
REMARK INTRA:                  -0.144
REMARK UNBOUND:                -0.144
REMARK SMILES CC=Cc1ccc(O)c(OC)c1
REMARK SMILES IDX 4 1 12 2 9 3 7 4 6 5 5 6 3 7 1 8 2 9 10 10 11 11 8 12
REMARK H PARENT 8 13
REMARK Flexibility Score: inf
ROOT
ATOM      1  C   UNL     1     119.702 117.872 118.421  1.00  0.00    -0.022 A 
ATOM      2  C   UNL     1     118.535 117.370 119.032  1.00  0.00     0.058 A 
ATOM      3  C   UNL     1     118.568 116.887 120.357  1.00  0.00     0.161 A 
ATOM      4  C   UNL     1     119.777 116.900 121.064  1.00  0.00     0.157 A 
ATOM      5  C   UNL     1     120.941 117.382 120.455  1.00  0.00     0.051 A 
ATOM      6  C   UNL     1     120.905 117.858 119.143  1.00  0.00     0.012 A 
ENDROOT
BRANCH   1   7
ATOM      7  C   UNL     1     119.718 118.381 117.028  1.00  0.00     0.003 C 
ATOM      8  C   UNL     1     118.736 118.957 114.843  1.00  0.00     0.035 C 
ATOM      9  C   UNL     1     118.643 118.413 116.233  1.00  0.00    -0.030 C 
ENDBRANCH   1   7
BRANCH   3  10
ATOM     10  O   UNL     1     117.424 116.385 121.000  1.00  0.00    -0.493 OA
ATOM     11  C   UNL     1     116.127 116.331 120.415  1.00  0.00     0.278 C 
ENDBRANCH   3  10
BRANCH   4  12
ATOM     12  O   UNL     1     119.815 116.427 122.374  1.00  0.00    -0.504 OA
ATOM     13  H   UNL     1     119.045 115.900 122.771  1.00  0.00     0.293 HD
ENDBRANCH   4  12
TORSDOF 3
ENDMDL
MODEL 5
REMARK VINA RESULT:    -4.632      1.006      2.516
REMARK INTER + INTRA:          -5.453
REMARK INTER:                  -5.264
REMARK INTRA:                  -0.189
REMARK UNBOUND:                -0.144
REMARK SMILES CC=Cc1ccc(O)c(OC)c1
REMARK SMILES IDX 4 1 12 2 9 3 7 4 6 5 5 6 3 7 1 8 2 9 10 10 11 11 8 12
REMARK H PARENT 8 13
REMARK Flexibility Score: inf
ROOT
ATOM      1  C   UNL     1     117.702 118.546 118.407  1.00  0.00    -0.022 A 
ATOM      2  C   UNL     1     117.893 117.723 119.535  1.00  0.00     0.058 A 
ATOM      3  C   UNL     1     117.377 118.097 120.793  1.00  0.00     0.161 A 
ATOM      4  C   UNL     1     116.678 119.305 120.918  1.00  0.00     0.157 A 
ATOM      5  C   UNL     1     116.502 120.133 119.804  1.00  0.00     0.051 A 
ATOM      6  C   UNL     1     117.014 119.759 118.561  1.00  0.00     0.012 A 
ENDROOT
BRANCH   1   7
ATOM      7  C   UNL     1     118.234 118.199 117.065  1.00  0.00     0.003 C 
ATOM      8  C   UNL     1     119.031 118.671 114.782  1.00  0.00     0.035 C 
ATOM      9  C   UNL     1     118.480 119.098 116.106  1.00  0.00    -0.030 C 
ENDBRANCH   1   7
BRANCH   3  10
ATOM     10  O   UNL     1     117.543 117.300 121.937  1.00  0.00    -0.493 OA
ATOM     11  C   UNL     1     116.720 116.187 122.272  1.00  0.00     0.278 C 
ENDBRANCH   3  10
BRANCH   4  12
ATOM     12  O   UNL     1     116.164 119.678 122.159  1.00  0.00    -0.504 OA
ATOM     13  H   UNL     1     115.368 120.300 122.239  1.00  0.00     0.293 HD
ENDBRANCH   4  12
TORSDOF 3
ENDMDL
MODEL 6
REMARK VINA RESULT:    -4.624      2.179      2.899
REMARK INTER + INTRA:          -5.443
REMARK INTER:                  -5.257
REMARK INTRA:                  -0.186
REMARK UNBOUND:                -0.144
REMARK SMILES CC=Cc1ccc(O)c(OC)c1
REMARK SMILES IDX 4 1 12 2 9 3 7 4 6 5 5 6 3 7 1 8 2 9 10 10 11 11 8 12
REMARK H PARENT 8 13
REMARK Flexibility Score: inf
ROOT
ATOM      1  C   UNL     1     118.534 119.917 118.398  1.00  0.00    -0.022 A 
ATOM      2  C   UNL     1     117.642 119.842 119.488  1.00  0.00     0.058 A 
ATOM      3  C   UNL     1     118.008 120.353 120.751  1.00  0.00     0.161 A 
ATOM      4  C   UNL     1     119.273 120.931 120.920  1.00  0.00     0.157 A 
ATOM      5  C   UNL     1     120.166 120.991 119.845  1.00  0.00     0.051 A 
ATOM      6  C   UNL     1     119.802 120.484 118.596  1.00  0.00     0.012 A 
ENDROOT
BRANCH   1   7
ATOM      7  C   UNL     1     118.198 119.385 117.054  1.00  0.00     0.003 C 
ATOM      8  C   UNL     1     118.687 118.610 114.767  1.00  0.00     0.035 C 
ATOM      9  C   UNL     1     119.102 119.163 116.093  1.00  0.00    -0.030 C 
ENDBRANCH   1   7
BRANCH   3  10
ATOM     10  O   UNL     1     117.144 120.302 121.857  1.00  0.00    -0.493 OA
ATOM     11  C   UNL     1     116.133 121.264 122.139  1.00  0.00     0.278 C 
ENDBRANCH   3  10
BRANCH   4  12
ATOM     12  O   UNL     1     119.637 121.440 122.165  1.00  0.00    -0.504 OA
ATOM     13  H   UNL     1     119.826 122.426 122.301  1.00  0.00     0.293 HD
ENDBRANCH   4  12
TORSDOF 3
ENDMDL
MODEL 7
REMARK VINA RESULT:    -4.614      2.385      3.005
REMARK INTER + INTRA:          -5.432
REMARK INTER:                  -5.238
REMARK INTRA:                  -0.194
REMARK UNBOUND:                -0.144
REMARK SMILES CC=Cc1ccc(O)c(OC)c1
REMARK SMILES IDX 4 1 12 2 9 3 7 4 6 5 5 6 3 7 1 8 2 9 10 10 11 11 8 12
REMARK H PARENT 8 13
REMARK Flexibility Score: inf
ROOT
ATOM      1  C   UNL     1     119.015 117.725 118.457  1.00  0.00    -0.022 A 
ATOM      2  C   UNL     1     119.853 117.852 119.584  1.00  0.00     0.058 A 
ATOM      3  C   UNL     1     119.470 117.307 120.827  1.00  0.00     0.161 A 
ATOM      4  C   UNL     1     118.242 116.644 120.940  1.00  0.00     0.157 A 
ATOM      5  C   UNL     1     117.401 116.531 119.827  1.00  0.00     0.051 A 
ATOM      6  C   UNL     1     117.782 117.072 118.598  1.00  0.00     0.012 A 
ENDROOT
BRANCH   1   7
ATOM      7  C   UNL     1     119.370 118.289 117.131  1.00  0.00     0.003 C 
ATOM      8  C   UNL     1     118.927 119.044 114.828  1.00  0.00     0.035 C 
ATOM      9  C   UNL     1     118.495 118.453 116.133  1.00  0.00    -0.030 C 
ENDBRANCH   1   7
BRANCH   3  10
ATOM     10  O   UNL     1     120.281 117.408 121.970  1.00  0.00    -0.493 OA
ATOM     11  C   UNL     1     121.408 116.581 122.237  1.00  0.00     0.278 C 
ENDBRANCH   3  10
BRANCH   4  12
ATOM     12  O   UNL     1     117.860 116.102 122.165  1.00  0.00    -0.504 OA
ATOM     13  H   UNL     1     116.897 115.855 122.361  1.00  0.00     0.293 HD
ENDBRANCH   4  12
TORSDOF 3
ENDMDL
MODEL 8
REMARK VINA RESULT:    -4.597      3.342      3.423
REMARK INTER + INTRA:          -5.413
REMARK INTER:                  -5.227
REMARK INTRA:                  -0.185
REMARK UNBOUND:                -0.144
REMARK SMILES CC=Cc1ccc(O)c(OC)c1
REMARK SMILES IDX 4 1 12 2 9 3 7 4 6 5 5 6 3 7 1 8 2 9 10 10 11 11 8 12
REMARK H PARENT 8 13
REMARK Flexibility Score: inf
ROOT
ATOM      1  C   UNL     1     119.915 119.086 118.468  1.00  0.00    -0.022 A 
ATOM      2  C   UNL     1     119.880 120.027 119.517  1.00  0.00     0.058 A 
ATOM      3  C   UNL     1     120.380 119.697 120.794  1.00  0.00     0.161 A 
ATOM      4  C   UNL     1     120.906 118.418 121.018  1.00  0.00     0.157 A 
ATOM      5  C   UNL     1     120.927 117.477 119.983  1.00  0.00     0.051 A 
ATOM      6  C   UNL     1     120.431 117.806 118.721  1.00  0.00     0.012 A 
ENDROOT
BRANCH   1   7
ATOM      7  C   UNL     1     119.393 119.383 117.111  1.00  0.00     0.003 C 
ATOM      8  C   UNL     1     118.619 118.828 114.838  1.00  0.00     0.035 C 
ATOM      9  C   UNL     1     119.162 118.450 116.180  1.00  0.00    -0.030 C 
ENDBRANCH   1   7
BRANCH   3  10
ATOM     10  O   UNL     1     120.367 120.610 121.862  1.00  0.00    -0.493 OA
ATOM     11  C   UNL     1     121.376 121.585 122.103  1.00  0.00     0.278 C 
ENDBRANCH   3  10
BRANCH   4  12
ATOM     12  O   UNL     1     121.404 118.089 122.277  1.00  0.00    -0.504 OA
ATOM     13  H   UNL     1     122.184 118.589 122.688  1.00  0.00     0.293 HD
ENDBRANCH   4  12
TORSDOF 3
ENDMDL
MODEL 9
REMARK VINA RESULT:    -4.217      3.229      5.338
REMARK INTER + INTRA:          -4.977
REMARK INTER:                  -4.826
REMARK INTRA:                  -0.150
REMARK UNBOUND:                -0.144
REMARK SMILES CC=Cc1ccc(O)c(OC)c1
REMARK SMILES IDX 4 1 12 2 9 3 7 4 6 5 5 6 3 7 1 8 2 9 10 10 11 11 8 12
REMARK H PARENT 8 13
REMARK Flexibility Score: inf
ROOT
ATOM      1  C   UNL     1     117.032 120.929 120.098  1.00  0.00    -0.022 A 
ATOM      2  C   UNL     1     118.396 121.284 120.128  1.00  0.00     0.058 A 
ATOM      3  C   UNL     1     119.282 120.814 119.135  1.00  0.00     0.161 A 
ATOM      4  C   UNL     1     118.798 119.980 118.119  1.00  0.00     0.157 A 
ATOM      5  C   UNL     1     117.448 119.612 118.097  1.00  0.00     0.051 A 
ATOM      6  C   UNL     1     116.574 120.078 119.080  1.00  0.00     0.012 A 
ENDROOT
BRANCH   1   7
ATOM      7  C   UNL     1     116.064 121.390 121.124  1.00  0.00     0.003 C 
ATOM      8  C   UNL     1     115.121 121.565 123.393  1.00  0.00     0.035 C 
ATOM      9  C   UNL     1     116.126 121.045 122.415  1.00  0.00    -0.030 C 
ENDBRANCH   1   7
BRANCH   3  10
ATOM     10  O   UNL     1     120.645 121.151 119.129  1.00  0.00    -0.493 OA
ATOM     11  C   UNL     1     121.465 121.223 120.291  1.00  0.00     0.278 C 
ENDBRANCH   3  10
BRANCH   4  12
ATOM     12  O   UNL     1     119.668 119.516 117.135  1.00  0.00    -0.504 OA
ATOM     13  H   UNL     1     119.770 119.994 116.247  1.00  0.00     0.293 HD
ENDBRANCH   4  12
TORSDOF 3
ENDMDL
