MODEL 1
REMARK VINA RESULT:    -8.034      0.000      0.000
REMARK INTER + INTRA:         -11.492
REMARK INTER:                 -11.087
REMARK INTRA:                  -0.405
REMARK UNBOUND:                -0.405
REMARK SMILES CC[C@@H](CC[C@@H](C)[C@@H]1CC[C@@H]2C3=CC[C@H]4C[C@H](O)CC[C@]4(C)[C@H]3CC[C@@]21C)C(C)C
REMARK SMILES IDX 5 1 4 2 3 3 2 4 1 5 28 6 29 7 30 8 6 9 7 10 8 11 9 12 26 13
REMARK SMILES IDX 10 14 11 15 25 16 27 17 12 18 24 19 23 20 13 21 21 22 14 23
REMARK SMILES IDX 15 24 20 25 22 26 16 27 19 28 17 29 18 30
REMARK H PARENT 18 31
REMARK Flexibility Score: inf
ROOT
ATOM      1  C   UNL     1      11.459 -15.611  30.610  1.00  0.00     0.004 C 
ENDROOT
BRANCH   1   2
ATOM      2  C   UNL     1      11.717 -16.950  31.358  1.00  0.00     0.004 C 
BRANCH   2   3
ATOM      3  C   UNL     1      10.437 -17.680  31.867  1.00  0.00    -0.009 C 
BRANCH   3   4
ATOM      4  C   UNL     1       9.887 -16.961  33.155  1.00  0.00     0.000 C 
ATOM      5  C   UNL     1       9.540 -15.477  32.938  1.00  0.00     0.004 C 
ENDBRANCH   3   4
BRANCH   3   6
ATOM      6  C   UNL     1      10.560 -19.231  32.100  1.00  0.00    -0.014 C 
ATOM      7  C   UNL     1       9.808 -20.125  31.085  1.00  0.00     0.007 C 
ATOM      8  C   UNL     1      10.228 -19.641  33.550  1.00  0.00     0.007 C 
ENDBRANCH   3   6
ENDBRANCH   2   3
ENDBRANCH   1   2
BRANCH   1   9
ATOM      9  C   UNL     1      12.764 -14.927  30.078  1.00  0.00    -0.011 C 
ATOM     10  C   UNL     1      14.006 -15.407  30.842  1.00  0.00     0.008 C 
BRANCH   9  11
ATOM     11  C   UNL     1      12.861 -15.077  28.516  1.00  0.00    -0.002 C 
ATOM     12  C   UNL     1      13.778 -16.144  27.933  1.00  0.00     0.005 C 
ATOM     13  C   UNL     1      13.103 -13.816  27.606  1.00  0.00    -0.023 C 
ATOM     14  C   UNL     1      13.509 -16.025  26.450  1.00  0.00     0.009 C 
ATOM     15  C   UNL     1      13.246 -14.521  26.196  1.00  0.00     0.021 C 
ATOM     16  C   UNL     1      14.351 -12.905  28.049  1.00  0.00     0.008 C 
ATOM     17  C   UNL     1      11.824 -12.916  27.617  1.00  0.00     0.012 C 
ATOM     18  C   UNL     1      14.377 -13.946  25.412  1.00  0.00    -0.067 C 
ATOM     19  C   UNL     1      15.561 -12.705  27.065  1.00  0.00     0.009 C 
ATOM     20  C   UNL     1      15.716 -13.907  26.113  1.00  0.00     0.021 C 
ATOM     21  C   UNL     1      14.179 -13.352  24.212  1.00  0.00    -0.027 C 
ATOM     22  C   UNL     1      16.953 -14.040  25.101  1.00  0.00    -0.023 C 
ATOM     23  C   UNL     1      15.393 -12.887  23.437  1.00  0.00     0.031 C 
ATOM     24  C   UNL     1      16.463 -13.966  23.618  1.00  0.00     0.002 C 
ATOM     25  C   UNL     1      17.683 -15.431  25.306  1.00  0.00     0.010 C 
ATOM     26  C   UNL     1      17.986 -12.913  25.407  1.00  0.00     0.012 C 
ATOM     27  C   UNL     1      17.638 -13.935  22.617  1.00  0.00     0.036 C 
ATOM     28  C   UNL     1      18.188 -16.090  23.990  1.00  0.00     0.032 C 
ATOM     29  C   UNL     1      18.670 -15.075  22.928  1.00  0.00     0.114 C 
BRANCH  29  30
ATOM     30  O   UNL     1      19.034 -15.777  21.768  1.00  0.00    -0.393 OA
ATOM     31  H   UNL     1      18.924 -15.159  20.987  1.00  0.00     0.210 HD
ENDBRANCH  29  30
ENDBRANCH   9  11
ENDBRANCH   1   9
TORSDOF 7
ENDMDL
MODEL 2
REMARK VINA RESULT:    -7.697      1.464      1.579
REMARK INTER + INTRA:         -11.027
REMARK INTER:                 -10.443
REMARK INTRA:                  -0.583
REMARK UNBOUND:                -0.405
REMARK SMILES CC[C@@H](CC[C@@H](C)[C@@H]1CC[C@@H]2C3=CC[C@H]4C[C@H](O)CC[C@]4(C)[C@H]3CC[C@@]21C)C(C)C
REMARK SMILES IDX 5 1 4 2 3 3 2 4 1 5 28 6 29 7 30 8 6 9 7 10 8 11 9 12 26 13
REMARK SMILES IDX 10 14 11 15 25 16 27 17 12 18 24 19 23 20 13 21 21 22 14 23
REMARK SMILES IDX 15 24 20 25 22 26 16 27 19 28 17 29 18 30
REMARK H PARENT 18 31
REMARK Flexibility Score: inf
ROOT
ATOM      1  C   UNL     1      11.728 -16.151  30.367  1.00  0.00     0.004 C 
ENDROOT
BRANCH   1   2
ATOM      2  C   UNL     1      11.838 -17.192  31.517  1.00  0.00     0.004 C 
BRANCH   2   3
ATOM      3  C   UNL     1      10.496 -17.877  31.918  1.00  0.00    -0.009 C 
BRANCH   3   4
ATOM      4  C   UNL     1       9.821 -17.086  33.100  1.00  0.00     0.000 C 
ATOM      5  C   UNL     1       9.720 -15.570  32.854  1.00  0.00     0.004 C 
ENDBRANCH   3   4
BRANCH   3   6
ATOM      6  C   UNL     1      10.563 -19.416  32.239  1.00  0.00    -0.014 C 
ATOM      7  C   UNL     1       9.826 -20.344  31.244  1.00  0.00     0.007 C 
ATOM      8  C   UNL     1      10.161 -19.735  33.694  1.00  0.00     0.007 C 
ENDBRANCH   3   6
ENDBRANCH   2   3
ENDBRANCH   1   2
BRANCH   1   9
ATOM      9  C   UNL     1      13.019 -15.282  30.182  1.00  0.00    -0.011 C 
ATOM     10  C   UNL     1      14.018 -15.500  31.327  1.00  0.00     0.008 C 
BRANCH   9  11
ATOM     11  C   UNL     1      13.619 -15.496  28.745  1.00  0.00    -0.002 C 
ATOM     12  C   UNL     1      15.107 -15.786  28.603  1.00  0.00     0.005 C 
ATOM     13  C   UNL     1      13.310 -14.472  27.590  1.00  0.00    -0.023 C 
ATOM     14  C   UNL     1      15.249 -16.020  27.115  1.00  0.00     0.009 C 
ATOM     15  C   UNL     1      14.231 -15.065  26.446  1.00  0.00     0.021 C 
ATOM     16  C   UNL     1      13.588 -12.936  27.969  1.00  0.00     0.008 C 
ATOM     17  C   UNL     1      11.807 -14.600  27.173  1.00  0.00     0.012 C 
ATOM     18  C   UNL     1      14.964 -13.986  25.724  1.00  0.00    -0.067 C 
ATOM     19  C   UNL     1      14.660 -12.113  27.164  1.00  0.00     0.009 C 
ATOM     20  C   UNL     1      15.755 -13.030  26.588  1.00  0.00     0.021 C 
ATOM     21  C   UNL     1      14.798 -13.783  24.396  1.00  0.00    -0.027 C 
ATOM     22  C   UNL     1      17.052 -12.448  25.845  1.00  0.00    -0.023 C 
ATOM     23  C   UNL     1      15.657 -12.734  23.723  1.00  0.00     0.031 C 
ATOM     24  C   UNL     1      17.054 -12.857  24.336  1.00  0.00     0.002 C 
ATOM     25  C   UNL     1      18.370 -13.023  26.510  1.00  0.00     0.010 C 
ATOM     26  C   UNL     1      17.078 -10.897  26.006  1.00  0.00     0.012 C 
ATOM     27  C   UNL     1      18.203 -12.187  23.552  1.00  0.00     0.036 C 
ATOM     28  C   UNL     1      19.510 -13.340  25.500  1.00  0.00     0.032 C 
ATOM     29  C   UNL     1      19.571 -12.368  24.300  1.00  0.00     0.114 C 
BRANCH  29  30
ATOM     30  O   UNL     1      20.587 -12.792  23.428  1.00  0.00    -0.393 OA
ATOM     31  H   UNL     1      21.304 -12.092  23.428  1.00  0.00     0.210 HD
ENDBRANCH  29  30
ENDBRANCH   9  11
ENDBRANCH   1   9
TORSDOF 7
ENDMDL
MODEL 3
REMARK VINA RESULT:    -7.431      1.623      3.029
REMARK INTER + INTRA:         -10.660
REMARK INTER:                  -9.851
REMARK INTRA:                  -0.809
REMARK UNBOUND:                -0.405
REMARK SMILES CC[C@@H](CC[C@@H](C)[C@@H]1CC[C@@H]2C3=CC[C@H]4C[C@H](O)CC[C@]4(C)[C@H]3CC[C@@]21C)C(C)C
REMARK SMILES IDX 5 1 4 2 3 3 2 4 1 5 28 6 29 7 30 8 6 9 7 10 8 11 9 12 26 13
REMARK SMILES IDX 10 14 11 15 25 16 27 17 12 18 24 19 23 20 13 21 21 22 14 23
REMARK SMILES IDX 15 24 20 25 22 26 16 27 19 28 17 29 18 30
REMARK H PARENT 18 31
REMARK Flexibility Score: inf
ROOT
ATOM      1  C   UNL     1      11.782 -14.810  28.956  1.00  0.00     0.004 C 
ENDROOT
BRANCH   1   2
ATOM      2  C   UNL     1      12.779 -14.660  30.140  1.00  0.00     0.004 C 
BRANCH   2   3
ATOM      3  C   UNL     1      12.566 -15.665  31.313  1.00  0.00    -0.009 C 
BRANCH   3   4
ATOM      4  C   UNL     1      13.685 -16.773  31.280  1.00  0.00     0.000 C 
ATOM      5  C   UNL     1      14.678 -16.617  30.115  1.00  0.00     0.004 C 
ENDBRANCH   3   4
BRANCH   3   6
ATOM      6  C   UNL     1      11.137 -16.314  31.431  1.00  0.00    -0.014 C 
ATOM      7  C   UNL     1      10.141 -15.581  32.360  1.00  0.00     0.007 C 
ATOM      8  C   UNL     1      11.196 -17.820  31.760  1.00  0.00     0.007 C 
ENDBRANCH   3   6
ENDBRANCH   2   3
ENDBRANCH   1   2
BRANCH   1   9
ATOM      9  C   UNL     1      11.791 -13.592  27.971  1.00  0.00    -0.011 C 
ATOM     10  C   UNL     1      12.353 -12.329  28.637  1.00  0.00     0.008 C 
BRANCH   9  11
ATOM     11  C   UNL     1      12.496 -13.986  26.622  1.00  0.00    -0.002 C 
ATOM     12  C   UNL     1      12.642 -15.460  26.270  1.00  0.00     0.005 C 
ATOM     13  C   UNL     1      13.882 -13.353  26.231  1.00  0.00    -0.023 C 
ATOM     14  C   UNL     1      13.262 -15.402  24.891  1.00  0.00     0.009 C 
ATOM     15  C   UNL     1      14.188 -14.162  24.905  1.00  0.00     0.021 C 
ATOM     16  C   UNL     1      15.008 -13.455  27.373  1.00  0.00     0.008 C 
ATOM     17  C   UNL     1      13.682 -11.839  25.889  1.00  0.00     0.012 C 
ATOM     18  C   UNL     1      15.611 -14.605  24.853  1.00  0.00    -0.067 C 
ATOM     19  C   UNL     1      16.334 -14.254  27.096  1.00  0.00     0.009 C 
ATOM     20  C   UNL     1      16.110 -15.371  26.058  1.00  0.00     0.021 C 
ATOM     21  C   UNL     1      16.442 -14.206  23.862  1.00  0.00    -0.027 C 
ATOM     22  C   UNL     1      17.251 -16.435  25.689  1.00  0.00    -0.023 C 
ATOM     23  C   UNL     1      17.841 -14.785  23.829  1.00  0.00     0.031 C 
ATOM     24  C   UNL     1      17.709 -16.262  24.204  1.00  0.00     0.002 C 
ATOM     25  C   UNL     1      16.703 -17.911  25.864  1.00  0.00     0.010 C 
ATOM     26  C   UNL     1      18.451 -16.255  26.670  1.00  0.00     0.012 C 
ATOM     27  C   UNL     1      18.913 -17.163  23.857  1.00  0.00     0.036 C 
ATOM     28  C   UNL     1      17.211 -18.914  24.790  1.00  0.00     0.032 C 
ATOM     29  C   UNL     1      18.657 -18.643  24.314  1.00  0.00     0.114 C 
BRANCH  29  30
ATOM     30  O   UNL     1      18.979 -19.562  23.303  1.00  0.00    -0.393 OA
ATOM     31  H   UNL     1      19.908 -19.895  23.474  1.00  0.00     0.210 HD
ENDBRANCH  29  30
ENDBRANCH   9  11
ENDBRANCH   1   9
TORSDOF 7
ENDMDL
MODEL 4
REMARK VINA RESULT:    -7.337      3.170      5.491
REMARK INTER + INTRA:         -10.530
REMARK INTER:                  -8.152
REMARK INTRA:                  -2.378
REMARK UNBOUND:                -0.405
REMARK SMILES CC[C@@H](CC[C@@H](C)[C@@H]1CC[C@@H]2C3=CC[C@H]4C[C@H](O)CC[C@]4(C)[C@H]3CC[C@@]21C)C(C)C
REMARK SMILES IDX 5 1 4 2 3 3 2 4 1 5 28 6 29 7 30 8 6 9 7 10 8 11 9 12 26 13
REMARK SMILES IDX 10 14 11 15 25 16 27 17 12 18 24 19 23 20 13 21 21 22 14 23
REMARK SMILES IDX 15 24 20 25 22 26 16 27 19 28 17 29 18 30
REMARK H PARENT 18 31
REMARK Flexibility Score: inf
ROOT
ATOM      1  C   UNL     1      13.253 -13.772  29.016  1.00  0.00     0.004 C 
ENDROOT
BRANCH   1   2
ATOM      2  C   UNL     1      13.141 -12.623  27.974  1.00  0.00     0.004 C 
BRANCH   2   3
ATOM      3  C   UNL     1      12.001 -12.793  26.924  1.00  0.00    -0.009 C 
BRANCH   3   4
ATOM      4  C   UNL     1      11.378 -14.234  27.036  1.00  0.00     0.000 C 
ATOM      5  C   UNL     1      11.207 -14.943  25.681  1.00  0.00     0.004 C 
ENDBRANCH   3   4
BRANCH   3   6
ATOM      6  C   UNL     1      12.366 -12.453  25.431  1.00  0.00    -0.014 C 
ATOM      7  C   UNL     1      13.814 -11.967  25.187  1.00  0.00     0.007 C 
ATOM      8  C   UNL     1      11.344 -11.503  24.773  1.00  0.00     0.007 C 
ENDBRANCH   3   6
ENDBRANCH   2   3
ENDBRANCH   1   2
BRANCH   1   9
ATOM      9  C   UNL     1      14.552 -14.633  28.864  1.00  0.00    -0.011 C 
ATOM     10  C   UNL     1      14.411 -15.998  29.551  1.00  0.00     0.008 C 
BRANCH   9  11
ATOM     11  C   UNL     1      14.985 -14.706  27.354  1.00  0.00    -0.002 C 
ATOM     12  C   UNL     1      14.553 -15.906  26.521  1.00  0.00     0.005 C 
ATOM     13  C   UNL     1      16.483 -14.462  26.939  1.00  0.00    -0.023 C 
ATOM     14  C   UNL     1      15.073 -15.547  25.146  1.00  0.00     0.009 C 
ATOM     15  C   UNL     1      16.392 -14.775  25.390  1.00  0.00     0.021 C 
ATOM     16  C   UNL     1      17.552 -15.341  27.756  1.00  0.00     0.008 C 
ATOM     17  C   UNL     1      16.840 -12.954  27.151  1.00  0.00     0.012 C 
ATOM     18  C   UNL     1      17.543 -15.605  24.933  1.00  0.00    -0.067 C 
ATOM     19  C   UNL     1      18.469 -16.366  26.992  1.00  0.00     0.009 C 
ATOM     20  C   UNL     1      17.789 -16.880  25.708  1.00  0.00     0.021 C 
ATOM     21  C   UNL     1      18.407 -15.162  23.989  1.00  0.00    -0.027 C 
ATOM     22  C   UNL     1      18.432 -18.041  24.809  1.00  0.00    -0.023 C 
ATOM     23  C   UNL     1      19.486 -16.109  23.510  1.00  0.00     0.031 C 
ATOM     24  C   UNL     1      18.837 -17.490  23.402  1.00  0.00     0.002 C 
ATOM     25  C   UNL     1      17.386 -19.211  24.593  1.00  0.00     0.010 C 
ATOM     26  C   UNL     1      19.665 -18.639  25.553  1.00  0.00     0.012 C 
ATOM     27  C   UNL     1      19.599 -18.538  22.564  1.00  0.00     0.036 C 
ATOM     28  C   UNL     1      17.424 -19.851  23.176  1.00  0.00     0.032 C 
ATOM     29  C   UNL     1      18.839 -19.910  22.554  1.00  0.00     0.114 C 
BRANCH  29  30
ATOM     30  O   UNL     1      18.739 -20.440  21.258  1.00  0.00    -0.393 OA
ATOM     31  H   UNL     1      18.584 -19.679  20.625  1.00  0.00     0.210 HD
ENDBRANCH  29  30
ENDBRANCH   9  11
ENDBRANCH   1   9
TORSDOF 7
ENDMDL
MODEL 5
REMARK VINA RESULT:    -7.296      2.057      3.856
REMARK INTER + INTRA:         -10.473
REMARK INTER:                  -9.391
REMARK INTRA:                  -1.082
REMARK UNBOUND:                -0.405
REMARK SMILES CC[C@@H](CC[C@@H](C)[C@@H]1CC[C@@H]2C3=CC[C@H]4C[C@H](O)CC[C@]4(C)[C@H]3CC[C@@]21C)C(C)C
REMARK SMILES IDX 5 1 4 2 3 3 2 4 1 5 28 6 29 7 30 8 6 9 7 10 8 11 9 12 26 13
REMARK SMILES IDX 10 14 11 15 25 16 27 17 12 18 24 19 23 20 13 21 21 22 14 23
REMARK SMILES IDX 15 24 20 25 22 26 16 27 19 28 17 29 18 30
REMARK H PARENT 18 31
REMARK Flexibility Score: inf
ROOT
ATOM      1  C   UNL     1      11.755 -14.179  29.376  1.00  0.00     0.004 C 
ENDROOT
BRANCH   1   2
ATOM      2  C   UNL     1      11.843 -15.588  30.030  1.00  0.00     0.004 C 
BRANCH   2   3
ATOM      3  C   UNL     1      12.012 -15.587  31.580  1.00  0.00    -0.009 C 
BRANCH   3   4
ATOM      4  C   UNL     1      13.445 -16.115  31.963  1.00  0.00     0.000 C 
ATOM      5  C   UNL     1      13.866 -17.381  31.196  1.00  0.00     0.004 C 
ENDBRANCH   3   4
BRANCH   3   6
ATOM      6  C   UNL     1      10.900 -16.330  32.408  1.00  0.00    -0.014 C 
ATOM      7  C   UNL     1      10.653 -17.809  32.025  1.00  0.00     0.007 C 
ATOM      8  C   UNL     1       9.574 -15.543  32.459  1.00  0.00     0.007 C 
ENDBRANCH   3   6
ENDBRANCH   2   3
ENDBRANCH   1   2
BRANCH   1   9
ATOM      9  C   UNL     1      12.448 -14.094  27.974  1.00  0.00    -0.011 C 
ATOM     10  C   UNL     1      11.661 -13.199  27.007  1.00  0.00     0.008 C 
BRANCH   9  11
ATOM     11  C   UNL     1      13.963 -13.703  28.136  1.00  0.00    -0.002 C 
ATOM     12  C   UNL     1      14.386 -12.266  27.866  1.00  0.00     0.005 C 
ATOM     13  C   UNL     1      15.088 -14.573  27.464  1.00  0.00    -0.023 C 
ATOM     14  C   UNL     1      15.855 -12.290  28.224  1.00  0.00     0.009 C 
ATOM     15  C   UNL     1      16.358 -13.695  27.816  1.00  0.00     0.021 C 
ATOM     16  C   UNL     1      14.864 -14.861  25.899  1.00  0.00     0.008 C 
ATOM     17  C   UNL     1      15.184 -15.952  28.197  1.00  0.00     0.012 C 
ATOM     18  C   UNL     1      17.276 -13.573  26.647  1.00  0.00    -0.067 C 
ATOM     19  C   UNL     1      15.916 -14.345  24.850  1.00  0.00     0.009 C 
ATOM     20  C   UNL     1      16.648 -13.088  25.359  1.00  0.00     0.021 C 
ATOM     21  C   UNL     1      18.552 -14.021  26.697  1.00  0.00    -0.027 C 
ATOM     22  C   UNL     1      17.670 -12.265  24.439  1.00  0.00    -0.023 C 
ATOM     23  C   UNL     1      19.446 -13.764  25.502  1.00  0.00     0.031 C 
ATOM     24  C   UNL     1      19.122 -12.351  25.013  1.00  0.00     0.002 C 
ATOM     25  C   UNL     1      17.254 -10.737  24.388  1.00  0.00     0.010 C 
ATOM     26  C   UNL     1      17.608 -12.821  22.984  1.00  0.00     0.012 C 
ATOM     27  C   UNL     1      20.160 -11.701  24.073  1.00  0.00     0.036 C 
ATOM     28  C   UNL     1      18.453  -9.746  24.387  1.00  0.00     0.032 C 
ATOM     29  C   UNL     1      19.696 -10.269  23.630  1.00  0.00     0.114 C 
BRANCH  29  30
ATOM     30  O   UNL     1      20.729  -9.326  23.755  1.00  0.00    -0.393 OA
ATOM     31  H   UNL     1      20.351  -8.424  23.539  1.00  0.00     0.210 HD
ENDBRANCH  29  30
ENDBRANCH   9  11
ENDBRANCH   1   9
TORSDOF 7
ENDMDL
MODEL 6
REMARK VINA RESULT:    -7.094      2.885      5.057
REMARK INTER + INTRA:         -10.194
REMARK INTER:                  -8.595
REMARK INTRA:                  -1.599
REMARK UNBOUND:                -0.405
REMARK SMILES CC[C@@H](CC[C@@H](C)[C@@H]1CC[C@@H]2C3=CC[C@H]4C[C@H](O)CC[C@]4(C)[C@H]3CC[C@@]21C)C(C)C
REMARK SMILES IDX 5 1 4 2 3 3 2 4 1 5 28 6 29 7 30 8 6 9 7 10 8 11 9 12 26 13
REMARK SMILES IDX 10 14 11 15 25 16 27 17 12 18 24 19 23 20 13 21 21 22 14 23
REMARK SMILES IDX 15 24 20 25 22 26 16 27 19 28 17 29 18 30
REMARK H PARENT 18 31
REMARK Flexibility Score: inf
ROOT
ATOM      1  C   UNL     1      12.516 -12.320  26.385  1.00  0.00     0.004 C 
ENDROOT
BRANCH   1   2
ATOM      2  C   UNL     1      11.753 -13.652  26.637  1.00  0.00     0.004 C 
BRANCH   2   3
ATOM      3  C   UNL     1      12.654 -14.870  27.002  1.00  0.00    -0.009 C 
BRANCH   3   4
ATOM      4  C   UNL     1      12.422 -16.037  25.971  1.00  0.00     0.000 C 
ATOM      5  C   UNL     1      13.710 -16.782  25.577  1.00  0.00     0.004 C 
ENDBRANCH   3   4
BRANCH   3   6
ATOM      6  C   UNL     1      12.554 -15.399  28.481  1.00  0.00    -0.014 C 
ATOM      7  C   UNL     1      11.726 -14.525  29.453  1.00  0.00     0.007 C 
ATOM      8  C   UNL     1      13.932 -15.743  29.082  1.00  0.00     0.007 C 
ENDBRANCH   3   6
ENDBRANCH   2   3
ENDBRANCH   1   2
BRANCH   1   9
ATOM      9  C   UNL     1      12.737 -12.002  24.867  1.00  0.00    -0.011 C 
ATOM     10  C   UNL     1      12.259 -10.587  24.510  1.00  0.00     0.008 C 
BRANCH   9  11
ATOM     11  C   UNL     1      14.223 -12.310  24.455  1.00  0.00    -0.002 C 
ATOM     12  C   UNL     1      14.561 -13.684  23.892  1.00  0.00     0.005 C 
ATOM     13  C   UNL     1      15.407 -11.991  25.441  1.00  0.00    -0.023 C 
ATOM     14  C   UNL     1      16.025 -13.536  23.540  1.00  0.00     0.009 C 
ATOM     15  C   UNL     1      16.617 -12.597  24.618  1.00  0.00     0.021 C 
ATOM     16  C   UNL     1      15.219 -12.583  26.923  1.00  0.00     0.008 C 
ATOM     17  C   UNL     1      15.577 -10.441  25.561  1.00  0.00     0.012 C 
ATOM     18  C   UNL     1      17.540 -13.371  25.497  1.00  0.00    -0.067 C 
ATOM     19  C   UNL     1      16.251 -13.629  27.484  1.00  0.00     0.009 C 
ATOM     20  C   UNL     1      16.899 -14.444  26.348  1.00  0.00     0.021 C 
ATOM     21  C   UNL     1      18.840 -13.024  25.641  1.00  0.00    -0.027 C 
ATOM     22  C   UNL     1      17.880 -15.679  26.637  1.00  0.00    -0.023 C 
ATOM     23  C   UNL     1      19.731 -13.924  26.471  1.00  0.00     0.031 C 
ATOM     24  C   UNL     1      19.328 -15.362  26.137  1.00  0.00     0.002 C 
ATOM     25  C   UNL     1      17.373 -16.973  25.877  1.00  0.00     0.010 C 
ATOM     26  C   UNL     1      17.870 -15.992  28.164  1.00  0.00     0.012 C 
ATOM     27  C   UNL     1      20.335 -16.461  26.535  1.00  0.00     0.036 C 
ATOM     28  C   UNL     1      18.510 -17.860  25.294  1.00  0.00     0.032 C 
ATOM     29  C   UNL     1      19.791 -17.884  26.159  1.00  0.00     0.114 C 
BRANCH  29  30
ATOM     30  O   UNL     1      20.763 -18.656  25.503  1.00  0.00    -0.393 OA
ATOM     31  H   UNL     1      20.705 -18.456  24.523  1.00  0.00     0.210 HD
ENDBRANCH  29  30
ENDBRANCH   9  11
ENDBRANCH   1   9
TORSDOF 7
ENDMDL
MODEL 7
REMARK VINA RESULT:    -7.083      3.456      7.687
REMARK INTER + INTRA:         -10.179
REMARK INTER:                  -8.252
REMARK INTRA:                  -1.927
REMARK UNBOUND:                -0.405
REMARK SMILES CC[C@@H](CC[C@@H](C)[C@@H]1CC[C@@H]2C3=CC[C@H]4C[C@H](O)CC[C@]4(C)[C@H]3CC[C@@]21C)C(C)C
REMARK SMILES IDX 5 1 4 2 3 3 2 4 1 5 28 6 29 7 30 8 6 9 7 10 8 11 9 12 26 13
REMARK SMILES IDX 10 14 11 15 25 16 27 17 12 18 24 19 23 20 13 21 21 22 14 23
REMARK SMILES IDX 15 24 20 25 22 26 16 27 19 28 17 29 18 30
REMARK H PARENT 18 31
REMARK Flexibility Score: inf
ROOT
ATOM      1  C   UNL     1      20.730 -14.832  26.483  1.00  0.00     0.004 C 
ENDROOT
BRANCH   1   2
ATOM      2  C   UNL     1      20.442 -16.180  25.763  1.00  0.00     0.004 C 
BRANCH   2   3
ATOM      3  C   UNL     1      19.625 -17.213  26.597  1.00  0.00    -0.009 C 
BRANCH   3   4
ATOM      4  C   UNL     1      18.332 -17.638  25.808  1.00  0.00     0.000 C 
ATOM      5  C   UNL     1      18.508 -17.635  24.279  1.00  0.00     0.004 C 
ENDBRANCH   3   4
BRANCH   3   6
ATOM      6  C   UNL     1      19.271 -16.799  28.074  1.00  0.00    -0.014 C 
ATOM      7  C   UNL     1      19.996 -17.592  29.187  1.00  0.00     0.007 C 
ATOM      8  C   UNL     1      17.750 -16.753  28.327  1.00  0.00     0.007 C 
ENDBRANCH   3   6
ENDBRANCH   2   3
ENDBRANCH   1   2
BRANCH   1   9
ATOM      9  C   UNL     1      20.428 -13.573  25.601  1.00  0.00    -0.011 C 
ATOM     10  C   UNL     1      20.428 -13.916  24.105  1.00  0.00     0.008 C 
BRANCH   9  11
ATOM     11  C   UNL     1      19.124 -12.854  26.106  1.00  0.00    -0.002 C 
ATOM     12  C   UNL     1      18.607 -13.161  27.504  1.00  0.00     0.005 C 
ATOM     13  C   UNL     1      17.831 -12.825  25.210  1.00  0.00    -0.023 C 
ATOM     14  C   UNL     1      17.432 -12.216  27.629  1.00  0.00     0.009 C 
ATOM     15  C   UNL     1      16.822 -12.125  26.209  1.00  0.00     0.021 C 
ATOM     16  C   UNL     1      17.368 -14.262  24.661  1.00  0.00     0.008 C 
ATOM     17  C   UNL     1      18.077 -11.896  23.975  1.00  0.00     0.012 C 
ATOM     18  C   UNL     1      15.490 -12.796  26.198  1.00  0.00    -0.067 C 
ATOM     19  C   UNL     1      15.961 -14.838  25.065  1.00  0.00     0.009 C 
ATOM     20  C   UNL     1      15.501 -14.291  26.429  1.00  0.00     0.021 C 
ATOM     21  C   UNL     1      14.365 -12.134  25.843  1.00  0.00    -0.027 C 
ATOM     22  C   UNL     1      14.172 -14.817  27.155  1.00  0.00    -0.023 C 
ATOM     23  C   UNL     1      13.043 -12.862  25.959  1.00  0.00     0.031 C 
ATOM     24  C   UNL     1      13.106 -13.677  27.253  1.00  0.00     0.002 C 
ATOM     25  C   UNL     1      14.505 -15.302  28.627  1.00  0.00     0.010 C 
ATOM     26  C   UNL     1      13.612 -16.042  26.369  1.00  0.00     0.012 C 
ATOM     27  C   UNL     1      11.758 -14.185  27.805  1.00  0.00     0.036 C 
ATOM     28  C   UNL     1      13.407 -14.964  29.676  1.00  0.00     0.032 C 
ATOM     29  C   UNL     1      11.968 -15.022  29.116  1.00  0.00     0.114 C 
BRANCH  29  30
ATOM     30  O   UNL     1      11.075 -14.634  30.128  1.00  0.00    -0.393 OA
ATOM     31  H   UNL     1      10.257 -14.258  29.689  1.00  0.00     0.210 HD
ENDBRANCH  29  30
ENDBRANCH   9  11
ENDBRANCH   1   9
TORSDOF 7
ENDMDL
MODEL 8
REMARK VINA RESULT:    -7.065      3.142      7.810
REMARK INTER + INTRA:         -10.154
REMARK INTER:                  -8.168
REMARK INTRA:                  -1.986
REMARK UNBOUND:                -0.405
REMARK SMILES CC[C@@H](CC[C@@H](C)[C@@H]1CC[C@@H]2C3=CC[C@H]4C[C@H](O)CC[C@]4(C)[C@H]3CC[C@@]21C)C(C)C
REMARK SMILES IDX 5 1 4 2 3 3 2 4 1 5 28 6 29 7 30 8 6 9 7 10 8 11 9 12 26 13
REMARK SMILES IDX 10 14 11 15 25 16 27 17 12 18 24 19 23 20 13 21 21 22 14 23
REMARK SMILES IDX 15 24 20 25 22 26 16 27 19 28 17 29 18 30
REMARK H PARENT 18 31
REMARK Flexibility Score: inf
ROOT
ATOM      1  C   UNL     1      18.688 -13.241  24.869  1.00  0.00     0.004 C 
ENDROOT
BRANCH   1   2
ATOM      2  C   UNL     1      19.384 -14.356  25.700  1.00  0.00     0.004 C 
BRANCH   2   3
ATOM      3  C   UNL     1      18.648 -15.730  25.710  1.00  0.00    -0.009 C 
BRANCH   3   4
ATOM      4  C   UNL     1      17.948 -15.974  24.321  1.00  0.00     0.000 C 
ATOM      5  C   UNL     1      18.830 -16.720  23.305  1.00  0.00     0.004 C 
ENDBRANCH   3   4
BRANCH   3   6
ATOM      6  C   UNL     1      17.644 -15.979  26.896  1.00  0.00    -0.014 C 
ATOM      7  C   UNL     1      18.286 -16.214  28.284  1.00  0.00     0.007 C 
ATOM      8  C   UNL     1      16.607 -17.075  26.573  1.00  0.00     0.007 C 
ENDBRANCH   3   6
ENDBRANCH   2   3
ENDBRANCH   1   2
BRANCH   1   9
ATOM      9  C   UNL     1      18.817 -11.814  25.501  1.00  0.00    -0.011 C 
ATOM     10  C   UNL     1      18.924 -10.725  24.424  1.00  0.00     0.008 C 
BRANCH   9  11
ATOM     11  C   UNL     1      17.674 -11.577  26.554  1.00  0.00    -0.002 C 
ATOM     12  C   UNL     1      17.727 -12.325  27.880  1.00  0.00     0.005 C 
ATOM     13  C   UNL     1      16.163 -11.655  26.124  1.00  0.00    -0.023 C 
ATOM     14  C   UNL     1      16.537 -11.754  28.619  1.00  0.00     0.009 C 
ATOM     15  C   UNL     1      15.467 -11.481  27.535  1.00  0.00     0.021 C 
ATOM     16  C   UNL     1      15.766 -12.990  25.322  1.00  0.00     0.008 C 
ATOM     17  C   UNL     1      15.819 -10.429  25.215  1.00  0.00     0.012 C 
ATOM     18  C   UNL     1      14.335 -12.437  27.706  1.00  0.00    -0.067 C 
ATOM     19  C   UNL     1      14.693 -13.972  25.919  1.00  0.00     0.009 C 
ATOM     20  C   UNL     1      14.655 -13.894  27.458  1.00  0.00     0.021 C 
ATOM     21  C   UNL     1      13.068 -12.006  27.911  1.00  0.00    -0.027 C 
ATOM     22  C   UNL     1      13.758 -14.887  28.340  1.00  0.00    -0.023 C 
ATOM     23  C   UNL     1      11.997 -13.042  28.176  1.00  0.00     0.031 C 
ATOM     24  C   UNL     1      12.629 -14.099  29.084  1.00  0.00     0.002 C 
ATOM     25  C   UNL     1      14.650 -15.609  29.432  1.00  0.00     0.010 C 
ATOM     26  C   UNL     1      13.156 -15.989  27.416  1.00  0.00     0.012 C 
ATOM     27  C   UNL     1      11.651 -15.038  29.820  1.00  0.00     0.036 C 
ATOM     28  C   UNL     1      13.946 -15.810  30.805  1.00  0.00     0.032 C 
ATOM     29  C   UNL     1      12.428 -16.085  30.694  1.00  0.00     0.114 C 
BRANCH  29  30
ATOM     30  O   UNL     1      11.892 -16.180  31.989  1.00  0.00    -0.393 OA
ATOM     31  H   UNL     1      12.454 -15.615  32.596  1.00  0.00     0.210 HD
ENDBRANCH  29  30
ENDBRANCH   9  11
ENDBRANCH   1   9
TORSDOF 7
ENDMDL
MODEL 9
REMARK VINA RESULT:    -6.867      4.232      8.004
REMARK INTER + INTRA:          -9.881
REMARK INTER:                  -7.459
REMARK INTRA:                  -2.422
REMARK UNBOUND:                -0.405
REMARK SMILES CC[C@@H](CC[C@@H](C)[C@@H]1CC[C@@H]2C3=CC[C@H]4C[C@H](O)CC[C@]4(C)[C@H]3CC[C@@]21C)C(C)C
REMARK SMILES IDX 5 1 4 2 3 3 2 4 1 5 28 6 29 7 30 8 6 9 7 10 8 11 9 12 26 13
REMARK SMILES IDX 10 14 11 15 25 16 27 17 12 18 24 19 23 20 13 21 21 22 14 23
REMARK SMILES IDX 15 24 20 25 22 26 16 27 19 28 17 29 18 30
REMARK H PARENT 18 31
REMARK Flexibility Score: inf
ROOT
ATOM      1  C   UNL     1      20.438 -16.226  26.877  1.00  0.00     0.004 C 
ENDROOT
BRANCH   1   2
ATOM      2  C   UNL     1      21.121 -16.207  25.480  1.00  0.00     0.004 C 
BRANCH   2   3
ATOM      3  C   UNL     1      20.646 -17.321  24.498  1.00  0.00    -0.009 C 
BRANCH   3   4
ATOM      4  C   UNL     1      19.958 -16.671  23.241  1.00  0.00     0.000 C 
ATOM      5  C   UNL     1      20.332 -15.194  23.022  1.00  0.00     0.004 C 
ENDBRANCH   3   4
BRANCH   3   6
ATOM      6  C   UNL     1      19.743 -18.456  25.109  1.00  0.00    -0.014 C 
ATOM      7  C   UNL     1      20.474 -19.766  25.488  1.00  0.00     0.007 C 
ATOM      8  C   UNL     1      18.496 -18.747  24.249  1.00  0.00     0.007 C 
ENDBRANCH   3   6
ENDBRANCH   2   3
ENDBRANCH   1   2
BRANCH   1   9
ATOM      9  C   UNL     1      19.390 -15.080  27.079  1.00  0.00    -0.011 C 
ATOM     10  C   UNL     1      20.016 -13.695  26.865  1.00  0.00     0.008 C 
BRANCH   9  11
ATOM     11  C   UNL     1      18.107 -15.355  26.213  1.00  0.00    -0.002 C 
ATOM     12  C   UNL     1      17.622 -14.279  25.250  1.00  0.00     0.005 C 
ATOM     13  C   UNL     1      16.791 -15.898  26.884  1.00  0.00    -0.023 C 
ATOM     14  C   UNL     1      16.462 -14.962  24.561  1.00  0.00     0.009 C 
ATOM     15  C   UNL     1      15.816 -15.868  25.637  1.00  0.00     0.021 C 
ATOM     16  C   UNL     1      16.299 -15.058  28.162  1.00  0.00     0.008 C 
ATOM     17  C   UNL     1      17.015 -17.378  27.340  1.00  0.00     0.012 C 
ATOM     18  C   UNL     1      14.477 -15.324  26.005  1.00  0.00    -0.067 C 
ATOM     19  C   UNL     1      14.897 -14.345  28.137  1.00  0.00     0.009 C 
ATOM     20  C   UNL     1      14.477 -13.980  26.700  1.00  0.00     0.021 C 
ATOM     21  C   UNL     1      13.350 -16.061  25.871  1.00  0.00    -0.027 C 
ATOM     22  C   UNL     1      13.162 -13.119  26.388  1.00  0.00    -0.023 C 
ATOM     23  C   UNL     1      12.024 -15.396  26.171  1.00  0.00     0.031 C 
ATOM     24  C   UNL     1      12.112 -13.976  25.608  1.00  0.00     0.002 C 
ATOM     25  C   UNL     1      13.528 -11.862  25.494  1.00  0.00     0.010 C 
ATOM     26  C   UNL     1      12.569 -12.589  27.729  1.00  0.00     0.012 C 
ATOM     27  C   UNL     1      10.772 -13.232  25.425  1.00  0.00     0.036 C 
ATOM     28  C   UNL     1      12.461 -11.509  24.418  1.00  0.00     0.032 C 
ATOM     29  C   UNL     1      11.007 -11.784  24.865  1.00  0.00     0.114 C 
BRANCH  29  30
ATOM     30  O   UNL     1      10.144 -11.495  23.795  1.00  0.00    -0.393 OA
ATOM     31  H   UNL     1      10.569 -10.774  23.245  1.00  0.00     0.210 HD
ENDBRANCH  29  30
ENDBRANCH   9  11
ENDBRANCH   1   9
TORSDOF 7
ENDMDL
