MODEL 1
REMARK VINA RESULT:    -3.840      0.000      0.000
REMARK INTER + INTRA:          -8.413
REMARK INTER:                  -6.534
REMARK INTRA:                  -1.879
REMARK UNBOUND:                -1.879
REMARK SMILES CCCCCCCCCCCCCC(=O)[O-]
REMARK SMILES IDX 8 1 9 2 10 3 11 4 12 5 13 6 14 7 15 8 16 9 7 10 6 11 5 12
REMARK SMILES IDX 4 13 3 14 2 15 1 16
REMARK H PARENT
REMARK Flexibility Score: inf
ROOT
ATOM      1  C   UNL     1      99.536   0.921 -25.823  1.00  0.00     0.000 C 
ENDROOT
BRANCH   1   2
ATOM      2  C   UNL     1      99.196   1.987 -24.766  1.00  0.00     0.000 C 
BRANCH   2   3
ATOM      3  C   UNL     1      98.364   3.147 -25.332  1.00  0.00     0.000 C 
BRANCH   3   4
ATOM      4  C   UNL     1      96.862   2.852 -25.220  1.00  0.00     0.000 C 
BRANCH   4   5
ATOM      5  C   UNL     1      96.166   3.018 -26.575  1.00  0.00     0.006 C 
BRANCH   5   6
ATOM      6  C   UNL     1      95.025   4.036 -26.486  1.00  0.00     0.053 C 
BRANCH   6   7
ATOM      7  C   UNL     1      93.728   3.407 -26.884  1.00  0.00     0.041 C 
ATOM      8  O   UNL     1      93.363   3.414 -28.089  1.00  0.00    -0.550 OA
ATOM      9  O   UNL     1      92.945   2.769 -25.930  1.00  0.00    -0.550 OA
ENDBRANCH   6   7
ENDBRANCH   5   6
ENDBRANCH   4   5
ENDBRANCH   3   4
ENDBRANCH   2   3
ENDBRANCH   1   2
BRANCH   1  10
ATOM     10  C   UNL     1      99.747   1.462 -27.248  1.00  0.00     0.000 C 
BRANCH  10  11
ATOM     11  C   UNL     1      98.928   0.707 -28.305  1.00  0.00    -0.000 C 
BRANCH  11  12
ATOM     12  C   UNL     1      98.528   1.635 -29.458  1.00  0.00    -0.000 C 
BRANCH  12  13
ATOM     13  C   UNL     1      99.210   3.002 -29.328  1.00  0.00    -0.000 C 
BRANCH  13  14
ATOM     14  C   UNL     1      98.179   4.138 -29.390  1.00  0.00    -0.000 C 
BRANCH  14  15
ATOM     15  C   UNL     1      98.576   5.343 -28.524  1.00  0.00    -0.003 C 
ATOM     16  C   UNL     1      99.983   5.215 -27.941  1.00  0.00     0.004 C 
ENDBRANCH  14  15
ENDBRANCH  13  14
ENDBRANCH  12  13
ENDBRANCH  11  12
ENDBRANCH  10  11
ENDBRANCH   1  10
TORSDOF 12
ENDMDL
MODEL 2
REMARK VINA RESULT:    -3.837      2.511      4.642
REMARK INTER + INTRA:          -8.408
REMARK INTER:                  -6.400
REMARK INTRA:                  -2.007
REMARK UNBOUND:                -1.879
REMARK SMILES CCCCCCCCCCCCCC(=O)[O-]
REMARK SMILES IDX 8 1 9 2 10 3 11 4 12 5 13 6 14 7 15 8 16 9 7 10 6 11 5 12
REMARK SMILES IDX 4 13 3 14 2 15 1 16
REMARK H PARENT
REMARK Flexibility Score: inf
ROOT
ATOM      1  C   UNL     1      98.442   1.810 -29.465  1.00  0.00     0.000 C 
ENDROOT
BRANCH   1   2
ATOM      2  C   UNL     1      99.925   1.669 -29.080  1.00  0.00     0.000 C 
BRANCH   2   3
ATOM      3  C   UNL     1     100.125   1.135 -27.654  1.00  0.00     0.000 C 
BRANCH   3   4
ATOM      4  C   UNL     1      98.881   0.377 -27.172  1.00  0.00     0.000 C 
BRANCH   4   5
ATOM      5  C   UNL     1      99.175  -0.406 -25.888  1.00  0.00     0.006 C 
BRANCH   5   6
ATOM      6  C   UNL     1      98.383   0.158 -24.705  1.00  0.00     0.053 C 
BRANCH   6   7
ATOM      7  C   UNL     1      97.351  -0.824 -24.249  1.00  0.00     0.041 C 
ATOM      8  O   UNL     1      96.238  -0.419 -23.819  1.00  0.00    -0.550 OA
ATOM      9  O   UNL     1      97.599  -2.187 -24.346  1.00  0.00    -0.550 OA
ENDBRANCH   6   7
ENDBRANCH   5   6
ENDBRANCH   4   5
ENDBRANCH   3   4
ENDBRANCH   2   3
ENDBRANCH   1   2
BRANCH   1  10
ATOM     10  C   UNL     1      98.011   3.226 -29.888  1.00  0.00     0.000 C 
BRANCH  10  11
ATOM     11  C   UNL     1      98.867   4.329 -29.249  1.00  0.00    -0.000 C 
BRANCH  11  12
ATOM     12  C   UNL     1      98.194   4.887 -27.988  1.00  0.00    -0.000 C 
BRANCH  12  13
ATOM     13  C   UNL     1      98.992   4.522 -26.730  1.00  0.00    -0.000 C 
BRANCH  13  14
ATOM     14  C   UNL     1      98.135   3.699 -25.757  1.00  0.00    -0.000 C 
BRANCH  14  15
ATOM     15  C   UNL     1      96.742   3.380 -26.320  1.00  0.00    -0.003 C 
ATOM     16  C   UNL     1      95.796   2.804 -25.268  1.00  0.00     0.004 C 
ENDBRANCH  14  15
ENDBRANCH  13  14
ENDBRANCH  12  13
ENDBRANCH  11  12
ENDBRANCH  10  11
ENDBRANCH   1  10
TORSDOF 12
ENDMDL
MODEL 3
REMARK VINA RESULT:    -3.691      1.605      3.985
REMARK INTER + INTRA:          -8.159
REMARK INTER:                  -6.528
REMARK INTRA:                  -1.630
REMARK UNBOUND:                -1.879
REMARK SMILES CCCCCCCCCCCCCC(=O)[O-]
REMARK SMILES IDX 8 1 9 2 10 3 11 4 12 5 13 6 14 7 15 8 16 9 7 10 6 11 5 12
REMARK SMILES IDX 4 13 3 14 2 15 1 16
REMARK H PARENT
REMARK Flexibility Score: inf
ROOT
ATOM      1  C   UNL     1      98.779   3.365 -29.437  1.00  0.00     0.000 C 
ENDROOT
BRANCH   1   2
ATOM      2  C   UNL     1      99.552   3.978 -28.256  1.00  0.00     0.000 C 
BRANCH   2   3
ATOM      3  C   UNL     1      98.636   4.675 -27.239  1.00  0.00     0.000 C 
BRANCH   3   4
ATOM      4  C   UNL     1      98.566   3.882 -25.927  1.00  0.00     0.000 C 
BRANCH   4   5
ATOM      5  C   UNL     1      97.256   3.093 -25.829  1.00  0.00     0.006 C 
BRANCH   5   6
ATOM      6  C   UNL     1      96.183   3.692 -26.743  1.00  0.00     0.053 C 
BRANCH   6   7
ATOM      7  C   UNL     1      94.864   3.743 -26.040  1.00  0.00     0.041 C 
ATOM      8  O   UNL     1      94.074   4.703 -26.245  1.00  0.00    -0.550 OA
ATOM      9  O   UNL     1      94.486   2.707 -25.196  1.00  0.00    -0.550 OA
ENDBRANCH   6   7
ENDBRANCH   5   6
ENDBRANCH   4   5
ENDBRANCH   3   4
ENDBRANCH   2   3
ENDBRANCH   1   2
BRANCH   1  10
ATOM     10  C   UNL     1      98.733   1.827 -29.457  1.00  0.00     0.000 C 
BRANCH  10  11
ATOM     11  C   UNL     1      99.767   1.184 -28.521  1.00  0.00    -0.000 C 
BRANCH  11  12
ATOM     12  C   UNL     1      99.081   0.356 -27.427  1.00  0.00    -0.000 C 
BRANCH  12  13
ATOM     13  C   UNL     1      99.901   0.368 -26.131  1.00  0.00    -0.000 C 
BRANCH  13  14
ATOM     14  C   UNL     1      99.416  -0.724 -25.166  1.00  0.00    -0.000 C 
BRANCH  14  15
ATOM     15  C   UNL     1      97.931  -0.573 -24.802  1.00  0.00    -0.003 C 
ATOM     16  C   UNL     1      97.318  -1.869 -24.271  1.00  0.00     0.004 C 
ENDBRANCH  14  15
ENDBRANCH  13  14
ENDBRANCH  12  13
ENDBRANCH  11  12
ENDBRANCH  10  11
ENDBRANCH   1  10
TORSDOF 12
ENDMDL
MODEL 4
REMARK VINA RESULT:    -3.683      2.647      5.302
REMARK INTER + INTRA:          -8.146
REMARK INTER:                  -6.476
REMARK INTRA:                  -1.671
REMARK UNBOUND:                -1.879
REMARK SMILES CCCCCCCCCCCCCC(=O)[O-]
REMARK SMILES IDX 8 1 9 2 10 3 11 4 12 5 13 6 14 7 15 8 16 9 7 10 6 11 5 12
REMARK SMILES IDX 4 13 3 14 2 15 1 16
REMARK H PARENT
REMARK Flexibility Score: inf
ROOT
ATOM      1  C   UNL     1      98.523   4.213 -29.338  1.00  0.00     0.000 C 
ENDROOT
BRANCH   1   2
ATOM      2  C   UNL     1      97.853   2.842 -29.537  1.00  0.00     0.000 C 
BRANCH   2   3
ATOM      3  C   UNL     1      98.811   1.784 -30.102  1.00  0.00     0.000 C 
BRANCH   3   4
ATOM      4  C   UNL     1      99.773   1.278 -29.019  1.00  0.00     0.000 C 
BRANCH   4   5
ATOM      5  C   UNL     1      99.013   0.558 -27.900  1.00  0.00     0.006 C 
BRANCH   5   6
ATOM      6  C   UNL     1      99.827   0.541 -26.603  1.00  0.00     0.053 C 
BRANCH   6   7
ATOM      7  C   UNL     1      99.050  -0.110 -25.504  1.00  0.00     0.041 C 
ATOM      8  O   UNL     1      98.631  -1.290 -25.637  1.00  0.00    -0.550 OA
ATOM      9  O   UNL     1      98.831   0.569 -24.312  1.00  0.00    -0.550 OA
ENDBRANCH   6   7
ENDBRANCH   5   6
ENDBRANCH   4   5
ENDBRANCH   3   4
ENDBRANCH   2   3
ENDBRANCH   1   2
BRANCH   1  10
ATOM     10  C   UNL     1      98.284   4.861 -27.963  1.00  0.00     0.000 C 
BRANCH  10  11
ATOM     11  C   UNL     1      99.037   4.154 -26.827  1.00  0.00    -0.000 C 
BRANCH  11  12
ATOM     12  C   UNL     1      98.090   3.805 -25.672  1.00  0.00    -0.000 C 
BRANCH  12  13
ATOM     13  C   UNL     1      96.903   2.969 -26.166  1.00  0.00    -0.000 C 
BRANCH  13  14
ATOM     14  C   UNL     1      96.044   2.485 -24.988  1.00  0.00    -0.000 C 
BRANCH  14  15
ATOM     15  C   UNL     1      94.765   3.317 -24.809  1.00  0.00    -0.003 C 
ATOM     16  C   UNL     1      94.365   4.067 -26.079  1.00  0.00     0.004 C 
ENDBRANCH  14  15
ENDBRANCH  13  14
ENDBRANCH  12  13
ENDBRANCH  11  12
ENDBRANCH  10  11
ENDBRANCH   1  10
TORSDOF 12
ENDMDL
MODEL 5
REMARK VINA RESULT:    -3.575      1.174      3.252
REMARK INTER + INTRA:          -7.961
REMARK INTER:                  -6.315
REMARK INTRA:                  -1.646
REMARK UNBOUND:                -1.879
REMARK SMILES CCCCCCCCCCCCCC(=O)[O-]
REMARK SMILES IDX 8 1 9 2 10 3 11 4 12 5 13 6 14 7 15 8 16 9 7 10 6 11 5 12
REMARK SMILES IDX 4 13 3 14 2 15 1 16
REMARK H PARENT
REMARK Flexibility Score: inf
ROOT
ATOM      1  C   UNL     1      99.027   4.524 -29.252  1.00  0.00     0.000 C 
ENDROOT
BRANCH   1   2
ATOM      2  C   UNL     1      99.426   4.954 -27.829  1.00  0.00     0.000 C 
BRANCH   2   3
ATOM      3  C   UNL     1      98.548   4.316 -26.742  1.00  0.00     0.000 C 
BRANCH   3   4
ATOM      4  C   UNL     1      97.288   3.689 -27.353  1.00  0.00     0.000 C 
BRANCH   4   5
ATOM      5  C   UNL     1      96.200   3.494 -26.291  1.00  0.00     0.006 C 
BRANCH   5   6
ATOM      6  C   UNL     1      94.838   3.230 -26.941  1.00  0.00     0.053 C 
BRANCH   6   7
ATOM      7  C   UNL     1      93.731   3.668 -26.035  1.00  0.00     0.041 C 
ATOM      8  O   UNL     1      93.007   2.812 -25.461  1.00  0.00    -0.550 OA
ATOM      9  O   UNL     1      93.531   5.020 -25.786  1.00  0.00    -0.550 OA
ENDBRANCH   6   7
ENDBRANCH   5   6
ENDBRANCH   4   5
ENDBRANCH   3   4
ENDBRANCH   2   3
ENDBRANCH   1   2
BRANCH   1  10
ATOM     10  C   UNL     1     100.011   3.563 -29.942  1.00  0.00     0.000 C 
BRANCH  10  11
ATOM     11  C   UNL     1      99.405   2.180 -30.219  1.00  0.00    -0.000 C 
BRANCH  11  12
ATOM     12  C   UNL     1     100.107   1.096 -29.391  1.00  0.00    -0.000 C 
BRANCH  12  13
ATOM     13  C   UNL     1      99.208   0.607 -28.248  1.00  0.00    -0.000 C 
BRANCH  13  14
ATOM     14  C   UNL     1      99.864   0.869 -26.884  1.00  0.00    -0.000 C 
BRANCH  14  15
ATOM     15  C   UNL     1      98.860   0.797 -25.723  1.00  0.00    -0.003 C 
ATOM     16  C   UNL     1      99.371   1.481 -24.456  1.00  0.00     0.004 C 
ENDBRANCH  14  15
ENDBRANCH  13  14
ENDBRANCH  12  13
ENDBRANCH  11  12
ENDBRANCH  10  11
ENDBRANCH   1  10
TORSDOF 12
ENDMDL
MODEL 6
REMARK VINA RESULT:    -3.528      2.458      4.333
REMARK INTER + INTRA:          -7.881
REMARK INTER:                  -6.303
REMARK INTRA:                  -1.578
REMARK UNBOUND:                -1.879
REMARK SMILES CCCCCCCCCCCCCC(=O)[O-]
REMARK SMILES IDX 8 1 9 2 10 3 11 4 12 5 13 6 14 7 15 8 16 9 7 10 6 11 5 12
REMARK SMILES IDX 4 13 3 14 2 15 1 16
REMARK H PARENT
REMARK Flexibility Score: inf
ROOT
ATOM      1  C   UNL     1      97.458   3.092 -26.352  1.00  0.00     0.000 C 
ENDROOT
BRANCH   1   2
ATOM      2  C   UNL     1      98.326   3.245 -25.091  1.00  0.00     0.000 C 
BRANCH   2   3
ATOM      3  C   UNL     1      99.198   2.012 -24.811  1.00  0.00     0.000 C 
BRANCH   3   4
ATOM      4  C   UNL     1      99.197   1.054 -26.010  1.00  0.00     0.000 C 
BRANCH   4   5
ATOM      5  C   UNL     1      99.144  -0.406 -25.549  1.00  0.00     0.006 C 
BRANCH   5   6
ATOM      6  C   UNL     1      98.539  -0.519 -24.146  1.00  0.00     0.053 C 
BRANCH   6   7
ATOM      7  C   UNL     1      97.114  -0.966 -24.224  1.00  0.00     0.041 C 
ATOM      8  O   UNL     1      96.839  -2.192 -24.313  1.00  0.00    -0.550 OA
ATOM      9  O   UNL     1      96.088  -0.033 -24.149  1.00  0.00    -0.550 OA
ENDBRANCH   6   7
ENDBRANCH   5   6
ENDBRANCH   4   5
ENDBRANCH   3   4
ENDBRANCH   2   3
ENDBRANCH   1   2
BRANCH   1  10
ATOM     10  C   UNL     1      97.738   4.118 -27.464  1.00  0.00     0.000 C 
BRANCH  10  11
ATOM     11  C   UNL     1      99.097   4.817 -27.307  1.00  0.00    -0.000 C 
BRANCH  11  12
ATOM     12  C   UNL     1     100.125   4.250 -28.294  1.00  0.00    -0.000 C 
BRANCH  12  13
ATOM     13  C   UNL     1      99.432   3.576 -29.485  1.00  0.00    -0.000 C 
BRANCH  13  14
ATOM     14  C   UNL     1      99.984   2.160 -29.711  1.00  0.00    -0.000 C 
BRANCH  14  15
ATOM     15  C   UNL     1      98.902   1.077 -29.583  1.00  0.00    -0.003 C 
ATOM     16  C   UNL     1      98.523   0.458 -30.928  1.00  0.00     0.004 C 
ENDBRANCH  14  15
ENDBRANCH  13  14
ENDBRANCH  12  13
ENDBRANCH  11  12
ENDBRANCH  10  11
ENDBRANCH   1  10
TORSDOF 12
ENDMDL
MODEL 7
REMARK VINA RESULT:    -3.510      2.937      5.109
REMARK INTER + INTRA:          -7.851
REMARK INTER:                  -6.400
REMARK INTRA:                  -1.452
REMARK UNBOUND:                -1.879
REMARK SMILES CCCCCCCCCCCCCC(=O)[O-]
REMARK SMILES IDX 8 1 9 2 10 3 11 4 12 5 13 6 14 7 15 8 16 9 7 10 6 11 5 12
REMARK SMILES IDX 4 13 3 14 2 15 1 16
REMARK H PARENT
REMARK Flexibility Score: inf
ROOT
ATOM      1  C   UNL     1      99.295   2.609 -28.542  1.00  0.00     0.000 C 
ENDROOT
BRANCH   1   2
ATOM      2  C   UNL     1     100.005   1.361 -27.986  1.00  0.00     0.000 C 
BRANCH   2   3
ATOM      3  C   UNL     1      99.042   0.381 -27.300  1.00  0.00     0.000 C 
BRANCH   3   4
ATOM      4  C   UNL     1      99.585  -0.058 -25.934  1.00  0.00     0.000 C 
BRANCH   4   5
ATOM      5  C   UNL     1      98.729  -1.178 -25.334  1.00  0.00     0.006 C 
BRANCH   5   6
ATOM      6  C   UNL     1      97.591  -0.606 -24.484  1.00  0.00     0.053 C 
BRANCH   6   7
ATOM      7  C   UNL     1      98.027  -0.451 -23.061  1.00  0.00     0.041 C 
ATOM      8  O   UNL     1      98.656   0.579 -22.700  1.00  0.00    -0.550 OA
ATOM      9  O   UNL     1      97.695  -1.420 -22.124  1.00  0.00    -0.550 OA
ENDBRANCH   6   7
ENDBRANCH   5   6
ENDBRANCH   4   5
ENDBRANCH   3   4
ENDBRANCH   2   3
ENDBRANCH   1   2
BRANCH   1  10
ATOM     10  C   UNL     1      99.656   3.930 -27.840  1.00  0.00     0.000 C 
BRANCH  10  11
ATOM     11  C   UNL     1      98.539   4.446 -26.921  1.00  0.00    -0.000 C 
BRANCH  11  12
ATOM     12  C   UNL     1      98.616   3.787 -25.538  1.00  0.00    -0.000 C 
BRANCH  12  13
ATOM     13  C   UNL     1      97.349   2.975 -25.243  1.00  0.00    -0.000 C 
BRANCH  13  14
ATOM     14  C   UNL     1      96.249   3.283 -26.269  1.00  0.00    -0.000 C 
BRANCH  14  15
ATOM     15  C   UNL     1      94.853   3.362 -25.632  1.00  0.00    -0.003 C 
ATOM     16  C   UNL     1      94.038   4.551 -26.138  1.00  0.00     0.004 C 
ENDBRANCH  14  15
ENDBRANCH  13  14
ENDBRANCH  12  13
ENDBRANCH  11  12
ENDBRANCH  10  11
ENDBRANCH   1  10
TORSDOF 12
ENDMDL
MODEL 8
REMARK VINA RESULT:    -3.473      2.201      4.118
REMARK INTER + INTRA:          -7.788
REMARK INTER:                  -6.636
REMARK INTRA:                  -1.152
REMARK UNBOUND:                -1.879
REMARK SMILES CCCCCCCCCCCCCC(=O)[O-]
REMARK SMILES IDX 8 1 9 2 10 3 11 4 12 5 13 6 14 7 15 8 16 9 7 10 6 11 5 12
REMARK SMILES IDX 4 13 3 14 2 15 1 16
REMARK H PARENT
REMARK Flexibility Score: inf
ROOT
ATOM      1  C   UNL     1      95.089   3.843 -26.345  1.00  0.00     0.000 C 
ENDROOT
BRANCH   1   2
ATOM      2  C   UNL     1      93.904   3.549 -25.406  1.00  0.00     0.000 C 
BRANCH   2   3
ATOM      3  C   UNL     1      93.057   4.794 -25.104  1.00  0.00     0.000 C 
BRANCH   3   4
ATOM      4  C   UNL     1      93.406   5.942 -26.062  1.00  0.00     0.000 C 
BRANCH   4   5
ATOM      5  C   UNL     1      92.175   6.388 -26.858  1.00  0.00     0.006 C 
BRANCH   5   6
ATOM      6  C   UNL     1      91.908   5.444 -28.034  1.00  0.00     0.053 C 
BRANCH   6   7
ATOM      7  C   UNL     1      90.609   4.728 -27.847  1.00  0.00     0.041 C 
ATOM      8  O   UNL     1      89.558   5.377 -27.598  1.00  0.00    -0.550 OA
ATOM      9  O   UNL     1      90.547   3.348 -27.997  1.00  0.00    -0.550 OA
ENDBRANCH   6   7
ENDBRANCH   5   6
ENDBRANCH   4   5
ENDBRANCH   3   4
ENDBRANCH   2   3
ENDBRANCH   1   2
BRANCH   1  10
ATOM     10  C   UNL     1      96.254   2.842 -26.253  1.00  0.00     0.000 C 
BRANCH  10  11
ATOM     11  C   UNL     1      97.139   3.062 -25.017  1.00  0.00    -0.000 C 
BRANCH  11  12
ATOM     12  C   UNL     1      98.436   3.790 -25.390  1.00  0.00    -0.000 C 
BRANCH  12  13
ATOM     13  C   UNL     1      99.030   3.226 -26.687  1.00  0.00    -0.000 C 
BRANCH  13  14
ATOM     14  C   UNL     1      99.580   4.353 -27.574  1.00  0.00    -0.000 C 
BRANCH  14  15
ATOM     15  C   UNL     1      98.478   5.064 -28.376  1.00  0.00    -0.003 C 
ATOM     16  C   UNL     1      97.948   4.216 -29.531  1.00  0.00     0.004 C 
ENDBRANCH  14  15
ENDBRANCH  13  14
ENDBRANCH  12  13
ENDBRANCH  11  12
ENDBRANCH  10  11
ENDBRANCH   1  10
TORSDOF 12
ENDMDL
MODEL 9
REMARK VINA RESULT:    -3.464      1.769      3.376
REMARK INTER + INTRA:          -7.774
REMARK INTER:                  -6.342
REMARK INTRA:                  -1.431
REMARK UNBOUND:                -1.879
REMARK SMILES CCCCCCCCCCCCCC(=O)[O-]
REMARK SMILES IDX 8 1 9 2 10 3 11 4 12 5 13 6 14 7 15 8 16 9 7 10 6 11 5 12
REMARK SMILES IDX 4 13 3 14 2 15 1 16
REMARK H PARENT
REMARK Flexibility Score: inf
ROOT
ATOM      1  C   UNL     1      97.251   3.116 -25.967  1.00  0.00     0.000 C 
ENDROOT
BRANCH   1   2
ATOM      2  C   UNL     1      96.193   3.395 -27.050  1.00  0.00     0.000 C 
BRANCH   2   3
ATOM      3  C   UNL     1      94.755   3.226 -26.540  1.00  0.00     0.000 C 
BRANCH   3   4
ATOM      4  C   UNL     1      94.150   4.580 -26.145  1.00  0.00     0.000 C 
BRANCH   4   5
ATOM      5  C   UNL     1      92.669   4.655 -26.530  1.00  0.00     0.006 C 
BRANCH   5   6
ATOM      6  C   UNL     1      92.370   3.768 -27.743  1.00  0.00     0.053 C 
BRANCH   6   7
ATOM      7  C   UNL     1      92.282   4.593 -28.987  1.00  0.00     0.041 C 
ATOM      8  O   UNL     1      92.666   4.120 -30.089  1.00  0.00    -0.550 OA
ATOM      9  O   UNL     1      91.730   5.867 -28.938  1.00  0.00    -0.550 OA
ENDBRANCH   6   7
ENDBRANCH   5   6
ENDBRANCH   4   5
ENDBRANCH   3   4
ENDBRANCH   2   3
ENDBRANCH   1   2
BRANCH   1  10
ATOM     10  C   UNL     1      98.548   3.934 -26.098  1.00  0.00     0.000 C 
BRANCH  10  11
ATOM     11  C   UNL     1      98.571   4.826 -27.348  1.00  0.00    -0.000 C 
BRANCH  11  12
ATOM     12  C   UNL     1      99.974   4.871 -27.966  1.00  0.00    -0.000 C 
BRANCH  12  13
ATOM     13  C   UNL     1     100.091   3.890 -29.139  1.00  0.00    -0.000 C 
BRANCH  13  14
ATOM     14  C   UNL     1      98.709   3.577 -29.732  1.00  0.00    -0.000 C 
BRANCH  14  15
ATOM     15  C   UNL     1      98.458   2.069 -29.879  1.00  0.00    -0.003 C 
ATOM     16  C   UNL     1      99.037   1.257 -28.721  1.00  0.00     0.004 C 
ENDBRANCH  14  15
ENDBRANCH  13  14
ENDBRANCH  12  13
ENDBRANCH  11  12
ENDBRANCH  10  11
ENDBRANCH   1  10
TORSDOF 12
ENDMDL
