MODEL 1
REMARK VINA RESULT:    -3.878      0.000      0.000
REMARK INTER + INTRA:          -6.622
REMARK INTER:                  -5.919
REMARK INTRA:                  -0.703
REMARK UNBOUND:                -0.703
REMARK SMILES O=C([O-])CCCCCCCCC(=O)[O-]
REMARK SMILES IDX 7 1 6 2 5 3 4 4 2 5 1 6 3 7 8 8 9 9 10 10 11 11 12 12 13 13
REMARK SMILES IDX 14 14
REMARK H PARENT
REMARK Flexibility Score: inf
ROOT
ATOM      1  C   UNL     1     -22.022   7.972  18.292  1.00  0.00     0.000 C 
ENDROOT
BRANCH   1   2
ATOM      2  C   UNL     1     -23.113   8.566  19.194  1.00  0.00     0.000 C 
BRANCH   2   3
ATOM      3  C   UNL     1     -23.019   8.067  20.645  1.00  0.00     0.006 C 
BRANCH   3   4
ATOM      4  C   UNL     1     -24.186   7.148  21.030  1.00  0.00     0.053 C 
BRANCH   4   5
ATOM      5  C   UNL     1     -23.675   5.817  21.483  1.00  0.00     0.041 C 
ATOM      6  O   UNL     1     -22.626   5.337  20.977  1.00  0.00    -0.550 OA
ATOM      7  O   UNL     1     -24.326   5.129  22.499  1.00  0.00    -0.550 OA
ENDBRANCH   4   5
ENDBRANCH   3   4
ENDBRANCH   2   3
ENDBRANCH   1   2
BRANCH   1   8
ATOM      8  C   UNL     1     -22.486   6.652  17.665  1.00  0.00     0.000 C 
BRANCH   8   9
ATOM      9  C   UNL     1     -21.411   6.073  16.737  1.00  0.00     0.000 C 
BRANCH   9  10
ATOM     10  C   UNL     1     -20.505   7.181  16.186  1.00  0.00     0.006 C 
BRANCH  10  11
ATOM     11  C   UNL     1     -19.046   6.716  16.121  1.00  0.00     0.053 C 
BRANCH  11  12
ATOM     12  C   UNL     1     -18.500   6.516  17.498  1.00  0.00     0.041 C 
ATOM     13  O   UNL     1     -18.081   5.384  17.856  1.00  0.00    -0.550 OA
ATOM     14  O   UNL     1     -18.496   7.570  18.405  1.00  0.00    -0.550 OA
ENDBRANCH  11  12
ENDBRANCH  10  11
ENDBRANCH   9  10
ENDBRANCH   8   9
ENDBRANCH   1   8
TORSDOF 9
ENDMDL
MODEL 2
REMARK VINA RESULT:    -3.855      0.183      5.644
REMARK INTER + INTRA:          -6.587
REMARK INTER:                  -5.886
REMARK INTRA:                  -0.701
REMARK UNBOUND:                -0.703
REMARK SMILES O=C([O-])CCCCCCCCC(=O)[O-]
REMARK SMILES IDX 7 1 6 2 5 3 4 4 2 5 1 6 3 7 8 8 9 9 10 10 11 11 12 12 13 13
REMARK SMILES IDX 14 14
REMARK H PARENT
REMARK Flexibility Score: inf
ROOT
ATOM      1  C   UNL     1     -22.421   6.438  17.601  1.00  0.00     0.000 C 
ENDROOT
BRANCH   1   2
ATOM      2  C   UNL     1     -21.489   6.027  16.452  1.00  0.00     0.000 C 
BRANCH   2   3
ATOM      3  C   UNL     1     -20.461   7.116  16.105  1.00  0.00     0.006 C 
BRANCH   3   4
ATOM      4  C   UNL     1     -19.022   6.583  16.081  1.00  0.00     0.053 C 
BRANCH   4   5
ATOM      5  C   UNL     1     -18.503   6.418  17.474  1.00  0.00     0.041 C 
ATOM      6  O   UNL     1     -17.994   5.325  17.835  1.00  0.00    -0.550 OA
ATOM      7  O   UNL     1     -18.534   7.488  18.360  1.00  0.00    -0.550 OA
ENDBRANCH   4   5
ENDBRANCH   3   4
ENDBRANCH   2   3
ENDBRANCH   1   2
BRANCH   1   8
ATOM      8  C   UNL     1     -22.068   7.836  18.122  1.00  0.00     0.000 C 
BRANCH   8   9
ATOM      9  C   UNL     1     -23.205   8.411  18.975  1.00  0.00     0.000 C 
BRANCH   9  10
ATOM     10  C   UNL     1     -22.996   8.092  20.460  1.00  0.00     0.006 C 
BRANCH  10  11
ATOM     11  C   UNL     1     -24.114   7.189  20.991  1.00  0.00     0.053 C 
BRANCH  11  12
ATOM     12  C   UNL     1     -23.554   5.883  21.456  1.00  0.00     0.041 C 
ATOM     13  O   UNL     1     -22.461   5.461  20.995  1.00  0.00    -0.550 OA
ATOM     14  O   UNL     1     -24.263   5.106  22.365  1.00  0.00    -0.550 OA
ENDBRANCH  11  12
ENDBRANCH  10  11
ENDBRANCH   9  10
ENDBRANCH   8   9
ENDBRANCH   1   8
TORSDOF 9
ENDMDL
MODEL 3
REMARK VINA RESULT:    -3.833      1.632      2.593
REMARK INTER + INTRA:          -6.553
REMARK INTER:                  -5.568
REMARK INTRA:                  -0.985
REMARK UNBOUND:                -0.703
REMARK SMILES O=C([O-])CCCCCCCCC(=O)[O-]
REMARK SMILES IDX 7 1 6 2 5 3 4 4 2 5 1 6 3 7 8 8 9 9 10 10 11 11 12 12 13 13
REMARK SMILES IDX 14 14
REMARK H PARENT
REMARK Flexibility Score: inf
ROOT
ATOM      1  C   UNL     1     -21.501   6.099  16.497  1.00  0.00     0.000 C 
ENDROOT
BRANCH   1   2
ATOM      2  C   UNL     1     -22.353   6.735  17.605  1.00  0.00     0.000 C 
BRANCH   2   3
ATOM      3  C   UNL     1     -21.713   8.004  18.190  1.00  0.00     0.006 C 
BRANCH   3   4
ATOM      4  C   UNL     1     -22.669   8.779  19.106  1.00  0.00     0.053 C 
BRANCH   4   5
ATOM      5  C   UNL     1     -22.907   8.020  20.373  1.00  0.00     0.041 C 
ATOM      6  O   UNL     1     -21.934   7.591  21.047  1.00  0.00    -0.550 OA
ATOM      7  O   UNL     1     -24.203   7.830  20.838  1.00  0.00    -0.550 OA
ENDBRANCH   4   5
ENDBRANCH   3   4
ENDBRANCH   2   3
ENDBRANCH   1   2
BRANCH   1   8
ATOM      8  C   UNL     1     -20.438   7.081  15.989  1.00  0.00     0.000 C 
BRANCH   8   9
ATOM      9  C   UNL     1     -19.054   6.424  15.948  1.00  0.00     0.000 C 
BRANCH   9  10
ATOM     10  C   UNL     1     -18.279   6.688  17.245  1.00  0.00     0.006 C 
BRANCH  10  11
ATOM     11  C   UNL     1     -18.232   5.433  18.123  1.00  0.00     0.053 C 
BRANCH  11  12
ATOM     12  C   UNL     1     -19.085   5.613  19.338  1.00  0.00     0.041 C 
ATOM     13  O   UNL     1     -20.059   4.844  19.548  1.00  0.00    -0.550 OA
ATOM     14  O   UNL     1     -18.833   6.661  20.215  1.00  0.00    -0.550 OA
ENDBRANCH  11  12
ENDBRANCH  10  11
ENDBRANCH   9  10
ENDBRANCH   8   9
ENDBRANCH   1   8
TORSDOF 9
ENDMDL
MODEL 4
REMARK VINA RESULT:    -3.769      1.464      4.935
REMARK INTER + INTRA:          -6.456
REMARK INTER:                  -5.519
REMARK INTRA:                  -0.937
REMARK UNBOUND:                -0.703
REMARK SMILES O=C([O-])CCCCCCCCC(=O)[O-]
REMARK SMILES IDX 7 1 6 2 5 3 4 4 2 5 1 6 3 7 8 8 9 9 10 10 11 11 12 12 13 13
REMARK SMILES IDX 14 14
REMARK H PARENT
REMARK Flexibility Score: inf
ROOT
ATOM      1  C   UNL     1     -20.378   7.132  16.296  1.00  0.00     0.000 C 
ENDROOT
BRANCH   1   2
ATOM      2  C   UNL     1     -19.029   6.433  16.079  1.00  0.00     0.000 C 
BRANCH   2   3
ATOM      3  C   UNL     1     -18.084   6.581  17.283  1.00  0.00     0.006 C 
BRANCH   3   4
ATOM      4  C   UNL     1     -18.134   5.371  18.225  1.00  0.00     0.053 C 
BRANCH   4   5
ATOM      5  C   UNL     1     -19.101   5.617  19.340  1.00  0.00     0.041 C 
ATOM      6  O   UNL     1     -19.992   4.767  19.604  1.00  0.00    -0.550 OA
ATOM      7  O   UNL     1     -18.988   6.761  20.120  1.00  0.00    -0.550 OA
ENDBRANCH   4   5
ENDBRANCH   3   4
ENDBRANCH   2   3
ENDBRANCH   1   2
BRANCH   1   8
ATOM      8  C   UNL     1     -21.491   6.110  16.557  1.00  0.00     0.000 C 
BRANCH   8   9
ATOM      9  C   UNL     1     -22.406   6.570  17.698  1.00  0.00     0.000 C 
BRANCH   9  10
ATOM     10  C   UNL     1     -21.945   7.918  18.266  1.00  0.00     0.006 C 
BRANCH  10  11
ATOM     11  C   UNL     1     -23.020   8.530  19.170  1.00  0.00     0.053 C 
BRANCH  11  12
ATOM     12  C   UNL     1     -23.253   7.662  20.365  1.00  0.00     0.041 C 
ATOM     13  O   UNL     1     -24.426   7.370  20.718  1.00  0.00    -0.550 OA
ATOM     14  O   UNL     1     -22.176   7.214  21.121  1.00  0.00    -0.550 OA
ENDBRANCH  11  12
ENDBRANCH  10  11
ENDBRANCH   9  10
ENDBRANCH   8   9
ENDBRANCH   1   8
TORSDOF 9
ENDMDL
MODEL 5
REMARK VINA RESULT:    -3.734      1.971      5.320
REMARK INTER + INTRA:          -6.402
REMARK INTER:                  -5.414
REMARK INTRA:                  -0.988
REMARK UNBOUND:                -0.703
REMARK SMILES O=C([O-])CCCCCCCCC(=O)[O-]
REMARK SMILES IDX 7 1 6 2 5 3 4 4 2 5 1 6 3 7 8 8 9 9 10 10 11 11 12 12 13 13
REMARK SMILES IDX 14 14
REMARK H PARENT
REMARK Flexibility Score: inf
ROOT
ATOM      1  C   UNL     1     -22.244   8.294  21.065  1.00  0.00     0.000 C 
ENDROOT
BRANCH   1   2
ATOM      2  C   UNL     1     -21.418   8.828  19.886  1.00  0.00     0.000 C 
BRANCH   2   3
ATOM      3  C   UNL     1     -22.122   8.633  18.534  1.00  0.00     0.006 C 
BRANCH   3   4
ATOM      4  C   UNL     1     -21.364   7.674  17.606  1.00  0.00     0.053 C 
BRANCH   4   5
ATOM      5  C   UNL     1     -21.660   6.253  17.970  1.00  0.00     0.041 C 
ATOM      6  O   UNL     1     -22.780   5.750  17.693  1.00  0.00    -0.550 OA
ATOM      7  O   UNL     1     -20.682   5.469  18.568  1.00  0.00    -0.550 OA
ENDBRANCH   4   5
ENDBRANCH   3   4
ENDBRANCH   2   3
ENDBRANCH   1   2
BRANCH   1   8
ATOM      8  C   UNL     1     -23.689   8.010  20.641  1.00  0.00     0.000 C 
BRANCH   8   9
ATOM      9  C   UNL     1     -24.151   6.635  21.137  1.00  0.00     0.000 C 
BRANCH   9  10
ATOM     10  C   UNL     1     -22.953   5.750  21.502  1.00  0.00     0.006 C 
BRANCH  10  11
ATOM     11  C   UNL     1     -23.100   4.350  20.897  1.00  0.00     0.053 C 
BRANCH  11  12
ATOM     12  C   UNL     1     -23.747   3.423  21.876  1.00  0.00     0.041 C 
ATOM     13  O   UNL     1     -24.100   2.269  21.519  1.00  0.00    -0.550 OA
ATOM     14  O   UNL     1     -24.003   3.851  23.174  1.00  0.00    -0.550 OA
ENDBRANCH  11  12
ENDBRANCH  10  11
ENDBRANCH   9  10
ENDBRANCH   8   9
ENDBRANCH   1   8
TORSDOF 9
ENDMDL
MODEL 6
REMARK VINA RESULT:    -3.719      2.602      4.605
REMARK INTER + INTRA:          -6.379
REMARK INTER:                  -5.362
REMARK INTRA:                  -1.018
REMARK UNBOUND:                -0.703
REMARK SMILES O=C([O-])CCCCCCCCC(=O)[O-]
REMARK SMILES IDX 7 1 6 2 5 3 4 4 2 5 1 6 3 7 8 8 9 9 10 10 11 11 12 12 13 13
REMARK SMILES IDX 14 14
REMARK H PARENT
REMARK Flexibility Score: inf
ROOT
ATOM      1  C   UNL     1     -21.566   6.129  17.697  1.00  0.00     0.000 C 
ENDROOT
BRANCH   1   2
ATOM      2  C   UNL     1     -21.631   7.625  17.356  1.00  0.00     0.000 C 
BRANCH   2   3
ATOM      3  C   UNL     1     -21.905   8.502  18.588  1.00  0.00     0.006 C 
BRANCH   3   4
ATOM      4  C   UNL     1     -23.331   8.332  19.129  1.00  0.00     0.053 C 
BRANCH   4   5
ATOM      5  C   UNL     1     -23.297   7.904  20.562  1.00  0.00     0.041 C 
ATOM      6  O   UNL     1     -24.344   7.482  21.121  1.00  0.00    -0.550 OA
ATOM      7  O   UNL     1     -22.100   7.923  21.267  1.00  0.00    -0.550 OA
ENDBRANCH   4   5
ENDBRANCH   3   4
ENDBRANCH   2   3
ENDBRANCH   1   2
BRANCH   1   8
ATOM      8  C   UNL     1     -20.387   5.828  18.629  1.00  0.00     0.000 C 
BRANCH   8   9
ATOM      9  C   UNL     1     -20.820   4.932  19.796  1.00  0.00     0.000 C 
BRANCH   9  10
ATOM     10  C   UNL     1     -22.287   4.507  19.649  1.00  0.00     0.006 C 
BRANCH  10  11
ATOM     11  C   UNL     1     -22.903   4.183  21.014  1.00  0.00     0.053 C 
BRANCH  11  12
ATOM     12  C   UNL     1     -23.153   2.714  21.138  1.00  0.00     0.041 C 
ATOM     13  O   UNL     1     -24.213   2.293  21.671  1.00  0.00    -0.550 OA
ATOM     14  O   UNL     1     -22.192   1.806  20.707  1.00  0.00    -0.550 OA
ENDBRANCH  11  12
ENDBRANCH  10  11
ENDBRANCH   9  10
ENDBRANCH   8   9
ENDBRANCH   1   8
TORSDOF 9
ENDMDL
MODEL 7
REMARK VINA RESULT:    -3.679      1.087      5.735
REMARK INTER + INTRA:          -6.319
REMARK INTER:                  -5.644
REMARK INTRA:                  -0.675
REMARK UNBOUND:                -0.703
REMARK SMILES O=C([O-])CCCCCCCCC(=O)[O-]
REMARK SMILES IDX 7 1 6 2 5 3 4 4 2 5 1 6 3 7 8 8 9 9 10 10 11 11 12 12 13 13
REMARK SMILES IDX 14 14
REMARK H PARENT
REMARK Flexibility Score: inf
ROOT
ATOM      1  C   UNL     1     -21.898   8.338  18.651  1.00  0.00     0.000 C 
ENDROOT
BRANCH   1   2
ATOM      2  C   UNL     1     -22.588   7.327  17.724  1.00  0.00     0.000 C 
BRANCH   2   3
ATOM      3  C   UNL     1     -21.688   6.128  17.382  1.00  0.00     0.006 C 
BRANCH   3   4
ATOM      4  C   UNL     1     -20.555   6.497  16.415  1.00  0.00     0.053 C 
BRANCH   4   5
ATOM      5  C   UNL     1     -19.227   6.346  17.086  1.00  0.00     0.041 C 
ATOM      6  O   UNL     1     -18.184   6.780  16.530  1.00  0.00    -0.550 OA
ATOM      7  O   UNL     1     -19.145   5.771  18.348  1.00  0.00    -0.550 OA
ENDBRANCH   4   5
ENDBRANCH   3   4
ENDBRANCH   2   3
ENDBRANCH   1   2
BRANCH   1   8
ATOM      8  C   UNL     1     -22.120   7.974  20.124  1.00  0.00     0.000 C 
BRANCH   8   9
ATOM      9  C   UNL     1     -23.569   8.241  20.547  1.00  0.00     0.000 C 
BRANCH   9  10
ATOM     10  C   UNL     1     -24.240   6.959  21.056  1.00  0.00     0.006 C 
BRANCH  10  11
ATOM     11  C   UNL     1     -23.219   5.827  21.206  1.00  0.00     0.053 C 
BRANCH  11  12
ATOM     12  C   UNL     1     -23.806   4.694  21.985  1.00  0.00     0.041 C 
ATOM     13  O   UNL     1     -23.655   3.508  21.590  1.00  0.00    -0.550 OA
ATOM     14  O   UNL     1     -24.561   4.950  23.124  1.00  0.00    -0.550 OA
ENDBRANCH  11  12
ENDBRANCH  10  11
ENDBRANCH   9  10
ENDBRANCH   8   9
ENDBRANCH   1   8
TORSDOF 9
ENDMDL
MODEL 8
REMARK VINA RESULT:    -3.618      2.101      4.953
REMARK INTER + INTRA:          -6.225
REMARK INTER:                  -5.502
REMARK INTRA:                  -0.723
REMARK UNBOUND:                -0.703
REMARK SMILES O=C([O-])CCCCCCCCC(=O)[O-]
REMARK SMILES IDX 7 1 6 2 5 3 4 4 2 5 1 6 3 7 8 8 9 9 10 10 11 11 12 12 13 13
REMARK SMILES IDX 14 14
REMARK H PARENT
REMARK Flexibility Score: inf
ROOT
ATOM      1  C   UNL     1     -22.495   8.113  20.327  1.00  0.00     0.000 C 
ENDROOT
BRANCH   1   2
ATOM      2  C   UNL     1     -22.314   8.778  18.954  1.00  0.00     0.000 C 
BRANCH   2   3
ATOM      3  C   UNL     1     -21.958   7.771  17.850  1.00  0.00     0.006 C 
BRANCH   3   4
ATOM      4  C   UNL     1     -20.527   7.231  17.983  1.00  0.00     0.053 C 
BRANCH   4   5
ATOM      5  C   UNL     1     -20.058   6.672  16.677  1.00  0.00     0.041 C 
ATOM      6  O   UNL     1     -20.882   6.158  15.875  1.00  0.00    -0.550 OA
ATOM      7  O   UNL     1     -18.717   6.763  16.322  1.00  0.00    -0.550 OA
ENDBRANCH   4   5
ENDBRANCH   3   4
ENDBRANCH   2   3
ENDBRANCH   1   2
BRANCH   1   8
ATOM      8  C   UNL     1     -23.856   7.413  20.423  1.00  0.00     0.000 C 
BRANCH   8   9
ATOM      9  C   UNL     1     -23.784   6.193  21.350  1.00  0.00     0.000 C 
BRANCH   9  10
ATOM     10  C   UNL     1     -22.424   5.493  21.236  1.00  0.00     0.006 C 
BRANCH  10  11
ATOM     11  C   UNL     1     -22.349   4.644  19.962  1.00  0.00     0.053 C 
BRANCH  11  12
ATOM     12  C   UNL     1     -21.172   3.724  20.017  1.00  0.00     0.041 C 
ATOM     13  O   UNL     1     -20.037   4.122  19.645  1.00  0.00    -0.550 OA
ATOM     14  O   UNL     1     -21.337   2.408  20.434  1.00  0.00    -0.550 OA
ENDBRANCH  11  12
ENDBRANCH  10  11
ENDBRANCH   9  10
ENDBRANCH   8   9
ENDBRANCH   1   8
TORSDOF 9
ENDMDL
MODEL 9
REMARK VINA RESULT:    -3.612      2.081      3.042
REMARK INTER + INTRA:          -6.216
REMARK INTER:                  -5.410
REMARK INTRA:                  -0.806
REMARK UNBOUND:                -0.703
REMARK SMILES O=C([O-])CCCCCCCCC(=O)[O-]
REMARK SMILES IDX 7 1 6 2 5 3 4 4 2 5 1 6 3 7 8 8 9 9 10 10 11 11 12 12 13 13
REMARK SMILES IDX 14 14
REMARK H PARENT
REMARK Flexibility Score: inf
ROOT
ATOM      1  C   UNL     1     -23.789   7.910  20.748  1.00  0.00     0.000 C 
ENDROOT
BRANCH   1   2
ATOM      2  C   UNL     1     -23.889   6.385  20.894  1.00  0.00     0.000 C 
BRANCH   2   3
ATOM      3  C   UNL     1     -22.513   5.701  20.918  1.00  0.00     0.006 C 
BRANCH   3   4
ATOM      4  C   UNL     1     -22.345   4.673  19.791  1.00  0.00     0.053 C 
BRANCH   4   5
ATOM      5  C   UNL     1     -21.763   3.403  20.326  1.00  0.00     0.041 C 
ATOM      6  O   UNL     1     -20.515   3.240  20.353  1.00  0.00    -0.550 OA
ATOM      7  O   UNL     1     -22.597   2.418  20.841  1.00  0.00    -0.550 OA
ENDBRANCH   4   5
ENDBRANCH   3   4
ENDBRANCH   2   3
ENDBRANCH   1   2
BRANCH   1   8
ATOM      8  C   UNL     1     -22.331   8.351  20.567  1.00  0.00     0.000 C 
BRANCH   8   9
ATOM      9  C   UNL     1     -22.132   9.060  19.222  1.00  0.00     0.000 C 
BRANCH   9  10
ATOM     10  C   UNL     1     -21.961   8.046  18.084  1.00  0.00     0.006 C 
BRANCH  10  11
ATOM     11  C   UNL     1     -20.550   7.449  18.089  1.00  0.00     0.053 C 
BRANCH  11  12
ATOM     12  C   UNL     1     -20.253   6.799  16.775  1.00  0.00     0.041 C 
ATOM     13  O   UNL     1     -21.145   6.142  16.176  1.00  0.00    -0.550 OA
ATOM     14  O   UNL     1     -18.976   6.877  16.233  1.00  0.00    -0.550 OA
ENDBRANCH  11  12
ENDBRANCH  10  11
ENDBRANCH   9  10
ENDBRANCH   8   9
ENDBRANCH   1   8
TORSDOF 9
ENDMDL
