MODEL 1
REMARK VINA RESULT:    -5.312      0.000      0.000
REMARK INTER + INTRA:          -9.018
REMARK INTER:                  -8.108
REMARK INTRA:                  -0.911
REMARK UNBOUND:                -0.911
REMARK SMILES CCCCCCCCCCC(=O)[O-]
REMARK SMILES IDX 7 1 8 2 9 3 10 4 11 5 12 6 13 7 6 8 5 9 4 10 3 11 2 12 1 13
REMARK H PARENT
REMARK Flexibility Score: inf
ROOT
ATOM      1  C   UNL     1      51.540  51.025  21.024  1.00  0.00     0.000 C 
ENDROOT
BRANCH   1   2
ATOM      2  C   UNL     1      50.240  51.365  21.772  1.00  0.00     0.000 C 
BRANCH   2   3
ATOM      3  C   UNL     1      49.902  50.341  22.867  1.00  0.00     0.006 C 
BRANCH   3   4
ATOM      4  C   UNL     1      50.533  48.969  22.594  1.00  0.00     0.053 C 
BRANCH   4   5
ATOM      5  C   UNL     1      50.319  48.019  23.733  1.00  0.00     0.041 C 
ATOM      6  O   UNL     1      51.258  47.276  24.122  1.00  0.00    -0.550 OA
ATOM      7  O   UNL     1      49.074  47.933  24.343  1.00  0.00    -0.550 OA
ENDBRANCH   4   5
ENDBRANCH   3   4
ENDBRANCH   2   3
ENDBRANCH   1   2
BRANCH   1   8
ATOM      8  C   UNL     1      52.651  52.057  21.265  1.00  0.00     0.000 C 
BRANCH   8   9
ATOM      9  C   UNL     1      52.219  53.450  20.782  1.00  0.00    -0.000 C 
BRANCH   9  10
ATOM     10  C   UNL     1      52.363  54.524  21.872  1.00  0.00    -0.000 C 
BRANCH  10  11
ATOM     11  C   UNL     1      53.057  53.994  23.138  1.00  0.00    -0.000 C 
BRANCH  11  12
ATOM     12  C   UNL     1      52.273  54.319  24.419  1.00  0.00    -0.003 C 
ATOM     13  C   UNL     1      50.888  53.676  24.443  1.00  0.00     0.004 C 
ENDBRANCH  11  12
ENDBRANCH  10  11
ENDBRANCH   9  10
ENDBRANCH   8   9
ENDBRANCH   1   8
TORSDOF 9
ENDMDL
MODEL 2
REMARK VINA RESULT:    -5.245      2.564      5.330
REMARK INTER + INTRA:          -8.916
REMARK INTER:                  -8.207
REMARK INTRA:                  -0.709
REMARK UNBOUND:                -0.911
REMARK SMILES CCCCCCCCCCC(=O)[O-]
REMARK SMILES IDX 7 1 8 2 9 3 10 4 11 5 12 6 13 7 6 8 5 9 4 10 3 11 2 12 1 13
REMARK H PARENT
REMARK Flexibility Score: inf
ROOT
ATOM      1  C   UNL     1      51.884  51.190  21.050  1.00  0.00     0.000 C 
ENDROOT
BRANCH   1   2
ATOM      2  C   UNL     1      52.872  52.366  21.108  1.00  0.00     0.000 C 
BRANCH   2   3
ATOM      3  C   UNL     1      52.183  53.703  21.427  1.00  0.00     0.006 C 
BRANCH   3   4
ATOM      4  C   UNL     1      52.825  54.415  22.626  1.00  0.00     0.053 C 
BRANCH   4   5
ATOM      5  C   UNL     1      52.464  53.759  23.924  1.00  0.00     0.041 C 
ATOM      6  O   UNL     1      53.286  52.998  24.499  1.00  0.00    -0.550 OA
ATOM      7  O   UNL     1      51.209  53.966  24.483  1.00  0.00    -0.550 OA
ENDBRANCH   4   5
ENDBRANCH   3   4
ENDBRANCH   2   3
ENDBRANCH   1   2
BRANCH   1   8
ATOM      8  C   UNL     1      50.481  51.569  21.546  1.00  0.00     0.000 C 
BRANCH   8   9
ATOM      9  C   UNL     1      50.151  50.847  22.861  1.00  0.00    -0.000 C 
BRANCH   9  10
ATOM     10  C   UNL     1      49.849  49.354  22.657  1.00  0.00    -0.000 C 
BRANCH  10  11
ATOM     11  C   UNL     1      49.117  48.728  23.856  1.00  0.00    -0.000 C 
BRANCH  11  12
ATOM     12  C   UNL     1      49.823  47.472  24.388  1.00  0.00    -0.003 C 
ATOM     13  C   UNL     1      51.239  47.313  23.837  1.00  0.00     0.004 C 
ENDBRANCH  11  12
ENDBRANCH  10  11
ENDBRANCH   9  10
ENDBRANCH   8   9
ENDBRANCH   1   8
TORSDOF 9
ENDMDL
MODEL 3
REMARK VINA RESULT:    -4.991      1.170      1.973
REMARK INTER + INTRA:          -8.528
REMARK INTER:                  -7.823
REMARK INTRA:                  -0.704
REMARK UNBOUND:                -0.911
REMARK SMILES CCCCCCCCCCC(=O)[O-]
REMARK SMILES IDX 7 1 8 2 9 3 10 4 11 5 12 6 13 7 6 8 5 9 4 10 3 11 2 12 1 13
REMARK H PARENT
REMARK Flexibility Score: inf
ROOT
ATOM      1  C   UNL     1      49.690  51.774  23.237  1.00  0.00     0.000 C 
ENDROOT
BRANCH   1   2
ATOM      2  C   UNL     1      48.415  50.915  23.252  1.00  0.00     0.000 C 
BRANCH   2   3
ATOM      3  C   UNL     1      48.672  49.484  23.752  1.00  0.00     0.006 C 
BRANCH   3   4
ATOM      4  C   UNL     1      50.001  48.918  23.232  1.00  0.00     0.053 C 
BRANCH   4   5
ATOM      5  C   UNL     1      50.409  47.681  23.973  1.00  0.00     0.041 C 
ATOM      6  O   UNL     1      51.527  47.148  23.747  1.00  0.00    -0.550 OA
ATOM      7  O   UNL     1      49.542  47.101  24.891  1.00  0.00    -0.550 OA
ENDBRANCH   4   5
ENDBRANCH   3   4
ENDBRANCH   2   3
ENDBRANCH   1   2
BRANCH   1   8
ATOM      8  C   UNL     1      49.967  52.400  21.862  1.00  0.00     0.000 C 
BRANCH   8   9
ATOM      9  C   UNL     1      51.165  51.720  21.182  1.00  0.00    -0.000 C 
BRANCH   9  10
ATOM     10  C   UNL     1      52.480  52.486  21.397  1.00  0.00    -0.000 C 
BRANCH  10  11
ATOM     11  C   UNL     1      52.252  53.956  21.789  1.00  0.00    -0.000 C 
BRANCH  11  12
ATOM     12  C   UNL     1      53.155  54.403  22.949  1.00  0.00    -0.003 C 
ATOM     13  C   UNL     1      53.754  53.227  23.719  1.00  0.00     0.004 C 
ENDBRANCH  11  12
ENDBRANCH  10  11
ENDBRANCH   9  10
ENDBRANCH   8   9
ENDBRANCH   1   8
TORSDOF 9
ENDMDL
MODEL 4
REMARK VINA RESULT:    -4.867      2.177      2.870
REMARK INTER + INTRA:          -8.338
REMARK INTER:                  -7.513
REMARK INTRA:                  -0.824
REMARK UNBOUND:                -0.911
REMARK SMILES CCCCCCCCCCC(=O)[O-]
REMARK SMILES IDX 7 1 8 2 9 3 10 4 11 5 12 6 13 7 6 8 5 9 4 10 3 11 2 12 1 13
REMARK H PARENT
REMARK Flexibility Score: inf
ROOT
ATOM      1  C   UNL     1      50.270  50.808  21.499  1.00  0.00     0.000 C 
ENDROOT
BRANCH   1   2
ATOM      2  C   UNL     1      50.241  49.482  22.277  1.00  0.00     0.000 C 
BRANCH   2   3
ATOM      3  C   UNL     1      49.174  49.469  23.384  1.00  0.00     0.006 C 
BRANCH   3   4
ATOM      4  C   UNL     1      48.149  50.599  23.215  1.00  0.00     0.053 C 
BRANCH   4   5
ATOM      5  C   UNL     1      47.834  51.267  24.520  1.00  0.00     0.041 C 
ATOM      6  O   UNL     1      46.851  50.883  25.206  1.00  0.00    -0.550 OA
ATOM      7  O   UNL     1      48.609  52.332  24.961  1.00  0.00    -0.550 OA
ENDBRANCH   4   5
ENDBRANCH   3   4
ENDBRANCH   2   3
ENDBRANCH   1   2
BRANCH   1   8
ATOM      8  C   UNL     1      51.696  51.330  21.271  1.00  0.00     0.000 C 
BRANCH   8   9
ATOM      9  C   UNL     1      51.698  52.857  21.100  1.00  0.00    -0.000 C 
BRANCH   9  10
ATOM     10  C   UNL     1      50.888  53.575  22.191  1.00  0.00    -0.000 C 
BRANCH  10  11
ATOM     11  C   UNL     1      51.598  53.573  23.555  1.00  0.00    -0.000 C 
BRANCH  11  12
ATOM     12  C   UNL     1      52.999  54.201  23.491  1.00  0.00    -0.003 C 
ATOM     13  C   UNL     1      54.110  53.199  23.800  1.00  0.00     0.004 C 
ENDBRANCH  11  12
ENDBRANCH  10  11
ENDBRANCH   9  10
ENDBRANCH   8   9
ENDBRANCH   1   8
TORSDOF 9
ENDMDL
MODEL 5
REMARK VINA RESULT:    -4.841      3.079      4.817
REMARK INTER + INTRA:          -8.299
REMARK INTER:                  -7.629
REMARK INTRA:                  -0.670
REMARK UNBOUND:                -0.911
REMARK SMILES CCCCCCCCCCC(=O)[O-]
REMARK SMILES IDX 7 1 8 2 9 3 10 4 11 5 12 6 13 7 6 8 5 9 4 10 3 11 2 12 1 13
REMARK H PARENT
REMARK Flexibility Score: inf
ROOT
ATOM      1  C   UNL     1      51.484  51.203  21.129  1.00  0.00     0.000 C 
ENDROOT
BRANCH   1   2
ATOM      2  C   UNL     1      52.618  52.240  21.183  1.00  0.00     0.000 C 
BRANCH   2   3
ATOM      3  C   UNL     1      52.105  53.664  21.454  1.00  0.00     0.006 C 
BRANCH   3   4
ATOM      4  C   UNL     1      52.889  54.359  22.576  1.00  0.00     0.053 C 
BRANCH   4   5
ATOM      5  C   UNL     1      52.568  53.781  23.922  1.00  0.00     0.041 C 
ATOM      6  O   UNL     1      51.460  54.028  24.468  1.00  0.00    -0.550 OA
ATOM      7  O   UNL     1      53.503  52.997  24.584  1.00  0.00    -0.550 OA
ENDBRANCH   4   5
ENDBRANCH   3   4
ENDBRANCH   2   3
ENDBRANCH   1   2
BRANCH   1   8
ATOM      8  C   UNL     1      50.761  51.045  22.474  1.00  0.00     0.000 C 
BRANCH   8   9
ATOM      9  C   UNL     1      49.237  51.040  22.279  1.00  0.00    -0.000 C 
BRANCH   9  10
ATOM     10  C   UNL     1      48.531  52.122  23.113  1.00  0.00    -0.000 C 
BRANCH  10  11
ATOM     11  C   UNL     1      48.158  51.633  24.522  1.00  0.00    -0.000 C 
BRANCH  11  12
ATOM     12  C   UNL     1      48.400  52.701  25.600  1.00  0.00    -0.003 C 
ATOM     13  C   UNL     1      47.102  53.269  26.171  1.00  0.00     0.004 C 
ENDBRANCH  11  12
ENDBRANCH  10  11
ENDBRANCH   9  10
ENDBRANCH   8   9
ENDBRANCH   1   8
TORSDOF 9
ENDMDL
MODEL 6
REMARK VINA RESULT:    -4.825      1.467      2.260
REMARK INTER + INTRA:          -8.275
REMARK INTER:                  -7.334
REMARK INTRA:                  -0.940
REMARK UNBOUND:                -0.911
REMARK SMILES CCCCCCCCCCC(=O)[O-]
REMARK SMILES IDX 7 1 8 2 9 3 10 4 11 5 12 6 13 7 6 8 5 9 4 10 3 11 2 12 1 13
REMARK H PARENT
REMARK Flexibility Score: inf
ROOT
ATOM      1  C   UNL     1      52.551  52.126  21.264  1.00  0.00     0.000 C 
ENDROOT
BRANCH   1   2
ATOM      2  C   UNL     1      51.361  51.175  21.059  1.00  0.00     0.000 C 
BRANCH   2   3
ATOM      3  C   UNL     1      51.007  50.388  22.332  1.00  0.00     0.006 C 
BRANCH   3   4
ATOM      4  C   UNL     1      49.758  49.515  22.145  1.00  0.00     0.053 C 
BRANCH   4   5
ATOM      5  C   UNL     1      48.628  49.963  23.022  1.00  0.00     0.041 C 
ATOM      6  O   UNL     1      48.366  49.341  24.084  1.00  0.00    -0.550 OA
ATOM      7  O   UNL     1      47.846  51.049  22.648  1.00  0.00    -0.550 OA
ENDBRANCH   4   5
ENDBRANCH   3   4
ENDBRANCH   2   3
ENDBRANCH   1   2
BRANCH   1   8
ATOM      8  C   UNL     1      52.156  53.605  21.149  1.00  0.00     0.000 C 
BRANCH   8   9
ATOM      9  C   UNL     1      52.625  54.394  22.381  1.00  0.00    -0.000 C 
BRANCH   9  10
ATOM     10  C   UNL     1      52.549  53.570  23.676  1.00  0.00    -0.000 C 
BRANCH  10  11
ATOM     11  C   UNL     1      51.365  53.978  24.568  1.00  0.00    -0.000 C 
BRANCH  11  12
ATOM     12  C   UNL     1      50.076  53.219  24.222  1.00  0.00    -0.003 C 
ATOM     13  C   UNL     1      49.115  53.114  25.405  1.00  0.00     0.004 C 
ENDBRANCH  11  12
ENDBRANCH  10  11
ENDBRANCH   9  10
ENDBRANCH   8   9
ENDBRANCH   1   8
TORSDOF 9
ENDMDL
MODEL 7
REMARK VINA RESULT:    -4.807      3.153      4.958
REMARK INTER + INTRA:          -8.247
REMARK INTER:                  -7.419
REMARK INTRA:                  -0.827
REMARK UNBOUND:                -0.911
REMARK SMILES CCCCCCCCCCC(=O)[O-]
REMARK SMILES IDX 7 1 8 2 9 3 10 4 11 5 12 6 13 7 6 8 5 9 4 10 3 11 2 12 1 13
REMARK H PARENT
REMARK Flexibility Score: inf
ROOT
ATOM      1  C   UNL     1      50.525  51.359  22.028  1.00  0.00     0.000 C 
ENDROOT
BRANCH   1   2
ATOM      2  C   UNL     1      51.719  51.117  21.092  1.00  0.00     0.000 C 
BRANCH   2   3
ATOM      3  C   UNL     1      52.788  52.218  21.198  1.00  0.00     0.006 C 
BRANCH   3   4
ATOM      4  C   UNL     1      52.290  53.435  21.989  1.00  0.00     0.053 C 
BRANCH   4   5
ATOM      5  C   UNL     1      53.169  53.734  23.166  1.00  0.00     0.041 C 
ATOM      6  O   UNL     1      52.930  54.731  23.896  1.00  0.00    -0.550 OA
ATOM      7  O   UNL     1      54.268  52.929  23.436  1.00  0.00    -0.550 OA
ENDBRANCH   4   5
ENDBRANCH   3   4
ENDBRANCH   2   3
ENDBRANCH   1   2
BRANCH   1   8
ATOM      8  C   UNL     1      50.079  50.087  22.763  1.00  0.00     0.000 C 
BRANCH   8   9
ATOM      9  C   UNL     1      48.653  50.244  23.312  1.00  0.00    -0.000 C 
BRANCH   9  10
ATOM     10  C   UNL     1      48.255  51.714  23.516  1.00  0.00    -0.000 C 
BRANCH  10  11
ATOM     11  C   UNL     1      47.692  51.986  24.921  1.00  0.00    -0.000 C 
BRANCH  11  12
ATOM     12  C   UNL     1      48.597  52.909  25.750  1.00  0.00    -0.003 C 
ATOM     13  C   UNL     1      49.788  53.439  24.954  1.00  0.00     0.004 C 
ENDBRANCH  11  12
ENDBRANCH  10  11
ENDBRANCH   9  10
ENDBRANCH   8   9
ENDBRANCH   1   8
TORSDOF 9
ENDMDL
MODEL 8
REMARK VINA RESULT:    -4.796      2.643      3.767
REMARK INTER + INTRA:          -8.230
REMARK INTER:                  -7.532
REMARK INTRA:                  -0.698
REMARK UNBOUND:                -0.911
REMARK SMILES CCCCCCCCCCC(=O)[O-]
REMARK SMILES IDX 7 1 8 2 9 3 10 4 11 5 12 6 13 7 6 8 5 9 4 10 3 11 2 12 1 13
REMARK H PARENT
REMARK Flexibility Score: inf
ROOT
ATOM      1  C   UNL     1      49.996  49.878  22.692  1.00  0.00     0.000 C 
ENDROOT
BRANCH   1   2
ATOM      2  C   UNL     1      48.821  50.048  23.668  1.00  0.00     0.000 C 
BRANCH   2   3
ATOM      3  C   UNL     1      48.119  51.408  23.518  1.00  0.00     0.006 C 
BRANCH   3   4
ATOM      4  C   UNL     1      47.622  51.955  24.863  1.00  0.00     0.053 C 
BRANCH   4   5
ATOM      5  C   UNL     1      48.639  52.842  25.515  1.00  0.00     0.041 C 
ATOM      6  O   UNL     1      48.509  53.173  26.723  1.00  0.00    -0.550 OA
ATOM      7  O   UNL     1      49.714  53.326  24.780  1.00  0.00    -0.550 OA
ENDBRANCH   4   5
ENDBRANCH   3   4
ENDBRANCH   2   3
ENDBRANCH   1   2
BRANCH   1   8
ATOM      8  C   UNL     1      50.410  51.198  22.025  1.00  0.00     0.000 C 
BRANCH   8   9
ATOM      9  C   UNL     1      51.632  50.994  21.118  1.00  0.00    -0.000 C 
BRANCH   9  10
ATOM     10  C   UNL     1      52.658  52.132  21.241  1.00  0.00    -0.000 C 
BRANCH  10  11
ATOM     11  C   UNL     1      52.003  53.487  21.559  1.00  0.00    -0.000 C 
BRANCH  11  12
ATOM     12  C   UNL     1      52.736  54.250  22.672  1.00  0.00    -0.003 C 
ATOM     13  C   UNL     1      53.721  53.370  23.441  1.00  0.00     0.004 C 
ENDBRANCH  11  12
ENDBRANCH  10  11
ENDBRANCH   9  10
ENDBRANCH   8   9
ENDBRANCH   1   8
TORSDOF 9
ENDMDL
MODEL 9
REMARK VINA RESULT:    -4.791      1.434      2.291
REMARK INTER + INTRA:          -8.222
REMARK INTER:                  -7.688
REMARK INTRA:                  -0.534
REMARK UNBOUND:                -0.911
REMARK SMILES CCCCCCCCCCC(=O)[O-]
REMARK SMILES IDX 7 1 8 2 9 3 10 4 11 5 12 6 13 7 6 8 5 9 4 10 3 11 2 12 1 13
REMARK H PARENT
REMARK Flexibility Score: inf
ROOT
ATOM      1  C   UNL     1      50.129  52.075  21.713  1.00  0.00     0.000 C 
ENDROOT
BRANCH   1   2
ATOM      2  C   UNL     1      48.992  51.155  22.187  1.00  0.00     0.000 C 
BRANCH   2   3
ATOM      3  C   UNL     1      49.132  50.752  23.664  1.00  0.00     0.006 C 
BRANCH   3   4
ATOM      4  C   UNL     1      48.219  49.576  24.034  1.00  0.00     0.053 C 
BRANCH   4   5
ATOM      5  C   UNL     1      48.981  48.289  24.140  1.00  0.00     0.041 C 
ATOM      6  O   UNL     1      48.423  47.260  24.605  1.00  0.00    -0.550 OA
ATOM      7  O   UNL     1      50.313  48.235  23.753  1.00  0.00    -0.550 OA
ENDBRANCH   4   5
ENDBRANCH   3   4
ENDBRANCH   2   3
ENDBRANCH   1   2
BRANCH   1   8
ATOM      8  C   UNL     1      51.390  51.299  21.307  1.00  0.00     0.000 C 
BRANCH   8   9
ATOM      9  C   UNL     1      52.594  52.244  21.172  1.00  0.00    -0.000 C 
BRANCH   9  10
ATOM     10  C   UNL     1      53.005  52.874  22.513  1.00  0.00    -0.000 C 
BRANCH  10  11
ATOM     11  C   UNL     1      52.776  54.394  22.547  1.00  0.00    -0.000 C 
BRANCH  11  12
ATOM     12  C   UNL     1      52.276  54.945  21.203  1.00  0.00    -0.003 C 
ATOM     13  C   UNL     1      52.671  56.404  20.979  1.00  0.00     0.004 C 
ENDBRANCH  11  12
ENDBRANCH  10  11
ENDBRANCH   9  10
ENDBRANCH   8   9
ENDBRANCH   1   8
TORSDOF 9
ENDMDL
