MODEL 1
REMARK VINA RESULT:    -4.875      0.000      0.000
REMARK INTER + INTRA:          -4.875
REMARK INTER:                  -4.875
REMARK INTRA:                   0.000
REMARK UNBOUND:                 0.000
REMARK SMILES C=C1CCCC(C)(C)[C@]12CC=C(C)CC2
REMARK SMILES IDX 13 1 12 2 11 3 10 4 9 5 15 6 14 7 2 8 1 9 3 10 4 11 5 12
REMARK SMILES IDX 6 13 7 14 8 15
REMARK H PARENT
REMARK Flexibility Score: inf
ROOT
ATOM      1  C   UNL     1       4.042  14.111   3.500  1.00  0.00     0.039 C 
ATOM      2  C   UNL     1       2.767  14.528   2.821  1.00  0.00    -0.077 C 
ATOM      3  C   UNL     1       2.793  15.550   1.948  1.00  0.00    -0.027 C 
ATOM      4  C   UNL     1       1.542  16.048   1.288  1.00  0.00     0.039 C 
ATOM      5  C   UNL     1       0.583  14.875   0.915  1.00  0.00    -0.000 C 
ATOM      6  C   UNL     1       0.253  14.183   2.285  1.00  0.00     0.017 C 
ATOM      7  C   UNL     1       1.497  13.752   3.108  1.00  0.00     0.031 C 
ATOM      8  C   UNL     1       1.297  13.934  -0.090  1.00  0.00    -0.070 C 
ATOM      9  C   UNL     1       1.378  12.595   0.052  1.00  0.00     0.008 C 
ATOM     10  C   UNL     1       1.678  14.525  -1.428  1.00  0.00     0.031 C 
ATOM     11  C   UNL     1       0.418  15.036  -2.125  1.00  0.00     0.005 C 
ATOM     12  C   UNL     1      -0.379  16.001  -1.230  1.00  0.00     0.008 C 
ATOM     13  C   UNL     1      -0.734  15.417   0.181  1.00  0.00    -0.026 C 
ATOM     14  C   UNL     1      -1.777  14.279  -0.006  1.00  0.00     0.012 C 
ATOM     15  C   UNL     1      -1.448  16.552   0.964  1.00  0.00     0.012 C 
ENDROOT
TORSDOF 0
ENDMDL
MODEL 2
REMARK VINA RESULT:    -4.500      1.278      2.866
REMARK INTER + INTRA:          -4.500
REMARK INTER:                  -4.500
REMARK INTRA:                   0.000
REMARK UNBOUND:                 0.000
REMARK SMILES C=C1CCCC(C)(C)[C@]12CC=C(C)CC2
REMARK SMILES IDX 13 1 12 2 11 3 10 4 9 5 15 6 14 7 2 8 1 9 3 10 4 11 5 12
REMARK SMILES IDX 6 13 7 14 8 15
REMARK H PARENT
REMARK Flexibility Score: inf
ROOT
ATOM      1  C   UNL     1       0.964  14.090   4.818  1.00  0.00     0.039 C 
ATOM      2  C   UNL     1       0.763  13.836   3.350  1.00  0.00    -0.077 C 
ATOM      3  C   UNL     1      -0.455  14.024   2.814  1.00  0.00    -0.027 C 
ATOM      4  C   UNL     1      -0.729  13.728   1.369  1.00  0.00     0.039 C 
ATOM      5  C   UNL     1       0.472  14.139   0.461  1.00  0.00    -0.000 C 
ATOM      6  C   UNL     1       1.677  13.282   0.988  1.00  0.00     0.017 C 
ATOM      7  C   UNL     1       1.953  13.419   2.509  1.00  0.00     0.031 C 
ATOM      8  C   UNL     1       0.705  15.667   0.587  1.00  0.00    -0.070 C 
ATOM      9  C   UNL     1       1.904  16.232   0.841  1.00  0.00     0.008 C 
ATOM     10  C   UNL     1      -0.417  16.571   0.129  1.00  0.00     0.031 C 
ATOM     11  C   UNL     1      -0.711  16.292  -1.344  1.00  0.00     0.005 C 
ATOM     12  C   UNL     1      -0.979  14.799  -1.601  1.00  0.00     0.008 C 
ATOM     13  C   UNL     1       0.155  13.849  -1.082  1.00  0.00    -0.026 C 
ATOM     14  C   UNL     1       1.418  14.065  -1.962  1.00  0.00     0.012 C 
ATOM     15  C   UNL     1      -0.329  12.396  -1.345  1.00  0.00     0.012 C 
ENDROOT
TORSDOF 0
ENDMDL
MODEL 3
REMARK VINA RESULT:    -4.475      1.388      3.108
REMARK INTER + INTRA:          -4.475
REMARK INTER:                  -4.475
REMARK INTRA:                   0.000
REMARK UNBOUND:                 0.000
REMARK SMILES C=C1CCCC(C)(C)[C@]12CC=C(C)CC2
REMARK SMILES IDX 13 1 12 2 11 3 10 4 9 5 15 6 14 7 2 8 1 9 3 10 4 11 5 12
REMARK SMILES IDX 6 13 7 14 8 15
REMARK H PARENT
REMARK Flexibility Score: inf
ROOT
ATOM      1  C   UNL     1       2.543  14.427   2.555  1.00  0.00     0.039 C 
ATOM      2  C   UNL     1       1.274  14.099   1.818  1.00  0.00    -0.077 C 
ATOM      3  C   UNL     1       0.097  14.488   2.336  1.00  0.00    -0.027 C 
ATOM      4  C   UNL     1      -1.204  14.135   1.676  1.00  0.00     0.039 C 
ATOM      5  C   UNL     1      -1.098  14.214   0.121  1.00  0.00    -0.000 C 
ATOM      6  C   UNL     1       0.017  13.173  -0.252  1.00  0.00     0.017 C 
ATOM      7  C   UNL     1       1.366  13.377   0.488  1.00  0.00     0.031 C 
ATOM      8  C   UNL     1      -0.744  15.666  -0.293  1.00  0.00    -0.070 C 
ATOM      9  C   UNL     1       0.258  15.990  -1.136  1.00  0.00     0.008 C 
ATOM     10  C   UNL     1      -1.750  16.740   0.053  1.00  0.00     0.031 C 
ATOM     11  C   UNL     1      -3.084  16.407  -0.613  1.00  0.00     0.005 C 
ATOM     12  C   UNL     1      -3.558  14.985  -0.265  1.00  0.00     0.008 C 
ATOM     13  C   UNL     1      -2.501  13.868  -0.571  1.00  0.00    -0.026 C 
ATOM     14  C   UNL     1      -2.348  13.744  -2.113  1.00  0.00     0.012 C 
ATOM     15  C   UNL     1      -3.114  12.529  -0.075  1.00  0.00     0.012 C 
ENDROOT
TORSDOF 0
ENDMDL
MODEL 4
REMARK VINA RESULT:    -4.468      1.831      4.290
REMARK INTER + INTRA:          -4.468
REMARK INTER:                  -4.468
REMARK INTRA:                   0.000
REMARK UNBOUND:                 0.000
REMARK SMILES C=C1CCCC(C)(C)[C@]12CC=C(C)CC2
REMARK SMILES IDX 13 1 12 2 11 3 10 4 9 5 15 6 14 7 2 8 1 9 3 10 4 11 5 12
REMARK SMILES IDX 6 13 7 14 8 15
REMARK H PARENT
REMARK Flexibility Score: inf
ROOT
ATOM      1  C   UNL     1      -4.024  16.149   2.577  1.00  0.00     0.039 C 
ATOM      2  C   UNL     1      -2.729  15.856   1.872  1.00  0.00    -0.077 C 
ATOM      3  C   UNL     1      -2.080  14.711   2.143  1.00  0.00    -0.027 C 
ATOM      4  C   UNL     1      -0.755  14.395   1.516  1.00  0.00     0.039 C 
ATOM      5  C   UNL     1      -0.699  14.859   0.026  1.00  0.00    -0.000 C 
ATOM      6  C   UNL     1      -0.932  16.411   0.088  1.00  0.00     0.017 C 
ATOM      7  C   UNL     1      -2.218  16.843   0.841  1.00  0.00     0.031 C 
ATOM      8  C   UNL     1      -1.788  14.107  -0.782  1.00  0.00    -0.070 C 
ATOM      9  C   UNL     1      -2.680  14.711  -1.595  1.00  0.00     0.008 C 
ATOM     10  C   UNL     1      -1.659  12.603  -0.870  1.00  0.00     0.031 C 
ATOM     11  C   UNL     1      -0.318  12.255  -1.512  1.00  0.00     0.005 C 
ATOM     12  C   UNL     1       0.857  12.932  -0.785  1.00  0.00     0.008 C 
ATOM     13  C   UNL     1       0.708  14.486  -0.642  1.00  0.00    -0.026 C 
ATOM     14  C   UNL     1       0.843  15.125  -2.052  1.00  0.00     0.012 C 
ATOM     15  C   UNL     1       1.928  14.974   0.187  1.00  0.00     0.012 C 
ENDROOT
TORSDOF 0
ENDMDL
MODEL 5
REMARK VINA RESULT:    -4.401      1.126      2.883
REMARK INTER + INTRA:          -4.401
REMARK INTER:                  -4.401
REMARK INTRA:                   0.000
REMARK UNBOUND:                 0.000
REMARK SMILES C=C1CCCC(C)(C)[C@]12CC=C(C)CC2
REMARK SMILES IDX 13 1 12 2 11 3 10 4 9 5 15 6 14 7 2 8 1 9 3 10 4 11 5 12
REMARK SMILES IDX 6 13 7 14 8 15
REMARK H PARENT
REMARK Flexibility Score: inf
ROOT
ATOM      1  C   UNL     1       2.016  13.733   4.336  1.00  0.00     0.039 C 
ATOM      2  C   UNL     1       1.958  13.997   2.857  1.00  0.00    -0.077 C 
ATOM      3  C   UNL     1       1.767  12.967   2.016  1.00  0.00    -0.027 C 
ATOM      4  C   UNL     1       1.761  13.162   0.529  1.00  0.00     0.039 C 
ATOM      5  C   UNL     1       1.055  14.494   0.126  1.00  0.00    -0.000 C 
ATOM      6  C   UNL     1       1.897  15.616   0.833  1.00  0.00     0.017 C 
ATOM      7  C   UNL     1       2.073  15.426   2.364  1.00  0.00     0.031 C 
ATOM      8  C   UNL     1      -0.423  14.449   0.596  1.00  0.00    -0.070 C 
ATOM      9  C   UNL     1      -1.022  15.428   1.306  1.00  0.00     0.008 C 
ATOM     10  C   UNL     1      -1.301  13.380  -0.012  1.00  0.00     0.031 C 
ATOM     11  C   UNL     1      -1.328  13.561  -1.529  1.00  0.00     0.005 C 
ATOM     12  C   UNL     1       0.090  13.605  -2.125  1.00  0.00     0.008 C 
ATOM     13  C   UNL     1       1.026  14.675  -1.465  1.00  0.00    -0.026 C 
ATOM     14  C   UNL     1       0.511  16.088  -1.857  1.00  0.00     0.012 C 
ATOM     15  C   UNL     1       2.422  14.510  -2.125  1.00  0.00     0.012 C 
ENDROOT
TORSDOF 0
ENDMDL
MODEL 6
REMARK VINA RESULT:    -4.372      1.795      3.088
REMARK INTER + INTRA:          -4.372
REMARK INTER:                  -4.372
REMARK INTRA:                   0.000
REMARK UNBOUND:                 0.000
REMARK SMILES C=C1CCCC(C)(C)[C@]12CC=C(C)CC2
REMARK SMILES IDX 13 1 12 2 11 3 10 4 9 5 15 6 14 7 2 8 1 9 3 10 4 11 5 12
REMARK SMILES IDX 6 13 7 14 8 15
REMARK H PARENT
REMARK Flexibility Score: inf
ROOT
ATOM      1  C   UNL     1       3.746  16.093  -2.125  1.00  0.00     0.039 C 
ATOM      2  C   UNL     1       2.454  16.073  -1.356  1.00  0.00    -0.077 C 
ATOM      3  C   UNL     1       1.295  15.951  -2.026  1.00  0.00    -0.027 C 
ATOM      4  C   UNL     1      -0.026  15.987  -1.316  1.00  0.00     0.039 C 
ATOM      5  C   UNL     1       0.037  15.240   0.053  1.00  0.00    -0.000 C 
ATOM      6  C   UNL     1       1.131  16.012   0.873  1.00  0.00     0.017 C 
ATOM      7  C   UNL     1       2.502  16.145   0.157  1.00  0.00     0.031 C 
ATOM      8  C   UNL     1       0.393  13.751  -0.195  1.00  0.00    -0.070 C 
ATOM      9  C   UNL     1       1.375  13.089   0.452  1.00  0.00     0.008 C 
ATOM     10  C   UNL     1      -0.593  12.937  -1.002  1.00  0.00     0.031 C 
ATOM     11  C   UNL     1      -1.948  12.953  -0.296  1.00  0.00     0.005 C 
ATOM     12  C   UNL     1      -2.425  14.387  -0.006  1.00  0.00     0.008 C 
ATOM     13  C   UNL     1      -1.388  15.256   0.785  1.00  0.00    -0.026 C 
ATOM     14  C   UNL     1      -1.279  14.697   2.231  1.00  0.00     0.012 C 
ATOM     15  C   UNL     1      -2.000  16.679   0.901  1.00  0.00     0.012 C 
ENDROOT
TORSDOF 0
ENDMDL
MODEL 7
REMARK VINA RESULT:    -4.316      1.993      4.757
REMARK INTER + INTRA:          -4.316
REMARK INTER:                  -4.316
REMARK INTRA:                   0.000
REMARK UNBOUND:                 0.000
REMARK SMILES C=C1CCCC(C)(C)[C@]12CC=C(C)CC2
REMARK SMILES IDX 13 1 12 2 11 3 10 4 9 5 15 6 14 7 2 8 1 9 3 10 4 11 5 12
REMARK SMILES IDX 6 13 7 14 8 15
REMARK H PARENT
REMARK Flexibility Score: inf
ROOT
ATOM      1  C   UNL     1      -3.982  10.709  -0.663  1.00  0.00     0.039 C 
ATOM      2  C   UNL     1      -3.368  12.078  -0.758  1.00  0.00    -0.077 C 
ATOM      3  C   UNL     1      -3.127  12.768   0.370  1.00  0.00    -0.027 C 
ATOM      4  C   UNL     1      -2.573  14.161   0.332  1.00  0.00     0.039 C 
ATOM      5  C   UNL     1      -1.503  14.324  -0.792  1.00  0.00    -0.000 C 
ATOM      6  C   UNL     1      -2.273  13.993  -2.121  1.00  0.00     0.017 C 
ATOM      7  C   UNL     1      -2.997  12.620  -2.124  1.00  0.00     0.031 C 
ATOM      8  C   UNL     1      -0.321  13.360  -0.513  1.00  0.00    -0.070 C 
ATOM      9  C   UNL     1       0.196  12.511  -1.426  1.00  0.00     0.008 C 
ATOM     10  C   UNL     1       0.460  13.587   0.761  1.00  0.00     0.031 C 
ATOM     11  C   UNL     1       1.041  15.000   0.744  1.00  0.00     0.005 C 
ATOM     12  C   UNL     1      -0.044  16.061   0.490  1.00  0.00     0.008 C 
ATOM     13  C   UNL     1      -0.895  15.806  -0.801  1.00  0.00    -0.026 C 
ATOM     14  C   UNL     1       0.014  16.029  -2.042  1.00  0.00     0.012 C 
ATOM     15  C   UNL     1      -1.984  16.914  -0.840  1.00  0.00     0.012 C 
ENDROOT
TORSDOF 0
ENDMDL
MODEL 8
REMARK VINA RESULT:    -4.188      1.385      3.860
REMARK INTER + INTRA:          -4.188
REMARK INTER:                  -4.188
REMARK INTRA:                   0.000
REMARK UNBOUND:                 0.000
REMARK SMILES C=C1CCCC(C)(C)[C@]12CC=C(C)CC2
REMARK SMILES IDX 13 1 12 2 11 3 10 4 9 5 15 6 14 7 2 8 1 9 3 10 4 11 5 12
REMARK SMILES IDX 6 13 7 14 8 15
REMARK H PARENT
REMARK Flexibility Score: inf
ROOT
ATOM      1  C   UNL     1      -3.512  16.367   3.118  1.00  0.00     0.039 C 
ATOM      2  C   UNL     1      -2.649  15.805   2.022  1.00  0.00    -0.077 C 
ATOM      3  C   UNL     1      -1.973  16.648   1.225  1.00  0.00    -0.027 C 
ATOM      4  C   UNL     1      -1.146  16.147   0.078  1.00  0.00     0.039 C 
ATOM      5  C   UNL     1      -0.398  14.827   0.443  1.00  0.00    -0.000 C 
ATOM      6  C   UNL     1      -1.542  13.809   0.792  1.00  0.00     0.017 C 
ATOM      7  C   UNL     1      -2.534  14.300   1.880  1.00  0.00     0.031 C 
ATOM      8  C   UNL     1       0.565  15.098   1.628  1.00  0.00    -0.070 C 
ATOM      9  C   UNL     1       0.619  14.346   2.747  1.00  0.00     0.008 C 
ATOM     10  C   UNL     1       1.682  16.088   1.389  1.00  0.00     0.031 C 
ATOM     11  C   UNL     1       2.544  15.597   0.227  1.00  0.00     0.005 C 
ATOM     12  C   UNL     1       1.701  15.305  -1.026  1.00  0.00     0.008 C 
ATOM     13  C   UNL     1       0.508  14.320  -0.778  1.00  0.00    -0.026 C 
ATOM     14  C   UNL     1       1.088  12.906  -0.493  1.00  0.00     0.012 C 
ATOM     15  C   UNL     1      -0.272  14.220  -2.118  1.00  0.00     0.012 C 
ENDROOT
TORSDOF 0
ENDMDL
