MODEL 1
REMARK VINA RESULT:    -3.808      0.000      0.000
REMARK INTER + INTRA:          -4.128
REMARK INTER:                  -4.030
REMARK INTRA:                  -0.098
REMARK UNBOUND:                -0.098
REMARK SMILES C=C(C)[C@@H]1CC=C(C)C(=O)C1
REMARK SMILES IDX 8 1 7 2 6 3 5 4 4 5 11 6 9 7 10 8 2 9 1 10 3 11
REMARK H PARENT
REMARK Flexibility Score: inf
ROOT
ATOM      1  C   UNL     1     192.577 183.861 222.876  1.00  0.00     0.048 C 
ATOM      2  C   UNL     1     191.182 183.368 223.149  1.00  0.00    -0.012 C 
ATOM      3  C   UNL     1     190.859 182.091 222.883  1.00  0.00    -0.019 C 
ATOM      4  C   UNL     1     189.483 181.542 223.155  1.00  0.00     0.036 C 
ATOM      5  C   UNL     1     188.407 182.627 222.964  1.00  0.00     0.025 C 
ATOM      6  C   UNL     1     188.726 183.857 223.834  1.00  0.00     0.089 C 
ATOM      7  C   UNL     1     190.135 184.322 223.593  1.00  0.00     0.158 C 
ATOM      8  O   UNL     1     190.428 185.530 223.809  1.00  0.00    -0.295 OA
ENDROOT
BRANCH   5   9
ATOM      9  C   UNL     1     187.014 182.086 223.255  1.00  0.00    -0.077 C 
ATOM     10  C   UNL     1     186.013 182.930 223.554  1.00  0.00     0.008 C 
ATOM     11  C   UNL     1     186.721 180.607 223.220  1.00  0.00     0.039 C 
ENDBRANCH   5   9
TORSDOF 1
ENDMDL
MODEL 2
REMARK VINA RESULT:    -3.791      7.779     10.029
REMARK INTER + INTRA:          -4.110
REMARK INTER:                  -4.013
REMARK INTRA:                  -0.098
REMARK UNBOUND:                -0.098
REMARK SMILES C=C(C)[C@@H]1CC=C(C)C(=O)C1
REMARK SMILES IDX 8 1 7 2 6 3 5 4 4 5 11 6 9 7 10 8 2 9 1 10 3 11
REMARK H PARENT
REMARK Flexibility Score: inf
ROOT
ATOM      1  C   UNL     1     180.139 189.008 222.900  1.00  0.00     0.048 C 
ATOM      2  C   UNL     1     181.543 189.468 223.180  1.00  0.00    -0.012 C 
ATOM      3  C   UNL     1     181.887 190.747 222.951  1.00  0.00    -0.019 C 
ATOM      4  C   UNL     1     183.274 191.263 223.230  1.00  0.00     0.036 C 
ATOM      5  C   UNL     1     184.330 190.167 222.999  1.00  0.00     0.025 C 
ATOM      6  C   UNL     1     183.995 188.916 223.834  1.00  0.00     0.089 C 
ATOM      7  C   UNL     1     182.576 188.483 223.588  1.00  0.00     0.158 C 
ATOM      8  O   UNL     1     182.264 187.274 223.768  1.00  0.00    -0.295 OA
ENDROOT
BRANCH   5   9
ATOM      9  C   UNL     1     185.734 190.674 223.299  1.00  0.00    -0.077 C 
ATOM     10  C   UNL     1     185.999 191.990 223.247  1.00  0.00     0.008 C 
ATOM     11  C   UNL     1     186.853 189.727 223.655  1.00  0.00     0.039 C 
ENDBRANCH   5   9
TORSDOF 1
ENDMDL
MODEL 3
REMARK VINA RESULT:    -3.741      1.273      4.421
REMARK INTER + INTRA:          -4.057
REMARK INTER:                  -3.960
REMARK INTRA:                  -0.097
REMARK UNBOUND:                -0.098
REMARK SMILES C=C(C)[C@@H]1CC=C(C)C(=O)C1
REMARK SMILES IDX 8 1 7 2 6 3 5 4 4 5 11 6 9 7 10 8 2 9 1 10 3 11
REMARK H PARENT
REMARK Flexibility Score: inf
ROOT
ATOM      1  C   UNL     1     186.783 181.534 223.221  1.00  0.00     0.048 C 
ATOM      2  C   UNL     1     188.183 182.056 223.055  1.00  0.00    -0.012 C 
ATOM      3  C   UNL     1     189.222 181.204 223.066  1.00  0.00    -0.019 C 
ATOM      4  C   UNL     1     190.642 181.672 222.886  1.00  0.00     0.036 C 
ATOM      5  C   UNL     1     190.840 183.079 223.480  1.00  0.00     0.025 C 
ATOM      6  C   UNL     1     189.821 184.063 222.877  1.00  0.00     0.089 C 
ATOM      7  C   UNL     1     188.424 183.520 223.003  1.00  0.00     0.158 C 
ATOM      8  O   UNL     1     187.453 184.324 223.029  1.00  0.00    -0.295 OA
ENDROOT
BRANCH   5   9
ATOM      9  C   UNL     1     192.268 183.569 223.284  1.00  0.00    -0.077 C 
ATOM     10  C   UNL     1     193.271 182.686 223.148  1.00  0.00     0.008 C 
ATOM     11  C   UNL     1     192.596 185.042 223.240  1.00  0.00     0.039 C 
ENDBRANCH   5   9
TORSDOF 1
ENDMDL
MODEL 4
REMARK VINA RESULT:    -3.661     16.840     17.611
REMARK INTER + INTRA:          -3.973
REMARK INTER:                  -3.875
REMARK INTRA:                  -0.098
REMARK UNBOUND:                -0.098
REMARK SMILES C=C(C)[C@@H]1CC=C(C)C(=O)C1
REMARK SMILES IDX 8 1 7 2 6 3 5 4 4 5 11 6 9 7 10 8 2 9 1 10 3 11
REMARK H PARENT
REMARK Flexibility Score: inf
ROOT
ATOM      1  C   UNL     1     181.879 182.934 238.142  1.00  0.00     0.048 C 
ATOM      2  C   UNL     1     180.661 182.067 237.974  1.00  0.00    -0.012 C 
ATOM      3  C   UNL     1     180.796 180.733 237.883  1.00  0.00    -0.019 C 
ATOM      4  C   UNL     1     179.609 179.819 237.733  1.00  0.00     0.036 C 
ATOM      5  C   UNL     1     178.484 180.500 236.931  1.00  0.00     0.025 C 
ATOM      6  C   UNL     1     178.105 181.845 237.577  1.00  0.00     0.089 C 
ATOM      7  C   UNL     1     179.329 182.694 237.786  1.00  0.00     0.158 C 
ATOM      8  O   UNL     1     179.205 183.948 237.835  1.00  0.00    -0.295 OA
ENDROOT
BRANCH   5   9
ATOM      9  C   UNL     1     177.271 179.590 236.791  1.00  0.00    -0.077 C 
ATOM     10  C   UNL     1     176.032 180.103 236.860  1.00  0.00     0.008 C 
ATOM     11  C   UNL     1     177.423 178.104 236.575  1.00  0.00     0.039 C 
ENDBRANCH   5   9
TORSDOF 1
ENDMDL
MODEL 5
REMARK VINA RESULT:    -3.657     17.205     18.108
REMARK INTER + INTRA:          -3.969
REMARK INTER:                  -3.872
REMARK INTRA:                  -0.097
REMARK UNBOUND:                -0.098
REMARK SMILES C=C(C)[C@@H]1CC=C(C)C(=O)C1
REMARK SMILES IDX 8 1 7 2 6 3 5 4 4 5 11 6 9 7 10 8 2 9 1 10 3 11
REMARK H PARENT
REMARK Flexibility Score: inf
ROOT
ATOM      1  C   UNL     1     177.684 177.778 236.406  1.00  0.00     0.048 C 
ATOM      2  C   UNL     1     178.035 179.151 236.909  1.00  0.00    -0.012 C 
ATOM      3  C   UNL     1     177.141 180.150 236.809  1.00  0.00    -0.019 C 
ATOM      4  C   UNL     1     177.435 181.538 237.313  1.00  0.00     0.036 C 
ATOM      5  C   UNL     1     178.930 181.874 237.169  1.00  0.00     0.025 C 
ATOM      6  C   UNL     1     179.789 180.806 237.871  1.00  0.00     0.089 C 
ATOM      7  C   UNL     1     179.408 179.430 237.400  1.00  0.00     0.158 C 
ATOM      8  O   UNL     1     180.260 178.502 237.461  1.00  0.00    -0.295 OA
ENDROOT
BRANCH   5   9
ATOM      9  C   UNL     1     179.240 183.269 237.695  1.00  0.00    -0.077 C 
ATOM     10  C   UNL     1     179.613 183.439 238.974  1.00  0.00     0.008 C 
ATOM     11  C   UNL     1     179.138 184.485 236.808  1.00  0.00     0.039 C 
ENDBRANCH   5   9
TORSDOF 1
ENDMDL
MODEL 6
REMARK VINA RESULT:    -3.637      8.051      9.309
REMARK INTER + INTRA:          -3.947
REMARK INTER:                  -3.850
REMARK INTRA:                  -0.098
REMARK UNBOUND:                -0.098
REMARK SMILES C=C(C)[C@@H]1CC=C(C)C(=O)C1
REMARK SMILES IDX 8 1 7 2 6 3 5 4 4 5 11 6 9 7 10 8 2 9 1 10 3 11
REMARK H PARENT
REMARK Flexibility Score: inf
ROOT
ATOM      1  C   UNL     1     185.972 191.884 223.274  1.00  0.00     0.048 C 
ATOM      2  C   UNL     1     184.741 191.041 223.085  1.00  0.00    -0.012 C 
ATOM      3  C   UNL     1     183.527 191.618 223.080  1.00  0.00    -0.019 C 
ATOM      4  C   UNL     1     182.265 190.823 222.878  1.00  0.00     0.036 C 
ATOM      5  C   UNL     1     182.402 189.408 223.469  1.00  0.00     0.025 C 
ATOM      6  C   UNL     1     183.637 188.699 222.883  1.00  0.00     0.089 C 
ATOM      7  C   UNL     1     184.859 189.562 223.031  1.00  0.00     0.158 C 
ATOM      8  O   UNL     1     185.995 189.015 223.072  1.00  0.00    -0.295 OA
ENDROOT
BRANCH   5   9
ATOM      9  C   UNL     1     181.136 188.589 223.252  1.00  0.00    -0.077 C 
ATOM     10  C   UNL     1     181.172 187.251 223.364  1.00  0.00     0.008 C 
ATOM     11  C   UNL     1     179.823 189.247 222.908  1.00  0.00     0.039 C 
ENDBRANCH   5   9
TORSDOF 1
ENDMDL
MODEL 7
REMARK VINA RESULT:    -3.520      7.723      9.593
REMARK INTER + INTRA:          -3.823
REMARK INTER:                  -3.724
REMARK INTRA:                  -0.099
REMARK UNBOUND:                -0.098
REMARK SMILES C=C(C)[C@@H]1CC=C(C)C(=O)C1
REMARK SMILES IDX 8 1 7 2 6 3 5 4 4 5 11 6 9 7 10 8 2 9 1 10 3 11
REMARK H PARENT
REMARK Flexibility Score: inf
ROOT
ATOM      1  C   UNL     1     180.832 187.659 223.043  1.00  0.00     0.048 C 
ATOM      2  C   UNL     1     182.137 188.406 223.037  1.00  0.00    -0.012 C 
ATOM      3  C   UNL     1     183.292 187.737 223.193  1.00  0.00    -0.019 C 
ATOM      4  C   UNL     1     184.627 188.434 223.177  1.00  0.00     0.036 C 
ATOM      5  C   UNL     1     184.517 189.855 223.761  1.00  0.00     0.025 C 
ATOM      6  C   UNL     1     183.433 190.656 223.018  1.00  0.00     0.089 C 
ATOM      7  C   UNL     1     182.139 189.890 222.985  1.00  0.00     0.158 C 
ATOM      8  O   UNL     1     181.053 190.522 222.875  1.00  0.00    -0.295 OA
ENDROOT
BRANCH   5   9
ATOM      9  C   UNL     1     185.858 190.574 223.731  1.00  0.00    -0.077 C 
ATOM     10  C   UNL     1     185.939 191.830 223.261  1.00  0.00     0.008 C 
ATOM     11  C   UNL     1     187.121 189.907 224.219  1.00  0.00     0.039 C 
ENDBRANCH   5   9
TORSDOF 1
ENDMDL
MODEL 8
REMARK VINA RESULT:    -3.483      9.728     12.405
REMARK INTER + INTRA:          -3.785
REMARK INTER:                  -3.689
REMARK INTRA:                  -0.096
REMARK UNBOUND:                -0.098
REMARK SMILES C=C(C)[C@@H]1CC=C(C)C(=O)C1
REMARK SMILES IDX 8 1 7 2 6 3 5 4 4 5 11 6 9 7 10 8 2 9 1 10 3 11
REMARK H PARENT
REMARK Flexibility Score: inf
ROOT
ATOM      1  C   UNL     1     176.247 188.904 223.906  1.00  0.00     0.048 C 
ATOM      2  C   UNL     1     177.704 189.269 223.975  1.00  0.00    -0.012 C 
ATOM      3  C   UNL     1     178.337 189.711 222.875  1.00  0.00    -0.019 C 
ATOM      4  C   UNL     1     179.790 190.107 222.894  1.00  0.00     0.036 C 
ATOM      5  C   UNL     1     180.582 189.258 223.904  1.00  0.00     0.025 C 
ATOM      6  C   UNL     1     179.936 189.345 225.300  1.00  0.00     0.089 C 
ATOM      7  C   UNL     1     178.470 189.023 225.224  1.00  0.00     0.158 C 
ATOM      8  O   UNL     1     177.886 188.574 226.247  1.00  0.00    -0.295 OA
ENDROOT
BRANCH   5   9
ATOM      9  C   UNL     1     182.049 189.665 223.944  1.00  0.00    -0.077 C 
ATOM     10  C   UNL     1     182.888 189.074 224.811  1.00  0.00     0.008 C 
ATOM     11  C   UNL     1     182.595 190.730 223.026  1.00  0.00     0.039 C 
ENDBRANCH   5   9
TORSDOF 1
ENDMDL
MODEL 9
REMARK VINA RESULT:    -3.479      2.179      3.603
REMARK INTER + INTRA:          -3.780
REMARK INTER:                  -3.684
REMARK INTRA:                  -0.097
REMARK UNBOUND:                -0.098
REMARK SMILES C=C(C)[C@@H]1CC=C(C)C(=O)C1
REMARK SMILES IDX 8 1 7 2 6 3 5 4 4 5 11 6 9 7 10 8 2 9 1 10 3 11
REMARK H PARENT
REMARK Flexibility Score: inf
ROOT
ATOM      1  C   UNL     1     194.706 185.984 223.352  1.00  0.00     0.048 C 
ATOM      2  C   UNL     1     193.443 185.190 223.168  1.00  0.00    -0.012 C 
ATOM      3  C   UNL     1     192.249 185.804 223.243  1.00  0.00    -0.019 C 
ATOM      4  C   UNL     1     190.954 185.060 223.048  1.00  0.00     0.036 C 
ATOM      5  C   UNL     1     191.067 183.610 223.555  1.00  0.00     0.025 C 
ATOM      6  C   UNL     1     192.255 182.898 222.882  1.00  0.00     0.089 C 
ATOM      7  C   UNL     1     193.510 183.714 223.028  1.00  0.00     0.158 C 
ATOM      8  O   UNL     1     194.629 183.131 222.994  1.00  0.00    -0.295 OA
ENDROOT
BRANCH   5   9
ATOM      9  C   UNL     1     189.769 182.844 223.345  1.00  0.00    -0.077 C 
ATOM     10  C   UNL     1     189.724 181.521 223.570  1.00  0.00     0.008 C 
ATOM     11  C   UNL     1     188.512 183.538 222.882  1.00  0.00     0.039 C 
ENDBRANCH   5   9
TORSDOF 1
ENDMDL
