MODEL 1
REMARK VINA RESULT:    -2.811      0.000      0.000
REMARK INTER + INTRA:          -4.908
REMARK INTER:                  -4.291
REMARK INTRA:                  -0.617
REMARK UNBOUND:                -0.617
REMARK SMILES O=C([O-])CCCCCCCCC(=O)[O-]
REMARK SMILES IDX 7 1 6 2 5 3 4 4 2 5 1 6 3 7 8 8 9 9 10 10 11 11 12 12 13 13
REMARK SMILES IDX 14 14
REMARK H PARENT
REMARK Flexibility Score: inf
ROOT
ATOM      1  C   UNL     1      14.927  26.577  20.158  1.00  0.00     0.000 C 
ENDROOT
BRANCH   1   2
ATOM      2  C   UNL     1      15.048  27.751  19.179  1.00  0.00     0.000 C 
BRANCH   2   3
ATOM      3  C   UNL     1      15.063  29.092  19.928  1.00  0.00     0.006 C 
BRANCH   3   4
ATOM      4  C   UNL     1      14.333  30.197  19.154  1.00  0.00     0.053 C 
BRANCH   4   5
ATOM      5  C   UNL     1      12.846  30.081  19.291  1.00  0.00     0.041 C 
ATOM      6  O   UNL     1      12.111  30.095  18.269  1.00  0.00    -0.550 OA
ATOM      7  O   UNL     1      12.269  29.990  20.552  1.00  0.00    -0.550 OA
ENDBRANCH   4   5
ENDBRANCH   3   4
ENDBRANCH   2   3
ENDBRANCH   1   2
BRANCH   1   8
ATOM      8  C   UNL     1      13.958  26.913  21.302  1.00  0.00     0.000 C 
BRANCH   8   9
ATOM      9  C   UNL     1      14.559  26.630  22.688  1.00  0.00     0.000 C 
BRANCH   9  10
ATOM     10  C   UNL     1      13.486  26.510  23.785  1.00  0.00     0.006 C 
BRANCH  10  11
ATOM     11  C   UNL     1      13.739  27.477  24.949  1.00  0.00     0.053 C 
BRANCH  11  12
ATOM     12  C   UNL     1      13.088  28.805  24.719  1.00  0.00     0.041 C 
ATOM     13  O   UNL     1      12.106  28.904  23.937  1.00  0.00    -0.550 OA
ATOM     14  O   UNL     1      13.590  29.941  25.341  1.00  0.00    -0.550 OA
ENDBRANCH  11  12
ENDBRANCH  10  11
ENDBRANCH   9  10
ENDBRANCH   8   9
ENDBRANCH   1   8
TORSDOF 9
ENDMDL
MODEL 2
REMARK VINA RESULT:    -2.783      1.444      5.623
REMARK INTER + INTRA:          -4.865
REMARK INTER:                  -4.090
REMARK INTRA:                  -0.775
REMARK UNBOUND:                -0.617
REMARK SMILES O=C([O-])CCCCCCCCC(=O)[O-]
REMARK SMILES IDX 7 1 6 2 5 3 4 4 2 5 1 6 3 7 8 8 9 9 10 10 11 11 12 12 13 13
REMARK SMILES IDX 14 14
REMARK H PARENT
REMARK Flexibility Score: inf
ROOT
ATOM      1  C   UNL     1      14.008  27.785  20.496  1.00  0.00     0.000 C 
ENDROOT
BRANCH   1   2
ATOM      2  C   UNL     1      13.995  26.683  21.561  1.00  0.00     0.000 C 
BRANCH   2   3
ATOM      3  C   UNL     1      14.523  27.209  22.904  1.00  0.00     0.006 C 
BRANCH   3   4
ATOM      4  C   UNL     1      13.516  27.004  24.043  1.00  0.00     0.053 C 
BRANCH   4   5
ATOM      5  C   UNL     1      12.860  28.291  24.443  1.00  0.00     0.041 C 
ATOM      6  O   UNL     1      12.110  28.898  23.633  1.00  0.00    -0.550 OA
ATOM      7  O   UNL     1      13.104  28.836  25.696  1.00  0.00    -0.550 OA
ENDBRANCH   4   5
ENDBRANCH   3   4
ENDBRANCH   2   3
ENDBRANCH   1   2
BRANCH   1   8
ATOM      8  C   UNL     1      14.565  29.097  21.069  1.00  0.00     0.000 C 
BRANCH   8   9
ATOM      9  C   UNL     1      13.722  30.320  20.675  1.00  0.00     0.000 C 
BRANCH   9  10
ATOM     10  C   UNL     1      12.591  29.968  19.691  1.00  0.00     0.006 C 
BRANCH  10  11
ATOM     11  C   UNL     1      12.533  30.939  18.506  1.00  0.00     0.053 C 
BRANCH  11  12
ATOM     12  C   UNL     1      13.006  30.296  17.238  1.00  0.00     0.041 C 
ATOM     13  O   UNL     1      12.623  30.736  16.122  1.00  0.00    -0.550 OA
ATOM     14  O   UNL     1      13.843  29.189  17.292  1.00  0.00    -0.550 OA
ENDBRANCH  11  12
ENDBRANCH  10  11
ENDBRANCH   9  10
ENDBRANCH   8   9
ENDBRANCH   1   8
TORSDOF 9
ENDMDL
MODEL 3
REMARK VINA RESULT:    -2.751      1.518      2.389
REMARK INTER + INTRA:          -4.816
REMARK INTER:                  -4.173
REMARK INTRA:                  -0.642
REMARK UNBOUND:                -0.617
REMARK SMILES O=C([O-])CCCCCCCCC(=O)[O-]
REMARK SMILES IDX 7 1 6 2 5 3 4 4 2 5 1 6 3 7 8 8 9 9 10 10 11 11 12 12 13 13
REMARK SMILES IDX 14 14
REMARK H PARENT
REMARK Flexibility Score: inf
ROOT
ATOM      1  C   UNL     1      13.019  29.026  20.517  1.00  0.00     0.000 C 
ENDROOT
BRANCH   1   2
ATOM      2  C   UNL     1      13.195  30.548  20.576  1.00  0.00     0.000 C 
BRANCH   2   3
ATOM      3  C   UNL     1      13.466  31.125  19.178  1.00  0.00     0.006 C 
BRANCH   3   4
ATOM      4  C   UNL     1      12.397  30.705  18.161  1.00  0.00     0.053 C 
BRANCH   4   5
ATOM      5  C   UNL     1      13.008  30.182  16.897  1.00  0.00     0.041 C 
ATOM      6  O   UNL     1      12.790  30.762  15.800  1.00  0.00    -0.550 OA
ATOM      7  O   UNL     1      13.791  29.036  16.926  1.00  0.00    -0.550 OA
ENDBRANCH   4   5
ENDBRANCH   3   4
ENDBRANCH   2   3
ENDBRANCH   1   2
BRANCH   1   8
ATOM      8  C   UNL     1      14.378  28.319  20.410  1.00  0.00     0.000 C 
BRANCH   8   9
ATOM      9  C   UNL     1      14.375  26.929  21.066  1.00  0.00     0.000 C 
BRANCH   9  10
ATOM     10  C   UNL     1      14.653  26.986  22.579  1.00  0.00     0.006 C 
BRANCH  10  11
ATOM     11  C   UNL     1      13.380  26.786  23.410  1.00  0.00     0.053 C 
BRANCH  11  12
ATOM     12  C   UNL     1      13.075  27.984  24.255  1.00  0.00     0.041 C 
ATOM     13  O   UNL     1      12.147  28.770  23.930  1.00  0.00    -0.550 OA
ATOM     14  O   UNL     1      13.839  28.249  25.384  1.00  0.00    -0.550 OA
ENDBRANCH  11  12
ENDBRANCH  10  11
ENDBRANCH   9  10
ENDBRANCH   8   9
ENDBRANCH   1   8
TORSDOF 9
ENDMDL
MODEL 4
REMARK VINA RESULT:    -2.746      1.413      1.917
REMARK INTER + INTRA:          -4.808
REMARK INTER:                  -3.890
REMARK INTRA:                  -0.919
REMARK UNBOUND:                -0.617
REMARK SMILES O=C([O-])CCCCCCCCC(=O)[O-]
REMARK SMILES IDX 7 1 6 2 5 3 4 4 2 5 1 6 3 7 8 8 9 9 10 10 11 11 12 12 13 13
REMARK SMILES IDX 14 14
REMARK H PARENT
REMARK Flexibility Score: inf
ROOT
ATOM      1  C   UNL     1      15.016  26.601  21.852  1.00  0.00     0.000 C 
ENDROOT
BRANCH   1   2
ATOM      2  C   UNL     1      14.004  27.166  20.848  1.00  0.00     0.000 C 
BRANCH   2   3
ATOM      3  C   UNL     1      14.286  28.647  20.557  1.00  0.00     0.006 C 
BRANCH   3   4
ATOM      4  C   UNL     1      13.003  29.488  20.531  1.00  0.00     0.053 C 
BRANCH   4   5
ATOM      5  C   UNL     1      12.737  30.052  19.169  1.00  0.00     0.041 C 
ATOM      6  O   UNL     1      13.466  29.728  18.195  1.00  0.00    -0.550 OA
ATOM      7  O   UNL     1      11.704  30.962  18.983  1.00  0.00    -0.550 OA
ENDBRANCH   4   5
ENDBRANCH   3   4
ENDBRANCH   2   3
ENDBRANCH   1   2
BRANCH   1   8
ATOM      8  C   UNL     1      14.706  27.087  23.277  1.00  0.00     0.000 C 
BRANCH   8   9
ATOM      9  C   UNL     1      13.228  26.904  23.656  1.00  0.00     0.000 C 
BRANCH   9  10
ATOM     10  C   UNL     1      12.553  28.227  24.062  1.00  0.00     0.006 C 
BRANCH  10  11
ATOM     11  C   UNL     1      13.567  29.363  24.243  1.00  0.00     0.053 C 
BRANCH  11  12
ATOM     12  C   UNL     1      13.661  29.800  25.672  1.00  0.00     0.041 C 
ATOM     13  O   UNL     1      14.397  30.770  25.992  1.00  0.00    -0.550 OA
ATOM     14  O   UNL     1      12.961  29.113  26.656  1.00  0.00    -0.550 OA
ENDBRANCH  11  12
ENDBRANCH  10  11
ENDBRANCH   9  10
ENDBRANCH   8   9
ENDBRANCH   1   8
TORSDOF 9
ENDMDL
MODEL 5
REMARK VINA RESULT:    -2.609      2.326      6.352
REMARK INTER + INTRA:          -4.599
REMARK INTER:                  -4.114
REMARK INTRA:                  -0.484
REMARK UNBOUND:                -0.617
REMARK SMILES O=C([O-])CCCCCCCCC(=O)[O-]
REMARK SMILES IDX 7 1 6 2 5 3 4 4 2 5 1 6 3 7 8 8 9 9 10 10 11 11 12 12 13 13
REMARK SMILES IDX 14 14
REMARK H PARENT
REMARK Flexibility Score: inf
ROOT
ATOM      1  C   UNL     1      12.911  29.260  22.930  1.00  0.00     0.000 C 
ENDROOT
BRANCH   1   2
ATOM      2  C   UNL     1      14.053  28.488  22.257  1.00  0.00     0.000 C 
BRANCH   2   3
ATOM      3  C   UNL     1      13.902  26.976  22.482  1.00  0.00     0.006 C 
BRANCH   3   4
ATOM      4  C   UNL     1      13.104  26.655  23.752  1.00  0.00     0.053 C 
BRANCH   4   5
ATOM      5  C   UNL     1      14.002  26.320  24.903  1.00  0.00     0.041 C 
ATOM      6  O   UNL     1      14.471  27.235  25.629  1.00  0.00    -0.550 OA
ATOM      7  O   UNL     1      14.348  24.998  25.153  1.00  0.00    -0.550 OA
ENDBRANCH   4   5
ENDBRANCH   3   4
ENDBRANCH   2   3
ENDBRANCH   1   2
BRANCH   1   8
ATOM      8  C   UNL     1      12.111  30.069  21.897  1.00  0.00     0.000 C 
BRANCH   8   9
ATOM      9  C   UNL     1      13.006  30.704  20.822  1.00  0.00     0.000 C 
BRANCH   9  10
ATOM     10  C   UNL     1      12.605  30.287  19.395  1.00  0.00     0.006 C 
BRANCH  10  11
ATOM     11  C   UNL     1      13.628  30.746  18.349  1.00  0.00     0.053 C 
BRANCH  11  12
ATOM     12  C   UNL     1      13.472  30.004  17.057  1.00  0.00     0.041 C 
ATOM     13  O   UNL     1      12.778  30.490  16.126  1.00  0.00    -0.550 OA
ATOM     14  O   UNL     1      14.064  28.758  16.896  1.00  0.00    -0.550 OA
ENDBRANCH  11  12
ENDBRANCH  10  11
ENDBRANCH   9  10
ENDBRANCH   8   9
ENDBRANCH   1   8
TORSDOF 9
ENDMDL
MODEL 6
REMARK VINA RESULT:    -2.575      1.539      5.014
REMARK INTER + INTRA:          -4.547
REMARK INTER:                  -3.861
REMARK INTRA:                  -0.686
REMARK UNBOUND:                -0.617
REMARK SMILES O=C([O-])CCCCCCCCC(=O)[O-]
REMARK SMILES IDX 7 1 6 2 5 3 4 4 2 5 1 6 3 7 8 8 9 9 10 10 11 11 12 12 13 13
REMARK SMILES IDX 14 14
REMARK H PARENT
REMARK Flexibility Score: inf
ROOT
ATOM      1  C   UNL     1      13.386  26.697  23.446  1.00  0.00     0.000 C 
ENDROOT
BRANCH   1   2
ATOM      2  C   UNL     1      13.952  26.385  24.836  1.00  0.00     0.000 C 
BRANCH   2   3
ATOM      3  C   UNL     1      15.029  27.405  25.233  1.00  0.00     0.006 C 
BRANCH   3   4
ATOM      4  C   UNL     1      14.610  28.250  26.443  1.00  0.00     0.053 C 
BRANCH   4   5
ATOM      5  C   UNL     1      13.792  29.436  26.036  1.00  0.00     0.041 C 
ATOM      6  O   UNL     1      14.353  30.526  25.750  1.00  0.00    -0.550 OA
ATOM      7  O   UNL     1      12.406  29.347  26.003  1.00  0.00    -0.550 OA
ENDBRANCH   4   5
ENDBRANCH   3   4
ENDBRANCH   2   3
ENDBRANCH   1   2
BRANCH   1   8
ATOM      8  C   UNL     1      14.498  26.690  22.386  1.00  0.00     0.000 C 
BRANCH   8   9
ATOM      9  C   UNL     1      13.989  27.094  20.993  1.00  0.00     0.000 C 
BRANCH   9  10
ATOM     10  C   UNL     1      14.314  28.558  20.645  1.00  0.00     0.006 C 
BRANCH  10  11
ATOM     11  C   UNL     1      13.061  29.350  20.250  1.00  0.00     0.053 C 
BRANCH  11  12
ATOM     12  C   UNL     1      12.508  30.126  21.405  1.00  0.00     0.041 C 
ATOM     13  O   UNL     1      11.446  30.789  21.273  1.00  0.00    -0.550 OA
ATOM     14  O   UNL     1      13.185  30.143  22.617  1.00  0.00    -0.550 OA
ENDBRANCH  11  12
ENDBRANCH  10  11
ENDBRANCH   9  10
ENDBRANCH   8   9
ENDBRANCH   1   8
TORSDOF 9
ENDMDL
MODEL 7
REMARK VINA RESULT:    -2.555      1.394      5.568
REMARK INTER + INTRA:          -4.517
REMARK INTER:                  -3.999
REMARK INTRA:                  -0.518
REMARK UNBOUND:                -0.617
REMARK SMILES O=C([O-])CCCCCCCCC(=O)[O-]
REMARK SMILES IDX 7 1 6 2 5 3 4 4 2 5 1 6 3 7 8 8 9 9 10 10 11 11 12 12 13 13
REMARK SMILES IDX 14 14
REMARK H PARENT
REMARK Flexibility Score: inf
ROOT
ATOM      1  C   UNL     1      13.374  26.678  23.293  1.00  0.00     0.000 C 
ENDROOT
BRANCH   1   2
ATOM      2  C   UNL     1      13.962  26.231  24.636  1.00  0.00     0.000 C 
BRANCH   2   3
ATOM      3  C   UNL     1      14.278  27.441  25.529  1.00  0.00     0.006 C 
BRANCH   3   4
ATOM      4  C   UNL     1      13.369  28.639  25.224  1.00  0.00     0.053 C 
BRANCH   4   5
ATOM      5  C   UNL     1      13.307  29.596  26.375  1.00  0.00     0.041 C 
ATOM      6  O   UNL     1      12.487  29.407  27.312  1.00  0.00    -0.550 OA
ATOM      7  O   UNL     1      14.130  30.714  26.396  1.00  0.00    -0.550 OA
ENDBRANCH   4   5
ENDBRANCH   3   4
ENDBRANCH   2   3
ENDBRANCH   1   2
BRANCH   1   8
ATOM      8  C   UNL     1      14.464  26.753  22.213  1.00  0.00     0.000 C 
BRANCH   8   9
ATOM      9  C   UNL     1      14.033  27.581  20.993  1.00  0.00     0.000 C 
BRANCH   9  10
ATOM     10  C   UNL     1      13.940  29.087  21.302  1.00  0.00     0.006 C 
BRANCH  10  11
ATOM     11  C   UNL     1      13.878  29.936  20.026  1.00  0.00     0.053 C 
BRANCH  11  12
ATOM     12  C   UNL     1      12.471  30.313  19.679  1.00  0.00     0.041 C 
ATOM     13  O   UNL     1      11.702  30.777  20.561  1.00  0.00    -0.550 OA
ATOM     14  O   UNL     1      11.999  30.118  18.387  1.00  0.00    -0.550 OA
ENDBRANCH  11  12
ENDBRANCH  10  11
ENDBRANCH   9  10
ENDBRANCH   8   9
ENDBRANCH   1   8
TORSDOF 9
ENDMDL
MODEL 8
REMARK VINA RESULT:    -2.446      2.648      3.265
REMARK INTER + INTRA:          -4.351
REMARK INTER:                  -3.868
REMARK INTRA:                  -0.482
REMARK UNBOUND:                -0.617
REMARK SMILES O=C([O-])CCCCCCCCC(=O)[O-]
REMARK SMILES IDX 7 1 6 2 5 3 4 4 2 5 1 6 3 7 8 8 9 9 10 10 11 11 12 12 13 13
REMARK SMILES IDX 14 14
REMARK H PARENT
REMARK Flexibility Score: inf
ROOT
ATOM      1  C   UNL     1      13.003  29.344  22.185  1.00  0.00     0.000 C 
ENDROOT
BRANCH   1   2
ATOM      2  C   UNL     1      12.079  30.362  21.507  1.00  0.00     0.000 C 
BRANCH   2   3
ATOM      3  C   UNL     1      12.750  30.976  20.269  1.00  0.00     0.006 C 
BRANCH   3   4
ATOM      4  C   UNL     1      12.081  30.526  18.964  1.00  0.00     0.053 C 
BRANCH   4   5
ATOM      5  C   UNL     1      13.076  29.960  17.997  1.00  0.00     0.041 C 
ATOM      6  O   UNL     1      12.948  30.167  16.762  1.00  0.00    -0.550 OA
ATOM      7  O   UNL     1      14.127  29.177  18.459  1.00  0.00    -0.550 OA
ENDBRANCH   4   5
ENDBRANCH   3   4
ENDBRANCH   2   3
ENDBRANCH   1   2
BRANCH   1   8
ATOM      8  C   UNL     1      12.475  28.962  23.576  1.00  0.00     0.000 C 
BRANCH   8   9
ATOM      9  C   UNL     1      13.414  29.406  24.708  1.00  0.00     0.000 C 
BRANCH   9  10
ATOM     10  C   UNL     1      14.667  28.518  24.821  1.00  0.00     0.006 C 
BRANCH  10  11
ATOM     11  C   UNL     1      14.362  27.167  25.480  1.00  0.00     0.053 C 
BRANCH  11  12
ATOM     12  C   UNL     1      14.637  26.023  24.554  1.00  0.00     0.041 C 
ATOM     13  O   UNL     1      14.774  26.226  23.319  1.00  0.00    -0.550 OA
ATOM     14  O   UNL     1      14.708  24.729  25.052  1.00  0.00    -0.550 OA
ENDBRANCH  11  12
ENDBRANCH  10  11
ENDBRANCH   9  10
ENDBRANCH   8   9
ENDBRANCH   1   8
TORSDOF 9
ENDMDL
MODEL 9
REMARK VINA RESULT:    -2.273      1.718      2.675
REMARK INTER + INTRA:          -4.086
REMARK INTER:                  -3.270
REMARK INTRA:                  -0.816
REMARK UNBOUND:                -0.617
REMARK SMILES O=C([O-])CCCCCCCCC(=O)[O-]
REMARK SMILES IDX 7 1 6 2 5 3 4 4 2 5 1 6 3 7 8 8 9 9 10 10 11 11 12 12 13 13
REMARK SMILES IDX 14 14
REMARK H PARENT
REMARK Flexibility Score: inf
ROOT
ATOM      1  C   UNL     1      13.618  26.627  22.642  1.00  0.00     0.000 C 
ENDROOT
BRANCH   1   2
ATOM      2  C   UNL     1      14.773  27.382  21.973  1.00  0.00     0.000 C 
BRANCH   2   3
ATOM      3  C   UNL     1      14.329  27.991  20.634  1.00  0.00     0.006 C 
BRANCH   3   4
ATOM      4  C   UNL     1      14.187  29.517  20.711  1.00  0.00     0.053 C 
BRANCH   4   5
ATOM      5  C   UNL     1      12.753  29.945  20.642  1.00  0.00     0.041 C 
ATOM      6  O   UNL     1      12.058  30.003  21.691  1.00  0.00    -0.550 OA
ATOM      7  O   UNL     1      12.176  30.248  19.416  1.00  0.00    -0.550 OA
ENDBRANCH   4   5
ENDBRANCH   3   4
ENDBRANCH   2   3
ENDBRANCH   1   2
BRANCH   1   8
ATOM      8  C   UNL     1      13.334  27.187  24.044  1.00  0.00     0.000 C 
BRANCH   8   9
ATOM      9  C   UNL     1      14.339  28.273  24.462  1.00  0.00     0.000 C 
BRANCH   9  10
ATOM     10  C   UNL     1      13.661  29.620  24.773  1.00  0.00     0.006 C 
BRANCH  10  11
ATOM     11  C   UNL     1      14.122  30.204  26.114  1.00  0.00     0.053 C 
BRANCH  11  12
ATOM     12  C   UNL     1      13.674  29.363  27.269  1.00  0.00     0.041 C 
ATOM     13  O   UNL     1      12.458  29.327  27.594  1.00  0.00    -0.550 OA
ATOM     14  O   UNL     1      14.605  28.645  28.008  1.00  0.00    -0.550 OA
ENDBRANCH  11  12
ENDBRANCH  10  11
ENDBRANCH   9  10
ENDBRANCH   8   9
ENDBRANCH   1   8
TORSDOF 9
ENDMDL
