MODEL 1
REMARK VINA RESULT:    -2.580      0.000      0.000
REMARK INTER + INTRA:          -0.269
REMARK INTER:                  -3.258
REMARK INTRA:                   2.990
REMARK UNBOUND:                 2.990
REMARK SMILES C=C1CC[C@@H]2[C@@H]([C@H]3[C@H]1CC[C@]3(C)O)C2(C)C
REMARK SMILES IDX 2 1 1 2 8 3 7 4 11 5 9 6 10 7 12 8 6 9 15 10 14 11 5 12
REMARK SMILES IDX 16 13 13 15 3 17 4 18
REMARK H PARENT 13 16
REMARK Flexibility Score: 90.00
ROOT
ATOM      1  C   UNL     1     -20.864 -38.266   8.042  1.00  0.00    -0.074 C 
ATOM      2  C   UNL     1     -19.707 -38.747   7.553  1.00  0.00     0.008 C 
ENDROOT
BRANCH   1   3
ATOM      3  C   UNL     1     -22.219 -38.688   7.476  1.00  0.00     0.021 C 
ATOM      4  C   UNL     1     -22.504 -38.021   6.127  1.00  0.00     0.032 C 
ATOM      5  C   UNL     1     -23.750 -38.757   5.581  1.00  0.00     0.066 C 
ATOM      6  C   UNL     1     -22.475 -40.174   7.217  1.00  0.00     0.011 C 
ATOM      7  C   UNL     1     -23.534 -40.217   6.096  1.00  0.00     0.036 C 
ATOM      8  C   UNL     1     -25.086 -38.215   6.118  1.00  0.00     0.042 C 
BRANCH   4   9
ATOM      9  C   UNL     1     -22.243 -36.473   6.041  1.00  0.00     0.005 C 
ATOM     10  C   UNL     1     -22.072 -33.857   5.901  1.00  0.00     0.011 C 
ATOM     11  C   UNL     1     -22.918 -35.093   6.251  1.00  0.00    -0.029 C 
ATOM     12  C   UNL     1     -22.491 -35.880   7.464  1.00  0.00    -0.001 CG0
ATOM     13  C   UNL     1     -24.422 -34.962   5.999  1.00  0.00     0.011 C 
ATOM     14  G   UNL     1     -21.156 -35.741   8.222  1.00  0.00     0.000 G0
ENDBRANCH   4   9
BRANCH   5  15
ATOM     15  O   UNL     1     -23.797 -38.713   4.172  1.00  0.00    -0.390 OA
ATOM     16  H   UNL     1     -23.479 -37.822   3.868  1.00  0.00     0.211 HD
ENDBRANCH   5  15
ENDBRANCH   1   3
BRANCH   1  17
ATOM     17  C   UNL     1     -20.840 -37.065   8.980  1.00  0.00     0.031 C 
BRANCH  17  18
ATOM     18  C   UNL     1     -21.147 -35.738   8.245  1.00  0.00     0.009 CG0
ATOM     19  G   UNL     1     -22.476 -35.855   7.472  1.00  0.00     0.000 G0
ENDBRANCH  17  18
ENDBRANCH   1  17
TORSDOF 1
ENDMDL
MODEL 2
REMARK VINA RESULT:    -2.544      1.311      1.525
REMARK INTER + INTRA:          -0.224
REMARK INTER:                  -3.270
REMARK INTRA:                   3.046
REMARK UNBOUND:                 2.990
REMARK SMILES C=C1CC[C@@H]2[C@@H]([C@H]3[C@H]1CC[C@]3(C)O)C2(C)C
REMARK SMILES IDX 2 1 1 2 8 3 7 4 11 5 9 6 10 7 12 8 6 9 15 10 14 11 5 12
REMARK SMILES IDX 16 13 13 15 3 17 4 18
REMARK H PARENT 13 16
REMARK Flexibility Score: 90.00
ROOT
ATOM      1  C   UNL     1     -21.003 -39.510   7.734  1.00  0.00    -0.074 C 
ATOM      2  C   UNL     1     -20.359 -40.527   7.135  1.00  0.00     0.008 C 
ENDROOT
BRANCH   1   3
ATOM      3  C   UNL     1     -22.417 -39.096   7.328  1.00  0.00     0.021 C 
ATOM      4  C   UNL     1     -22.425 -38.324   6.005  1.00  0.00     0.032 C 
ATOM      5  C   UNL     1     -23.918 -38.232   5.614  1.00  0.00     0.066 C 
ATOM      6  C   UNL     1     -23.471 -40.186   7.128  1.00  0.00     0.011 C 
ATOM      7  C   UNL     1     -24.488 -39.594   6.130  1.00  0.00     0.036 C 
ATOM      8  C   UNL     1     -24.674 -37.072   6.282  1.00  0.00     0.042 C 
BRANCH   4   9
ATOM      9  C   UNL     1     -21.368 -37.169   5.861  1.00  0.00     0.005 C 
ATOM     10  C   UNL     1     -19.804 -35.070   5.650  1.00  0.00     0.011 C 
ATOM     11  C   UNL     1     -21.150 -35.655   6.111  1.00  0.00    -0.029 C 
ATOM     12  C   UNL     1     -21.109 -36.595   7.289  1.00  0.00    -0.001 CG0
ATOM     13  C   UNL     1     -22.352 -34.712   6.015  1.00  0.00     0.011 C 
ATOM     14  G   UNL     1     -19.849 -37.240   7.902  1.00  0.00     0.000 G0
ENDBRANCH   4   9
BRANCH   5  15
ATOM     15  O   UNL     1     -24.077 -38.108   4.217  1.00  0.00    -0.390 OA
ATOM     16  H   UNL     1     -24.314 -37.168   4.003  1.00  0.00     0.211 HD
ENDBRANCH   5  15
ENDBRANCH   1   3
BRANCH   1  17
ATOM     17  C   UNL     1     -20.226 -38.557   8.635  1.00  0.00     0.031 C 
BRANCH  17  18
ATOM     18  C   UNL     1     -19.851 -37.240   7.915  1.00  0.00     0.009 CG0
ATOM     19  G   UNL     1     -21.106 -36.607   7.281  1.00  0.00     0.000 G0
ENDBRANCH  17  18
ENDBRANCH   1  17
TORSDOF 1
ENDMDL
MODEL 3
REMARK VINA RESULT:    -2.494      2.069      4.784
REMARK INTER + INTRA:          -0.160
REMARK INTER:                  -3.186
REMARK INTRA:                   3.026
REMARK UNBOUND:                 2.990
REMARK SMILES C=C1CC[C@@H]2[C@@H]([C@H]3[C@H]1CC[C@]3(C)O)C2(C)C
REMARK SMILES IDX 2 1 1 2 8 3 7 4 11 5 9 6 10 7 12 8 6 9 15 10 14 11 5 12
REMARK SMILES IDX 16 13 13 15 3 17 4 18
REMARK H PARENT 13 16
REMARK Flexibility Score: 90.00
ROOT
ATOM      1  C   UNL     1     -23.950 -35.283   6.674  1.00  0.00    -0.074 C 
ATOM      2  C   UNL     1     -24.813 -35.466   5.659  1.00  0.00     0.008 C 
ENDROOT
BRANCH   1   3
ATOM      3  C   UNL     1     -22.605 -34.586   6.477  1.00  0.00     0.021 C 
ATOM      4  C   UNL     1     -21.591 -35.497   5.777  1.00  0.00     0.032 C 
ATOM      5  C   UNL     1     -20.412 -34.564   5.415  1.00  0.00     0.066 C 
ATOM      6  C   UNL     1     -22.563 -33.290   5.666  1.00  0.00     0.011 C 
ATOM      7  C   UNL     1     -21.134 -33.216   5.088  1.00  0.00     0.036 C 
ATOM      8  C   UNL     1     -19.408 -34.345   6.559  1.00  0.00     0.042 C 
BRANCH   4   9
ATOM      9  C   UNL     1     -21.463 -36.962   6.333  1.00  0.00     0.005 C 
ATOM     10  C   UNL     1     -21.016 -39.334   7.366  1.00  0.00     0.011 C 
ATOM     11  C   UNL     1     -20.698 -37.829   7.366  1.00  0.00    -0.029 C 
ATOM     12  C   UNL     1     -21.785 -36.909   7.860  1.00  0.00    -0.001 CG0
ATOM     13  C   UNL     1     -19.256 -37.454   7.717  1.00  0.00     0.011 C 
ATOM     14  G   UNL     1     -23.260 -37.285   8.106  1.00  0.00     0.000 G0
ENDBRANCH   4   9
BRANCH   5  15
ATOM     15  O   UNL     1     -19.699 -35.046   4.297  1.00  0.00    -0.390 OA
ATOM     16  H   UNL     1     -20.340 -35.221   3.559  1.00  0.00     0.211 HD
ENDBRANCH   5  15
ENDBRANCH   1   3
BRANCH   1  17
ATOM     17  C   UNL     1     -24.169 -36.027   7.987  1.00  0.00     0.031 C 
BRANCH  17  18
ATOM     18  C   UNL     1     -23.270 -37.280   8.109  1.00  0.00     0.009 CG0
ATOM     19  G   UNL     1     -21.796 -36.902   7.862  1.00  0.00     0.000 G0
ENDBRANCH  17  18
ENDBRANCH   1  17
TORSDOF 1
ENDMDL
MODEL 4
REMARK VINA RESULT:    -2.493      2.424      4.338
REMARK INTER + INTRA:          -0.159
REMARK INTER:                  -3.100
REMARK INTRA:                   2.941
REMARK UNBOUND:                 2.990
REMARK SMILES C=C1CC[C@@H]2[C@@H]([C@H]3[C@H]1CC[C@]3(C)O)C2(C)C
REMARK SMILES IDX 2 1 1 2 8 3 7 4 11 5 9 6 10 7 12 8 6 9 15 10 14 11 5 12
REMARK SMILES IDX 16 13 13 15 3 17 4 18
REMARK H PARENT 13 16
REMARK Flexibility Score: 90.00
ROOT
ATOM      1  C   UNL     1     -22.196 -37.345   6.562  1.00  0.00    -0.074 C 
ATOM      2  C   UNL     1     -22.580 -38.015   5.462  1.00  0.00     0.008 C 
ENDROOT
BRANCH   1   3
ATOM      3  C   UNL     1     -22.428 -35.842   6.716  1.00  0.00     0.021 C 
ATOM      4  C   UNL     1     -21.452 -35.027   5.861  1.00  0.00     0.032 C 
ATOM      5  C   UNL     1     -21.997 -33.580   5.918  1.00  0.00     0.066 C 
ATOM      6  C   UNL     1     -23.801 -35.272   6.358  1.00  0.00     0.011 C 
ATOM      7  C   UNL     1     -23.543 -33.802   5.965  1.00  0.00     0.036 C 
ATOM      8  C   UNL     1     -21.554 -32.788   7.159  1.00  0.00     0.042 C 
BRANCH   4   9
ATOM      9  C   UNL     1     -19.937 -35.439   5.941  1.00  0.00     0.005 C 
ATOM     10  C   UNL     1     -17.368 -35.906   6.215  1.00  0.00     0.011 C 
ATOM     11  C   UNL     1     -18.621 -35.165   6.713  1.00  0.00    -0.029 C 
ATOM     12  C   UNL     1     -19.684 -36.005   7.373  1.00  0.00    -0.001 CG0
ATOM     13  C   UNL     1     -18.381 -33.766   7.288  1.00  0.00     0.011 C 
ATOM     14  G   UNL     1     -19.773 -37.545   7.360  1.00  0.00     0.000 G0
ENDBRANCH   4   9
BRANCH   5  15
ATOM     15  O   UNL     1     -21.620 -32.844   4.775  1.00  0.00    -0.390 OA
ATOM     16  H   UNL     1     -21.631 -33.448   3.986  1.00  0.00     0.211 HD
ENDBRANCH   5  15
ENDBRANCH   1   3
BRANCH   1  17
ATOM     17  C   UNL     1     -21.258 -38.015   7.560  1.00  0.00     0.031 C 
BRANCH  17  18
ATOM     18  C   UNL     1     -19.788 -37.570   7.375  1.00  0.00     0.009 CG0
ATOM     19  G   UNL     1     -19.696 -36.030   7.366  1.00  0.00     0.000 G0
ENDBRANCH  17  18
ENDBRANCH   1  17
TORSDOF 1
ENDMDL
MODEL 5
REMARK VINA RESULT:    -2.455      1.715      3.829
REMARK INTER + INTRA:          -0.112
REMARK INTER:                  -3.094
REMARK INTRA:                   2.983
REMARK UNBOUND:                 2.990
REMARK SMILES C=C1CC[C@@H]2[C@@H]([C@H]3[C@H]1CC[C@]3(C)O)C2(C)C
REMARK SMILES IDX 2 1 1 2 8 3 7 4 11 5 9 6 10 7 12 8 6 9 15 10 14 11 5 12
REMARK SMILES IDX 16 13 13 15 3 17 4 18
REMARK H PARENT 13 16
REMARK Flexibility Score: 90.00
ROOT
ATOM      1  C   UNL     1     -21.806 -36.017   5.847  1.00  0.00    -0.074 C 
ATOM      2  C   UNL     1     -22.707 -35.112   6.267  1.00  0.00     0.008 C 
ENDROOT
BRANCH   1   3
ATOM      3  C   UNL     1     -22.120 -37.512   5.802  1.00  0.00     0.021 C 
ATOM      4  C   UNL     1     -22.110 -38.137   7.200  1.00  0.00     0.032 C 
ATOM      5  C   UNL     1     -22.709 -39.550   7.002  1.00  0.00     0.066 C 
ATOM      6  C   UNL     1     -23.454 -37.962   5.203  1.00  0.00     0.011 C 
ATOM      7  C   UNL     1     -23.769 -39.313   5.878  1.00  0.00     0.036 C 
ATOM      8  C   UNL     1     -21.692 -40.604   6.535  1.00  0.00     0.042 C 
BRANCH   4   9
ATOM      9  C   UNL     1     -20.884 -37.783   8.118  1.00  0.00     0.005 C 
ATOM     10  C   UNL     1     -18.750 -37.438   9.608  1.00  0.00     0.011 C 
ATOM     11  C   UNL     1     -19.455 -38.244   8.504  1.00  0.00    -0.029 C 
ATOM     12  C   UNL     1     -19.656 -37.547   7.183  1.00  0.00    -0.001 CG0
ATOM     13  C   UNL     1     -19.127 -39.739   8.460  1.00  0.00     0.011 C 
ATOM     14  G   UNL     1     -19.479 -36.040   6.907  1.00  0.00     0.000 G0
ENDBRANCH   4   9
BRANCH   5  15
ATOM     15  O   UNL     1     -23.314 -40.022   8.186  1.00  0.00    -0.390 OA
ATOM     16  H   UNL     1     -24.003 -40.696   7.946  1.00  0.00     0.211 HD
ENDBRANCH   5  15
ENDBRANCH   1   3
BRANCH   1  17
ATOM     17  C   UNL     1     -20.348 -35.603   5.683  1.00  0.00     0.031 C 
BRANCH  17  18
ATOM     18  C   UNL     1     -19.477 -36.025   6.890  1.00  0.00     0.009 CG0
ATOM     19  G   UNL     1     -19.648 -37.532   7.167  1.00  0.00     0.000 G0
ENDBRANCH  17  18
ENDBRANCH   1  17
TORSDOF 1
ENDMDL
MODEL 6
REMARK VINA RESULT:    -2.409     10.755     13.918
REMARK INTER + INTRA:          -0.054
REMARK INTER:                  -3.054
REMARK INTRA:                   3.001
REMARK UNBOUND:                 2.990
REMARK SMILES C=C1CC[C@@H]2[C@@H]([C@H]3[C@H]1CC[C@]3(C)O)C2(C)C
REMARK SMILES IDX 2 1 1 2 8 3 7 4 11 5 9 6 10 7 12 8 6 9 15 10 14 11 5 12
REMARK SMILES IDX 16 13 13 15 3 17 4 18
REMARK H PARENT 13 16
REMARK Flexibility Score: 90.00
ROOT
ATOM      1  C   UNL     1     -18.237 -23.273   5.353  1.00  0.00    -0.074 C 
ATOM      2  C   UNL     1     -17.868 -22.769   6.543  1.00  0.00     0.008 C 
ENDROOT
BRANCH   1   3
ATOM      3  C   UNL     1     -19.509 -22.816   4.640  1.00  0.00     0.021 C 
ATOM      4  C   UNL     1     -20.765 -23.410   5.286  1.00  0.00     0.032 C 
ATOM      5  C   UNL     1     -21.940 -22.642   4.637  1.00  0.00     0.066 C 
ATOM      6  C   UNL     1     -19.807 -21.318   4.559  1.00  0.00     0.011 C 
ATOM      7  C   UNL     1     -21.341 -21.212   4.438  1.00  0.00     0.036 C 
ATOM      8  C   UNL     1     -22.387 -23.205   3.278  1.00  0.00     0.042 C 
BRANCH   4   9
ATOM      9  C   UNL     1     -20.736 -24.952   5.590  1.00  0.00     0.005 C 
ATOM     10  C   UNL     1     -20.853 -27.557   5.892  1.00  0.00     0.011 C 
ATOM     11  C   UNL     1     -21.067 -26.338   4.980  1.00  0.00    -0.029 C 
ATOM     12  C   UNL     1     -19.826 -25.620   4.511  1.00  0.00    -0.001 CG0
ATOM     13  C   UNL     1     -22.225 -26.447   3.985  1.00  0.00     0.011 C 
ATOM     14  G   UNL     1     -18.398 -25.808   5.062  1.00  0.00     0.000 G0
ENDBRANCH   4   9
BRANCH   5  15
ATOM     15  O   UNL     1     -23.067 -22.611   5.486  1.00  0.00    -0.390 OA
ATOM     16  H   UNL     1     -23.889 -22.600   4.929  1.00  0.00     0.211 HD
ENDBRANCH   5  15
ENDBRANCH   1   3
BRANCH   1  17
ATOM     17  C   UNL     1     -17.547 -24.523   4.820  1.00  0.00     0.031 C 
BRANCH  17  18
ATOM     18  C   UNL     1     -18.377 -25.805   5.069  1.00  0.00     0.009 CG0
ATOM     19  G   UNL     1     -19.810 -25.620   4.530  1.00  0.00     0.000 G0
ENDBRANCH  17  18
ENDBRANCH   1  17
TORSDOF 1
ENDMDL
MODEL 7
REMARK VINA RESULT:    -2.335      2.328      4.174
REMARK INTER + INTRA:           0.040
REMARK INTER:                  -2.948
REMARK INTRA:                   2.988
REMARK UNBOUND:                 2.990
REMARK SMILES C=C1CC[C@@H]2[C@@H]([C@H]3[C@H]1CC[C@]3(C)O)C2(C)C
REMARK SMILES IDX 2 1 1 2 8 3 7 4 11 5 9 6 10 7 12 8 6 9 15 10 14 11 5 12
REMARK SMILES IDX 16 13 13 15 3 17 4 18
REMARK H PARENT 13 16
REMARK Flexibility Score: 90.00
ROOT
ATOM      1  C   UNL     1     -19.392 -34.476   5.387  1.00  0.00    -0.074 C 
ATOM      2  C   UNL     1     -18.903 -34.783   4.172  1.00  0.00     0.008 C 
ENDROOT
BRANCH   1   3
ATOM      3  C   UNL     1     -19.194 -35.392   6.593  1.00  0.00     0.021 C 
ATOM      4  C   UNL     1     -20.106 -36.622   6.528  1.00  0.00     0.032 C 
ATOM      5  C   UNL     1     -19.588 -37.554   7.648  1.00  0.00     0.066 C 
ATOM      6  C   UNL     1     -17.804 -35.975   6.851  1.00  0.00     0.011 C 
ATOM      7  C   UNL     1     -18.048 -37.288   7.625  1.00  0.00     0.036 C 
ATOM      8  C   UNL     1     -20.144 -37.230   9.045  1.00  0.00     0.042 C 
BRANCH   4   9
ATOM      9  C   UNL     1     -21.617 -36.356   6.183  1.00  0.00     0.005 C 
ATOM     10  C   UNL     1     -24.193 -35.965   5.861  1.00  0.00     0.011 C 
ATOM     11  C   UNL     1     -22.996 -36.054   6.823  1.00  0.00    -0.029 C 
ATOM     12  C   UNL     1     -21.980 -34.944   6.739  1.00  0.00    -0.001 CG0
ATOM     13  C   UNL     1     -23.301 -36.615   8.214  1.00  0.00     0.011 C 
ATOM     14  G   UNL     1     -21.868 -33.887   5.621  1.00  0.00     0.000 G0
ENDBRANCH   4   9
BRANCH   5  15
ATOM     15  O   UNL     1     -19.878 -38.906   7.367  1.00  0.00    -0.390 OA
ATOM     16  H   UNL     1     -19.574 -39.464   8.130  1.00  0.00     0.211 HD
ENDBRANCH   5  15
ENDBRANCH   1   3
BRANCH   1  17
ATOM     17  C   UNL     1     -20.405 -33.346   5.524  1.00  0.00     0.031 C 
BRANCH  17  18
ATOM     18  C   UNL     1     -21.858 -33.868   5.622  1.00  0.00     0.009 CG0
ATOM     19  G   UNL     1     -21.966 -34.933   6.731  1.00  0.00     0.000 G0
ENDBRANCH  17  18
ENDBRANCH   1  17
TORSDOF 1
ENDMDL
MODEL 8
REMARK VINA RESULT:    -2.296      3.516      5.389
REMARK INTER + INTRA:           0.089
REMARK INTER:                  -2.990
REMARK INTRA:                   3.079
REMARK UNBOUND:                 2.990
REMARK SMILES C=C1CC[C@@H]2[C@@H]([C@H]3[C@H]1CC[C@]3(C)O)C2(C)C
REMARK SMILES IDX 2 1 1 2 8 3 7 4 11 5 9 6 10 7 12 8 6 9 15 10 14 11 5 12
REMARK SMILES IDX 16 13 13 15 3 17 4 18
REMARK H PARENT 13 16
REMARK Flexibility Score: 90.00
ROOT
ATOM      1  C   UNL     1     -19.982 -34.396   4.865  1.00  0.00    -0.074 C 
ATOM      2  C   UNL     1     -20.535 -33.182   5.040  1.00  0.00     0.008 C 
ENDROOT
BRANCH   1   3
ATOM      3  C   UNL     1     -20.427 -35.612   5.675  1.00  0.00     0.021 C 
ATOM      4  C   UNL     1     -19.875 -35.575   7.104  1.00  0.00     0.032 C 
ATOM      5  C   UNL     1     -20.632 -36.702   7.845  1.00  0.00     0.066 C 
ATOM      6  C   UNL     1     -21.925 -35.861   5.861  1.00  0.00     0.011 C 
ATOM      7  C   UNL     1     -22.046 -36.655   7.179  1.00  0.00     0.036 C 
ATOM      8  C   UNL     1     -20.022 -38.100   7.658  1.00  0.00     0.042 C 
BRANCH   4   9
ATOM      9  C   UNL     1     -18.346 -35.245   7.256  1.00  0.00     0.005 C 
ATOM     10  C   UNL     1     -15.756 -34.950   7.571  1.00  0.00     0.011 C 
ATOM     11  C   UNL     1     -16.941 -35.898   7.320  1.00  0.00    -0.029 C 
ATOM     12  C   UNL     1     -17.624 -35.784   5.981  1.00  0.00    -0.001 CG0
ATOM     13  C   UNL     1     -16.807 -37.301   7.916  1.00  0.00     0.011 C 
ATOM     14  G   UNL     1     -17.441 -34.648   4.954  1.00  0.00     0.000 G0
ENDBRANCH   4   9
BRANCH   5  15
ATOM     15  O   UNL     1     -20.711 -36.443   9.230  1.00  0.00    -0.390 OA
ATOM     16  H   UNL     1     -20.689 -37.307   9.719  1.00  0.00     0.211 HD
ENDBRANCH   5  15
ENDBRANCH   1   3
BRANCH   1  17
ATOM     17  C   UNL     1     -18.696 -34.524   4.057  1.00  0.00     0.031 C 
BRANCH  17  18
ATOM     18  C   UNL     1     -17.444 -34.642   4.959  1.00  0.00     0.009 CG0
ATOM     19  G   UNL     1     -17.624 -35.795   5.967  1.00  0.00     0.000 G0
ENDBRANCH  17  18
ENDBRANCH   1  17
TORSDOF 1
ENDMDL
MODEL 9
REMARK VINA RESULT:    -2.157     14.158     16.839
REMARK INTER + INTRA:           0.265
REMARK INTER:                  -2.807
REMARK INTRA:                   3.072
REMARK UNBOUND:                 2.990
REMARK SMILES C=C1CC[C@@H]2[C@@H]([C@H]3[C@H]1CC[C@]3(C)O)C2(C)C
REMARK SMILES IDX 2 1 1 2 8 3 7 4 11 5 9 6 10 7 12 8 6 9 15 10 14 11 5 12
REMARK SMILES IDX 16 13 13 15 3 17 4 18
REMARK H PARENT 13 16
REMARK Flexibility Score: 90.00
ROOT
ATOM      1  C   UNL     1     -10.974 -25.143   4.392  1.00  0.00    -0.074 C 
ATOM      2  C   UNL     1     -10.200 -25.811   5.265  1.00  0.00     0.008 C 
ENDROOT
BRANCH   1   3
ATOM      3  C   UNL     1     -11.384 -23.689   4.620  1.00  0.00     0.021 C 
ATOM      4  C   UNL     1     -12.484 -23.569   5.680  1.00  0.00     0.032 C 
ATOM      5  C   UNL     1     -12.575 -22.055   5.981  1.00  0.00     0.066 C 
ATOM      6  C   UNL     1     -10.319 -22.690   5.076  1.00  0.00     0.011 C 
ATOM      7  C   UNL     1     -11.089 -21.592   5.838  1.00  0.00     0.036 C 
ATOM      8  C   UNL     1     -13.455 -21.269   4.994  1.00  0.00     0.042 C 
BRANCH   4   9
ATOM      9  C   UNL     1     -13.705 -24.550   5.537  1.00  0.00     0.005 C 
ATOM     10  C   UNL     1     -15.885 -25.978   5.216  1.00  0.00     0.011 C 
ATOM     11  C   UNL     1     -15.105 -24.693   4.888  1.00  0.00    -0.029 C 
ATOM     12  C   UNL     1     -13.886 -24.848   4.015  1.00  0.00    -0.001 CG0
ATOM     13  C   UNL     1     -15.954 -23.436   4.681  1.00  0.00     0.011 C 
ATOM     14  G   UNL     1     -13.187 -26.173   3.646  1.00  0.00     0.000 G0
ENDBRANCH   4   9
BRANCH   5  15
ATOM     15  O   UNL     1     -13.063 -21.818   7.283  1.00  0.00    -0.390 OA
ATOM     16  H   UNL     1     -12.492 -21.131   7.719  1.00  0.00     0.211 HD
ENDBRANCH   5  15
ENDBRANCH   1   3
BRANCH   1  17
ATOM     17  C   UNL     1     -11.702 -25.912   3.295  1.00  0.00     0.031 C 
BRANCH  17  18
ATOM     18  C   UNL     1     -13.184 -26.181   3.649  1.00  0.00     0.009 CG0
ATOM     19  G   UNL     1     -13.893 -24.859   4.006  1.00  0.00     0.000 G0
ENDBRANCH  17  18
ENDBRANCH   1  17
TORSDOF 1
ENDMDL
