MODEL 1
REMARK VINA RESULT:    -4.514      0.000      0.000
REMARK INTER + INTRA:          -5.236
REMARK INTER:                  -5.174
REMARK INTRA:                  -0.062
REMARK UNBOUND:                -0.062
REMARK SMILES CC(C)[C@H]([NH3+])C(=O)[O-]
REMARK SMILES IDX 4 1 5 2 6 6 7 7 8 8 2 9 1 10 3 11
REMARK H PARENT 5 3 5 4 5 5
REMARK Flexibility Score: inf
ROOT
ATOM      1  C   UNL     1      19.615  24.003  29.028  1.00  0.00     0.230 C 
ENDROOT
BRANCH   1   2
ATOM      2  N   UNL     1      20.699  24.848  29.554  1.00  0.00    -0.350 N 
ATOM      3  H   UNL     1      21.209  24.345  30.316  1.00  0.00     0.345 HD
ATOM      4  H   UNL     1      21.377  25.094  28.797  1.00  0.00     0.345 HD
ATOM      5  H   UNL     1      20.306  25.722  29.971  1.00  0.00     0.345 HD
ENDBRANCH   1   2
BRANCH   1   6
ATOM      6  C   UNL     1      18.928  23.305  30.176  1.00  0.00     0.099 C 
ATOM      7  O   UNL     1      18.815  22.051  30.178  1.00  0.00    -0.544 OA
ATOM      8  O   UNL     1      18.419  24.040  31.240  1.00  0.00    -0.544 OA
ENDBRANCH   1   6
BRANCH   1   9
ATOM      9  C   UNL     1      20.141  22.967  27.988  1.00  0.00     0.047 C 
ATOM     10  C   UNL     1      21.604  23.237  27.600  1.00  0.00     0.014 C 
ATOM     11  C   UNL     1      19.276  22.968  26.715  1.00  0.00     0.014 C 
ENDBRANCH   1   9
TORSDOF 3
ENDMDL
MODEL 2
REMARK VINA RESULT:    -4.411      3.940      4.303
REMARK INTER + INTRA:          -5.117
REMARK INTER:                  -5.063
REMARK INTRA:                  -0.055
REMARK UNBOUND:                -0.062
REMARK SMILES CC(C)[C@H]([NH3+])C(=O)[O-]
REMARK SMILES IDX 4 1 5 2 6 6 7 7 8 8 2 9 1 10 3 11
REMARK H PARENT 5 3 5 4 5 5
REMARK Flexibility Score: inf
ROOT
ATOM      1  C   UNL     1      23.131  25.305  30.951  1.00  0.00     0.230 C 
ENDROOT
BRANCH   1   2
ATOM      2  N   UNL     1      24.561  24.974  31.048  1.00  0.00    -0.350 N 
ATOM      3  H   UNL     1      25.139  25.838  30.929  1.00  0.00     0.345 HD
ATOM      4  H   UNL     1      24.780  24.546  31.977  1.00  0.00     0.345 HD
ATOM      5  H   UNL     1      24.833  24.314  30.284  1.00  0.00     0.345 HD
ENDBRANCH   1   2
BRANCH   1   6
ATOM      6  C   UNL     1      22.624  25.720  32.310  1.00  0.00     0.099 C 
ATOM      7  O   UNL     1      22.301  24.849  33.159  1.00  0.00    -0.544 OA
ATOM      8  O   UNL     1      22.512  27.067  32.634  1.00  0.00    -0.544 OA
ENDBRANCH   1   6
BRANCH   1   9
ATOM      9  C   UNL     1      22.297  24.112  30.392  1.00  0.00     0.047 C 
ATOM     10  C   UNL     1      23.189  23.053  29.721  1.00  0.00     0.014 C 
ATOM     11  C   UNL     1      21.244  24.595  29.380  1.00  0.00     0.014 C 
ENDBRANCH   1   9
TORSDOF 3
ENDMDL
MODEL 3
REMARK VINA RESULT:    -4.389      2.438      3.033
REMARK INTER + INTRA:          -5.092
REMARK INTER:                  -5.103
REMARK INTRA:                   0.011
REMARK UNBOUND:                -0.062
REMARK SMILES CC(C)[C@H]([NH3+])C(=O)[O-]
REMARK SMILES IDX 4 1 5 2 6 6 7 7 8 8 2 9 1 10 3 11
REMARK H PARENT 5 3 5 4 5 5
REMARK Flexibility Score: inf
ROOT
ATOM      1  C   UNL     1      20.715  23.183  27.897  1.00  0.00     0.230 C 
ENDROOT
BRANCH   1   2
ATOM      2  N   UNL     1      19.254  23.010  27.881  1.00  0.00    -0.350 N 
ATOM      3  H   UNL     1      18.781  23.934  28.017  1.00  0.00     0.345 HD
ATOM      4  H   UNL     1      18.940  22.600  26.972  1.00  0.00     0.345 HD
ATOM      5  H   UNL     1      18.953  22.392  28.668  1.00  0.00     0.345 HD
ENDBRANCH   1   2
BRANCH   1   6
ATOM      6  C   UNL     1      21.066  24.362  28.770  1.00  0.00     0.099 C 
ATOM      7  O   UNL     1      20.267  24.749  29.664  1.00  0.00    -0.544 OA
ATOM      8  O   UNL     1      22.273  25.028  28.597  1.00  0.00    -0.544 OA
ENDBRANCH   1   6
BRANCH   1   9
ATOM      9  C   UNL     1      21.293  23.369  26.461  1.00  0.00     0.047 C 
ATOM     10  C   UNL     1      20.305  22.897  25.381  1.00  0.00     0.014 C 
ATOM     11  C   UNL     1      22.620  22.609  26.293  1.00  0.00     0.014 C 
ENDBRANCH   1   9
TORSDOF 3
ENDMDL
MODEL 4
REMARK VINA RESULT:    -4.319      3.440      4.013
REMARK INTER + INTRA:          -5.012
REMARK INTER:                  -4.956
REMARK INTRA:                  -0.057
REMARK UNBOUND:                -0.062
REMARK SMILES CC(C)[C@H]([NH3+])C(=O)[O-]
REMARK SMILES IDX 4 1 5 2 6 6 7 7 8 8 2 9 1 10 3 11
REMARK H PARENT 5 3 5 4 5 5
REMARK Flexibility Score: inf
ROOT
ATOM      1  C   UNL     1      22.764  24.513  30.744  1.00  0.00     0.230 C 
ENDROOT
BRANCH   1   2
ATOM      2  N   UNL     1      23.004  23.141  31.218  1.00  0.00    -0.350 N 
ATOM      3  H   UNL     1      23.369  23.158  32.198  1.00  0.00     0.345 HD
ATOM      4  H   UNL     1      22.120  22.581  31.195  1.00  0.00     0.345 HD
ATOM      5  H   UNL     1      23.730  22.676  30.627  1.00  0.00     0.345 HD
ENDBRANCH   1   2
BRANCH   1   6
ATOM      6  C   UNL     1      22.516  25.412  31.930  1.00  0.00     0.099 C 
ATOM      7  O   UNL     1      22.510  26.663  31.787  1.00  0.00    -0.544 OA
ATOM      8  O   UNL     1      22.291  24.866  33.188  1.00  0.00    -0.544 OA
ENDBRANCH   1   6
BRANCH   1   9
ATOM      9  C   UNL     1      21.571  24.580  29.743  1.00  0.00     0.047 C 
ATOM     10  C   UNL     1      20.474  23.557  30.088  1.00  0.00     0.014 C 
ATOM     11  C   UNL     1      22.042  24.340  28.298  1.00  0.00     0.014 C 
ENDBRANCH   1   9
TORSDOF 3
ENDMDL
MODEL 5
REMARK VINA RESULT:    -4.314      1.840      2.445
REMARK INTER + INTRA:          -5.007
REMARK INTER:                  -5.015
REMARK INTRA:                   0.008
REMARK UNBOUND:                -0.062
REMARK SMILES CC(C)[C@H]([NH3+])C(=O)[O-]
REMARK SMILES IDX 4 1 5 2 6 6 7 7 8 8 2 9 1 10 3 11
REMARK H PARENT 5 3 5 4 5 5
REMARK Flexibility Score: inf
ROOT
ATOM      1  C   UNL     1      20.172  23.061  28.321  1.00  0.00     0.230 C 
ENDROOT
BRANCH   1   2
ATOM      2  N   UNL     1      18.889  22.884  27.622  1.00  0.00    -0.350 N 
ATOM      3  H   UNL     1      18.161  23.505  28.047  1.00  0.00     0.345 HD
ATOM      4  H   UNL     1      18.984  23.119  26.608  1.00  0.00     0.345 HD
ATOM      5  H   UNL     1      18.553  21.900  27.726  1.00  0.00     0.345 HD
ENDBRANCH   1   2
BRANCH   1   6
ATOM      6  C   UNL     1      20.010  24.100  29.403  1.00  0.00     0.099 C 
ATOM      7  O   UNL     1      20.755  25.114  29.425  1.00  0.00    -0.544 OA
ATOM      8  O   UNL     1      19.034  23.945  30.381  1.00  0.00    -0.544 OA
ENDBRANCH   1   6
BRANCH   1   9
ATOM      9  C   UNL     1      21.315  23.462  27.339  1.00  0.00     0.047 C 
ATOM     10  C   UNL     1      21.036  22.978  25.906  1.00  0.00     0.014 C 
ATOM     11  C   UNL     1      22.670  22.899  27.804  1.00  0.00     0.014 C 
ENDBRANCH   1   9
TORSDOF 3
ENDMDL
MODEL 6
REMARK VINA RESULT:    -4.169      2.951      3.495
REMARK INTER + INTRA:          -4.840
REMARK INTER:                  -4.789
REMARK INTRA:                  -0.051
REMARK UNBOUND:                -0.062
REMARK SMILES CC(C)[C@H]([NH3+])C(=O)[O-]
REMARK SMILES IDX 4 1 5 2 6 6 7 7 8 8 2 9 1 10 3 11
REMARK H PARENT 5 3 5 4 5 5
REMARK Flexibility Score: inf
ROOT
ATOM      1  C   UNL     1      21.776  23.837  29.617  1.00  0.00     0.230 C 
ENDROOT
BRANCH   1   2
ATOM      2  N   UNL     1      20.782  23.694  30.692  1.00  0.00    -0.350 N 
ATOM      3  H   UNL     1      19.884  24.154  30.415  1.00  0.00     0.345 HD
ATOM      4  H   UNL     1      20.597  22.684  30.894  1.00  0.00     0.345 HD
ATOM      5  H   UNL     1      21.117  24.170  31.560  1.00  0.00     0.345 HD
ENDBRANCH   1   2
BRANCH   1   6
ATOM      6  C   UNL     1      22.512  25.143  29.791  1.00  0.00     0.099 C 
ATOM      7  O   UNL     1      21.878  26.195  30.067  1.00  0.00    -0.544 OA
ATOM      8  O   UNL     1      23.894  25.192  29.652  1.00  0.00    -0.544 OA
ENDBRANCH   1   6
BRANCH   1   9
ATOM      9  C   UNL     1      21.117  23.760  28.206  1.00  0.00     0.047 C 
ATOM     10  C   UNL     1      19.730  23.098  28.256  1.00  0.00     0.014 C 
ATOM     11  C   UNL     1      22.007  22.985  27.218  1.00  0.00     0.014 C 
ENDBRANCH   1   9
TORSDOF 3
ENDMDL
MODEL 7
REMARK VINA RESULT:    -4.156      3.088      3.754
REMARK INTER + INTRA:          -4.825
REMARK INTER:                  -4.765
REMARK INTRA:                  -0.060
REMARK UNBOUND:                -0.062
REMARK SMILES CC(C)[C@H]([NH3+])C(=O)[O-]
REMARK SMILES IDX 4 1 5 2 6 6 7 7 8 8 2 9 1 10 3 11
REMARK H PARENT 5 3 5 4 5 5
REMARK Flexibility Score: inf
ROOT
ATOM      1  C   UNL     1      22.115  23.692  26.877  1.00  0.00     0.230 C 
ENDROOT
BRANCH   1   2
ATOM      2  N   UNL     1      23.198  23.238  25.990  1.00  0.00    -0.350 N 
ATOM      3  H   UNL     1      23.660  24.061  25.539  1.00  0.00     0.345 HD
ATOM      4  H   UNL     1      23.915  22.699  26.527  1.00  0.00     0.345 HD
ATOM      5  H   UNL     1      22.812  22.643  25.223  1.00  0.00     0.345 HD
ENDBRANCH   1   2
BRANCH   1   6
ATOM      6  C   UNL     1      22.611  23.699  28.302  1.00  0.00     0.099 C 
ATOM      7  O   UNL     1      22.736  24.786  28.924  1.00  0.00    -0.544 OA
ATOM      8  O   UNL     1      22.930  22.505  28.939  1.00  0.00    -0.544 OA
ENDBRANCH   1   6
BRANCH   1   9
ATOM      9  C   UNL     1      20.843  22.801  26.740  1.00  0.00     0.047 C 
ATOM     10  C   UNL     1      20.263  22.844  25.316  1.00  0.00     0.014 C 
ATOM     11  C   UNL     1      19.753  23.229  27.739  1.00  0.00     0.014 C 
ENDBRANCH   1   9
TORSDOF 3
ENDMDL
MODEL 8
REMARK VINA RESULT:    -3.975      3.168      4.048
REMARK INTER + INTRA:          -4.618
REMARK INTER:                  -4.588
REMARK INTRA:                  -0.030
REMARK UNBOUND:                -0.062
REMARK SMILES CC(C)[C@H]([NH3+])C(=O)[O-]
REMARK SMILES IDX 4 1 5 2 6 6 7 7 8 8 2 9 1 10 3 11
REMARK H PARENT 5 3 5 4 5 5
REMARK Flexibility Score: inf
ROOT
ATOM      1  C   UNL     1      20.264  23.369  27.386  1.00  0.00     0.230 C 
ENDROOT
BRANCH   1   2
ATOM      2  N   UNL     1      18.972  22.777  27.004  1.00  0.00    -0.350 N 
ATOM      3  H   UNL     1      19.120  21.822  26.602  1.00  0.00     0.345 HD
ATOM      4  H   UNL     1      18.339  22.702  27.833  1.00  0.00     0.345 HD
ATOM      5  H   UNL     1      18.514  23.355  26.263  1.00  0.00     0.345 HD
ENDBRANCH   1   2
BRANCH   1   6
ATOM      6  C   UNL     1      21.356  22.770  26.535  1.00  0.00     0.099 C 
ATOM      7  O   UNL     1      22.505  22.586  27.017  1.00  0.00    -0.544 OA
ATOM      8  O   UNL     1      21.102  22.415  25.216  1.00  0.00    -0.544 OA
ENDBRANCH   1   6
BRANCH   1   9
ATOM      9  C   UNL     1      20.570  23.164  28.901  1.00  0.00     0.047 C 
ATOM     10  C   UNL     1      19.330  22.685  29.676  1.00  0.00     0.014 C 
ATOM     11  C   UNL     1      21.093  24.461  29.544  1.00  0.00     0.014 C 
ENDBRANCH   1   9
TORSDOF 3
ENDMDL
MODEL 9
REMARK VINA RESULT:    -3.945      1.341      1.497
REMARK INTER + INTRA:          -4.584
REMARK INTER:                  -4.536
REMARK INTRA:                  -0.048
REMARK UNBOUND:                -0.062
REMARK SMILES CC(C)[C@H]([NH3+])C(=O)[O-]
REMARK SMILES IDX 4 1 5 2 6 6 7 7 8 8 2 9 1 10 3 11
REMARK H PARENT 5 3 5 4 5 5
REMARK Flexibility Score: inf
ROOT
ATOM      1  C   UNL     1      20.881  24.010  28.228  1.00  0.00     0.230 C 
ENDROOT
BRANCH   1   2
ATOM      2  N   UNL     1      22.033  24.748  28.770  1.00  0.00    -0.350 N 
ATOM      3  H   UNL     1      21.781  25.182  29.689  1.00  0.00     0.345 HD
ATOM      4  H   UNL     1      22.850  24.111  28.909  1.00  0.00     0.345 HD
ATOM      5  H   UNL     1      22.299  25.527  28.126  1.00  0.00     0.345 HD
ENDBRANCH   1   2
BRANCH   1   6
ATOM      6  C   UNL     1      20.070  23.447  29.370  1.00  0.00     0.099 C 
ATOM      7  O   UNL     1      19.268  22.498  29.169  1.00  0.00    -0.544 OA
ATOM      8  O   UNL     1      20.205  23.971  30.650  1.00  0.00    -0.544 OA
ENDBRANCH   1   6
BRANCH   1   9
ATOM      9  C   UNL     1      21.327  22.874  27.257  1.00  0.00     0.047 C 
ATOM     10  C   UNL     1      22.844  22.898  27.005  1.00  0.00     0.014 C 
ATOM     11  C   UNL     1      20.593  22.976  25.908  1.00  0.00     0.014 C 
ENDBRANCH   1   9
TORSDOF 3
ENDMDL
