MODEL 1
REMARK VINA RESULT:    -8.093      0.000      0.000
REMARK INTER + INTRA:         -15.339
REMARK INTER:                 -13.298
REMARK INTRA:                  -2.041
REMARK UNBOUND:                -2.041
REMARK SMILES COc1ccc([C@@H]2CC(=O)c3c(O)cc(O[C@@H]4O[C@@H](CO[C@H]5O[C@@H](C)[C@H](O)[C@@H](O)[C@@H]5O)[C@@H](O)[C@@H](O)[C@H]4O)cc3O2)cc1O
REMARK SMILES IDX 19 1 32 2 34 3 36 4 17 5 18 6 20 7 21 8 22 9 25 10 24 11
REMARK SMILES IDX 26 12 23 13 28 14 30 15 27 16 29 18 31 20 33 22 35 24 16 26
REMARK SMILES IDX 15 27 14 28 38 29 12 30 39 31 11 32 40 33 9 34 7 35 10 36
REMARK SMILES IDX 8 37 13 38 6 40 41 41 5 42 42 43 4 44 3 45 43 46 2 48 1 49
REMARK SMILES IDX 37 50
REMARK H PARENT 27 17 29 19 31 21 33 23 35 25 13 39 43 47 37 51
REMARK Flexibility Score: inf
ROOT
ATOM      1  C   UNL     1      14.221  24.202  45.360  1.00  0.00     0.180 C 
ATOM      2  C   UNL     1      13.646  24.506  46.787  1.00  0.00     0.177 C 
ATOM      3  C   UNL     1      14.124  25.934  47.190  1.00  0.00     0.180 C 
ATOM      4  C   UNL     1      15.570  26.227  46.658  1.00  0.00     0.214 C 
ATOM      5  C   UNL     1      16.297  24.888  46.357  1.00  0.00     0.339 C 
ATOM      6  O   UNL     1      15.645  24.154  45.324  1.00  0.00    -0.332 OA
ENDROOT
BRANCH   1   7
ATOM      7  C   UNL     1      13.650  22.877  44.781  1.00  0.00     0.198 C 
BRANCH   7   8
ATOM      8  O   UNL     1      14.656  21.895  44.602  1.00  0.00    -0.347 OA
BRANCH   8   9
ATOM      9  C   UNL     1      14.214  20.574  44.890  1.00  0.00     0.281 C 
ATOM     10  C   UNL     1      17.144  20.810  43.795  1.00  0.00     0.041 C 
ATOM     11  C   UNL     1      16.359  19.644  44.441  1.00  0.00     0.150 C 
ATOM     12  C   UNL     1      16.670  19.463  45.953  1.00  0.00     0.174 C 
ATOM     13  O   UNL     1      14.967  19.648  44.129  1.00  0.00    -0.344 OA
ATOM     14  C   UNL     1      15.746  20.306  46.877  1.00  0.00     0.179 C 
ATOM     15  C   UNL     1      14.292  20.202  46.395  1.00  0.00     0.202 C 
BRANCH  12  16
ATOM     16  O   UNL     1      16.533  18.097  46.285  1.00  0.00    -0.388 OA
ATOM     17  H   UNL     1      15.674  17.784  45.904  1.00  0.00     0.211 HD
ENDBRANCH  12  16
BRANCH  14  18
ATOM     18  O   UNL     1      16.107  21.660  46.937  1.00  0.00    -0.387 OA
ATOM     19  H   UNL     1      16.959  21.789  46.435  1.00  0.00     0.211 HD
ENDBRANCH  14  18
BRANCH  15  20
ATOM     20  O   UNL     1      13.834  18.895  46.593  1.00  0.00    -0.385 OA
ATOM     21  H   UNL     1      14.619  18.295  46.561  1.00  0.00     0.211 HD
ENDBRANCH  15  20
ENDBRANCH   8   9
ENDBRANCH   7   8
ENDBRANCH   1   7
BRANCH   2  22
ATOM     22  O   UNL     1      14.101  23.583  47.746  1.00  0.00    -0.387 OA
ATOM     23  H   UNL     1      14.991  23.865  48.090  1.00  0.00     0.211 HD
ENDBRANCH   2  22
BRANCH   3  24
ATOM     24  O   UNL     1      14.056  26.084  48.586  1.00  0.00    -0.387 OA
ATOM     25  H   UNL     1      14.676  26.828  48.814  1.00  0.00     0.211 HD
ENDBRANCH   3  24
BRANCH   5  26
ATOM     26  O   UNL     1      17.678  25.069  46.014  1.00  0.00    -0.462 OA
BRANCH  26  27
ATOM     27  C   UNL     1      18.020  25.927  44.951  1.00  0.00     0.130 A 
ATOM     28  C   UNL     1      18.754  27.082  45.209  1.00  0.00     0.093 A 
ATOM     29  C   UNL     1      17.809  25.527  43.626  1.00  0.00     0.094 A 
ATOM     30  C   UNL     1      19.580  27.629  44.202  1.00  0.00     0.133 A 
ATOM     31  C   UNL     1      18.617  26.034  42.617  1.00  0.00     0.138 A 
ATOM     32  C   UNL     1      19.573  27.038  42.899  1.00  0.00     0.102 A 
ATOM     33  O   UNL     1      18.536  25.448  41.350  1.00  0.00    -0.484 OA
ATOM     34  C   UNL     1      20.625  27.238  41.863  1.00  0.00     0.174 C 
ATOM     35  C   UNL     1      19.551  25.565  40.339  1.00  0.00     0.211 C 
ATOM     36  O   UNL     1      21.299  28.299  41.769  1.00  0.00    -0.294 OA
ATOM     37  C   UNL     1      20.880  26.092  40.917  1.00  0.00     0.131 C 
BRANCH  30  38
ATOM     38  O   UNL     1      20.448  28.657  44.569  1.00  0.00    -0.507 OA
ATOM     39  H   UNL     1      20.181  29.645  44.628  1.00  0.00     0.293 HD
ENDBRANCH  30  38
BRANCH  35  40
ATOM     40  C   UNL     1      19.730  24.192  39.727  1.00  0.00    -0.003 A 
ATOM     41  C   UNL     1      19.312  23.952  38.406  1.00  0.00     0.057 A 
ATOM     42  C   UNL     1      20.346  23.149  40.441  1.00  0.00     0.011 A 
ATOM     43  C   UNL     1      19.564  22.720  37.783  1.00  0.00     0.158 A 
ATOM     44  C   UNL     1      20.574  21.913  39.837  1.00  0.00     0.051 A 
ATOM     45  C   UNL     1      20.204  21.692  38.483  1.00  0.00     0.160 A 
BRANCH  43  46
ATOM     46  O   UNL     1      19.216  22.566  36.444  1.00  0.00    -0.504 OA
ATOM     47  H   UNL     1      18.275  22.729  36.108  1.00  0.00     0.293 HD
ENDBRANCH  43  46
BRANCH  45  48
ATOM     48  O   UNL     1      20.491  20.494  37.806  1.00  0.00    -0.493 OA
ATOM     49  C   UNL     1      19.540  19.461  37.544  1.00  0.00     0.278 C 
ENDBRANCH  45  48
ENDBRANCH  35  40
ENDBRANCH  26  27
ENDBRANCH   5  26
BRANCH   4  50
ATOM     50  O   UNL     1      16.285  26.992  47.590  1.00  0.00    -0.384 OA
ATOM     51  H   UNL     1      17.254  26.854  47.412  1.00  0.00     0.211 HD
ENDBRANCH   4  50
TORSDOF 15
ENDMDL
MODEL 2
REMARK VINA RESULT:    -7.719      1.612      4.596
REMARK INTER + INTRA:         -14.724
REMARK INTER:                 -12.610
REMARK INTRA:                  -2.115
REMARK UNBOUND:                -2.041
REMARK SMILES COc1ccc([C@@H]2CC(=O)c3c(O)cc(O[C@@H]4O[C@@H](CO[C@H]5O[C@@H](C)[C@H](O)[C@@H](O)[C@@H]5O)[C@@H](O)[C@@H](O)[C@H]4O)cc3O2)cc1O
REMARK SMILES IDX 19 1 32 2 34 3 36 4 17 5 18 6 20 7 21 8 22 9 25 10 24 11
REMARK SMILES IDX 26 12 23 13 28 14 30 15 27 16 29 18 31 20 33 22 35 24 16 26
REMARK SMILES IDX 15 27 14 28 38 29 12 30 39 31 11 32 40 33 9 34 7 35 10 36
REMARK SMILES IDX 8 37 13 38 6 40 41 41 5 42 42 43 4 44 3 45 43 46 2 48 1 49
REMARK SMILES IDX 37 50
REMARK H PARENT 27 17 29 19 31 21 33 23 35 25 13 39 43 47 37 51
REMARK Flexibility Score: inf
ROOT
ATOM      1  C   UNL     1      14.336  22.820  46.535  1.00  0.00     0.180 C 
ATOM      2  C   UNL     1      14.212  21.946  45.237  1.00  0.00     0.177 C 
ATOM      3  C   UNL     1      15.558  21.178  45.061  1.00  0.00     0.180 C 
ATOM      4  C   UNL     1      16.780  22.050  45.518  1.00  0.00     0.214 C 
ATOM      5  C   UNL     1      16.383  23.551  45.512  1.00  0.00     0.339 C 
ATOM      6  O   UNL     1      15.341  23.825  46.445  1.00  0.00    -0.332 OA
ENDROOT
BRANCH   1   7
ATOM      7  C   UNL     1      12.981  23.484  46.910  1.00  0.00     0.198 C 
BRANCH   7   8
ATOM      8  O   UNL     1      13.026  24.112  48.180  1.00  0.00    -0.347 OA
BRANCH   8   9
ATOM      9  C   UNL     1      12.563  25.457  48.163  1.00  0.00     0.281 C 
ATOM     10  C   UNL     1      12.943  24.193  51.009  1.00  0.00     0.041 C 
ATOM     11  C   UNL     1      12.697  25.644  50.533  1.00  0.00     0.150 C 
ATOM     12  C   UNL     1      13.998  26.491  50.458  1.00  0.00     0.174 C 
ATOM     13  O   UNL     1      11.876  25.734  49.369  1.00  0.00    -0.344 OA
ATOM     14  C   UNL     1      14.718  26.395  49.083  1.00  0.00     0.179 C 
ATOM     15  C   UNL     1      13.689  26.504  47.948  1.00  0.00     0.202 C 
BRANCH  12  16
ATOM     16  O   UNL     1      13.678  27.842  50.718  1.00  0.00    -0.388 OA
ATOM     17  H   UNL     1      12.693  27.927  50.668  1.00  0.00     0.211 HD
ENDBRANCH  12  16
BRANCH  14  18
ATOM     18  O   UNL     1      15.448  25.209  48.920  1.00  0.00    -0.387 OA
ATOM     19  H   UNL     1      16.024  25.293  48.110  1.00  0.00     0.211 HD
ENDBRANCH  14  18
BRANCH  15  20
ATOM     20  O   UNL     1      13.151  27.794  47.937  1.00  0.00    -0.385 OA
ATOM     21  H   UNL     1      13.592  28.297  47.210  1.00  0.00     0.211 HD
ENDBRANCH  15  20
ENDBRANCH   8   9
ENDBRANCH   7   8
ENDBRANCH   1   7
BRANCH   2  22
ATOM     22  O   UNL     1      13.980  22.732  44.094  1.00  0.00    -0.387 OA
ATOM     23  H   UNL     1      14.715  23.393  43.984  1.00  0.00     0.211 HD
ENDBRANCH   2  22
BRANCH   3  24
ATOM     24  O   UNL     1      15.700  20.765  43.726  1.00  0.00    -0.387 OA
ATOM     25  H   UNL     1      16.355  21.390  43.311  1.00  0.00     0.211 HD
ENDBRANCH   3  24
BRANCH   5  26
ATOM     26  O   UNL     1      17.494  24.422  45.768  1.00  0.00    -0.462 OA
BRANCH  26  27
ATOM     27  C   UNL     1      17.835  25.403  44.817  1.00  0.00     0.130 A 
ATOM     28  C   UNL     1      18.502  26.555  45.226  1.00  0.00     0.093 A 
ATOM     29  C   UNL     1      17.696  25.138  43.449  1.00  0.00     0.094 A 
ATOM     30  C   UNL     1      19.339  27.242  44.320  1.00  0.00     0.133 A 
ATOM     31  C   UNL     1      18.518  25.785  42.535  1.00  0.00     0.138 A 
ATOM     32  C   UNL     1      19.413  26.793  42.963  1.00  0.00     0.102 A 
ATOM     33  O   UNL     1      18.515  25.334  41.212  1.00  0.00    -0.484 OA
ATOM     34  C   UNL     1      20.494  27.149  42.002  1.00  0.00     0.174 C 
ATOM     35  C   UNL     1      19.563  25.603  40.264  1.00  0.00     0.211 C 
ATOM     36  O   UNL     1      21.119  28.243  42.050  1.00  0.00    -0.294 OA
ATOM     37  C   UNL     1      20.841  26.123  40.953  1.00  0.00     0.131 C 
BRANCH  30  38
ATOM     38  O   UNL     1      20.142  28.262  44.831  1.00  0.00    -0.507 OA
ATOM     39  H   UNL     1      20.584  28.240  45.756  1.00  0.00     0.293 HD
ENDBRANCH  30  38
BRANCH  35  40
ATOM     40  C   UNL     1      19.832  24.313  39.520  1.00  0.00    -0.003 A 
ATOM     41  C   UNL     1      20.504  23.258  40.162  1.00  0.00     0.057 A 
ATOM     42  C   UNL     1      19.388  24.126  38.199  1.00  0.00     0.011 A 
ATOM     43  C   UNL     1      20.670  22.017  39.528  1.00  0.00     0.158 A 
ATOM     44  C   UNL     1      19.575  22.904  37.553  1.00  0.00     0.051 A 
ATOM     45  C   UNL     1      20.201  21.821  38.225  1.00  0.00     0.160 A 
BRANCH  43  46
ATOM     46  O   UNL     1      21.258  20.976  40.243  1.00  0.00    -0.504 OA
ATOM     47  H   UNL     1      22.154  20.582  39.985  1.00  0.00     0.293 HD
ENDBRANCH  43  46
BRANCH  45  48
ATOM     48  O   UNL     1      20.334  20.547  37.647  1.00  0.00    -0.493 OA
ATOM     49  C   UNL     1      19.264  19.614  37.481  1.00  0.00     0.278 C 
ENDBRANCH  45  48
ENDBRANCH  35  40
ENDBRANCH  26  27
ENDBRANCH   5  26
BRANCH   4  50
ATOM     50  O   UNL     1      17.882  21.815  44.684  1.00  0.00    -0.384 OA
ATOM     51  H   UNL     1      18.704  21.980  45.219  1.00  0.00     0.211 HD
ENDBRANCH   4  50
TORSDOF 15
ENDMDL
MODEL 3
REMARK VINA RESULT:    -7.270      2.667      5.430
REMARK INTER + INTRA:         -13.987
REMARK INTER:                 -12.356
REMARK INTRA:                  -1.631
REMARK UNBOUND:                -2.041
REMARK SMILES COc1ccc([C@@H]2CC(=O)c3c(O)cc(O[C@@H]4O[C@@H](CO[C@H]5O[C@@H](C)[C@H](O)[C@@H](O)[C@@H]5O)[C@@H](O)[C@@H](O)[C@H]4O)cc3O2)cc1O
REMARK SMILES IDX 19 1 32 2 34 3 36 4 17 5 18 6 20 7 21 8 22 9 25 10 24 11
REMARK SMILES IDX 26 12 23 13 28 14 30 15 27 16 29 18 31 20 33 22 35 24 16 26
REMARK SMILES IDX 15 27 14 28 38 29 12 30 39 31 11 32 40 33 9 34 7 35 10 36
REMARK SMILES IDX 8 37 13 38 6 40 41 41 5 42 42 43 4 44 3 45 43 46 2 48 1 49
REMARK SMILES IDX 37 50
REMARK H PARENT 27 17 29 19 31 21 33 23 35 25 13 39 43 47 37 51
REMARK Flexibility Score: inf
ROOT
ATOM      1  C   UNL     1      14.848  24.190  48.484  1.00  0.00     0.180 C 
ATOM      2  C   UNL     1      13.667  25.117  48.026  1.00  0.00     0.177 C 
ATOM      3  C   UNL     1      13.193  24.614  46.628  1.00  0.00     0.180 C 
ATOM      4  C   UNL     1      14.397  24.098  45.765  1.00  0.00     0.214 C 
ATOM      5  C   UNL     1      15.723  24.699  46.305  1.00  0.00     0.339 C 
ATOM      6  O   UNL     1      15.991  24.274  47.638  1.00  0.00    -0.332 OA
ENDROOT
BRANCH   1   7
ATOM      7  C   UNL     1      15.273  24.484  49.950  1.00  0.00     0.198 C 
BRANCH   7   8
ATOM      8  O   UNL     1      14.515  25.534  50.526  1.00  0.00    -0.347 OA
BRANCH   8   9
ATOM      9  C   UNL     1      15.279  26.704  50.792  1.00  0.00     0.281 C 
ATOM     10  C   UNL     1      12.193  26.961  51.296  1.00  0.00     0.041 C 
ATOM     11  C   UNL     1      13.393  27.866  51.664  1.00  0.00     0.150 C 
ATOM     12  C   UNL     1      13.873  27.679  53.130  1.00  0.00     0.174 C 
ATOM     13  O   UNL     1      14.445  27.844  50.700  1.00  0.00    -0.344 OA
ATOM     14  C   UNL     1      14.946  26.566  53.290  1.00  0.00     0.179 C 
ATOM     15  C   UNL     1      15.991  26.686  52.171  1.00  0.00     0.202 C 
BRANCH  12  16
ATOM     16  O   UNL     1      14.403  28.903  53.595  1.00  0.00    -0.388 OA
ATOM     17  H   UNL     1      15.379  28.782  53.698  1.00  0.00     0.211 HD
ENDBRANCH  12  16
BRANCH  14  18
ATOM     18  O   UNL     1      14.410  25.270  53.270  1.00  0.00    -0.387 OA
ATOM     19  H   UNL     1      14.857  24.726  53.976  1.00  0.00     0.211 HD
ENDBRANCH  14  18
BRANCH  15  20
ATOM     20  O   UNL     1      16.724  27.864  52.351  1.00  0.00    -0.385 OA
ATOM     21  H   UNL     1      16.923  27.949  53.315  1.00  0.00     0.211 HD
ENDBRANCH  15  20
ENDBRANCH   8   9
ENDBRANCH   7   8
ENDBRANCH   1   7
BRANCH   2  22
ATOM     22  O   UNL     1      14.065  26.461  47.918  1.00  0.00    -0.387 OA
ATOM     23  H   UNL     1      15.028  26.510  47.672  1.00  0.00     0.211 HD
ENDBRANCH   2  22
BRANCH   3  24
ATOM     24  O   UNL     1      12.494  25.637  45.966  1.00  0.00    -0.387 OA
ATOM     25  H   UNL     1      13.050  25.886  45.179  1.00  0.00     0.211 HD
ENDBRANCH   3  24
BRANCH   5  26
ATOM     26  O   UNL     1      16.851  24.398  45.472  1.00  0.00    -0.462 OA
BRANCH  26  27
ATOM     27  C   UNL     1      17.354  25.388  44.606  1.00  0.00     0.130 A 
ATOM     28  C   UNL     1      18.046  26.475  45.132  1.00  0.00     0.093 A 
ATOM     29  C   UNL     1      17.344  25.185  43.220  1.00  0.00     0.094 A 
ATOM     30  C   UNL     1      19.017  27.137  44.349  1.00  0.00     0.133 A 
ATOM     31  C   UNL     1      18.298  25.807  42.426  1.00  0.00     0.138 A 
ATOM     32  C   UNL     1      19.205  26.736  42.989  1.00  0.00     0.102 A 
ATOM     33  O   UNL     1      18.407  25.407  41.090  1.00  0.00    -0.484 OA
ATOM     34  C   UNL     1      20.402  27.053  42.160  1.00  0.00     0.174 C 
ATOM     35  C   UNL     1      19.564  25.639  40.269  1.00  0.00     0.211 C 
ATOM     36  O   UNL     1      21.088  28.098  42.321  1.00  0.00    -0.294 OA
ATOM     37  C   UNL     1      20.792  26.045  41.109  1.00  0.00     0.131 C 
BRANCH  30  38
ATOM     38  O   UNL     1      19.825  28.080  44.985  1.00  0.00    -0.507 OA
ATOM     39  H   UNL     1      20.090  28.040  45.975  1.00  0.00     0.293 HD
ENDBRANCH  30  38
BRANCH  35  40
ATOM     40  C   UNL     1      19.827  24.363  39.501  1.00  0.00    -0.003 A 
ATOM     41  C   UNL     1      20.496  23.293  40.121  1.00  0.00     0.057 A 
ATOM     42  C   UNL     1      19.381  24.203  38.177  1.00  0.00     0.011 A 
ATOM     43  C   UNL     1      20.656  22.064  39.464  1.00  0.00     0.158 A 
ATOM     44  C   UNL     1      19.563  22.993  37.507  1.00  0.00     0.051 A 
ATOM     45  C   UNL     1      20.185  21.895  38.158  1.00  0.00     0.160 A 
BRANCH  43  46
ATOM     46  O   UNL     1      21.240  21.007  40.158  1.00  0.00    -0.504 OA
ATOM     47  H   UNL     1      20.710  20.200  40.458  1.00  0.00     0.293 HD
ENDBRANCH  43  46
BRANCH  45  48
ATOM     48  O   UNL     1      20.313  20.631  37.556  1.00  0.00    -0.493 OA
ATOM     49  C   UNL     1      19.260  19.669  37.454  1.00  0.00     0.278 C 
ENDBRANCH  45  48
ENDBRANCH  35  40
ENDBRANCH  26  27
ENDBRANCH   5  26
BRANCH   4  50
ATOM     50  O   UNL     1      14.203  24.429  44.417  1.00  0.00    -0.384 OA
ATOM     51  H   UNL     1      14.891  25.105  44.172  1.00  0.00     0.211 HD
ENDBRANCH   4  50
TORSDOF 15
ENDMDL
MODEL 4
REMARK VINA RESULT:    -7.255      2.245      8.386
REMARK INTER + INTRA:         -13.961
REMARK INTER:                 -11.843
REMARK INTRA:                  -2.119
REMARK UNBOUND:                -2.041
REMARK SMILES COc1ccc([C@@H]2CC(=O)c3c(O)cc(O[C@@H]4O[C@@H](CO[C@H]5O[C@@H](C)[C@H](O)[C@@H](O)[C@@H]5O)[C@@H](O)[C@@H](O)[C@H]4O)cc3O2)cc1O
REMARK SMILES IDX 19 1 32 2 34 3 36 4 17 5 18 6 20 7 21 8 22 9 25 10 24 11
REMARK SMILES IDX 26 12 23 13 28 14 30 15 27 16 29 18 31 20 33 22 35 24 16 26
REMARK SMILES IDX 15 27 14 28 38 29 12 30 39 31 11 32 40 33 9 34 7 35 10 36
REMARK SMILES IDX 8 37 13 38 6 40 41 41 5 42 42 43 4 44 3 45 43 46 2 48 1 49
REMARK SMILES IDX 37 50
REMARK H PARENT 27 17 29 19 31 21 33 23 35 25 13 39 43 47 37 51
REMARK Flexibility Score: inf
ROOT
ATOM      1  C   UNL     1      20.124  25.173  40.879  1.00  0.00     0.180 C 
ATOM      2  C   UNL     1      20.819  26.478  40.352  1.00  0.00     0.177 C 
ATOM      3  C   UNL     1      21.438  27.208  41.584  1.00  0.00     0.180 C 
ATOM      4  C   UNL     1      20.537  27.049  42.858  1.00  0.00     0.214 C 
ATOM      5  C   UNL     1      19.088  26.687  42.432  1.00  0.00     0.339 C 
ATOM      6  O   UNL     1      19.034  25.431  41.759  1.00  0.00    -0.332 OA
ENDROOT
BRANCH   1   7
ATOM      7  C   UNL     1      19.635  24.272  39.711  1.00  0.00     0.198 C 
BRANCH   7   8
ATOM      8  O   UNL     1      18.869  24.994  38.763  1.00  0.00    -0.347 OA
BRANCH   8   9
ATOM      9  C   UNL     1      17.572  24.450  38.550  1.00  0.00     0.281 C 
ATOM     10  C   UNL     1      18.329  26.891  36.730  1.00  0.00     0.041 C 
ATOM     11  C   UNL     1      17.165  25.873  36.685  1.00  0.00     0.150 C 
ATOM     12  C   UNL     1      17.400  24.720  35.670  1.00  0.00     0.174 C 
ATOM     13  O   UNL     1      16.735  25.436  37.974  1.00  0.00    -0.344 OA
ATOM     14  C   UNL     1      18.149  23.503  36.283  1.00  0.00     0.179 C 
ATOM     15  C   UNL     1      17.566  23.175  37.665  1.00  0.00     0.202 C 
BRANCH  12  16
ATOM     16  O   UNL     1      16.151  24.291  35.171  1.00  0.00    -0.388 OA
ATOM     17  H   UNL     1      15.793  23.621  35.806  1.00  0.00     0.211 HD
ENDBRANCH  12  16
BRANCH  14  18
ATOM     18  O   UNL     1      19.530  23.709  36.412  1.00  0.00    -0.387 OA
ATOM     19  H   UNL     1      19.950  23.662  35.509  1.00  0.00     0.211 HD
ENDBRANCH  14  18
BRANCH  15  20
ATOM     20  O   UNL     1      16.259  22.701  37.512  1.00  0.00    -0.385 OA
ATOM     21  H   UNL     1      16.314  21.767  37.194  1.00  0.00     0.211 HD
ENDBRANCH  15  20
ENDBRANCH   8   9
ENDBRANCH   7   8
ENDBRANCH   1   7
BRANCH   2  22
ATOM     22  O   UNL     1      19.907  27.341  39.719  1.00  0.00    -0.387 OA
ATOM     23  H   UNL     1      20.273  27.636  38.843  1.00  0.00     0.211 HD
ENDBRANCH   2  22
BRANCH   3  24
ATOM     24  O   UNL     1      21.651  28.562  41.277  1.00  0.00    -0.387 OA
ATOM     25  H   UNL     1      22.612  28.642  41.031  1.00  0.00     0.211 HD
ENDBRANCH   3  24
BRANCH   5  26
ATOM     26  O   UNL     1      18.169  26.679  43.533  1.00  0.00    -0.462 OA
BRANCH  26  27
ATOM     27  C   UNL     1      16.839  26.265  43.320  1.00  0.00     0.130 A 
ATOM     28  C   UNL     1      16.219  26.544  42.105  1.00  0.00     0.093 A 
ATOM     29  C   UNL     1      16.213  25.406  44.231  1.00  0.00     0.094 A 
ATOM     30  C   UNL     1      15.185  25.705  41.635  1.00  0.00     0.133 A 
ATOM     31  C   UNL     1      15.206  24.556  43.795  1.00  0.00     0.138 A 
ATOM     32  C   UNL     1      14.726  24.634  42.466  1.00  0.00     0.102 A 
ATOM     33  O   UNL     1      14.764  23.555  44.666  1.00  0.00    -0.484 OA
ATOM     34  C   UNL     1      13.938  23.461  41.993  1.00  0.00     0.174 C 
ATOM     35  C   UNL     1      14.051  22.378  44.250  1.00  0.00     0.211 C 
ATOM     36  O   UNL     1      13.143  23.520  41.017  1.00  0.00    -0.294 OA
ATOM     37  C   UNL     1      14.143  22.159  42.726  1.00  0.00     0.131 C 
BRANCH  30  38
ATOM     38  O   UNL     1      14.740  25.900  40.328  1.00  0.00    -0.507 OA
ATOM     39  H   UNL     1      15.359  26.014  39.518  1.00  0.00     0.293 HD
ENDBRANCH  30  38
BRANCH  35  40
ATOM     40  C   UNL     1      14.644  21.209  45.005  1.00  0.00    -0.003 A 
ATOM     41  C   UNL     1      15.719  20.489  44.455  1.00  0.00     0.057 A 
ATOM     42  C   UNL     1      14.166  20.842  46.276  1.00  0.00     0.011 A 
ATOM     43  C   UNL     1      16.353  19.470  45.183  1.00  0.00     0.158 A 
ATOM     44  C   UNL     1      14.773  19.812  46.993  1.00  0.00     0.051 A 
ATOM     45  C   UNL     1      15.897  19.126  46.460  1.00  0.00     0.160 A 
BRANCH  43  46
ATOM     46  O   UNL     1      17.472  18.853  44.631  1.00  0.00    -0.504 OA
ATOM     47  H   UNL     1      17.523  17.852  44.490  1.00  0.00     0.293 HD
ENDBRANCH  43  46
BRANCH  45  48
ATOM     48  O   UNL     1      16.595  18.142  47.180  1.00  0.00    -0.493 OA
ATOM     49  C   UNL     1      17.726  18.395  48.016  1.00  0.00     0.278 C 
ENDBRANCH  45  48
ENDBRANCH  35  40
ENDBRANCH  26  27
ENDBRANCH   5  26
BRANCH   4  50
ATOM     50  O   UNL     1      20.560  28.227  43.618  1.00  0.00    -0.384 OA
ATOM     51  H   UNL     1      21.362  28.188  44.207  1.00  0.00     0.211 HD
ENDBRANCH   4  50
TORSDOF 15
ENDMDL
MODEL 5
REMARK VINA RESULT:    -7.249      3.176      7.217
REMARK INTER + INTRA:         -13.952
REMARK INTER:                 -11.575
REMARK INTRA:                  -2.377
REMARK UNBOUND:                -2.041
REMARK SMILES COc1ccc([C@@H]2CC(=O)c3c(O)cc(O[C@@H]4O[C@@H](CO[C@H]5O[C@@H](C)[C@H](O)[C@@H](O)[C@@H]5O)[C@@H](O)[C@@H](O)[C@H]4O)cc3O2)cc1O
REMARK SMILES IDX 19 1 32 2 34 3 36 4 17 5 18 6 20 7 21 8 22 9 25 10 24 11
REMARK SMILES IDX 26 12 23 13 28 14 30 15 27 16 29 18 31 20 33 22 35 24 16 26
REMARK SMILES IDX 15 27 14 28 38 29 12 30 39 31 11 32 40 33 9 34 7 35 10 36
REMARK SMILES IDX 8 37 13 38 6 40 41 41 5 42 42 43 4 44 3 45 43 46 2 48 1 49
REMARK SMILES IDX 37 50
REMARK H PARENT 27 17 29 19 31 21 33 23 35 25 13 39 43 47 37 51
REMARK Flexibility Score: inf
ROOT
ATOM      1  C   UNL     1      14.071  18.871  49.644  1.00  0.00     0.180 C 
ATOM      2  C   UNL     1      14.710  17.650  50.394  1.00  0.00     0.177 C 
ATOM      3  C   UNL     1      14.927  18.075  51.879  1.00  0.00     0.180 C 
ATOM      4  C   UNL     1      15.330  19.587  51.990  1.00  0.00     0.214 C 
ATOM      5  C   UNL     1      15.899  20.078  50.631  1.00  0.00     0.339 C 
ATOM      6  O   UNL     1      14.922  20.012  49.595  1.00  0.00    -0.332 OA
ENDROOT
BRANCH   1   7
ATOM      7  C   UNL     1      13.638  18.494  48.198  1.00  0.00     0.198 C 
BRANCH   7   8
ATOM      8  O   UNL     1      14.247  19.325  47.225  1.00  0.00    -0.347 OA
BRANCH   8   9
ATOM      9  C   UNL     1      14.665  18.620  46.062  1.00  0.00     0.281 C 
ATOM     10  C   UNL     1      14.613  21.746  45.803  1.00  0.00     0.041 C 
ATOM     11  C   UNL     1      15.203  20.632  44.907  1.00  0.00     0.150 C 
ATOM     12  C   UNL     1      16.729  20.422  45.119  1.00  0.00     0.174 C 
ATOM     13  O   UNL     1      14.443  19.424  44.918  1.00  0.00    -0.344 OA
ATOM     14  C   UNL     1      17.060  19.395  46.238  1.00  0.00     0.179 C 
ATOM     15  C   UNL     1      16.149  18.166  46.104  1.00  0.00     0.202 C 
BRANCH  12  16
ATOM     16  O   UNL     1      17.301  19.983  43.904  1.00  0.00    -0.388 OA
ATOM     17  H   UNL     1      16.600  19.491  43.409  1.00  0.00     0.211 HD
ENDBRANCH  12  16
BRANCH  14  18
ATOM     18  O   UNL     1      16.924  19.919  47.532  1.00  0.00    -0.387 OA
ATOM     19  H   UNL     1      17.387  19.315  48.175  1.00  0.00     0.211 HD
ENDBRANCH  14  18
BRANCH  15  20
ATOM     20  O   UNL     1      16.475  17.477  44.931  1.00  0.00    -0.385 OA
ATOM     21  H   UNL     1      17.089  16.743  45.176  1.00  0.00     0.211 HD
ENDBRANCH  15  20
ENDBRANCH   8   9
ENDBRANCH   7   8
ENDBRANCH   1   7
BRANCH   2  22
ATOM     22  O   UNL     1      15.948  17.281  49.838  1.00  0.00    -0.387 OA
ATOM     23  H   UNL     1      16.178  16.354  50.113  1.00  0.00     0.211 HD
ENDBRANCH   2  22
BRANCH   3  24
ATOM     24  O   UNL     1      15.892  17.246  52.475  1.00  0.00    -0.387 OA
ATOM     25  H   UNL     1      15.638  16.313  52.239  1.00  0.00     0.211 HD
ENDBRANCH   3  24
BRANCH   5  26
ATOM     26  O   UNL     1      16.434  21.407  50.698  1.00  0.00    -0.462 OA
BRANCH  26  27
ATOM     27  C   UNL     1      15.591  22.506  50.442  1.00  0.00     0.130 A 
ATOM     28  C   UNL     1      15.064  23.231  51.507  1.00  0.00     0.093 A 
ATOM     29  C   UNL     1      15.448  22.996  49.138  1.00  0.00     0.094 A 
ATOM     30  C   UNL     1      14.729  24.592  51.334  1.00  0.00     0.133 A 
ATOM     31  C   UNL     1      15.137  24.334  48.935  1.00  0.00     0.138 A 
ATOM     32  C   UNL     1      14.850  25.178  50.034  1.00  0.00     0.102 A 
ATOM     33  O   UNL     1      15.228  24.842  47.636  1.00  0.00    -0.484 OA
ATOM     34  C   UNL     1      14.903  26.641  49.756  1.00  0.00     0.174 C 
ATOM     35  C   UNL     1      15.340  26.241  47.322  1.00  0.00     0.211 C 
ATOM     36  O   UNL     1      14.326  27.495  50.480  1.00  0.00    -0.294 OA
ATOM     37  C   UNL     1      15.710  27.081  48.561  1.00  0.00     0.131 C 
BRANCH  30  38
ATOM     38  O   UNL     1      14.402  25.325  52.474  1.00  0.00    -0.507 OA
ATOM     39  H   UNL     1      13.510  25.811  52.612  1.00  0.00     0.293 HD
ENDBRANCH  30  38
BRANCH  35  40
ATOM     40  C   UNL     1      16.391  26.372  46.241  1.00  0.00    -0.003 A 
ATOM     41  C   UNL     1      17.232  27.497  46.212  1.00  0.00     0.057 A 
ATOM     42  C   UNL     1      16.575  25.366  45.276  1.00  0.00     0.011 A 
ATOM     43  C   UNL     1      18.282  27.589  45.284  1.00  0.00     0.158 A 
ATOM     44  C   UNL     1      17.598  25.463  44.334  1.00  0.00     0.051 A 
ATOM     45  C   UNL     1      18.485  26.573  44.344  1.00  0.00     0.160 A 
BRANCH  43  46
ATOM     46  O   UNL     1      19.145  28.679  45.359  1.00  0.00    -0.504 OA
ATOM     47  H   UNL     1      19.065  29.475  44.740  1.00  0.00     0.293 HD
ENDBRANCH  43  46
BRANCH  45  48
ATOM     48  O   UNL     1      19.582  26.674  43.472  1.00  0.00    -0.493 OA
ATOM     49  C   UNL     1      19.488  26.687  42.046  1.00  0.00     0.278 C 
ENDBRANCH  45  48
ENDBRANCH  35  40
ENDBRANCH  26  27
ENDBRANCH   5  26
BRANCH   4  50
ATOM     50  O   UNL     1      16.261  19.766  53.022  1.00  0.00    -0.384 OA
ATOM     51  H   UNL     1      17.159  19.864  52.604  1.00  0.00     0.211 HD
ENDBRANCH   4  50
TORSDOF 15
ENDMDL
MODEL 6
REMARK VINA RESULT:    -7.151      2.331      9.309
REMARK INTER + INTRA:         -13.790
REMARK INTER:                 -12.288
REMARK INTRA:                  -1.503
REMARK UNBOUND:                -2.041
REMARK SMILES COc1ccc([C@@H]2CC(=O)c3c(O)cc(O[C@@H]4O[C@@H](CO[C@H]5O[C@@H](C)[C@H](O)[C@@H](O)[C@@H]5O)[C@@H](O)[C@@H](O)[C@H]4O)cc3O2)cc1O
REMARK SMILES IDX 19 1 32 2 34 3 36 4 17 5 18 6 20 7 21 8 22 9 25 10 24 11
REMARK SMILES IDX 26 12 23 13 28 14 30 15 27 16 29 18 31 20 33 22 35 24 16 26
REMARK SMILES IDX 15 27 14 28 38 29 12 30 39 31 11 32 40 33 9 34 7 35 10 36
REMARK SMILES IDX 8 37 13 38 6 40 41 41 5 42 42 43 4 44 3 45 43 46 2 48 1 49
REMARK SMILES IDX 37 50
REMARK H PARENT 27 17 29 19 31 21 33 23 35 25 13 39 43 47 37 51
REMARK Flexibility Score: inf
ROOT
ATOM      1  C   UNL     1      19.740  25.817  40.668  1.00  0.00     0.180 C 
ATOM      2  C   UNL     1      20.507  26.990  41.373  1.00  0.00     0.177 C 
ATOM      3  C   UNL     1      20.234  26.874  42.904  1.00  0.00     0.180 C 
ATOM      4  C   UNL     1      18.775  26.374  43.190  1.00  0.00     0.214 C 
ATOM      5  C   UNL     1      17.879  26.637  41.949  1.00  0.00     0.339 C 
ATOM      6  O   UNL     1      18.325  25.903  40.812  1.00  0.00    -0.332 OA
ENDROOT
BRANCH   1   7
ATOM      7  C   UNL     1      20.095  25.726  39.157  1.00  0.00     0.198 C 
BRANCH   7   8
ATOM      8  O   UNL     1      19.765  24.463  38.605  1.00  0.00    -0.347 OA
BRANCH   8   9
ATOM      9  C   UNL     1      19.349  24.530  37.246  1.00  0.00     0.281 C 
ATOM     10  C   UNL     1      19.986  21.654  38.325  1.00  0.00     0.041 C 
ATOM     11  C   UNL     1      19.301  22.159  37.034  1.00  0.00     0.150 C 
ATOM     12  C   UNL     1      17.749  22.119  37.111  1.00  0.00     0.174 C 
ATOM     13  O   UNL     1      19.828  23.394  36.551  1.00  0.00    -0.344 OA
ATOM     14  C   UNL     1      17.126  23.421  37.688  1.00  0.00     0.179 C 
ATOM     15  C   UNL     1      17.812  24.646  37.067  1.00  0.00     0.202 C 
BRANCH  12  16
ATOM     16  O   UNL     1      17.235  21.896  35.814  1.00  0.00    -0.388 OA
ATOM     17  H   UNL     1      17.684  21.092  35.452  1.00  0.00     0.211 HD
ENDBRANCH  12  16
BRANCH  14  18
ATOM     18  O   UNL     1      17.220  23.510  39.085  1.00  0.00    -0.387 OA
ATOM     19  H   UNL     1      16.314  23.379  39.478  1.00  0.00     0.211 HD
ENDBRANCH  14  18
BRANCH  15  20
ATOM     20  O   UNL     1      17.490  24.714  35.708  1.00  0.00    -0.385 OA
ATOM     21  H   UNL     1      18.023  24.026  35.239  1.00  0.00     0.211 HD
ENDBRANCH  15  20
ENDBRANCH   8   9
ENDBRANCH   7   8
ENDBRANCH   1   7
BRANCH   2  22
ATOM     22  O   UNL     1      20.072  28.249  40.925  1.00  0.00    -0.387 OA
ATOM     23  H   UNL     1      19.086  28.324  41.033  1.00  0.00     0.211 HD
ENDBRANCH   2  22
BRANCH   3  24
ATOM     24  O   UNL     1      20.480  28.108  43.527  1.00  0.00    -0.387 OA
ATOM     25  H   UNL     1      21.293  28.481  43.089  1.00  0.00     0.211 HD
ENDBRANCH   3  24
BRANCH   5  26
ATOM     26  O   UNL     1      16.495  26.350  42.190  1.00  0.00    -0.462 OA
BRANCH  26  27
ATOM     27  C   UNL     1      16.142  25.169  42.872  1.00  0.00     0.130 A 
ATOM     28  C   UNL     1      16.725  23.961  42.499  1.00  0.00     0.093 A 
ATOM     29  C   UNL     1      15.376  25.232  44.042  1.00  0.00     0.094 A 
ATOM     30  C   UNL     1      16.863  22.925  43.449  1.00  0.00     0.133 A 
ATOM     31  C   UNL     1      15.504  24.237  45.003  1.00  0.00     0.138 A 
ATOM     32  C   UNL     1      16.313  23.103  44.758  1.00  0.00     0.102 A 
ATOM     33  O   UNL     1      14.906  24.445  46.250  1.00  0.00    -0.484 OA
ATOM     34  C   UNL     1      16.683  22.302  45.958  1.00  0.00     0.174 C 
ATOM     35  C   UNL     1      15.270  23.738  47.448  1.00  0.00     0.211 C 
ATOM     36  O   UNL     1      17.058  21.100  45.890  1.00  0.00    -0.294 OA
ATOM     37  C   UNL     1      16.615  23.000  47.293  1.00  0.00     0.131 C 
BRANCH  30  38
ATOM     38  O   UNL     1      17.634  21.819  43.089  1.00  0.00    -0.507 OA
ATOM     39  H   UNL     1      17.737  20.976  43.663  1.00  0.00     0.293 HD
ENDBRANCH  30  38
BRANCH  35  40
ATOM     40  C   UNL     1      15.333  24.757  48.564  1.00  0.00    -0.003 A 
ATOM     41  C   UNL     1      15.562  26.112  48.267  1.00  0.00     0.057 A 
ATOM     42  C   UNL     1      15.129  24.385  49.905  1.00  0.00     0.011 A 
ATOM     43  C   UNL     1      15.519  27.089  49.274  1.00  0.00     0.158 A 
ATOM     44  C   UNL     1      15.112  25.347  50.914  1.00  0.00     0.051 A 
ATOM     45  C   UNL     1      15.284  26.723  50.603  1.00  0.00     0.160 A 
BRANCH  43  46
ATOM     46  O   UNL     1      15.657  28.426  48.912  1.00  0.00    -0.504 OA
ATOM     47  H   UNL     1      14.859  29.018  48.715  1.00  0.00     0.293 HD
ENDBRANCH  43  46
BRANCH  45  48
ATOM     48  O   UNL     1      15.190  27.736  51.573  1.00  0.00    -0.493 OA
ATOM     49  C   UNL     1      16.219  28.064  52.508  1.00  0.00     0.278 C 
ENDBRANCH  45  48
ENDBRANCH  35  40
ENDBRANCH  26  27
ENDBRANCH   5  26
BRANCH   4  50
ATOM     50  O   UNL     1      18.260  27.008  44.329  1.00  0.00    -0.384 OA
ATOM     51  H   UNL     1      18.803  27.827  44.488  1.00  0.00     0.211 HD
ENDBRANCH   4  50
TORSDOF 15
ENDMDL
MODEL 7
REMARK VINA RESULT:    -7.053      2.909      5.291
REMARK INTER + INTRA:         -13.629
REMARK INTER:                 -12.452
REMARK INTRA:                  -1.177
REMARK UNBOUND:                -2.041
REMARK SMILES COc1ccc([C@@H]2CC(=O)c3c(O)cc(O[C@@H]4O[C@@H](CO[C@H]5O[C@@H](C)[C@H](O)[C@@H](O)[C@@H]5O)[C@@H](O)[C@@H](O)[C@H]4O)cc3O2)cc1O
REMARK SMILES IDX 19 1 32 2 34 3 36 4 17 5 18 6 20 7 21 8 22 9 25 10 24 11
REMARK SMILES IDX 26 12 23 13 28 14 30 15 27 16 29 18 31 20 33 22 35 24 16 26
REMARK SMILES IDX 15 27 14 28 38 29 12 30 39 31 11 32 40 33 9 34 7 35 10 36
REMARK SMILES IDX 8 37 13 38 6 40 41 41 5 42 42 43 4 44 3 45 43 46 2 48 1 49
REMARK SMILES IDX 37 50
REMARK H PARENT 27 17 29 19 31 21 33 23 35 25 13 39 43 47 37 51
REMARK Flexibility Score: inf
ROOT
ATOM      1  C   UNL     1      15.345  26.091  48.802  1.00  0.00     0.180 C 
ATOM      2  C   UNL     1      13.874  25.879  48.299  1.00  0.00     0.177 C 
ATOM      3  C   UNL     1      13.763  24.411  47.785  1.00  0.00     0.180 C 
ATOM      4  C   UNL     1      15.090  23.943  47.092  1.00  0.00     0.214 C 
ATOM      5  C   UNL     1      15.915  25.183  46.651  1.00  0.00     0.339 C 
ATOM      6  O   UNL     1      16.317  25.973  47.767  1.00  0.00    -0.332 OA
ENDROOT
BRANCH   1   7
ATOM      7  C   UNL     1      15.517  27.465  49.510  1.00  0.00     0.198 C 
BRANCH   7   8
ATOM      8  O   UNL     1      15.635  27.330  50.916  1.00  0.00    -0.347 OA
BRANCH   8   9
ATOM      9  C   UNL     1      15.251  26.047  51.396  1.00  0.00     0.281 C 
ATOM     10  C   UNL     1      17.121  27.698  53.298  1.00  0.00     0.041 C 
ATOM     11  C   UNL     1      16.295  26.406  53.505  1.00  0.00     0.150 C 
ATOM     12  C   UNL     1      14.933  26.658  54.210  1.00  0.00     0.174 C 
ATOM     13  O   UNL     1      16.204  25.591  52.337  1.00  0.00    -0.344 OA
ATOM     14  C   UNL     1      13.777  26.977  53.221  1.00  0.00     0.179 C 
ATOM     15  C   UNL     1      13.833  26.013  52.027  1.00  0.00     0.202 C 
BRANCH  12  16
ATOM     16  O   UNL     1      14.594  25.514  54.966  1.00  0.00    -0.388 OA
ATOM     17  H   UNL     1      13.625  25.567  55.163  1.00  0.00     0.211 HD
ENDBRANCH  12  16
BRANCH  14  18
ATOM     18  O   UNL     1      13.804  28.294  52.741  1.00  0.00    -0.387 OA
ATOM     19  H   UNL     1      12.987  28.454  52.192  1.00  0.00     0.211 HD
ENDBRANCH  14  18
BRANCH  15  20
ATOM     20  O   UNL     1      13.531  24.720  52.464  1.00  0.00    -0.385 OA
ATOM     21  H   UNL     1      13.907  24.616  53.372  1.00  0.00     0.211 HD
ENDBRANCH  15  20
ENDBRANCH   8   9
ENDBRANCH   7   8
ENDBRANCH   1   7
BRANCH   2  22
ATOM     22  O   UNL     1      13.544  26.757  47.252  1.00  0.00    -0.387 OA
ATOM     23  H   UNL     1      14.171  26.625  46.491  1.00  0.00     0.211 HD
ENDBRANCH   2  22
BRANCH   3  24
ATOM     24  O   UNL     1      12.666  24.292  46.915  1.00  0.00    -0.387 OA
ATOM     25  H   UNL     1      13.015  24.483  46.003  1.00  0.00     0.211 HD
ENDBRANCH   3  24
BRANCH   5  26
ATOM     26  O   UNL     1      17.067  24.838  45.870  1.00  0.00    -0.462 OA
BRANCH  26  27
ATOM     27  C   UNL     1      17.552  25.750  44.913  1.00  0.00     0.130 A 
ATOM     28  C   UNL     1      18.313  26.840  45.326  1.00  0.00     0.093 A 
ATOM     29  C   UNL     1      17.452  25.459  43.547  1.00  0.00     0.094 A 
ATOM     30  C   UNL     1      19.258  27.412  44.446  1.00  0.00     0.133 A 
ATOM     31  C   UNL     1      18.378  25.991  42.660  1.00  0.00     0.138 A 
ATOM     32  C   UNL     1      19.350  26.917  43.107  1.00  0.00     0.102 A 
ATOM     33  O   UNL     1      18.392  25.503  41.350  1.00  0.00    -0.484 OA
ATOM     34  C   UNL     1      20.506  27.133  42.192  1.00  0.00     0.174 C 
ATOM     35  C   UNL     1      19.505  25.636  40.450  1.00  0.00     0.211 C 
ATOM     36  O   UNL     1      21.236  28.158  42.244  1.00  0.00    -0.294 OA
ATOM     37  C   UNL     1      20.796  26.045  41.188  1.00  0.00     0.131 C 
BRANCH  30  38
ATOM     38  O   UNL     1      20.136  28.360  44.971  1.00  0.00    -0.507 OA
ATOM     39  H   UNL     1      20.184  28.617  45.962  1.00  0.00     0.293 HD
ENDBRANCH  30  38
BRANCH  35  40
ATOM     40  C   UNL     1      19.676  24.303  39.753  1.00  0.00    -0.003 A 
ATOM     41  C   UNL     1      19.256  24.148  38.421  1.00  0.00     0.057 A 
ATOM     42  C   UNL     1      20.286  23.214  40.400  1.00  0.00     0.011 A 
ATOM     43  C   UNL     1      19.500  22.955  37.722  1.00  0.00     0.158 A 
ATOM     44  C   UNL     1      20.507  22.016  39.721  1.00  0.00     0.051 A 
ATOM     45  C   UNL     1      20.135  21.883  38.356  1.00  0.00     0.160 A 
BRANCH  43  46
ATOM     46  O   UNL     1      19.150  22.887  36.376  1.00  0.00    -0.504 OA
ATOM     47  H   UNL     1      19.459  22.134  35.775  1.00  0.00     0.293 HD
ENDBRANCH  43  46
BRANCH  45  48
ATOM     48  O   UNL     1      20.415  20.728  37.605  1.00  0.00    -0.493 OA
ATOM     49  C   UNL     1      19.547  19.597  37.499  1.00  0.00     0.278 C 
ENDBRANCH  45  48
ENDBRANCH  35  40
ENDBRANCH  26  27
ENDBRANCH   5  26
BRANCH   4  50
ATOM     50  O   UNL     1      14.800  23.115  45.998  1.00  0.00    -0.384 OA
ATOM     51  H   UNL     1      14.860  22.172  46.312  1.00  0.00     0.211 HD
ENDBRANCH   4  50
TORSDOF 15
ENDMDL
MODEL 8
REMARK VINA RESULT:    -6.880      2.551      6.207
REMARK INTER + INTRA:         -13.345
REMARK INTER:                 -10.228
REMARK INTRA:                  -3.117
REMARK UNBOUND:                -2.041
REMARK SMILES COc1ccc([C@@H]2CC(=O)c3c(O)cc(O[C@@H]4O[C@@H](CO[C@H]5O[C@@H](C)[C@H](O)[C@@H](O)[C@@H]5O)[C@@H](O)[C@@H](O)[C@H]4O)cc3O2)cc1O
REMARK SMILES IDX 19 1 32 2 34 3 36 4 17 5 18 6 20 7 21 8 22 9 25 10 24 11
REMARK SMILES IDX 26 12 23 13 28 14 30 15 27 16 29 18 31 20 33 22 35 24 16 26
REMARK SMILES IDX 15 27 14 28 38 29 12 30 39 31 11 32 40 33 9 34 7 35 10 36
REMARK SMILES IDX 8 37 13 38 6 40 41 41 5 42 42 43 4 44 3 45 43 46 2 48 1 49
REMARK SMILES IDX 37 50
REMARK H PARENT 27 17 29 19 31 21 33 23 35 25 13 39 43 47 37 51
REMARK Flexibility Score: inf
ROOT
ATOM      1  C   UNL     1      16.200  21.498  49.076  1.00  0.00     0.180 C 
ATOM      2  C   UNL     1      15.106  20.397  49.304  1.00  0.00     0.177 C 
ATOM      3  C   UNL     1      15.705  19.037  48.830  1.00  0.00     0.180 C 
ATOM      4  C   UNL     1      16.631  19.224  47.578  1.00  0.00     0.214 C 
ATOM      5  C   UNL     1      16.285  20.560  46.866  1.00  0.00     0.339 C 
ATOM      6  O   UNL     1      16.534  21.685  47.704  1.00  0.00    -0.332 OA
ENDROOT
BRANCH   1   7
ATOM      7  C   UNL     1      15.777  22.862  49.690  1.00  0.00     0.198 C 
BRANCH   7   8
ATOM      8  O   UNL     1      15.663  23.878  48.708  1.00  0.00    -0.347 OA
BRANCH   8   9
ATOM      9  C   UNL     1      14.793  24.937  49.088  1.00  0.00     0.281 C 
ATOM     10  C   UNL     1      15.984  25.138  46.192  1.00  0.00     0.041 C 
ATOM     11  C   UNL     1      14.852  25.907  46.914  1.00  0.00     0.150 C 
ATOM     12  C   UNL     1      13.434  25.375  46.567  1.00  0.00     0.174 C 
ATOM     13  O   UNL     1      15.081  26.085  48.312  1.00  0.00    -0.344 OA
ATOM     14  C   UNL     1      12.957  24.232  47.506  1.00  0.00     0.179 C 
ATOM     15  C   UNL     1      13.286  24.585  48.964  1.00  0.00     0.202 C 
BRANCH  12  16
ATOM     16  O   UNL     1      12.516  26.446  46.639  1.00  0.00    -0.388 OA
ATOM     17  H   UNL     1      12.474  26.737  47.584  1.00  0.00     0.211 HD
ENDBRANCH  12  16
BRANCH  14  18
ATOM     18  O   UNL     1      13.529  22.988  47.202  1.00  0.00    -0.387 OA
ATOM     19  H   UNL     1      13.220  22.318  47.873  1.00  0.00     0.211 HD
ENDBRANCH  14  18
BRANCH  15  20
ATOM     20  O   UNL     1      12.503  25.673  49.362  1.00  0.00    -0.385 OA
ATOM     21  H   UNL     1      12.330  25.579  50.330  1.00  0.00     0.211 HD
ENDBRANCH  15  20
ENDBRANCH   8   9
ENDBRANCH   7   8
ENDBRANCH   1   7
BRANCH   2  22
ATOM     22  O   UNL     1      13.934  20.660  48.574  1.00  0.00    -0.387 OA
ATOM     23  H   UNL     1      14.109  21.368  47.897  1.00  0.00     0.211 HD
ENDBRANCH   2  22
BRANCH   3  24
ATOM     24  O   UNL     1      14.668  18.126  48.565  1.00  0.00    -0.387 OA
ATOM     25  H   UNL     1      13.925  18.660  48.172  1.00  0.00     0.211 HD
ENDBRANCH   3  24
BRANCH   5  26
ATOM     26  O   UNL     1      16.981  20.726  45.623  1.00  0.00    -0.462 OA
BRANCH  26  27
ATOM     27  C   UNL     1      16.316  21.316  44.531  1.00  0.00     0.130 A 
ATOM     28  C   UNL     1      14.940  21.520  44.594  1.00  0.00     0.093 A 
ATOM     29  C   UNL     1      17.048  21.882  43.480  1.00  0.00     0.094 A 
ATOM     30  C   UNL     1      14.350  22.565  43.850  1.00  0.00     0.133 A 
ATOM     31  C   UNL     1      16.501  22.924  42.743  1.00  0.00     0.138 A 
ATOM     32  C   UNL     1      15.168  23.339  42.967  1.00  0.00     0.102 A 
ATOM     33  O   UNL     1      17.336  23.616  41.860  1.00  0.00    -0.484 OA
ATOM     34  C   UNL     1      14.805  24.674  42.414  1.00  0.00     0.174 C 
ATOM     35  C   UNL     1      17.057  24.929  41.346  1.00  0.00     0.211 C 
ATOM     36  O   UNL     1      13.614  25.021  42.192  1.00  0.00    -0.294 OA
ATOM     37  C   UNL     1      15.937  25.631  42.140  1.00  0.00     0.131 C 
BRANCH  30  38
ATOM     38  O   UNL     1      13.010  22.860  44.103  1.00  0.00    -0.507 OA
ATOM     39  H   UNL     1      12.405  22.310  44.723  1.00  0.00     0.293 HD
ENDBRANCH  30  38
BRANCH  35  40
ATOM     40  C   UNL     1      18.347  25.717  41.411  1.00  0.00    -0.003 A 
ATOM     41  C   UNL     1      18.686  26.415  42.583  1.00  0.00     0.057 A 
ATOM     42  C   UNL     1      19.245  25.738  40.329  1.00  0.00     0.011 A 
ATOM     43  C   UNL     1      19.925  27.064  42.703  1.00  0.00     0.158 A 
ATOM     44  C   UNL     1      20.466  26.404  40.431  1.00  0.00     0.051 A 
ATOM     45  C   UNL     1      20.831  27.058  41.638  1.00  0.00     0.160 A 
BRANCH  43  46
ATOM     46  O   UNL     1      20.251  27.659  43.919  1.00  0.00    -0.504 OA
ATOM     47  H   UNL     1      20.634  28.594  43.977  1.00  0.00     0.293 HD
ENDBRANCH  43  46
BRANCH  45  48
ATOM     48  O   UNL     1      22.085  27.668  41.819  1.00  0.00    -0.493 OA
ATOM     49  C   UNL     1      22.378  29.031  41.505  1.00  0.00     0.278 C 
ENDBRANCH  45  48
ENDBRANCH  35  40
ENDBRANCH  26  27
ENDBRANCH   5  26
BRANCH   4  50
ATOM     50  O   UNL     1      16.492  18.135  46.705  1.00  0.00    -0.384 OA
ATOM     51  H   UNL     1      16.561  18.484  45.776  1.00  0.00     0.211 HD
ENDBRANCH   4  50
TORSDOF 15
ENDMDL
MODEL 9
REMARK VINA RESULT:    -6.787      1.795      4.900
REMARK INTER + INTRA:         -13.192
REMARK INTER:                 -11.316
REMARK INTRA:                  -1.876
REMARK UNBOUND:                -2.041
REMARK SMILES COc1ccc([C@@H]2CC(=O)c3c(O)cc(O[C@@H]4O[C@@H](CO[C@H]5O[C@@H](C)[C@H](O)[C@@H](O)[C@@H]5O)[C@@H](O)[C@@H](O)[C@H]4O)cc3O2)cc1O
REMARK SMILES IDX 19 1 32 2 34 3 36 4 17 5 18 6 20 7 21 8 22 9 25 10 24 11
REMARK SMILES IDX 26 12 23 13 28 14 30 15 27 16 29 18 31 20 33 22 35 24 16 26
REMARK SMILES IDX 15 27 14 28 38 29 12 30 39 31 11 32 40 33 9 34 7 35 10 36
REMARK SMILES IDX 8 37 13 38 6 40 41 41 5 42 42 43 4 44 3 45 43 46 2 48 1 49
REMARK SMILES IDX 37 50
REMARK H PARENT 27 17 29 19 31 21 33 23 35 25 13 39 43 47 37 51
REMARK Flexibility Score: inf
ROOT
ATOM      1  C   UNL     1      16.063  22.897  47.376  1.00  0.00     0.180 C 
ATOM      2  C   UNL     1      16.061  21.332  47.264  1.00  0.00     0.177 C 
ATOM      3  C   UNL     1      16.685  20.960  45.884  1.00  0.00     0.180 C 
ATOM      4  C   UNL     1      16.291  22.001  44.778  1.00  0.00     0.214 C 
ATOM      5  C   UNL     1      15.017  22.773  45.215  1.00  0.00     0.339 C 
ATOM      6  O   UNL     1      15.241  23.532  46.401  1.00  0.00    -0.332 OA
ENDROOT
BRANCH   1   7
ATOM      7  C   UNL     1      15.634  23.371  48.793  1.00  0.00     0.198 C 
BRANCH   7   8
ATOM      8  O   UNL     1      15.245  24.734  48.805  1.00  0.00    -0.347 OA
BRANCH   8   9
ATOM      9  C   UNL     1      14.299  25.043  49.821  1.00  0.00     0.281 C 
ATOM     10  C   UNL     1      15.658  27.512  48.444  1.00  0.00     0.041 C 
ATOM     11  C   UNL     1      14.444  27.381  49.394  1.00  0.00     0.150 C 
ATOM     12  C   UNL     1      13.080  27.395  48.648  1.00  0.00     0.174 C 
ATOM     13  O   UNL     1      14.574  26.328  50.348  1.00  0.00    -0.344 OA
ATOM     14  C   UNL     1      12.606  25.983  48.203  1.00  0.00     0.179 C 
ATOM     15  C   UNL     1      12.823  24.978  49.343  1.00  0.00     0.202 C 
BRANCH  12  16
ATOM     16  O   UNL     1      12.105  27.965  49.496  1.00  0.00    -0.388 OA
ATOM     17  H   UNL     1      12.427  28.864  49.755  1.00  0.00     0.211 HD
ENDBRANCH  12  16
BRANCH  14  18
ATOM     18  O   UNL     1      13.260  25.514  47.055  1.00  0.00    -0.387 OA
ATOM     19  H   UNL     1      14.148  25.962  46.983  1.00  0.00     0.211 HD
ENDBRANCH  14  18
BRANCH  15  20
ATOM     20  O   UNL     1      11.960  25.286  50.400  1.00  0.00    -0.385 OA
ATOM     21  H   UNL     1      11.731  26.245  50.328  1.00  0.00     0.211 HD
ENDBRANCH  15  20
ENDBRANCH   8   9
ENDBRANCH   7   8
ENDBRANCH   1   7
BRANCH   2  22
ATOM     22  O   UNL     1      14.761  20.800  47.337  1.00  0.00    -0.387 OA
ATOM     23  H   UNL     1      14.128  21.498  47.654  1.00  0.00     0.211 HD
ENDBRANCH   2  22
BRANCH   3  24
ATOM     24  O   UNL     1      16.297  19.660  45.520  1.00  0.00    -0.387 OA
ATOM     25  H   UNL     1      15.311  19.620  45.649  1.00  0.00     0.211 HD
ENDBRANCH   3  24
BRANCH   5  26
ATOM     26  O   UNL     1      14.505  23.632  44.187  1.00  0.00    -0.462 OA
BRANCH  26  27
ATOM     27  C   UNL     1      15.294  24.703  43.726  1.00  0.00     0.130 A 
ATOM     28  C   UNL     1      15.780  25.640  44.633  1.00  0.00     0.093 A 
ATOM     29  C   UNL     1      15.761  24.717  42.406  1.00  0.00     0.094 A 
ATOM     30  C   UNL     1      16.974  26.339  44.350  1.00  0.00     0.133 A 
ATOM     31  C   UNL     1      16.942  25.381  42.100  1.00  0.00     0.138 A 
ATOM     32  C   UNL     1      17.614  26.140  43.087  1.00  0.00     0.102 A 
ATOM     33  O   UNL     1      17.499  25.186  40.833  1.00  0.00    -0.484 OA
ATOM     34  C   UNL     1      19.030  26.490  42.780  1.00  0.00     0.174 C 
ATOM     35  C   UNL     1      18.873  25.453  40.504  1.00  0.00     0.211 C 
ATOM     36  O   UNL     1      19.635  27.443  43.340  1.00  0.00    -0.294 OA
ATOM     37  C   UNL     1      19.742  25.630  41.766  1.00  0.00     0.131 C 
BRANCH  30  38
ATOM     38  O   UNL     1      17.528  27.109  45.374  1.00  0.00    -0.507 OA
ATOM     39  H   UNL     1      18.490  27.009  45.715  1.00  0.00     0.293 HD
ENDBRANCH  30  38
BRANCH  35  40
ATOM     40  C   UNL     1      19.364  24.295  39.663  1.00  0.00    -0.003 A 
ATOM     41  C   UNL     1      20.190  23.312  40.235  1.00  0.00     0.057 A 
ATOM     42  C   UNL     1      18.978  24.154  38.318  1.00  0.00     0.011 A 
ATOM     43  C   UNL     1      20.570  22.175  39.504  1.00  0.00     0.158 A 
ATOM     44  C   UNL     1      19.375  23.041  37.578  1.00  0.00     0.051 A 
ATOM     45  C   UNL     1      20.160  22.020  38.176  1.00  0.00     0.160 A 
BRANCH  43  46
ATOM     46  O   UNL     1      21.309  21.185  40.147  1.00  0.00    -0.504 OA
ATOM     47  H   UNL     1      22.218  20.888  39.814  1.00  0.00     0.293 HD
ENDBRANCH  43  46
BRANCH  45  48
ATOM     48  O   UNL     1      20.511  20.839  37.498  1.00  0.00    -0.493 OA
ATOM     49  C   UNL     1      19.731  19.643  37.492  1.00  0.00     0.278 C 
ENDBRANCH  45  48
ENDBRANCH  35  40
ENDBRANCH  26  27
ENDBRANCH   5  26
BRANCH   4  50
ATOM     50  O   UNL     1      16.093  21.352  43.551  1.00  0.00    -0.384 OA
ATOM     51  H   UNL     1      15.210  20.897  43.591  1.00  0.00     0.211 HD
ENDBRANCH   4  50
TORSDOF 15
ENDMDL
