MODEL 1
REMARK VINA RESULT:    -4.686      0.000      0.000
REMARK INTER + INTRA:          -6.718
REMARK INTER:                  -6.329
REMARK INTRA:                  -0.389
REMARK UNBOUND:                -0.389
REMARK SMILES CCCCCCCC(=O)[O-]
REMARK SMILES IDX 5 1 6 2 7 3 8 4 9 5 10 6 4 7 3 8 2 9 1 10
REMARK H PARENT
REMARK Flexibility Score: inf
ROOT
ATOM      1  C   UNL     1      14.442 -12.150  23.046  1.00  0.00     0.000 C 
ENDROOT
BRANCH   1   2
ATOM      2  C   UNL     1      13.452 -11.197  22.346  1.00  0.00     0.006 C 
BRANCH   2   3
ATOM      3  C   UNL     1      14.050 -10.403  21.174  1.00  0.00     0.053 C 
BRANCH   3   4
ATOM      4  C   UNL     1      14.345  -8.984  21.550  1.00  0.00     0.041 C 
ATOM      5  O   UNL     1      13.489  -8.084  21.347  1.00  0.00    -0.550 OA
ATOM      6  O   UNL     1      15.553  -8.662  22.155  1.00  0.00    -0.550 OA
ENDBRANCH   3   4
ENDBRANCH   2   3
ENDBRANCH   1   2
BRANCH   1   7
ATOM      7  C   UNL     1      15.438 -12.862  22.113  1.00  0.00     0.000 C 
BRANCH   7   8
ATOM      8  C   UNL     1      16.905 -12.569  22.468  1.00  0.00    -0.000 C 
BRANCH   8   9
ATOM      9  C   UNL     1      17.580 -11.635  21.450  1.00  0.00    -0.003 C 
ATOM     10  C   UNL     1      18.844 -12.239  20.839  1.00  0.00     0.004 C 
ENDBRANCH   8   9
ENDBRANCH   7   8
ENDBRANCH   1   7
TORSDOF 6
ENDMDL
MODEL 2
REMARK VINA RESULT:    -4.524      2.200      4.150
REMARK INTER + INTRA:          -6.499
REMARK INTER:                  -6.038
REMARK INTRA:                  -0.461
REMARK UNBOUND:                -0.389
REMARK SMILES CCCCCCCC(=O)[O-]
REMARK SMILES IDX 5 1 6 2 7 3 8 4 9 5 10 6 4 7 3 8 2 9 1 10
REMARK H PARENT
REMARK Flexibility Score: inf
ROOT
ATOM      1  C   UNL     1      14.042 -11.912  22.807  1.00  0.00     0.000 C 
ENDROOT
BRANCH   1   2
ATOM      2  C   UNL     1      15.177 -12.477  21.929  1.00  0.00     0.006 C 
BRANCH   2   3
ATOM      3  C   UNL     1      16.471 -12.806  22.691  1.00  0.00     0.053 C 
BRANCH   3   4
ATOM      4  C   UNL     1      17.692 -12.403  21.922  1.00  0.00     0.041 C 
ATOM      5  O   UNL     1      17.652 -11.417  21.142  1.00  0.00    -0.550 OA
ATOM      6  O   UNL     1      18.883 -13.098  22.094  1.00  0.00    -0.550 OA
ENDBRANCH   3   4
ENDBRANCH   2   3
ENDBRANCH   1   2
BRANCH   1   7
ATOM      7  C   UNL     1      13.138 -10.873  22.119  1.00  0.00     0.000 C 
BRANCH   7   8
ATOM      8  C   UNL     1      13.883 -10.029  21.072  1.00  0.00    -0.000 C 
BRANCH   8   9
ATOM      9  C   UNL     1      14.296  -8.651  21.613  1.00  0.00    -0.003 C 
ATOM     10  C   UNL     1      15.732  -8.625  22.137  1.00  0.00     0.004 C 
ENDBRANCH   8   9
ENDBRANCH   7   8
ENDBRANCH   1   7
TORSDOF 6
ENDMDL
MODEL 3
REMARK VINA RESULT:    -4.251      2.532      4.557
REMARK INTER + INTRA:          -6.131
REMARK INTER:                  -5.955
REMARK INTRA:                  -0.175
REMARK UNBOUND:                -0.389
REMARK SMILES CCCCCCCC(=O)[O-]
REMARK SMILES IDX 5 1 6 2 7 3 8 4 9 5 10 6 4 7 3 8 2 9 1 10
REMARK H PARENT
REMARK Flexibility Score: inf
ROOT
ATOM      1  C   UNL     1      16.519 -10.608  21.517  1.00  0.00     0.000 C 
ENDROOT
BRANCH   1   2
ATOM      2  C   UNL     1      16.920 -12.016  22.002  1.00  0.00     0.006 C 
BRANCH   2   3
ATOM      3  C   UNL     1      15.737 -12.937  22.340  1.00  0.00     0.053 C 
BRANCH   3   4
ATOM      4  C   UNL     1      15.317 -12.809  23.771  1.00  0.00     0.041 C 
ATOM      5  O   UNL     1      16.183 -12.739  24.682  1.00  0.00    -0.550 OA
ATOM      6  O   UNL     1      13.969 -12.735  24.097  1.00  0.00    -0.550 OA
ENDBRANCH   3   4
ENDBRANCH   2   3
ENDBRANCH   1   2
BRANCH   1   7
ATOM      7  C   UNL     1      15.706  -9.774  22.524  1.00  0.00     0.000 C 
BRANCH   7   8
ATOM      8  C   UNL     1      15.048  -8.540  21.886  1.00  0.00    -0.000 C 
BRANCH   8   9
ATOM      9  C   UNL     1      13.625  -8.828  21.381  1.00  0.00    -0.003 C 
ATOM     10  C   UNL     1      13.089 -10.179  21.856  1.00  0.00     0.004 C 
ENDBRANCH   8   9
ENDBRANCH   7   8
ENDBRANCH   1   7
TORSDOF 6
ENDMDL
MODEL 4
REMARK VINA RESULT:    -3.587     15.865     17.021
REMARK INTER + INTRA:          -5.233
REMARK INTER:                  -5.007
REMARK INTRA:                  -0.227
REMARK UNBOUND:                -0.389
REMARK SMILES CCCCCCCC(=O)[O-]
REMARK SMILES IDX 5 1 6 2 7 3 8 4 9 5 10 6 4 7 3 8 2 9 1 10
REMARK H PARENT
REMARK Flexibility Score: inf
ROOT
ATOM      1  C   UNL     1      15.292  -8.064  38.443  1.00  0.00     0.000 C 
ENDROOT
BRANCH   1   2
ATOM      2  C   UNL     1      15.426  -9.600  38.421  1.00  0.00     0.006 C 
BRANCH   2   3
ATOM      3  C   UNL     1      16.845 -10.123  38.695  1.00  0.00     0.053 C 
BRANCH   3   4
ATOM      4  C   UNL     1      17.690 -10.124  37.459  1.00  0.00     0.041 C 
ATOM      5  O   UNL     1      18.903  -9.791  37.520  1.00  0.00    -0.550 OA
ATOM      6  O   UNL     1      17.147 -10.525  36.245  1.00  0.00    -0.550 OA
ENDBRANCH   3   4
ENDBRANCH   2   3
ENDBRANCH   1   2
BRANCH   1   7
ATOM      7  C   UNL     1      13.925  -7.532  38.909  1.00  0.00     0.000 C 
BRANCH   7   8
ATOM      8  C   UNL     1      13.799  -6.005  38.773  1.00  0.00    -0.000 C 
BRANCH   8   9
ATOM      9  C   UNL     1      14.907  -5.400  37.896  1.00  0.00    -0.003 C 
ATOM     10  C   UNL     1      14.456  -4.140  37.157  1.00  0.00     0.004 C 
ENDBRANCH   8   9
ENDBRANCH   7   8
ENDBRANCH   1   7
TORSDOF 6
ENDMDL
MODEL 5
REMARK VINA RESULT:    -3.499     15.933     16.672
REMARK INTER + INTRA:          -5.115
REMARK INTER:                  -4.946
REMARK INTRA:                  -0.170
REMARK UNBOUND:                -0.389
REMARK SMILES CCCCCCCC(=O)[O-]
REMARK SMILES IDX 5 1 6 2 7 3 8 4 9 5 10 6 4 7 3 8 2 9 1 10
REMARK H PARENT
REMARK Flexibility Score: inf
ROOT
ATOM      1  C   UNL     1      13.609  -7.276  38.691  1.00  0.00     0.000 C 
ENDROOT
BRANCH   1   2
ATOM      2  C   UNL     1      13.522  -5.742  38.822  1.00  0.00     0.006 C 
BRANCH   2   3
ATOM      3  C   UNL     1      12.824  -5.039  37.647  1.00  0.00     0.053 C 
BRANCH   3   4
ATOM      4  C   UNL     1      13.753  -4.125  36.909  1.00  0.00     0.041 C 
ATOM      5  O   UNL     1      14.990  -4.156  37.142  1.00  0.00    -0.550 OA
ATOM      6  O   UNL     1      13.257  -3.261  35.941  1.00  0.00    -0.550 OA
ENDBRANCH   3   4
ENDBRANCH   2   3
ENDBRANCH   1   2
BRANCH   1   7
ATOM      7  C   UNL     1      15.033  -7.859  38.748  1.00  0.00     0.000 C 
BRANCH   7   8
ATOM      8  C   UNL     1      15.068  -9.378  38.511  1.00  0.00    -0.000 C 
BRANCH   8   9
ATOM      9  C   UNL     1      16.481  -9.963  38.657  1.00  0.00    -0.003 C 
ATOM     10  C   UNL     1      17.337  -9.766  37.406  1.00  0.00     0.004 C 
ENDBRANCH   8   9
ENDBRANCH   7   8
ENDBRANCH   1   7
TORSDOF 6
ENDMDL
MODEL 6
REMARK VINA RESULT:    -3.421     14.028     15.111
REMARK INTER + INTRA:          -5.009
REMARK INTER:                  -4.646
REMARK INTRA:                  -0.363
REMARK UNBOUND:                -0.389
REMARK SMILES CCCCCCCC(=O)[O-]
REMARK SMILES IDX 5 1 6 2 7 3 8 4 9 5 10 6 4 7 3 8 2 9 1 10
REMARK H PARENT
REMARK Flexibility Score: inf
ROOT
ATOM      1  C   UNL     1      19.252   1.505  27.486  1.00  0.00     0.000 C 
ENDROOT
BRANCH   1   2
ATOM      2  C   UNL     1      19.524   2.007  26.053  1.00  0.00     0.006 C 
BRANCH   2   3
ATOM      3  C   UNL     1      20.560   3.138  25.958  1.00  0.00     0.053 C 
BRANCH   3   4
ATOM      4  C   UNL     1      20.018   4.338  25.245  1.00  0.00     0.041 C 
ATOM      5  O   UNL     1      20.724   4.945  24.398  1.00  0.00    -0.550 OA
ATOM      6  O   UNL     1      18.719   4.766  25.491  1.00  0.00    -0.550 OA
ENDBRANCH   3   4
ENDBRANCH   2   3
ENDBRANCH   1   2
BRANCH   1   7
ATOM      7  C   UNL     1      20.142   2.125  28.578  1.00  0.00     0.000 C 
BRANCH   7   8
ATOM      8  C   UNL     1      21.131   1.116  29.188  1.00  0.00    -0.000 C 
BRANCH   8   9
ATOM      9  C   UNL     1      20.659  -0.338  29.031  1.00  0.00    -0.003 C 
ATOM     10  C   UNL     1      21.806  -1.307  28.747  1.00  0.00     0.004 C 
ENDBRANCH   8   9
ENDBRANCH   7   8
ENDBRANCH   1   7
TORSDOF 6
ENDMDL
MODEL 7
REMARK VINA RESULT:    -3.381     14.157     15.270
REMARK INTER + INTRA:          -4.955
REMARK INTER:                  -4.611
REMARK INTRA:                  -0.344
REMARK UNBOUND:                -0.389
REMARK SMILES CCCCCCCC(=O)[O-]
REMARK SMILES IDX 5 1 6 2 7 3 8 4 9 5 10 6 4 7 3 8 2 9 1 10
REMARK H PARENT
REMARK Flexibility Score: inf
ROOT
ATOM      1  C   UNL     1       9.231  -4.642  34.691  1.00  0.00     0.000 C 
ENDROOT
BRANCH   1   2
ATOM      2  C   UNL     1      10.631  -5.045  35.197  1.00  0.00     0.006 C 
BRANCH   2   3
ATOM      3  C   UNL     1      11.762  -4.097  34.769  1.00  0.00     0.053 C 
BRANCH   3   4
ATOM      4  C   UNL     1      12.511  -3.549  35.945  1.00  0.00     0.041 C 
ATOM      5  O   UNL     1      12.779  -2.321  36.009  1.00  0.00    -0.550 OA
ATOM      6  O   UNL     1      12.882  -4.390  36.987  1.00  0.00    -0.550 OA
ENDBRANCH   3   4
ENDBRANCH   2   3
ENDBRANCH   1   2
BRANCH   1   7
ATOM      7  C   UNL     1       8.313  -5.815  34.301  1.00  0.00     0.000 C 
BRANCH   7   8
ATOM      8  C   UNL     1       8.884  -6.667  33.156  1.00  0.00    -0.000 C 
BRANCH   8   9
ATOM      9  C   UNL     1       9.089  -8.135  33.562  1.00  0.00    -0.003 C 
ATOM     10  C   UNL     1      10.561  -8.549  33.569  1.00  0.00     0.004 C 
ENDBRANCH   8   9
ENDBRANCH   7   8
ENDBRANCH   1   7
TORSDOF 6
ENDMDL
MODEL 8
REMARK VINA RESULT:    -3.327     15.982     16.569
REMARK INTER + INTRA:          -4.882
REMARK INTER:                  -4.502
REMARK INTRA:                  -0.380
REMARK UNBOUND:                -0.389
REMARK SMILES CCCCCCCC(=O)[O-]
REMARK SMILES IDX 5 1 6 2 7 3 8 4 9 5 10 6 4 7 3 8 2 9 1 10
REMARK H PARENT
REMARK Flexibility Score: inf
ROOT
ATOM      1  C   UNL     1      13.756 -11.552  38.066  1.00  0.00     0.000 C 
ENDROOT
BRANCH   1   2
ATOM      2  C   UNL     1      13.218 -10.532  39.091  1.00  0.00     0.006 C 
BRANCH   2   3
ATOM      3  C   UNL     1      12.172  -9.555  38.531  1.00  0.00     0.053 C 
BRANCH   3   4
ATOM      4  C   UNL     1      12.697  -8.154  38.456  1.00  0.00     0.041 C 
ATOM      5  O   UNL     1      12.067  -7.275  37.813  1.00  0.00    -0.550 OA
ATOM      6  O   UNL     1      13.866  -7.812  39.125  1.00  0.00    -0.550 OA
ENDBRANCH   3   4
ENDBRANCH   2   3
ENDBRANCH   1   2
BRANCH   1   7
ATOM      7  C   UNL     1      15.285 -11.729  38.058  1.00  0.00     0.000 C 
BRANCH   7   8
ATOM      8  C   UNL     1      16.023 -10.594  38.787  1.00  0.00    -0.000 C 
BRANCH   8   9
ATOM      9  C   UNL     1      16.633  -9.570  37.816  1.00  0.00    -0.003 C 
ATOM     10  C   UNL     1      18.033  -9.963  37.343  1.00  0.00     0.004 C 
ENDBRANCH   8   9
ENDBRANCH   7   8
ENDBRANCH   1   7
TORSDOF 6
ENDMDL
MODEL 9
REMARK VINA RESULT:    -3.318     13.818     14.789
REMARK INTER + INTRA:          -4.870
REMARK INTER:                  -4.629
REMARK INTRA:                  -0.241
REMARK UNBOUND:                -0.389
REMARK SMILES CCCCCCCC(=O)[O-]
REMARK SMILES IDX 5 1 6 2 7 3 8 4 9 5 10 6 4 7 3 8 2 9 1 10
REMARK H PARENT
REMARK Flexibility Score: inf
ROOT
ATOM      1  C   UNL     1      19.137   1.193  27.855  1.00  0.00     0.000 C 
ENDROOT
BRANCH   1   2
ATOM      2  C   UNL     1      20.115   2.123  27.110  1.00  0.00     0.006 C 
BRANCH   2   3
ATOM      3  C   UNL     1      19.756   3.616  27.178  1.00  0.00     0.053 C 
BRANCH   3   4
ATOM      4  C   UNL     1      19.486   4.190  25.821  1.00  0.00     0.041 C 
ATOM      5  O   UNL     1      18.438   4.855  25.612  1.00  0.00    -0.550 OA
ATOM      6  O   UNL     1      20.408   4.019  24.797  1.00  0.00    -0.550 OA
ENDBRANCH   3   4
ENDBRANCH   2   3
ENDBRANCH   1   2
BRANCH   1   7
ATOM      7  C   UNL     1      19.750   0.392  29.018  1.00  0.00     0.000 C 
BRANCH   7   8
ATOM      8  C   UNL     1      21.287   0.345  28.968  1.00  0.00    -0.000 C 
BRANCH   8   9
ATOM      9  C   UNL     1      21.814  -0.965  28.361  1.00  0.00    -0.003 C 
ATOM     10  C   UNL     1      21.884  -2.104  29.378  1.00  0.00     0.004 C 
ENDBRANCH   8   9
ENDBRANCH   7   8
ENDBRANCH   1   7
TORSDOF 6
ENDMDL
