MODEL 1
REMARK VINA RESULT:    -4.303      0.000      0.000
REMARK INTER + INTRA:          -7.589
REMARK INTER:                  -6.567
REMARK INTRA:                  -1.022
REMARK UNBOUND:                -1.022
REMARK SMILES CCCCCCCCCCC(=O)[O-]
REMARK SMILES IDX 7 1 8 2 9 3 10 4 11 5 12 6 13 7 6 8 5 9 4 10 3 11 2 12 1 13
REMARK H PARENT
REMARK Flexibility Score: inf
ROOT
ATOM      1  C   UNL     1      30.922  18.593   9.968  1.00  0.00     0.000 C 
ENDROOT
BRANCH   1   2
ATOM      2  C   UNL     1      31.923  18.871  11.099  1.00  0.00     0.000 C 
BRANCH   2   3
ATOM      3  C   UNL     1      31.246  19.006  12.475  1.00  0.00     0.006 C 
BRANCH   3   4
ATOM      4  C   UNL     1      32.219  18.980  13.664  1.00  0.00     0.053 C 
BRANCH   4   5
ATOM      5  C   UNL     1      33.147  20.155  13.658  1.00  0.00     0.041 C 
ATOM      6  O   UNL     1      34.335  20.023  13.260  1.00  0.00    -0.550 OA
ATOM      7  O   UNL     1      32.692  21.405  14.059  1.00  0.00    -0.550 OA
ENDBRANCH   4   5
ENDBRANCH   3   4
ENDBRANCH   2   3
ENDBRANCH   1   2
BRANCH   1   8
ATOM      8  C   UNL     1      29.589  18.082  10.528  1.00  0.00     0.000 C 
BRANCH   8   9
ATOM      9  C   UNL     1      28.437  19.031  10.160  1.00  0.00    -0.000 C 
BRANCH   9  10
ATOM     10  C   UNL     1      27.645  19.508  11.388  1.00  0.00    -0.000 C 
BRANCH  10  11
ATOM     11  C   UNL     1      27.590  21.041  11.497  1.00  0.00    -0.000 C 
BRANCH  11  12
ATOM     12  C   UNL     1      28.848  21.717  10.929  1.00  0.00    -0.003 C 
ATOM     13  C   UNL     1      29.846  22.120  12.014  1.00  0.00     0.004 C 
ENDBRANCH  11  12
ENDBRANCH  10  11
ENDBRANCH   9  10
ENDBRANCH   8   9
ENDBRANCH   1   8
TORSDOF 9
ENDMDL
MODEL 2
REMARK VINA RESULT:    -4.154      2.407      4.797
REMARK INTER + INTRA:          -7.361
REMARK INTER:                  -6.594
REMARK INTRA:                  -0.767
REMARK UNBOUND:                -1.022
REMARK SMILES CCCCCCCCCCC(=O)[O-]
REMARK SMILES IDX 7 1 8 2 9 3 10 4 11 5 12 6 13 7 6 8 5 9 4 10 3 11 2 12 1 13
REMARK H PARENT
REMARK Flexibility Score: inf
ROOT
ATOM      1  C   UNL     1      31.120  18.197  10.395  1.00  0.00     0.000 C 
ENDROOT
BRANCH   1   2
ATOM      2  C   UNL     1      29.623  17.892  10.241  1.00  0.00     0.000 C 
BRANCH   2   3
ATOM      3  C   UNL     1      28.775  19.159  10.022  1.00  0.00     0.006 C 
BRANCH   3   4
ATOM      4  C   UNL     1      27.805  19.478  11.170  1.00  0.00     0.053 C 
BRANCH   4   5
ATOM      5  C   UNL     1      27.720  20.947  11.444  1.00  0.00     0.041 C 
ATOM      6  O   UNL     1      26.618  21.549  11.337  1.00  0.00    -0.550 OA
ATOM      7  O   UNL     1      28.849  21.647  11.851  1.00  0.00    -0.550 OA
ENDBRANCH   4   5
ENDBRANCH   3   4
ENDBRANCH   2   3
ENDBRANCH   1   2
BRANCH   1   8
ATOM      8  C   UNL     1      31.389  19.703  10.280  1.00  0.00     0.000 C 
BRANCH   8   9
ATOM      9  C   UNL     1      32.095  20.233  11.537  1.00  0.00    -0.000 C 
BRANCH   9  10
ATOM     10  C   UNL     1      31.761  19.416  12.795  1.00  0.00    -0.000 C 
BRANCH  10  11
ATOM     11  C   UNL     1      32.716  19.712  13.964  1.00  0.00    -0.000 C 
BRANCH  11  12
ATOM     12  C   UNL     1      33.202  21.169  13.973  1.00  0.00    -0.003 C 
ATOM     13  C   UNL     1      34.287  21.427  15.018  1.00  0.00     0.004 C 
ENDBRANCH  11  12
ENDBRANCH  10  11
ENDBRANCH   9  10
ENDBRANCH   8   9
ENDBRANCH   1   8
TORSDOF 9
ENDMDL
MODEL 3
REMARK VINA RESULT:    -4.097      2.678      5.167
REMARK INTER + INTRA:          -7.275
REMARK INTER:                  -6.183
REMARK INTRA:                  -1.091
REMARK UNBOUND:                -1.022
REMARK SMILES CCCCCCCCCCC(=O)[O-]
REMARK SMILES IDX 7 1 8 2 9 3 10 4 11 5 12 6 13 7 6 8 5 9 4 10 3 11 2 12 1 13
REMARK H PARENT
REMARK Flexibility Score: inf
ROOT
ATOM      1  C   UNL     1      31.679  21.612  11.266  1.00  0.00     0.000 C 
ENDROOT
BRANCH   1   2
ATOM      2  C   UNL     1      30.507  21.650  12.257  1.00  0.00     0.000 C 
BRANCH   2   3
ATOM      3  C   UNL     1      29.137  21.723  11.559  1.00  0.00     0.006 C 
BRANCH   3   4
ATOM      4  C   UNL     1      28.967  20.737  10.393  1.00  0.00     0.053 C 
BRANCH   4   5
ATOM      5  C   UNL     1      28.697  19.343  10.870  1.00  0.00     0.041 C 
ATOM      6  O   UNL     1      27.754  19.121  11.676  1.00  0.00    -0.550 OA
ATOM      7  O   UNL     1      29.462  18.284  10.398  1.00  0.00    -0.550 OA
ENDBRANCH   4   5
ENDBRANCH   3   4
ENDBRANCH   2   3
ENDBRANCH   1   2
BRANCH   1   8
ATOM      8  C   UNL     1      32.599  20.417  11.547  1.00  0.00     0.000 C 
BRANCH   8   9
ATOM      9  C   UNL     1      32.007  19.512  12.639  1.00  0.00    -0.000 C 
BRANCH   9  10
ATOM     10  C   UNL     1      32.806  19.564  13.950  1.00  0.00    -0.000 C 
BRANCH  10  11
ATOM     11  C   UNL     1      34.093  20.399  13.827  1.00  0.00    -0.000 C 
BRANCH  11  12
ATOM     12  C   UNL     1      34.194  21.486  14.908  1.00  0.00    -0.003 C 
ATOM     13  C   UNL     1      33.210  22.635  14.688  1.00  0.00     0.004 C 
ENDBRANCH  11  12
ENDBRANCH  10  11
ENDBRANCH   9  10
ENDBRANCH   8   9
ENDBRANCH   1   8
TORSDOF 9
ENDMDL
MODEL 4
REMARK VINA RESULT:    -3.982      1.382      2.178
REMARK INTER + INTRA:          -7.099
REMARK INTER:                  -6.343
REMARK INTRA:                  -0.757
REMARK UNBOUND:                -1.022
REMARK SMILES CCCCCCCCCCC(=O)[O-]
REMARK SMILES IDX 7 1 8 2 9 3 10 4 11 5 12 6 13 7 6 8 5 9 4 10 3 11 2 12 1 13
REMARK H PARENT
REMARK Flexibility Score: inf
ROOT
ATOM      1  C   UNL     1      32.068  19.240  11.524  1.00  0.00     0.000 C 
ENDROOT
BRANCH   1   2
ATOM      2  C   UNL     1      32.274  20.670  12.044  1.00  0.00     0.000 C 
BRANCH   2   3
ATOM      3  C   UNL     1      32.278  20.752  13.581  1.00  0.00     0.006 C 
BRANCH   3   4
ATOM      4  C   UNL     1      33.175  21.860  14.154  1.00  0.00     0.053 C 
BRANCH   4   5
ATOM      5  C   UNL     1      34.463  21.318  14.692  1.00  0.00     0.041 C 
ATOM      6  O   UNL     1      34.824  21.591  15.868  1.00  0.00    -0.550 OA
ATOM      7  O   UNL     1      35.250  20.482  13.909  1.00  0.00    -0.550 OA
ENDBRANCH   4   5
ENDBRANCH   3   4
ENDBRANCH   2   3
ENDBRANCH   1   2
BRANCH   1   8
ATOM      8  C   UNL     1      31.192  19.233  10.265  1.00  0.00     0.000 C 
BRANCH   8   9
ATOM      9  C   UNL     1      30.047  18.217  10.397  1.00  0.00    -0.000 C 
BRANCH   9  10
ATOM     10  C   UNL     1      28.989  18.644  11.426  1.00  0.00    -0.000 C 
BRANCH  10  11
ATOM     11  C   UNL     1      27.826  19.424  10.790  1.00  0.00    -0.000 C 
BRANCH  11  12
ATOM     12  C   UNL     1      27.566  20.767  11.491  1.00  0.00    -0.003 C 
ATOM     13  C   UNL     1      28.794  21.677  11.503  1.00  0.00     0.004 C 
ENDBRANCH  11  12
ENDBRANCH  10  11
ENDBRANCH   9  10
ENDBRANCH   8   9
ENDBRANCH   1   8
TORSDOF 9
ENDMDL
MODEL 5
REMARK VINA RESULT:    -3.944      1.465      2.546
REMARK INTER + INTRA:          -7.042
REMARK INTER:                  -6.182
REMARK INTRA:                  -0.860
REMARK UNBOUND:                -1.022
REMARK SMILES CCCCCCCCCCC(=O)[O-]
REMARK SMILES IDX 7 1 8 2 9 3 10 4 11 5 12 6 13 7 6 8 5 9 4 10 3 11 2 12 1 13
REMARK H PARENT
REMARK Flexibility Score: inf
ROOT
ATOM      1  C   UNL     1      31.741  20.259  11.672  1.00  0.00     0.000 C 
ENDROOT
BRANCH   1   2
ATOM      2  C   UNL     1      31.487  19.341  12.877  1.00  0.00     0.000 C 
BRANCH   2   3
ATOM      3  C   UNL     1      32.629  19.381  13.909  1.00  0.00     0.006 C 
BRANCH   3   4
ATOM      4  C   UNL     1      33.703  20.441  13.623  1.00  0.00     0.053 C 
BRANCH   4   5
ATOM      5  C   UNL     1      33.700  21.535  14.646  1.00  0.00     0.041 C 
ATOM      6  O   UNL     1      34.570  21.552  15.557  1.00  0.00    -0.550 OA
ATOM      7  O   UNL     1      32.759  22.554  14.574  1.00  0.00    -0.550 OA
ENDBRANCH   4   5
ENDBRANCH   3   4
ENDBRANCH   2   3
ENDBRANCH   1   2
BRANCH   1   8
ATOM      8  C   UNL     1      30.804  21.474  11.699  1.00  0.00     0.000 C 
BRANCH   8   9
ATOM      9  C   UNL     1      30.233  21.759  10.302  1.00  0.00    -0.000 C 
BRANCH   9  10
ATOM     10  C   UNL     1      28.776  22.248  10.344  1.00  0.00    -0.000 C 
BRANCH  10  11
ATOM     11  C   UNL     1      27.903  21.424  11.307  1.00  0.00    -0.000 C 
BRANCH  11  12
ATOM     12  C   UNL     1      27.527  20.051  10.730  1.00  0.00    -0.003 C 
ATOM     13  C   UNL     1      28.103  18.889  11.540  1.00  0.00     0.004 C 
ENDBRANCH  11  12
ENDBRANCH  10  11
ENDBRANCH   9  10
ENDBRANCH   8   9
ENDBRANCH   1   8
TORSDOF 9
ENDMDL
MODEL 6
REMARK VINA RESULT:    -3.841     13.338     14.662
REMARK INTER + INTRA:          -6.884
REMARK INTER:                  -5.690
REMARK INTRA:                  -1.195
REMARK UNBOUND:                -1.022
REMARK SMILES CCCCCCCCCCC(=O)[O-]
REMARK SMILES IDX 7 1 8 2 9 3 10 4 11 5 12 6 13 7 6 8 5 9 4 10 3 11 2 12 1 13
REMARK H PARENT
REMARK Flexibility Score: inf
ROOT
ATOM      1  C   UNL     1      30.602   3.939  10.898  1.00  0.00     0.000 C 
ENDROOT
BRANCH   1   2
ATOM      2  C   UNL     1      29.570   3.370  11.883  1.00  0.00     0.000 C 
BRANCH   2   3
ATOM      3  C   UNL     1      30.091   3.321  13.331  1.00  0.00     0.006 C 
BRANCH   3   4
ATOM      4  C   UNL     1      31.503   3.899  13.515  1.00  0.00     0.053 C 
BRANCH   4   5
ATOM      5  C   UNL     1      31.530   5.004  14.526  1.00  0.00     0.041 C 
ATOM      6  O   UNL     1      31.364   6.199  14.163  1.00  0.00    -0.550 OA
ATOM      7  O   UNL     1      31.706   4.712  15.873  1.00  0.00    -0.550 OA
ENDBRANCH   4   5
ENDBRANCH   3   4
ENDBRANCH   2   3
ENDBRANCH   1   2
BRANCH   1   8
ATOM      8  C   UNL     1      30.015   5.112  10.103  1.00  0.00     0.000 C 
BRANCH   8   9
ATOM      9  C   UNL     1      30.404   6.456  10.739  1.00  0.00    -0.000 C 
BRANCH   9  10
ATOM     10  C   UNL     1      29.311   7.526  10.581  1.00  0.00    -0.000 C 
BRANCH  10  11
ATOM     11  C   UNL     1      28.042   7.198  11.386  1.00  0.00    -0.000 C 
BRANCH  11  12
ATOM     12  C   UNL     1      28.235   7.401  12.897  1.00  0.00    -0.003 C 
ATOM     13  C   UNL     1      27.807   6.184  13.718  1.00  0.00     0.004 C 
ENDBRANCH  11  12
ENDBRANCH  10  11
ENDBRANCH   9  10
ENDBRANCH   8   9
ENDBRANCH   1   8
TORSDOF 9
ENDMDL
MODEL 7
REMARK VINA RESULT:    -3.835     15.881     18.062
REMARK INTER + INTRA:          -6.875
REMARK INTER:                  -6.018
REMARK INTRA:                  -0.857
REMARK UNBOUND:                -1.022
REMARK SMILES CCCCCCCCCCC(=O)[O-]
REMARK SMILES IDX 7 1 8 2 9 3 10 4 11 5 12 6 13 7 6 8 5 9 4 10 3 11 2 12 1 13
REMARK H PARENT
REMARK Flexibility Score: inf
ROOT
ATOM      1  C   UNL     1      45.865  15.392  22.226  1.00  0.00     0.000 C 
ENDROOT
BRANCH   1   2
ATOM      2  C   UNL     1      45.644  14.151  21.350  1.00  0.00     0.000 C 
BRANCH   2   3
ATOM      3  C   UNL     1      45.057  12.963  22.135  1.00  0.00     0.006 C 
BRANCH   3   4
ATOM      4  C   UNL     1      45.719  11.612  21.827  1.00  0.00     0.053 C 
BRANCH   4   5
ATOM      5  C   UNL     1      44.711  10.549  21.515  1.00  0.00     0.041 C 
ATOM      6  O   UNL     1      43.568  10.587  22.043  1.00  0.00    -0.550 OA
ATOM      7  O   UNL     1      45.021   9.536  20.616  1.00  0.00    -0.550 OA
ENDBRANCH   4   5
ENDBRANCH   3   4
ENDBRANCH   2   3
ENDBRANCH   1   2
BRANCH   1   8
ATOM      8  C   UNL     1      45.119  16.607  21.657  1.00  0.00     0.000 C 
BRANCH   8   9
ATOM      9  C   UNL     1      44.061  16.171  20.632  1.00  0.00    -0.000 C 
BRANCH   9  10
ATOM     10  C   UNL     1      42.714  16.886  20.829  1.00  0.00    -0.000 C 
BRANCH  10  11
ATOM     11  C   UNL     1      41.614  15.943  21.345  1.00  0.00    -0.000 C 
BRANCH  11  12
ATOM     12  C   UNL     1      42.023  15.210  22.632  1.00  0.00    -0.003 C 
ATOM     13  C   UNL     1      41.439  13.800  22.722  1.00  0.00     0.004 C 
ENDBRANCH  11  12
ENDBRANCH  10  11
ENDBRANCH   9  10
ENDBRANCH   8   9
ENDBRANCH   1   8
TORSDOF 9
ENDMDL
MODEL 8
REMARK VINA RESULT:    -3.776     13.250     14.708
REMARK INTER + INTRA:          -6.784
REMARK INTER:                  -5.718
REMARK INTRA:                  -1.066
REMARK UNBOUND:                -1.022
REMARK SMILES CCCCCCCCCCC(=O)[O-]
REMARK SMILES IDX 7 1 8 2 9 3 10 4 11 5 12 6 13 7 6 8 5 9 4 10 3 11 2 12 1 13
REMARK H PARENT
REMARK Flexibility Score: inf
ROOT
ATOM      1  C   UNL     1      27.756   7.275  12.868  1.00  0.00     0.000 C 
ENDROOT
BRANCH   1   2
ATOM      2  C   UNL     1      28.614   6.252  13.625  1.00  0.00     0.000 C 
BRANCH   2   3
ATOM      3  C   UNL     1      30.051   6.158  13.080  1.00  0.00     0.006 C 
BRANCH   3   4
ATOM      4  C   UNL     1      31.139   6.137  14.165  1.00  0.00     0.053 C 
BRANCH   4   5
ATOM      5  C   UNL     1      31.601   4.746  14.473  1.00  0.00     0.041 C 
ATOM      6  O   UNL     1      31.653   3.880  13.560  1.00  0.00    -0.550 OA
ATOM      7  O   UNL     1      32.005   4.415  15.760  1.00  0.00    -0.550 OA
ENDBRANCH   4   5
ENDBRANCH   3   4
ENDBRANCH   2   3
ENDBRANCH   1   2
BRANCH   1   8
ATOM      8  C   UNL     1      28.465   7.751  11.593  1.00  0.00     0.000 C 
BRANCH   8   9
ATOM      9  C   UNL     1      27.764   7.208  10.339  1.00  0.00    -0.000 C 
BRANCH   9  10
ATOM     10  C   UNL     1      26.580   6.286  10.671  1.00  0.00    -0.000 C 
BRANCH  10  11
ATOM     11  C   UNL     1      26.760   4.865  10.111  1.00  0.00    -0.000 C 
BRANCH  11  12
ATOM     12  C   UNL     1      28.146   4.280  10.427  1.00  0.00    -0.003 C 
ATOM     13  C   UNL     1      28.105   3.221  11.529  1.00  0.00     0.004 C 
ENDBRANCH  11  12
ENDBRANCH  10  11
ENDBRANCH   9  10
ENDBRANCH   8   9
ENDBRANCH   1   8
TORSDOF 9
ENDMDL
MODEL 9
REMARK VINA RESULT:    -3.681     13.417     14.983
REMARK INTER + INTRA:          -6.640
REMARK INTER:                  -5.488
REMARK INTRA:                  -1.152
REMARK UNBOUND:                -1.022
REMARK SMILES CCCCCCCCCCC(=O)[O-]
REMARK SMILES IDX 7 1 8 2 9 3 10 4 11 5 12 6 13 7 6 8 5 9 4 10 3 11 2 12 1 13
REMARK H PARENT
REMARK Flexibility Score: inf
ROOT
ATOM      1  C   UNL     1      30.454   4.688   9.941  1.00  0.00     0.000 C 
ENDROOT
BRANCH   1   2
ATOM      2  C   UNL     1      30.499   6.140  10.437  1.00  0.00     0.000 C 
BRANCH   2   3
ATOM      3  C   UNL     1      29.197   6.910  10.148  1.00  0.00     0.006 C 
BRANCH   3   4
ATOM      4  C   UNL     1      28.678   7.743  11.330  1.00  0.00     0.053 C 
BRANCH   4   5
ATOM      5  C   UNL     1      27.637   7.012  12.120  1.00  0.00     0.041 C 
ATOM      6  O   UNL     1      26.953   6.103  11.578  1.00  0.00    -0.550 OA
ATOM      7  O   UNL     1      27.445   7.309  13.464  1.00  0.00    -0.550 OA
ENDBRANCH   4   5
ENDBRANCH   3   4
ENDBRANCH   2   3
ENDBRANCH   1   2
BRANCH   1   8
ATOM      8  C   UNL     1      30.702   3.706  11.093  1.00  0.00     0.000 C 
BRANCH   8   9
ATOM      9  C   UNL     1      29.484   3.635  12.027  1.00  0.00    -0.000 C 
BRANCH   9  10
ATOM     10  C   UNL     1      29.871   3.694  13.513  1.00  0.00    -0.000 C 
BRANCH  10  11
ATOM     11  C   UNL     1      31.386   3.857  13.724  1.00  0.00    -0.000 C 
BRANCH  11  12
ATOM     12  C   UNL     1      31.741   5.154  14.466  1.00  0.00    -0.003 C 
ATOM     13  C   UNL     1      30.689   6.248  14.284  1.00  0.00     0.004 C 
ENDBRANCH  11  12
ENDBRANCH  10  11
ENDBRANCH   9  10
ENDBRANCH   8   9
ENDBRANCH   1   8
TORSDOF 9
ENDMDL
