MODEL 1
REMARK VINA RESULT:    -3.409      0.000      0.000
REMARK INTER + INTRA:          -5.032
REMARK INTER:                  -4.604
REMARK INTRA:                  -0.428
REMARK UNBOUND:                -0.428
REMARK SMILES CCCCCCCC(=O)[O-]
REMARK SMILES IDX 5 1 6 2 7 3 8 4 9 5 10 6 4 7 3 8 2 9 1 10
REMARK H PARENT
REMARK Flexibility Score: inf
ROOT
ATOM      1  C   UNL     1       6.338 -10.076   1.119  1.00  0.00     0.000 C 
ENDROOT
BRANCH   1   2
ATOM      2  C   UNL     1       5.133  -9.128   1.106  1.00  0.00     0.006 C 
BRANCH   2   3
ATOM      3  C   UNL     1       5.572  -7.687   0.831  1.00  0.00     0.053 C 
BRANCH   3   4
ATOM      4  C   UNL     1       4.401  -6.759   0.904  1.00  0.00     0.041 C 
ATOM      5  O   UNL     1       3.878  -6.485   2.016  1.00  0.00    -0.550 OA
ATOM      6  O   UNL     1       3.919  -6.155  -0.251  1.00  0.00    -0.550 OA
ENDBRANCH   3   4
ENDBRANCH   2   3
ENDBRANCH   1   2
BRANCH   1   7
ATOM      7  C   UNL     1       7.291  -9.771  -0.043  1.00  0.00     0.000 C 
BRANCH   7   8
ATOM      8  C   UNL     1       8.754  -9.865   0.406  1.00  0.00    -0.000 C 
BRANCH   8   9
ATOM      9  C   UNL     1       8.874  -9.711   1.926  1.00  0.00    -0.003 C 
ATOM     10  C   UNL     1       9.372  -8.319   2.301  1.00  0.00     0.004 C 
ENDBRANCH   8   9
ENDBRANCH   7   8
ENDBRANCH   1   7
TORSDOF 6
ENDMDL
MODEL 2
REMARK VINA RESULT:    -3.278      2.647      3.902
REMARK INTER + INTRA:          -4.856
REMARK INTER:                  -4.654
REMARK INTRA:                  -0.203
REMARK UNBOUND:                -0.428
REMARK SMILES CCCCCCCC(=O)[O-]
REMARK SMILES IDX 5 1 6 2 7 3 8 4 9 5 10 6 4 7 3 8 2 9 1 10
REMARK H PARENT
REMARK Flexibility Score: inf
ROOT
ATOM      1  C   UNL     1       4.994  -7.522  -0.570  1.00  0.00     0.000 C 
ENDROOT
BRANCH   1   2
ATOM      2  C   UNL     1       4.124  -6.336  -1.001  1.00  0.00     0.006 C 
BRANCH   2   3
ATOM      3  C   UNL     1       3.710  -6.464  -2.470  1.00  0.00     0.053 C 
BRANCH   3   4
ATOM      4  C   UNL     1       4.339  -5.381  -3.288  1.00  0.00     0.041 C 
ATOM      5  O   UNL     1       4.849  -5.646  -4.408  1.00  0.00    -0.550 OA
ATOM      6  O   UNL     1       4.316  -4.067  -2.836  1.00  0.00    -0.550 OA
ENDBRANCH   3   4
ENDBRANCH   2   3
ENDBRANCH   1   2
BRANCH   1   7
ATOM      7  C   UNL     1       4.943  -7.718   0.950  1.00  0.00     0.000 C 
BRANCH   7   8
ATOM      8  C   UNL     1       5.056  -9.203   1.318  1.00  0.00    -0.000 C 
BRANCH   8   9
ATOM      9  C   UNL     1       6.336  -9.817   0.740  1.00  0.00    -0.003 C 
ATOM     10  C   UNL     1       7.575  -9.266   1.439  1.00  0.00     0.004 C 
ENDBRANCH   8   9
ENDBRANCH   7   8
ENDBRANCH   1   7
TORSDOF 6
ENDMDL
MODEL 3
REMARK VINA RESULT:    -3.136     11.187     13.757
REMARK INTER + INTRA:          -4.664
REMARK INTER:                  -4.385
REMARK INTRA:                  -0.280
REMARK UNBOUND:                -0.428
REMARK SMILES CCCCCCCC(=O)[O-]
REMARK SMILES IDX 5 1 6 2 7 3 8 4 9 5 10 6 4 7 3 8 2 9 1 10
REMARK H PARENT
REMARK Flexibility Score: inf
ROOT
ATOM      1  C   UNL     1      -4.466  -5.276   8.688  1.00  0.00     0.000 C 
ENDROOT
BRANCH   1   2
ATOM      2  C   UNL     1      -4.216  -6.078   7.405  1.00  0.00     0.006 C 
BRANCH   2   3
ATOM      3  C   UNL     1      -3.338  -7.302   7.685  1.00  0.00     0.053 C 
BRANCH   3   4
ATOM      4  C   UNL     1      -2.448  -7.586   6.517  1.00  0.00     0.041 C 
ATOM      5  O   UNL     1      -1.484  -8.387   6.635  1.00  0.00    -0.550 OA
ATOM      6  O   UNL     1      -2.713  -7.005   5.283  1.00  0.00    -0.550 OA
ENDBRANCH   3   4
ENDBRANCH   2   3
ENDBRANCH   1   2
BRANCH   1   7
ATOM      7  C   UNL     1      -5.308  -4.027   8.401  1.00  0.00     0.000 C 
BRANCH   7   8
ATOM      8  C   UNL     1      -5.783  -4.007   6.943  1.00  0.00    -0.000 C 
BRANCH   8   9
ATOM      9  C   UNL     1      -7.302  -4.200   6.857  1.00  0.00    -0.003 C 
ATOM     10  C   UNL     1      -7.991  -3.713   8.128  1.00  0.00     0.004 C 
ENDBRANCH   8   9
ENDBRANCH   7   8
ENDBRANCH   1   7
TORSDOF 6
ENDMDL
MODEL 4
REMARK VINA RESULT:    -3.128     11.096     13.567
REMARK INTER + INTRA:          -4.653
REMARK INTER:                  -4.386
REMARK INTRA:                  -0.267
REMARK UNBOUND:                -0.428
REMARK SMILES CCCCCCCC(=O)[O-]
REMARK SMILES IDX 5 1 6 2 7 3 8 4 9 5 10 6 4 7 3 8 2 9 1 10
REMARK H PARENT
REMARK Flexibility Score: inf
ROOT
ATOM      1  C   UNL     1      -4.481  -5.614   8.682  1.00  0.00     0.000 C 
ENDROOT
BRANCH   1   2
ATOM      2  C   UNL     1      -3.386  -6.665   8.467  1.00  0.00     0.006 C 
BRANCH   2   3
ATOM      3  C   UNL     1      -3.741  -7.599   7.307  1.00  0.00     0.053 C 
BRANCH   3   4
ATOM      4  C   UNL     1      -2.645  -7.612   6.289  1.00  0.00     0.041 C 
ATOM      5  O   UNL     1      -2.751  -6.933   5.234  1.00  0.00    -0.550 OA
ATOM      6  O   UNL     1      -1.483  -8.334   6.529  1.00  0.00    -0.550 OA
ENDBRANCH   3   4
ENDBRANCH   2   3
ENDBRANCH   1   2
BRANCH   1   7
ATOM      7  C   UNL     1      -4.894  -4.970   7.353  1.00  0.00     0.000 C 
BRANCH   7   8
ATOM      8  C   UNL     1      -5.914  -3.847   7.579  1.00  0.00    -0.000 C 
BRANCH   8   9
ATOM      9  C   UNL     1      -5.708  -3.185   8.946  1.00  0.00    -0.003 C 
ATOM     10  C   UNL     1      -6.457  -1.859   9.034  1.00  0.00     0.004 C 
ENDBRANCH   8   9
ENDBRANCH   7   8
ENDBRANCH   1   7
TORSDOF 6
ENDMDL
MODEL 5
REMARK VINA RESULT:    -3.066     19.978     20.683
REMARK INTER + INTRA:          -4.569
REMARK INTER:                  -4.230
REMARK INTRA:                  -0.339
REMARK UNBOUND:                -0.428
REMARK SMILES CCCCCCCC(=O)[O-]
REMARK SMILES IDX 5 1 6 2 7 3 8 4 9 5 10 6 4 7 3 8 2 9 1 10
REMARK H PARENT
REMARK Flexibility Score: inf
ROOT
ATOM      1  C   UNL     1      -4.384   7.847   5.348  1.00  0.00     0.000 C 
ENDROOT
BRANCH   1   2
ATOM      2  C   UNL     1      -5.344   8.070   4.174  1.00  0.00     0.006 C 
BRANCH   2   3
ATOM      3  C   UNL     1      -4.661   8.849   3.047  1.00  0.00     0.053 C 
BRANCH   3   4
ATOM      4  C   UNL     1      -5.084   8.320   1.713  1.00  0.00     0.041 C 
ATOM      5  O   UNL     1      -5.162   9.091   0.720  1.00  0.00    -0.550 OA
ATOM      6  O   UNL     1      -5.343   6.964   1.554  1.00  0.00    -0.550 OA
ENDBRANCH   3   4
ENDBRANCH   2   3
ENDBRANCH   1   2
BRANCH   1   7
ATOM      7  C   UNL     1      -4.871   8.578   6.605  1.00  0.00     0.000 C 
BRANCH   7   8
ATOM      8  C   UNL     1      -4.069   9.864   6.839  1.00  0.00    -0.000 C 
BRANCH   8   9
ATOM      9  C   UNL     1      -2.577   9.639   6.568  1.00  0.00    -0.003 C 
ATOM     10  C   UNL     1      -1.813   9.388   7.864  1.00  0.00     0.004 C 
ENDBRANCH   8   9
ENDBRANCH   7   8
ENDBRANCH   1   7
TORSDOF 6
ENDMDL
MODEL 6
REMARK VINA RESULT:    -3.013     10.932     12.821
REMARK INTER + INTRA:          -4.498
REMARK INTER:                  -4.095
REMARK INTRA:                  -0.403
REMARK UNBOUND:                -0.428
REMARK SMILES CCCCCCCC(=O)[O-]
REMARK SMILES IDX 5 1 6 2 7 3 8 4 9 5 10 6 4 7 3 8 2 9 1 10
REMARK H PARENT
REMARK Flexibility Score: inf
ROOT
ATOM      1  C   UNL     1       7.828   1.801  -7.144  1.00  0.00     0.000 C 
ENDROOT
BRANCH   1   2
ATOM      2  C   UNL     1       8.059   0.481  -6.399  1.00  0.00     0.006 C 
BRANCH   2   3
ATOM      3  C   UNL     1       6.788   0.030  -5.675  1.00  0.00     0.053 C 
BRANCH   3   4
ATOM      4  C   UNL     1       6.489  -1.403  -5.983  1.00  0.00     0.041 C 
ATOM      5  O   UNL     1       6.115  -1.740  -7.137  1.00  0.00    -0.550 OA
ATOM      6  O   UNL     1       6.674  -2.377  -5.009  1.00  0.00    -0.550 OA
ENDBRANCH   3   4
ENDBRANCH   2   3
ENDBRANCH   1   2
BRANCH   1   7
ATOM      7  C   UNL     1       6.335   2.027  -7.412  1.00  0.00     0.000 C 
BRANCH   7   8
ATOM      8  C   UNL     1       5.982   3.518  -7.336  1.00  0.00    -0.000 C 
BRANCH   8   9
ATOM      9  C   UNL     1       4.523   3.717  -6.910  1.00  0.00    -0.003 C 
ATOM     10  C   UNL     1       4.232   3.003  -5.594  1.00  0.00     0.004 C 
ENDBRANCH   8   9
ENDBRANCH   7   8
ENDBRANCH   1   7
TORSDOF 6
ENDMDL
MODEL 7
REMARK VINA RESULT:    -2.995     11.501     12.963
REMARK INTER + INTRA:          -4.474
REMARK INTER:                  -4.095
REMARK INTRA:                  -0.379
REMARK UNBOUND:                -0.428
REMARK SMILES CCCCCCCC(=O)[O-]
REMARK SMILES IDX 5 1 6 2 7 3 8 4 9 5 10 6 4 7 3 8 2 9 1 10
REMARK H PARENT
REMARK Flexibility Score: inf
ROOT
ATOM      1  C   UNL     1       6.815   2.159  -7.836  1.00  0.00     0.000 C 
ENDROOT
BRANCH   1   2
ATOM      2  C   UNL     1       5.314   2.038  -8.122  1.00  0.00     0.006 C 
BRANCH   2   3
ATOM      3  C   UNL     1       4.598   3.368  -7.867  1.00  0.00     0.053 C 
BRANCH   3   4
ATOM      4  C   UNL     1       4.647   3.719  -6.414  1.00  0.00     0.041 C 
ATOM      5  O   UNL     1       3.973   3.061  -5.579  1.00  0.00    -0.550 OA
ATOM      6  O   UNL     1       5.477   4.743  -5.975  1.00  0.00    -0.550 OA
ENDBRANCH   3   4
ENDBRANCH   2   3
ENDBRANCH   1   2
BRANCH   1   7
ATOM      7  C   UNL     1       7.258   1.137  -6.782  1.00  0.00     0.000 C 
BRANCH   7   8
ATOM      8  C   UNL     1       6.072   0.291  -6.302  1.00  0.00    -0.000 C 
BRANCH   8   9
ATOM      9  C   UNL     1       6.331  -1.202  -6.538  1.00  0.00    -0.003 C 
ATOM     10  C   UNL     1       6.755  -1.897  -5.248  1.00  0.00     0.004 C 
ENDBRANCH   8   9
ENDBRANCH   7   8
ENDBRANCH   1   7
TORSDOF 6
ENDMDL
MODEL 8
REMARK VINA RESULT:    -2.976     11.015     12.522
REMARK INTER + INTRA:          -4.449
REMARK INTER:                  -4.017
REMARK INTRA:                  -0.431
REMARK UNBOUND:                -0.428
REMARK SMILES CCCCCCCC(=O)[O-]
REMARK SMILES IDX 5 1 6 2 7 3 8 4 9 5 10 6 4 7 3 8 2 9 1 10
REMARK H PARENT
REMARK Flexibility Score: inf
ROOT
ATOM      1  C   UNL     1       7.028   0.295  -6.053  1.00  0.00     0.000 C 
ENDROOT
BRANCH   1   2
ATOM      2  C   UNL     1       5.684   1.023  -5.931  1.00  0.00     0.006 C 
BRANCH   2   3
ATOM      3  C   UNL     1       5.589   2.172  -6.939  1.00  0.00     0.053 C 
BRANCH   3   4
ATOM      4  C   UNL     1       4.936   3.364  -6.314  1.00  0.00     0.041 C 
ATOM      5  O   UNL     1       5.451   4.507  -6.438  1.00  0.00    -0.550 OA
ATOM      6  O   UNL     1       3.731   3.221  -5.638  1.00  0.00    -0.550 OA
ENDBRANCH   3   4
ENDBRANCH   2   3
ENDBRANCH   1   2
BRANCH   1   7
ATOM      7  C   UNL     1       6.831  -1.226  -6.061  1.00  0.00     0.000 C 
BRANCH   7   8
ATOM      8  C   UNL     1       5.662  -1.625  -6.971  1.00  0.00    -0.000 C 
BRANCH   8   9
ATOM      9  C   UNL     1       6.069  -1.565  -8.447  1.00  0.00    -0.003 C 
ATOM     10  C   UNL     1       4.970  -0.934  -9.297  1.00  0.00     0.004 C 
ENDBRANCH   8   9
ENDBRANCH   7   8
ENDBRANCH   1   7
TORSDOF 6
ENDMDL
MODEL 9
REMARK VINA RESULT:    -2.930     10.586     12.733
REMARK INTER + INTRA:          -4.386
REMARK INTER:                  -4.087
REMARK INTRA:                  -0.299
REMARK UNBOUND:                -0.428
REMARK SMILES CCCCCCCC(=O)[O-]
REMARK SMILES IDX 5 1 6 2 7 3 8 4 9 5 10 6 4 7 3 8 2 9 1 10
REMARK H PARENT
REMARK Flexibility Score: inf
ROOT
ATOM      1  C   UNL     1      -3.418  -7.564   8.890  1.00  0.00     0.000 C 
ENDROOT
BRANCH   1   2
ATOM      2  C   UNL     1      -2.089  -7.708   8.138  1.00  0.00     0.006 C 
BRANCH   2   3
ATOM      3  C   UNL     1      -2.208  -8.729   7.003  1.00  0.00     0.053 C 
BRANCH   3   4
ATOM      4  C   UNL     1      -3.054  -8.186   5.896  1.00  0.00     0.041 C 
ATOM      5  O   UNL     1      -4.131  -8.757   5.581  1.00  0.00    -0.550 OA
ATOM      6  O   UNL     1      -2.678  -7.018   5.243  1.00  0.00    -0.550 OA
ENDBRANCH   3   4
ENDBRANCH   2   3
ENDBRANCH   1   2
BRANCH   1   7
ATOM      7  C   UNL     1      -3.833  -6.091   8.996  1.00  0.00     0.000 C 
BRANCH   7   8
ATOM      8  C   UNL     1      -4.711  -5.679   7.807  1.00  0.00    -0.000 C 
BRANCH   8   9
ATOM      9  C   UNL     1      -5.278  -4.269   8.005  1.00  0.00    -0.003 C 
ATOM     10  C   UNL     1      -6.031  -3.799   6.765  1.00  0.00     0.004 C 
ENDBRANCH   8   9
ENDBRANCH   7   8
ENDBRANCH   1   7
TORSDOF 6
ENDMDL
