MODEL 1
REMARK VINA RESULT:    -4.036      0.000      0.000
REMARK INTER + INTRA:          -4.154
REMARK INTER:                  -4.154
REMARK INTRA:                   0.000
REMARK UNBOUND:                 0.000
REMARK SMILES Cc1ccccc1O
REMARK SMILES IDX 1 1 2 2 3 3 4 4 5 5 6 6 7 7 8 8
REMARK H PARENT 8 9
REMARK Flexibility Score: inf
ROOT
ATOM      1  C   UNL     1     175.406 174.280 153.336  1.00  0.00     0.048 C 
ATOM      2  C   UNL     1     174.541 174.098 152.120  1.00  0.00    -0.009 A 
ATOM      3  C   UNL     1     175.139 173.818 150.878  1.00  0.00     0.007 A 
ATOM      4  C   UNL     1     174.353 173.646 149.736  1.00  0.00     0.001 A 
ATOM      5  C   UNL     1     172.964 173.750 149.820  1.00  0.00     0.004 A 
ATOM      6  C   UNL     1     172.357 174.027 151.047  1.00  0.00     0.046 A 
ATOM      7  C   UNL     1     173.132 174.202 152.199  1.00  0.00     0.118 A 
ENDROOT
BRANCH   7   8
ATOM      8  O   UNL     1     172.478 174.478 153.402  1.00  0.00    -0.508 OA
ATOM      9  H   UNL     1     171.476 174.597 153.470  1.00  0.00     0.293 HD
ENDBRANCH   7   8
TORSDOF 1
ENDMDL
MODEL 2
REMARK VINA RESULT:    -3.881      0.608      2.522
REMARK INTER + INTRA:          -3.994
REMARK INTER:                  -3.994
REMARK INTRA:                   0.000
REMARK UNBOUND:                 0.000
REMARK SMILES Cc1ccccc1O
REMARK SMILES IDX 1 1 2 2 3 3 4 4 5 5 6 6 7 7 8 8
REMARK H PARENT 8 9
REMARK Flexibility Score: inf
ROOT
ATOM      1  C   UNL     1     170.713 173.893 151.089  1.00  0.00     0.048 C 
ATOM      2  C   UNL     1     172.217 173.918 151.080  1.00  0.00    -0.009 A 
ATOM      3  C   UNL     1     172.909 173.653 149.884  1.00  0.00     0.007 A 
ATOM      4  C   UNL     1     174.305 173.672 149.855  1.00  0.00     0.001 A 
ATOM      5  C   UNL     1     175.026 173.955 151.015  1.00  0.00     0.004 A 
ATOM      6  C   UNL     1     174.352 174.221 152.209  1.00  0.00     0.046 A 
ATOM      7  C   UNL     1     172.953 174.205 152.254  1.00  0.00     0.118 A 
ENDROOT
BRANCH   7   8
ATOM      8  O   UNL     1     172.326 174.477 153.471  1.00  0.00    -0.508 OA
ATOM      9  H   UNL     1     171.384 174.840 153.537  1.00  0.00     0.293 HD
ENDBRANCH   7   8
TORSDOF 1
ENDMDL
MODEL 3
REMARK VINA RESULT:    -3.744     12.810     13.041
REMARK INTER + INTRA:          -3.854
REMARK INTER:                  -3.854
REMARK INTRA:                   0.000
REMARK UNBOUND:                 0.000
REMARK SMILES Cc1ccccc1O
REMARK SMILES IDX 1 1 2 2 3 3 4 4 5 5 6 6 7 7 8 8
REMARK H PARENT 8 9
REMARK Flexibility Score: inf
ROOT
ATOM      1  C   UNL     1     176.124 159.460 153.746  1.00  0.00     0.048 C 
ATOM      2  C   UNL     1     175.991 160.470 152.640  1.00  0.00    -0.009 A 
ATOM      3  C   UNL     1     175.974 160.037 151.302  1.00  0.00     0.007 A 
ATOM      4  C   UNL     1     175.852 160.959 150.260  1.00  0.00     0.001 A 
ATOM      5  C   UNL     1     175.744 162.322 150.541  1.00  0.00     0.004 A 
ATOM      6  C   UNL     1     175.759 162.766 151.865  1.00  0.00     0.046 A 
ATOM      7  C   UNL     1     175.881 161.853 152.919  1.00  0.00     0.118 A 
ENDROOT
BRANCH   7   8
ATOM      8  O   UNL     1     175.891 162.346 154.225  1.00  0.00    -0.508 OA
ATOM      9  H   UNL     1     175.133 162.195 154.878  1.00  0.00     0.293 HD
ENDBRANCH   7   8
TORSDOF 1
ENDMDL
MODEL 4
REMARK VINA RESULT:    -3.697      2.002      2.207
REMARK INTER + INTRA:          -3.805
REMARK INTER:                  -3.805
REMARK INTRA:                   0.000
REMARK UNBOUND:                 0.000
REMARK SMILES Cc1ccccc1O
REMARK SMILES IDX 1 1 2 2 3 3 4 4 5 5 6 6 7 7 8 8
REMARK H PARENT 8 9
REMARK Flexibility Score: inf
ROOT
ATOM      1  C   UNL     1     175.724 174.283 153.121  1.00  0.00     0.048 C 
ATOM      2  C   UNL     1     175.040 173.480 152.049  1.00  0.00    -0.009 A 
ATOM      3  C   UNL     1     174.642 174.110 150.856  1.00  0.00     0.007 A 
ATOM      4  C   UNL     1     174.005 173.382 149.849  1.00  0.00     0.001 A 
ATOM      5  C   UNL     1     173.759 172.019 150.019  1.00  0.00     0.004 A 
ATOM      6  C   UNL     1     174.150 171.380 151.198  1.00  0.00     0.046 A 
ATOM      7  C   UNL     1     174.789 172.098 152.216  1.00  0.00     0.118 A 
ENDROOT
BRANCH   7   8
ATOM      8  O   UNL     1     175.159 171.414 153.376  1.00  0.00    -0.508 OA
ATOM      9  H   UNL     1     176.114 171.369 153.708  1.00  0.00     0.293 HD
ENDBRANCH   7   8
TORSDOF 1
ENDMDL
MODEL 5
REMARK VINA RESULT:    -3.684      2.411      3.222
REMARK INTER + INTRA:          -3.791
REMARK INTER:                  -3.791
REMARK INTRA:                   0.000
REMARK UNBOUND:                 0.000
REMARK SMILES Cc1ccccc1O
REMARK SMILES IDX 1 1 2 2 3 3 4 4 5 5 6 6 7 7 8 8
REMARK H PARENT 8 9
REMARK Flexibility Score: inf
ROOT
ATOM      1  C   UNL     1     174.574 170.087 150.487  1.00  0.00     0.048 C 
ATOM      2  C   UNL     1     174.679 171.524 150.918  1.00  0.00    -0.009 A 
ATOM      3  C   UNL     1     174.561 172.547 149.960  1.00  0.00     0.007 A 
ATOM      4  C   UNL     1     174.657 173.888 150.340  1.00  0.00     0.001 A 
ATOM      5  C   UNL     1     174.870 174.223 151.678  1.00  0.00     0.004 A 
ATOM      6  C   UNL     1     174.989 173.217 152.640  1.00  0.00     0.046 A 
ATOM      7  C   UNL     1     174.895 171.869 152.273  1.00  0.00     0.118 A 
ENDROOT
BRANCH   7   8
ATOM      8  O   UNL     1     175.021 170.901 153.272  1.00  0.00    -0.508 OA
ATOM      9  H   UNL     1     174.300 170.220 153.473  1.00  0.00     0.293 HD
ENDBRANCH   7   8
TORSDOF 1
ENDMDL
MODEL 6
REMARK VINA RESULT:    -3.605      1.902      2.285
REMARK INTER + INTRA:          -3.710
REMARK INTER:                  -3.710
REMARK INTRA:                   0.000
REMARK UNBOUND:                 0.000
REMARK SMILES Cc1ccccc1O
REMARK SMILES IDX 1 1 2 2 3 3 4 4 5 5 6 6 7 7 8 8
REMARK H PARENT 8 9
REMARK Flexibility Score: inf
ROOT
ATOM      1  C   UNL     1     174.925 171.764 154.165  1.00  0.00     0.048 C 
ATOM      2  C   UNL     1     174.870 172.351 152.781  1.00  0.00    -0.009 A 
ATOM      3  C   UNL     1     174.681 171.504 151.674  1.00  0.00     0.007 A 
ATOM      4  C   UNL     1     174.628 172.030 150.381  1.00  0.00     0.001 A 
ATOM      5  C   UNL     1     174.762 173.404 150.178  1.00  0.00     0.004 A 
ATOM      6  C   UNL     1     174.950 174.257 151.268  1.00  0.00     0.046 A 
ATOM      7  C   UNL     1     175.006 173.744 152.569  1.00  0.00     0.118 A 
ENDROOT
BRANCH   7   8
ATOM      8  O   UNL     1     175.195 174.637 153.626  1.00  0.00    -0.508 OA
ATOM      9  H   UNL     1     175.736 175.487 153.539  1.00  0.00     0.293 HD
ENDBRANCH   7   8
TORSDOF 1
ENDMDL
MODEL 7
REMARK VINA RESULT:    -3.553     11.726     13.510
REMARK INTER + INTRA:          -3.657
REMARK INTER:                  -3.657
REMARK INTRA:                   0.000
REMARK UNBOUND:                 0.000
REMARK SMILES Cc1ccccc1O
REMARK SMILES IDX 1 1 2 2 3 3 4 4 5 5 6 6 7 7 8 8
REMARK H PARENT 8 9
REMARK Flexibility Score: inf
ROOT
ATOM      1  C   UNL     1     175.620 173.641 162.826  1.00  0.00     0.048 C 
ATOM      2  C   UNL     1     174.738 173.803 164.034  1.00  0.00    -0.009 A 
ATOM      3  C   UNL     1     173.939 172.726 164.460  1.00  0.00     0.007 A 
ATOM      4  C   UNL     1     173.113 172.857 165.578  1.00  0.00     0.001 A 
ATOM      5  C   UNL     1     173.075 174.059 166.284  1.00  0.00     0.004 A 
ATOM      6  C   UNL     1     173.863 175.137 165.873  1.00  0.00     0.046 A 
ATOM      7  C   UNL     1     174.696 175.020 164.753  1.00  0.00     0.118 A 
ENDROOT
BRANCH   7   8
ATOM      8  O   UNL     1     175.465 176.125 164.381  1.00  0.00    -0.508 OA
ATOM      9  H   UNL     1     175.425 176.539 163.459  1.00  0.00     0.293 HD
ENDBRANCH   7   8
TORSDOF 1
ENDMDL
MODEL 8
REMARK VINA RESULT:    -3.496     12.454     12.802
REMARK INTER + INTRA:          -3.598
REMARK INTER:                  -3.598
REMARK INTRA:                   0.000
REMARK UNBOUND:                 0.000
REMARK SMILES Cc1ccccc1O
REMARK SMILES IDX 1 1 2 2 3 3 4 4 5 5 6 6 7 7 8 8
REMARK H PARENT 8 9
REMARK Flexibility Score: inf
ROOT
ATOM      1  C   UNL     1     174.494 163.784 151.243  1.00  0.00     0.048 C 
ATOM      2  C   UNL     1     174.941 162.348 151.212  1.00  0.00    -0.009 A 
ATOM      3  C   UNL     1     174.573 161.529 150.129  1.00  0.00     0.007 A 
ATOM      4  C   UNL     1     174.977 160.193 150.082  1.00  0.00     0.001 A 
ATOM      5  C   UNL     1     175.751 159.659 151.113  1.00  0.00     0.004 A 
ATOM      6  C   UNL     1     176.124 160.461 152.194  1.00  0.00     0.046 A 
ATOM      7  C   UNL     1     175.726 161.801 152.255  1.00  0.00     0.118 A 
ENDROOT
BRANCH   7   8
ATOM      8  O   UNL     1     176.124 162.562 153.356  1.00  0.00    -0.508 OA
ATOM      9  H   UNL     1     175.476 163.095 153.921  1.00  0.00     0.293 HD
ENDBRANCH   7   8
TORSDOF 1
ENDMDL
