MODEL 1
REMARK VINA RESULT:    -4.282      0.000      0.000
REMARK INTER + INTRA:          -6.599
REMARK INTER:                  -5.784
REMARK INTRA:                  -0.815
REMARK UNBOUND:                -0.815
REMARK SMILES CC(=O)CCC=C(C)CCC=C(C)C
REMARK SMILES IDX 7 1 6 2 8 3 9 4 10 5 11 6 13 7 12 8 14 9 5 10 4 11 2 12 3 13
REMARK SMILES IDX 1 14
REMARK H PARENT
REMARK Flexibility Score: inf
ROOT
ATOM      1  C   UNL     1       2.700  13.752  -8.401  1.00  0.00    -0.077 C 
ATOM      2  C   UNL     1       2.201  13.745  -7.143  1.00  0.00    -0.028 C 
ATOM      3  C   UNL     1       3.096  15.034  -9.094  1.00  0.00     0.039 C 
ENDROOT
BRANCH   1   4
ATOM      4  C   UNL     1       2.888  12.435  -9.122  1.00  0.00     0.034 C 
BRANCH   4   5
ATOM      5  C   UNL     1       4.365  12.023  -9.125  1.00  0.00     0.032 C 
BRANCH   5   6
ATOM      6  C   UNL     1       4.878  11.860  -7.717  1.00  0.00    -0.028 C 
ATOM      7  C   UNL     1       6.108  12.505  -5.666  1.00  0.00     0.039 C 
ATOM      8  C   UNL     1       5.625  12.782  -7.067  1.00  0.00    -0.080 C 
ATOM      9  C   UNL     1       5.961  14.120  -7.681  1.00  0.00     0.039 C 
ENDBRANCH   5   6
ENDBRANCH   4   5
ENDBRANCH   1   4
BRANCH   2  10
ATOM     10  C   UNL     1       1.920  14.983  -6.330  1.00  0.00     0.035 C 
BRANCH  10  11
ATOM     11  C   UNL     1       2.921  15.112  -5.177  1.00  0.00     0.079 C 
BRANCH  11  12
ATOM     12  C   UNL     1       3.841  16.280  -5.396  1.00  0.00     0.130 C 
ATOM     13  O   UNL     1       4.995  16.227  -4.996  1.00  0.00    -0.300 OA
ATOM     14  C   UNL     1       3.361  17.500  -6.121  1.00  0.00     0.087 C 
ENDBRANCH  11  12
ENDBRANCH  10  11
ENDBRANCH   2  10
TORSDOF 6
ENDMDL
MODEL 2
REMARK VINA RESULT:    -4.277      0.998      1.554
REMARK INTER + INTRA:          -6.592
REMARK INTER:                  -6.657
REMARK INTRA:                   0.065
REMARK UNBOUND:                -0.815
REMARK SMILES CC(=O)CCC=C(C)CCC=C(C)C
REMARK SMILES IDX 7 1 6 2 8 3 9 4 10 5 11 6 13 7 12 8 14 9 5 10 4 11 2 12 3 13
REMARK SMILES IDX 1 14
REMARK H PARENT
REMARK Flexibility Score: inf
ROOT
ATOM      1  C   UNL     1       2.621  12.985  -7.869  1.00  0.00    -0.077 C 
ATOM      2  C   UNL     1       2.601  13.514  -6.624  1.00  0.00    -0.028 C 
ATOM      3  C   UNL     1       2.338  13.822  -9.095  1.00  0.00     0.039 C 
ENDROOT
BRANCH   1   4
ATOM      4  C   UNL     1       2.961  11.521  -8.038  1.00  0.00     0.034 C 
BRANCH   4   5
ATOM      5  C   UNL     1       4.474  11.328  -8.200  1.00  0.00     0.032 C 
BRANCH   5   6
ATOM      6  C   UNL     1       5.088  12.502  -8.920  1.00  0.00    -0.028 C 
ATOM      7  C   UNL     1       6.304  14.649  -9.123  1.00  0.00     0.039 C 
ATOM      8  C   UNL     1       5.750  13.510  -8.307  1.00  0.00    -0.080 C 
ATOM      9  C   UNL     1       6.001  13.516  -6.818  1.00  0.00     0.039 C 
ENDBRANCH   5   6
ENDBRANCH   4   5
ENDBRANCH   1   4
BRANCH   2  10
ATOM     10  C   UNL     1       2.234  14.942  -6.309  1.00  0.00     0.035 C 
BRANCH  10  11
ATOM     11  C   UNL     1       3.279  15.907  -6.879  1.00  0.00     0.079 C 
BRANCH  11  12
ATOM     12  C   UNL     1       3.817  16.809  -5.803  1.00  0.00     0.130 C 
ATOM     13  O   UNL     1       4.410  16.328  -4.849  1.00  0.00    -0.300 OA
ATOM     14  C   UNL     1       3.651  18.295  -5.905  1.00  0.00     0.087 C 
ENDBRANCH  11  12
ENDBRANCH  10  11
ENDBRANCH   2  10
TORSDOF 6
ENDMDL
MODEL 3
REMARK VINA RESULT:    -4.204      1.491      4.260
REMARK INTER + INTRA:          -6.494
REMARK INTER:                  -6.047
REMARK INTRA:                  -0.447
REMARK UNBOUND:                -0.815
REMARK SMILES CC(=O)CCC=C(C)CCC=C(C)C
REMARK SMILES IDX 7 1 6 2 8 3 9 4 10 5 11 6 13 7 12 8 14 9 5 10 4 11 2 12 3 13
REMARK SMILES IDX 1 14
REMARK H PARENT
REMARK Flexibility Score: inf
ROOT
ATOM      1  C   UNL     1       2.408  13.615  -7.779  1.00  0.00    -0.077 C 
ATOM      2  C   UNL     1       2.954  12.385  -7.639  1.00  0.00    -0.028 C 
ATOM      3  C   UNL     1       2.311  14.296  -9.124  1.00  0.00     0.039 C 
ENDROOT
BRANCH   1   4
ATOM      4  C   UNL     1       1.858  14.316  -6.556  1.00  0.00     0.034 C 
BRANCH   4   5
ATOM      5  C   UNL     1       2.984  14.659  -5.573  1.00  0.00     0.032 C 
BRANCH   5   6
ATOM      6  C   UNL     1       3.050  16.146  -5.332  1.00  0.00    -0.028 C 
ATOM      7  C   UNL     1       3.660  18.494  -5.825  1.00  0.00     0.039 C 
ATOM      8  C   UNL     1       3.628  17.029  -6.178  1.00  0.00    -0.080 C 
ATOM      9  C   UNL     1       4.210  16.606  -7.504  1.00  0.00     0.039 C 
ENDBRANCH   5   6
ENDBRANCH   4   5
ENDBRANCH   1   4
BRANCH   2  10
ATOM     10  C   UNL     1       3.578  11.596  -8.762  1.00  0.00     0.035 C 
BRANCH  10  11
ATOM     11  C   UNL     1       5.098  11.516  -8.587  1.00  0.00     0.079 C 
BRANCH  11  12
ATOM     12  C   UNL     1       5.653  12.834  -8.123  1.00  0.00     0.130 C 
ATOM     13  O   UNL     1       5.824  13.034  -6.930  1.00  0.00    -0.300 OA
ATOM     14  C   UNL     1       6.019  13.896  -9.116  1.00  0.00     0.087 C 
ENDBRANCH  11  12
ENDBRANCH  10  11
ENDBRANCH   2  10
TORSDOF 6
ENDMDL
MODEL 4
REMARK VINA RESULT:    -4.052      1.401      2.420
REMARK INTER + INTRA:          -6.288
REMARK INTER:                  -6.044
REMARK INTRA:                  -0.244
REMARK UNBOUND:                -0.815
REMARK SMILES CC(=O)CCC=C(C)CCC=C(C)C
REMARK SMILES IDX 7 1 6 2 8 3 9 4 10 5 11 6 13 7 12 8 14 9 5 10 4 11 2 12 3 13
REMARK SMILES IDX 1 14
REMARK H PARENT
REMARK Flexibility Score: inf
ROOT
ATOM      1  C   UNL     1       3.724  14.557  -8.122  1.00  0.00    -0.077 C 
ATOM      2  C   UNL     1       3.823  14.936  -6.827  1.00  0.00    -0.028 C 
ATOM      3  C   UNL     1       2.402  14.555  -8.853  1.00  0.00     0.039 C 
ENDROOT
BRANCH   1   4
ATOM      4  C   UNL     1       4.977  14.146  -8.863  1.00  0.00     0.034 C 
BRANCH   4   5
ATOM      5  C   UNL     1       5.419  12.738  -8.447  1.00  0.00     0.032 C 
BRANCH   5   6
ATOM      6  C   UNL     1       4.526  11.692  -9.066  1.00  0.00    -0.028 C 
ATOM      7  C   UNL     1       2.706  10.015  -9.121  1.00  0.00     0.039 C 
ATOM      8  C   UNL     1       3.522  11.065  -8.412  1.00  0.00    -0.080 C 
ATOM      9  C   UNL     1       3.148  11.414  -6.992  1.00  0.00     0.039 C 
ENDBRANCH   5   6
ENDBRANCH   4   5
ENDBRANCH   1   4
BRANCH   2  10
ATOM     10  C   UNL     1       2.652  15.323  -5.960  1.00  0.00     0.035 C 
BRANCH  10  11
ATOM     11  C   UNL     1       2.484  16.846  -5.926  1.00  0.00     0.079 C 
BRANCH  11  12
ATOM     12  C   UNL     1       3.763  17.515  -5.503  1.00  0.00     0.130 C 
ATOM     13  O   UNL     1       4.633  16.863  -4.946  1.00  0.00    -0.300 OA
ATOM     14  C   UNL     1       3.985  18.971  -5.780  1.00  0.00     0.087 C 
ENDBRANCH  11  12
ENDBRANCH  10  11
ENDBRANCH   2  10
TORSDOF 6
ENDMDL
MODEL 5
REMARK VINA RESULT:    -3.623      1.664      2.934
REMARK INTER + INTRA:          -5.708
REMARK INTER:                  -4.890
REMARK INTRA:                  -0.818
REMARK UNBOUND:                -0.815
REMARK SMILES CC(=O)CCC=C(C)CCC=C(C)C
REMARK SMILES IDX 7 1 6 2 8 3 9 4 10 5 11 6 13 7 12 8 14 9 5 10 4 11 2 12 3 13
REMARK SMILES IDX 1 14
REMARK H PARENT
REMARK Flexibility Score: inf
ROOT
ATOM      1  C   UNL     1       4.387  14.939  -8.531  1.00  0.00    -0.077 C 
ATOM      2  C   UNL     1       4.731  15.862  -7.603  1.00  0.00    -0.028 C 
ATOM      3  C   UNL     1       2.963  14.783  -9.011  1.00  0.00     0.039 C 
ENDROOT
BRANCH   1   4
ATOM      4  C   UNL     1       5.466  14.057  -9.122  1.00  0.00     0.034 C 
BRANCH   4   5
ATOM      5  C   UNL     1       5.593  12.749  -8.330  1.00  0.00     0.032 C 
BRANCH   5   6
ATOM      6  C   UNL     1       4.756  11.662  -8.955  1.00  0.00    -0.028 C 
ATOM      7  C   UNL     1       2.858  10.081  -9.125  1.00  0.00     0.039 C 
ATOM      8  C   UNL     1       3.603  11.191  -8.428  1.00  0.00    -0.080 C 
ATOM      9  C   UNL     1       2.998  11.773  -7.174  1.00  0.00     0.039 C 
ENDBRANCH   5   6
ENDBRANCH   4   5
ENDBRANCH   1   4
BRANCH   2  10
ATOM     10  C   UNL     1       3.754  16.771  -6.902  1.00  0.00     0.035 C 
BRANCH  10  11
ATOM     11  C   UNL     1       3.555  16.333  -5.447  1.00  0.00     0.079 C 
BRANCH  11  12
ATOM     12  C   UNL     1       2.843  15.011  -5.380  1.00  0.00     0.130 C 
ATOM     13  O   UNL     1       1.750  14.883  -5.912  1.00  0.00    -0.300 OA
ATOM     14  C   UNL     1       3.473  13.842  -4.686  1.00  0.00     0.087 C 
ENDBRANCH  11  12
ENDBRANCH  10  11
ENDBRANCH   2  10
TORSDOF 6
ENDMDL
MODEL 6
REMARK VINA RESULT:    -3.353      1.364      1.976
REMARK INTER + INTRA:          -5.344
REMARK INTER:                  -5.242
REMARK INTRA:                  -0.102
REMARK UNBOUND:                -0.815
REMARK SMILES CC(=O)CCC=C(C)CCC=C(C)C
REMARK SMILES IDX 7 1 6 2 8 3 9 4 10 5 11 6 13 7 12 8 14 9 5 10 4 11 2 12 3 13
REMARK SMILES IDX 1 14
REMARK H PARENT
REMARK Flexibility Score: inf
ROOT
ATOM      1  C   UNL     1       2.588  14.653  -7.743  1.00  0.00    -0.077 C 
ATOM      2  C   UNL     1       3.492  15.623  -7.476  1.00  0.00    -0.028 C 
ATOM      3  C   UNL     1       1.584  14.193  -6.712  1.00  0.00     0.039 C 
ENDROOT
BRANCH   1   4
ATOM      4  C   UNL     1       2.568  14.029  -9.121  1.00  0.00     0.034 C 
BRANCH   4   5
ATOM      5  C   UNL     1       3.157  12.613  -9.086  1.00  0.00     0.032 C 
BRANCH   5   6
ATOM      6  C   UNL     1       4.001  12.415  -7.853  1.00  0.00    -0.028 C 
ATOM      7  C   UNL     1       6.069  12.474  -6.491  1.00  0.00     0.039 C 
ATOM      8  C   UNL     1       5.312  12.739  -7.768  1.00  0.00    -0.080 C 
ATOM      9  C   UNL     1       6.048  13.408  -8.903  1.00  0.00     0.039 C 
ENDBRANCH   5   6
ENDBRANCH   4   5
ENDBRANCH   1   4
BRANCH   2  10
ATOM     10  C   UNL     1       3.651  16.296  -6.136  1.00  0.00     0.035 C 
BRANCH  10  11
ATOM     11  C   UNL     1       2.742  17.524  -6.035  1.00  0.00     0.079 C 
BRANCH  11  12
ATOM     12  C   UNL     1       3.524  18.735  -5.608  1.00  0.00     0.130 C 
ATOM     13  O   UNL     1       4.697  18.616  -5.285  1.00  0.00    -0.300 OA
ATOM     14  C   UNL     1       2.884  20.090  -5.599  1.00  0.00     0.087 C 
ENDBRANCH  11  12
ENDBRANCH  10  11
ENDBRANCH   2  10
TORSDOF 6
ENDMDL
MODEL 7
REMARK VINA RESULT:    -3.335      2.311      4.784
REMARK INTER + INTRA:          -5.320
REMARK INTER:                  -4.826
REMARK INTRA:                  -0.494
REMARK UNBOUND:                -0.815
REMARK SMILES CC(=O)CCC=C(C)CCC=C(C)C
REMARK SMILES IDX 7 1 6 2 8 3 9 4 10 5 11 6 13 7 12 8 14 9 5 10 4 11 2 12 3 13
REMARK SMILES IDX 1 14
REMARK H PARENT
REMARK Flexibility Score: inf
ROOT
ATOM      1  C   UNL     1       5.458  13.745  -8.145  1.00  0.00    -0.077 C 
ATOM      2  C   UNL     1       5.122  12.872  -9.123  1.00  0.00    -0.028 C 
ATOM      3  C   UNL     1       5.688  13.296  -6.721  1.00  0.00     0.039 C 
ENDROOT
BRANCH   1   4
ATOM      4  C   UNL     1       5.630  15.207  -8.495  1.00  0.00     0.034 C 
BRANCH   4   5
ATOM      5  C   UNL     1       4.268  15.888  -8.673  1.00  0.00     0.032 C 
BRANCH   5   6
ATOM      6  C   UNL     1       3.292  15.417  -7.624  1.00  0.00    -0.028 C 
ATOM      7  C   UNL     1       2.102  15.468  -5.454  1.00  0.00     0.039 C 
ATOM      8  C   UNL     1       3.084  16.041  -6.443  1.00  0.00    -0.080 C 
ATOM      9  C   UNL     1       3.774  17.337  -6.088  1.00  0.00     0.039 C 
ENDBRANCH   5   6
ENDBRANCH   4   5
ENDBRANCH   1   4
BRANCH   2  10
ATOM     10  C   UNL     1       4.875  11.401  -8.905  1.00  0.00     0.035 C 
BRANCH  10  11
ATOM     11  C   UNL     1       3.387  11.073  -9.066  1.00  0.00     0.079 C 
BRANCH  11  12
ATOM     12  C   UNL     1       2.719  10.951  -7.724  1.00  0.00     0.130 C 
ATOM     13  O   UNL     1       2.259   9.875  -7.371  1.00  0.00    -0.300 OA
ATOM     14  C   UNL     1       2.633  12.134  -6.808  1.00  0.00     0.087 C 
ENDBRANCH  11  12
ENDBRANCH  10  11
ENDBRANCH   2  10
TORSDOF 6
ENDMDL
MODEL 8
REMARK VINA RESULT:    -1.730      1.992      4.537
REMARK INTER + INTRA:          -3.152
REMARK INTER:                  -2.618
REMARK INTRA:                  -0.534
REMARK UNBOUND:                -0.815
REMARK SMILES CC(=O)CCC=C(C)CCC=C(C)C
REMARK SMILES IDX 7 1 6 2 8 3 9 4 10 5 11 6 13 7 12 8 14 9 5 10 4 11 2 12 3 13
REMARK SMILES IDX 1 14
REMARK H PARENT
REMARK Flexibility Score: inf
ROOT
ATOM      1  C   UNL     1       4.201  14.969  -8.711  1.00  0.00    -0.077 C 
ATOM      2  C   UNL     1       5.276  14.150  -8.641  1.00  0.00    -0.028 C 
ATOM      3  C   UNL     1       2.823  14.450  -9.050  1.00  0.00     0.039 C 
ENDROOT
BRANCH   1   4
ATOM      4  C   UNL     1       4.383  16.442  -8.418  1.00  0.00     0.034 C 
BRANCH   4   5
ATOM      5  C   UNL     1       4.058  16.749  -6.951  1.00  0.00     0.032 C 
BRANCH   5   6
ATOM      6  C   UNL     1       4.200  15.512  -6.101  1.00  0.00    -0.028 C 
ATOM      7  C   UNL     1       3.433  13.682  -4.621  1.00  0.00     0.039 C 
ATOM      8  C   UNL     1       3.174  14.901  -5.468  1.00  0.00    -0.080 C 
ATOM      9  C   UNL     1       1.747  15.371  -5.615  1.00  0.00     0.039 C 
ENDBRANCH   5   6
ENDBRANCH   4   5
ENDBRANCH   1   4
BRANCH   2  10
ATOM     10  C   UNL     1       5.245  12.674  -8.952  1.00  0.00     0.035 C 
BRANCH  10  11
ATOM     11  C   UNL     1       4.833  11.869  -7.716  1.00  0.00     0.079 C 
BRANCH  11  12
ATOM     12  C   UNL     1       3.440  11.324  -7.873  1.00  0.00     0.130 C 
ATOM     13  O   UNL     1       2.620  11.488  -6.981  1.00  0.00    -0.300 OA
ATOM     14  C   UNL     1       3.043  10.603  -9.125  1.00  0.00     0.087 C 
ENDBRANCH  11  12
ENDBRANCH  10  11
ENDBRANCH   2  10
TORSDOF 6
ENDMDL
