MODEL 1
REMARK VINA RESULT:    -3.954      0.000      0.000
REMARK INTER + INTRA:          -6.250
REMARK INTER:                  -5.572
REMARK INTRA:                  -0.677
REMARK UNBOUND:                -0.677
REMARK SMILES CCCCCCCCC(=O)[O-]
REMARK SMILES IDX 6 1 7 2 8 3 9 4 10 5 11 6 5 7 4 8 3 9 2 10 1 11
REMARK H PARENT
REMARK Flexibility Score: inf
ROOT
ATOM      1  C   UNL     1      -4.633   8.681 -58.731  1.00  0.00     0.000 C 
ENDROOT
BRANCH   1   2
ATOM      2  C   UNL     1      -5.288   8.063 -57.482  1.00  0.00     0.006 C 
BRANCH   2   3
ATOM      3  C   UNL     1      -6.053   6.769 -57.786  1.00  0.00     0.053 C 
BRANCH   3   4
ATOM      4  C   UNL     1      -7.528   7.021 -57.778  1.00  0.00     0.041 C 
ATOM      5  O   UNL     1      -7.969   8.198 -57.851  1.00  0.00    -0.550 OA
ATOM      6  O   UNL     1      -8.417   5.954 -57.737  1.00  0.00    -0.550 OA
ENDBRANCH   3   4
ENDBRANCH   2   3
ENDBRANCH   1   2
BRANCH   1   7
ATOM      7  C   UNL     1      -3.101   8.817 -58.661  1.00  0.00     0.000 C 
BRANCH   7   8
ATOM      8  C   UNL     1      -2.402   7.517 -58.237  1.00  0.00    -0.000 C 
BRANCH   8   9
ATOM      9  C   UNL     1      -1.944   6.715 -59.465  1.00  0.00    -0.000 C 
BRANCH   9  10
ATOM     10  C   UNL     1      -2.864   5.523 -59.769  1.00  0.00    -0.003 C 
ATOM     11  C   UNL     1      -3.710   5.733 -61.025  1.00  0.00     0.004 C 
ENDBRANCH   9  10
ENDBRANCH   8   9
ENDBRANCH   7   8
ENDBRANCH   1   7
TORSDOF 7
ENDMDL
MODEL 2
REMARK VINA RESULT:    -3.953     18.524     19.891
REMARK INTER + INTRA:          -6.248
REMARK INTER:                  -5.903
REMARK INTRA:                  -0.345
REMARK UNBOUND:                -0.677
REMARK SMILES CCCCCCCCC(=O)[O-]
REMARK SMILES IDX 6 1 7 2 8 3 9 4 10 5 11 6 5 7 4 8 3 9 2 10 1 11
REMARK H PARENT
REMARK Flexibility Score: inf
ROOT
ATOM      1  C   UNL     1       3.851  25.036 -53.208  1.00  0.00     0.000 C 
ENDROOT
BRANCH   1   2
ATOM      2  C   UNL     1       4.022  24.970 -51.680  1.00  0.00     0.006 C 
BRANCH   2   3
ATOM      3  C   UNL     1       2.692  24.794 -50.936  1.00  0.00     0.053 C 
BRANCH   3   4
ATOM      4  C   UNL     1       2.895  24.002 -49.684  1.00  0.00     0.041 C 
ATOM      5  O   UNL     1       3.675  23.014 -49.680  1.00  0.00    -0.550 OA
ATOM      6  O   UNL     1       2.260  24.382 -48.508  1.00  0.00    -0.550 OA
ENDBRANCH   3   4
ENDBRANCH   2   3
ENDBRANCH   1   2
BRANCH   1   7
ATOM      7  C   UNL     1       4.761  24.083 -54.005  1.00  0.00     0.000 C 
BRANCH   7   8
ATOM      8  C   UNL     1       5.157  22.829 -53.212  1.00  0.00    -0.000 C 
BRANCH   8   9
ATOM      9  C   UNL     1       5.043  21.569 -54.084  1.00  0.00    -0.000 C 
BRANCH   9  10
ATOM     10  C   UNL     1       6.296  20.683 -54.009  1.00  0.00    -0.003 C 
ATOM     11  C   UNL     1       7.343  21.221 -53.032  1.00  0.00     0.004 C 
ENDBRANCH   9  10
ENDBRANCH   8   9
ENDBRANCH   7   8
ENDBRANCH   1   7
TORSDOF 7
ENDMDL
MODEL 3
REMARK VINA RESULT:    -3.889      3.259      4.903
REMARK INTER + INTRA:          -6.158
REMARK INTER:                  -5.554
REMARK INTRA:                  -0.603
REMARK UNBOUND:                -0.677
REMARK SMILES CCCCCCCCC(=O)[O-]
REMARK SMILES IDX 6 1 7 2 8 3 9 4 10 5 11 6 5 7 4 8 3 9 2 10 1 11
REMARK H PARENT
REMARK Flexibility Score: inf
ROOT
ATOM      1  C   UNL     1      -4.174   7.015 -59.713  1.00  0.00     0.000 C 
ENDROOT
BRANCH   1   2
ATOM      2  C   UNL     1      -2.763   6.401 -59.753  1.00  0.00     0.006 C 
BRANCH   2   3
ATOM      3  C   UNL     1      -1.727   7.233 -58.987  1.00  0.00     0.053 C 
BRANCH   3   4
ATOM      4  C   UNL     1      -1.281   6.507 -57.758  1.00  0.00     0.041 C 
ATOM      5  O   UNL     1      -1.835   6.739 -56.651  1.00  0.00    -0.550 OA
ATOM      6  O   UNL     1      -0.288   5.540 -57.841  1.00  0.00    -0.550 OA
ENDBRANCH   3   4
ENDBRANCH   2   3
ENDBRANCH   1   2
BRANCH   1   7
ATOM      7  C   UNL     1      -4.279   8.354 -58.961  1.00  0.00     0.000 C 
BRANCH   7   8
ATOM      8  C   UNL     1      -5.154   8.267 -57.701  1.00  0.00    -0.000 C 
BRANCH   8   9
ATOM      9  C   UNL     1      -5.460   6.804 -57.346  1.00  0.00    -0.000 C 
BRANCH   9  10
ATOM     10  C   UNL     1      -6.953   6.464 -57.474  1.00  0.00    -0.003 C 
ATOM     11  C   UNL     1      -7.781   7.632 -58.011  1.00  0.00     0.004 C 
ENDBRANCH   9  10
ENDBRANCH   8   9
ENDBRANCH   7   8
ENDBRANCH   1   7
TORSDOF 7
ENDMDL
MODEL 4
REMARK VINA RESULT:    -3.856      3.319      5.051
REMARK INTER + INTRA:          -6.111
REMARK INTER:                  -5.615
REMARK INTRA:                  -0.497
REMARK UNBOUND:                -0.677
REMARK SMILES CCCCCCCCC(=O)[O-]
REMARK SMILES IDX 6 1 7 2 8 3 9 4 10 5 11 6 5 7 4 8 3 9 2 10 1 11
REMARK H PARENT
REMARK Flexibility Score: inf
ROOT
ATOM      1  C   UNL     1      -2.782   6.232 -59.724  1.00  0.00     0.000 C 
ENDROOT
BRANCH   1   2
ATOM      2  C   UNL     1      -1.619   6.985 -59.052  1.00  0.00     0.006 C 
BRANCH   2   3
ATOM      3  C   UNL     1      -0.741   6.077 -58.182  1.00  0.00     0.053 C 
BRANCH   3   4
ATOM      4  C   UNL     1      -1.028   6.307 -56.732  1.00  0.00     0.041 C 
ATOM      5  O   UNL     1      -0.083   6.371 -55.903  1.00  0.00    -0.550 OA
ATOM      6  O   UNL     1      -2.335   6.500 -56.303  1.00  0.00    -0.550 OA
ENDBRANCH   3   4
ENDBRANCH   2   3
ENDBRANCH   1   2
BRANCH   1   7
ATOM      7  C   UNL     1      -4.167   6.881 -59.544  1.00  0.00     0.000 C 
BRANCH   7   8
ATOM      8  C   UNL     1      -4.102   8.251 -58.854  1.00  0.00    -0.000 C 
BRANCH   8   9
ATOM      9  C   UNL     1      -5.350   8.490 -57.990  1.00  0.00    -0.000 C 
BRANCH   9  10
ATOM     10  C   UNL     1      -6.116   7.193 -57.687  1.00  0.00    -0.003 C 
ATOM     11  C   UNL     1      -7.623   7.335 -57.897  1.00  0.00     0.004 C 
ENDBRANCH   9  10
ENDBRANCH   8   9
ENDBRANCH   7   8
ENDBRANCH   1   7
TORSDOF 7
ENDMDL
MODEL 5
REMARK VINA RESULT:    -3.821      3.424      5.116
REMARK INTER + INTRA:          -6.061
REMARK INTER:                  -5.364
REMARK INTRA:                  -0.697
REMARK UNBOUND:                -0.677
REMARK SMILES CCCCCCCCC(=O)[O-]
REMARK SMILES IDX 6 1 7 2 8 3 9 4 10 5 11 6 5 7 4 8 3 9 2 10 1 11
REMARK H PARENT
REMARK Flexibility Score: inf
ROOT
ATOM      1  C   UNL     1      -2.730   6.003 -59.900  1.00  0.00     0.000 C 
ENDROOT
BRANCH   1   2
ATOM      2  C   UNL     1      -1.660   6.676 -59.021  1.00  0.00     0.006 C 
BRANCH   2   3
ATOM      3  C   UNL     1      -0.968   5.696 -58.065  1.00  0.00     0.053 C 
BRANCH   3   4
ATOM      4  C   UNL     1      -0.962   6.242 -56.672  1.00  0.00     0.041 C 
ATOM      5  O   UNL     1       0.033   6.055 -55.923  1.00  0.00    -0.550 OA
ATOM      6  O   UNL     1      -2.035   6.997 -56.216  1.00  0.00    -0.550 OA
ENDBRANCH   3   4
ENDBRANCH   2   3
ENDBRANCH   1   2
BRANCH   1   7
ATOM      7  C   UNL     1      -4.121   6.660 -59.848  1.00  0.00     0.000 C 
BRANCH   7   8
ATOM      8  C   UNL     1      -4.718   6.688 -58.433  1.00  0.00    -0.000 C 
BRANCH   8   9
ATOM      9  C   UNL     1      -5.178   8.106 -58.060  1.00  0.00    -0.000 C 
BRANCH   9  10
ATOM     10  C   UNL     1      -4.436   9.195 -58.849  1.00  0.00    -0.003 C 
ATOM     11  C   UNL     1      -3.270   9.800 -58.067  1.00  0.00     0.004 C 
ENDBRANCH   9  10
ENDBRANCH   8   9
ENDBRANCH   7   8
ENDBRANCH   1   7
TORSDOF 7
ENDMDL
MODEL 6
REMARK VINA RESULT:    -3.763      1.077      2.001
REMARK INTER + INTRA:          -5.980
REMARK INTER:                  -5.297
REMARK INTRA:                  -0.683
REMARK UNBOUND:                -0.677
REMARK SMILES CCCCCCCCC(=O)[O-]
REMARK SMILES IDX 6 1 7 2 8 3 9 4 10 5 11 6 5 7 4 8 3 9 2 10 1 11
REMARK H PARENT
REMARK Flexibility Score: inf
ROOT
ATOM      1  C   UNL     1      -4.290   7.994 -59.198  1.00  0.00     0.000 C 
ENDROOT
BRANCH   1   2
ATOM      2  C   UNL     1      -5.266   8.256 -58.036  1.00  0.00     0.006 C 
BRANCH   2   3
ATOM      3  C   UNL     1      -5.751   6.967 -57.361  1.00  0.00     0.053 C 
BRANCH   3   4
ATOM      4  C   UNL     1      -7.223   6.793 -57.565  1.00  0.00     0.041 C 
ATOM      5  O   UNL     1      -7.933   7.772 -57.916  1.00  0.00    -0.550 OA
ATOM      6  O   UNL     1      -7.803   5.540 -57.417  1.00  0.00    -0.550 OA
ENDBRANCH   3   4
ENDBRANCH   2   3
ENDBRANCH   1   2
BRANCH   1   7
ATOM      7  C   UNL     1      -4.219   6.530 -59.670  1.00  0.00     0.000 C 
BRANCH   7   8
ATOM      8  C   UNL     1      -2.779   6.018 -59.821  1.00  0.00    -0.000 C 
BRANCH   8   9
ATOM      9  C   UNL     1      -1.779   6.995 -59.185  1.00  0.00    -0.000 C 
BRANCH   9  10
ATOM     10  C   UNL     1      -1.054   6.391 -57.973  1.00  0.00    -0.003 C 
ATOM     11  C   UNL     1      -1.954   6.274 -56.743  1.00  0.00     0.004 C 
ENDBRANCH   9  10
ENDBRANCH   8   9
ENDBRANCH   7   8
ENDBRANCH   1   7
TORSDOF 7
ENDMDL
MODEL 7
REMARK VINA RESULT:    -3.724      3.501      5.140
REMARK INTER + INTRA:          -5.925
REMARK INTER:                  -5.136
REMARK INTRA:                  -0.789
REMARK UNBOUND:                -0.677
REMARK SMILES CCCCCCCCC(=O)[O-]
REMARK SMILES IDX 6 1 7 2 8 3 9 4 10 5 11 6 5 7 4 8 3 9 2 10 1 11
REMARK H PARENT
REMARK Flexibility Score: inf
ROOT
ATOM      1  C   UNL     1      -3.978   6.342 -59.823  1.00  0.00     0.000 C 
ENDROOT
BRANCH   1   2
ATOM      2  C   UNL     1      -2.539   5.794 -59.794  1.00  0.00     0.006 C 
BRANCH   2   3
ATOM      3  C   UNL     1      -1.559   6.726 -59.070  1.00  0.00     0.053 C 
BRANCH   3   4
ATOM      4  C   UNL     1      -0.951   6.030 -57.893  1.00  0.00     0.041 C 
ATOM      5  O   UNL     1       0.102   5.355 -58.032  1.00  0.00    -0.550 OA
ATOM      6  O   UNL     1      -1.520   6.166 -56.633  1.00  0.00    -0.550 OA
ENDBRANCH   3   4
ENDBRANCH   2   3
ENDBRANCH   1   2
BRANCH   1   7
ATOM      7  C   UNL     1      -4.757   6.191 -58.503  1.00  0.00     0.000 C 
BRANCH   7   8
ATOM      8  C   UNL     1      -5.310   7.525 -57.979  1.00  0.00    -0.000 C 
BRANCH   8   9
ATOM      9  C   UNL     1      -4.564   7.968 -56.711  1.00  0.00    -0.000 C 
BRANCH   9  10
ATOM     10  C   UNL     1      -3.464   9.000 -57.004  1.00  0.00    -0.003 C 
ATOM     11  C   UNL     1      -3.659   9.707 -58.345  1.00  0.00     0.004 C 
ENDBRANCH   9  10
ENDBRANCH   8   9
ENDBRANCH   7   8
ENDBRANCH   1   7
TORSDOF 7
ENDMDL
MODEL 8
REMARK VINA RESULT:    -3.677      2.765      3.805
REMARK INTER + INTRA:          -5.859
REMARK INTER:                  -5.010
REMARK INTRA:                  -0.850
REMARK UNBOUND:                -0.677
REMARK SMILES CCCCCCCCC(=O)[O-]
REMARK SMILES IDX 6 1 7 2 8 3 9 4 10 5 11 6 5 7 4 8 3 9 2 10 1 11
REMARK H PARENT
REMARK Flexibility Score: inf
ROOT
ATOM      1  C   UNL     1      -4.235   6.664 -60.079  1.00  0.00     0.000 C 
ENDROOT
BRANCH   1   2
ATOM      2  C   UNL     1      -4.696   7.027 -58.656  1.00  0.00     0.006 C 
BRANCH   2   3
ATOM      3  C   UNL     1      -4.816   8.540 -58.434  1.00  0.00     0.053 C 
BRANCH   3   4
ATOM      4  C   UNL     1      -3.519   9.098 -57.940  1.00  0.00     0.041 C 
ATOM      5  O   UNL     1      -2.710   9.627 -58.747  1.00  0.00    -0.550 OA
ATOM      6  O   UNL     1      -3.223   9.078 -56.583  1.00  0.00    -0.550 OA
ENDBRANCH   3   4
ENDBRANCH   2   3
ENDBRANCH   1   2
BRANCH   1   7
ATOM      7  C   UNL     1      -2.862   5.971 -60.160  1.00  0.00     0.000 C 
BRANCH   7   8
ATOM      8  C   UNL     1      -2.397   5.403 -58.811  1.00  0.00    -0.000 C 
BRANCH   8   9
ATOM      9  C   UNL     1      -1.115   6.103 -58.333  1.00  0.00    -0.000 C 
BRANCH   9  10
ATOM     10  C   UNL     1      -1.064   6.264 -56.806  1.00  0.00    -0.003 C 
ATOM     11  C   UNL     1      -2.286   5.668 -56.107  1.00  0.00     0.004 C 
ENDBRANCH   9  10
ENDBRANCH   8   9
ENDBRANCH   7   8
ENDBRANCH   1   7
TORSDOF 7
ENDMDL
MODEL 9
REMARK VINA RESULT:    -3.637      2.616      4.076
REMARK INTER + INTRA:          -5.803
REMARK INTER:                  -5.149
REMARK INTRA:                  -0.654
REMARK UNBOUND:                -0.677
REMARK SMILES CCCCCCCCC(=O)[O-]
REMARK SMILES IDX 6 1 7 2 8 3 9 4 10 5 11 6 5 7 4 8 3 9 2 10 1 11
REMARK H PARENT
REMARK Flexibility Score: inf
ROOT
ATOM      1  C   UNL     1      -1.352   6.792 -59.181  1.00  0.00     0.000 C 
ENDROOT
BRANCH   1   2
ATOM      2  C   UNL     1      -2.226   7.986 -58.756  1.00  0.00     0.006 C 
BRANCH   2   3
ATOM      3  C   UNL     1      -3.503   7.562 -58.021  1.00  0.00     0.053 C 
BRANCH   3   4
ATOM      4  C   UNL     1      -4.606   8.538 -58.284  1.00  0.00     0.041 C 
ATOM      5  O   UNL     1      -4.341   9.688 -58.723  1.00  0.00    -0.550 OA
ATOM      6  O   UNL     1      -5.929   8.163 -58.090  1.00  0.00    -0.550 OA
ENDBRANCH   3   4
ENDBRANCH   2   3
ENDBRANCH   1   2
BRANCH   1   7
ATOM      7  C   UNL     1      -1.543   5.516 -58.341  1.00  0.00     0.000 C 
BRANCH   7   8
ATOM      8  C   UNL     1      -0.251   5.053 -57.653  1.00  0.00    -0.000 C 
BRANCH   8   9
ATOM      9  C   UNL     1      -0.420   5.032 -56.126  1.00  0.00    -0.000 C 
BRANCH   9  10
ATOM     10  C   UNL     1      -0.154   6.402 -55.484  1.00  0.00    -0.003 C 
ATOM     11  C   UNL     1      -1.419   7.041 -54.909  1.00  0.00     0.004 C 
ENDBRANCH   9  10
ENDBRANCH   8   9
ENDBRANCH   7   8
ENDBRANCH   1   7
TORSDOF 7
ENDMDL
