MODEL 1
REMARK VINA RESULT:    -5.541      0.000      0.000
REMARK INTER + INTRA:          -6.744
REMARK INTER:                  -6.675
REMARK INTRA:                  -0.070
REMARK UNBOUND:                -0.070
REMARK SMILES Oc1cc(O)c2c(c1)O[C@H](c1ccc(O)c(O)c1)[C@H](O)C2
REMARK SMILES IDX 21 1 19 2 10 3 9 4 7 5 8 6 2 7 3 8 4 9 6 10 20 11 11 13
REMARK SMILES IDX 18 14 12 15 16 16 13 17 14 18 17 19 15 21 5 23 1 25
REMARK H PARENT 20 12 17 20 15 22 5 24 1 26
REMARK Flexibility Score: inf
ROOT
ATOM      1  C   UNL     1      15.730  -7.280   6.816  1.00  0.00     0.079 C 
ATOM      2  C   UNL     1      14.612  -7.885   7.687  1.00  0.00     0.164 C 
ATOM      3  C   UNL     1      15.154  -8.966   8.648  1.00  0.00     0.232 C 
ATOM      4  O   UNL     1      16.259  -8.452   9.396  1.00  0.00    -0.482 OA
ATOM      5  C   UNL     1      17.144  -7.483   8.902  1.00  0.00     0.131 A 
ATOM      6  C   UNL     1      18.245  -7.119   9.681  1.00  0.00     0.093 A 
ATOM      7  C   UNL     1      19.163  -6.178   9.211  1.00  0.00     0.122 A 
ATOM      8  C   UNL     1      18.987  -5.607   7.946  1.00  0.00     0.092 A 
ATOM      9  C   UNL     1      17.893  -5.962   7.149  1.00  0.00     0.126 A 
ATOM     10  C   UNL     1      16.933  -6.880   7.641  1.00  0.00     0.039 A 
ENDROOT
BRANCH   2  11
ATOM     11  O   UNL     1      13.547  -8.367   6.906  1.00  0.00    -0.389 OA
ATOM     12  H   UNL     1      13.145  -9.143   7.376  1.00  0.00     0.211 HD
ENDBRANCH   2  11
BRANCH   3  13
ATOM     13  C   UNL     1      15.526 -10.264   7.948  1.00  0.00    -0.001 A 
ATOM     14  C   UNL     1      16.875 -10.654   7.888  1.00  0.00     0.057 A 
ATOM     15  C   UNL     1      14.552 -11.110   7.392  1.00  0.00     0.012 A 
ATOM     16  C   UNL     1      17.255 -11.854   7.276  1.00  0.00     0.157 A 
ATOM     17  C   UNL     1      14.922 -12.309   6.780  1.00  0.00     0.050 A 
ATOM     18  C   UNL     1      16.265 -12.693   6.713  1.00  0.00     0.157 A 
BRANCH  16  19
ATOM     19  O   UNL     1      18.614 -12.173   7.255  1.00  0.00    -0.504 OA
ATOM     20  H   UNL     1      18.978 -13.106   7.391  1.00  0.00     0.293 HD
ENDBRANCH  16  19
BRANCH  18  21
ATOM     21  O   UNL     1      16.566 -13.903   6.086  1.00  0.00    -0.504 OA
ATOM     22  H   UNL     1      16.818 -14.748   6.580  1.00  0.00     0.293 HD
ENDBRANCH  18  21
ENDBRANCH   3  13
BRANCH   9  23
ATOM     23  O   UNL     1      17.799  -5.397   5.875  1.00  0.00    -0.507 OA
ATOM     24  H   UNL     1      18.222  -4.513   5.625  1.00  0.00     0.293 HD
ENDBRANCH   9  23
BRANCH   7  25
ATOM     25  O   UNL     1      20.253  -5.826  10.004  1.00  0.00    -0.508 OA
ATOM     26  H   UNL     1      21.150  -6.288   9.907  1.00  0.00     0.293 HD
ENDBRANCH   7  25
TORSDOF 6
ENDMDL
MODEL 2
REMARK VINA RESULT:    -5.335      1.926      6.005
REMARK INTER + INTRA:          -6.496
REMARK INTER:                  -6.561
REMARK INTRA:                   0.064
REMARK UNBOUND:                -0.070
REMARK SMILES Oc1cc(O)c2c(c1)O[C@H](c1ccc(O)c(O)c1)[C@H](O)C2
REMARK SMILES IDX 21 1 19 2 10 3 9 4 7 5 8 6 2 7 3 8 4 9 6 10 20 11 11 13
REMARK SMILES IDX 18 14 12 15 16 16 13 17 14 18 17 19 15 21 5 23 1 25
REMARK H PARENT 20 12 17 20 15 22 5 24 1 26
REMARK Flexibility Score: inf
ROOT
ATOM      1  C   UNL     1      14.312  -8.220   6.924  1.00  0.00     0.079 C 
ATOM      2  C   UNL     1      14.774  -7.181   5.885  1.00  0.00     0.164 C 
ATOM      3  C   UNL     1      16.266  -6.822   6.056  1.00  0.00     0.232 C 
ATOM      4  O   UNL     1      17.060  -8.011   6.080  1.00  0.00    -0.482 OA
ATOM      5  C   UNL     1      16.600  -9.238   6.578  1.00  0.00     0.131 A 
ATOM      6  C   UNL     1      17.489 -10.315   6.642  1.00  0.00     0.093 A 
ATOM      7  C   UNL     1      17.074 -11.544   7.156  1.00  0.00     0.122 A 
ATOM      8  C   UNL     1      15.765 -11.696   7.625  1.00  0.00     0.092 A 
ATOM      9  C   UNL     1      14.861 -10.629   7.575  1.00  0.00     0.126 A 
ATOM     10  C   UNL     1      15.262  -9.394   7.009  1.00  0.00     0.039 A 
ENDROOT
BRANCH   2  11
ATOM     11  O   UNL     1      13.957  -6.036   5.894  1.00  0.00    -0.389 OA
ATOM     12  H   UNL     1      14.426  -5.317   5.396  1.00  0.00     0.211 HD
ENDBRANCH   2  11
BRANCH   3  13
ATOM     13  C   UNL     1      16.543  -5.957   7.275  1.00  0.00    -0.001 A 
ATOM     14  C   UNL     1      17.607  -6.289   8.130  1.00  0.00     0.057 A 
ATOM     15  C   UNL     1      15.787  -4.805   7.552  1.00  0.00     0.012 A 
ATOM     16  C   UNL     1      17.911  -5.502   9.248  1.00  0.00     0.157 A 
ATOM     17  C   UNL     1      16.083  -4.015   8.664  1.00  0.00     0.050 A 
ATOM     18  C   UNL     1      17.137  -4.350   9.520  1.00  0.00     0.157 A 
BRANCH  16  19
ATOM     19  O   UNL     1      18.983  -5.897  10.052  1.00  0.00    -0.504 OA
ATOM     20  H   UNL     1      19.617  -6.648   9.819  1.00  0.00     0.293 HD
ENDBRANCH  16  19
BRANCH  18  21
ATOM     21  O   UNL     1      17.378  -3.518  10.615  1.00  0.00    -0.504 OA
ATOM     22  H   UNL     1      16.855  -2.675  10.809  1.00  0.00     0.293 HD
ENDBRANCH  18  21
ENDBRANCH   3  13
BRANCH   9  23
ATOM     23  O   UNL     1      13.584 -10.826   8.105  1.00  0.00    -0.507 OA
ATOM     24  H   UNL     1      12.807 -11.186   7.568  1.00  0.00     0.293 HD
ENDBRANCH   9  23
BRANCH   7  25
ATOM     25  O   UNL     1      17.975 -12.606   7.208  1.00  0.00    -0.508 OA
ATOM     26  H   UNL     1      17.899 -13.332   7.911  1.00  0.00     0.293 HD
ENDBRANCH   7  25
TORSDOF 6
ENDMDL
MODEL 3
REMARK VINA RESULT:    -4.924      2.912      4.865
REMARK INTER + INTRA:          -6.001
REMARK INTER:                  -6.341
REMARK INTRA:                   0.340
REMARK UNBOUND:                -0.070
REMARK SMILES Oc1cc(O)c2c(c1)O[C@H](c1ccc(O)c(O)c1)[C@H](O)C2
REMARK SMILES IDX 21 1 19 2 10 3 9 4 7 5 8 6 2 7 3 8 4 9 6 10 20 11 11 13
REMARK SMILES IDX 18 14 12 15 16 16 13 17 14 18 17 19 15 21 5 23 1 25
REMARK H PARENT 20 12 17 20 15 22 5 24 1 26
REMARK Flexibility Score: inf
ROOT
ATOM      1  C   UNL     1      17.576  -4.463   8.287  1.00  0.00     0.079 C 
ATOM      2  C   UNL     1      18.302  -5.041   7.057  1.00  0.00     0.164 C 
ATOM      3  C   UNL     1      17.459  -6.126   6.351  1.00  0.00     0.232 C 
ATOM      4  O   UNL     1      16.149  -5.628   6.069  1.00  0.00    -0.482 OA
ATOM      5  C   UNL     1      15.495  -4.679   6.868  1.00  0.00     0.131 A 
ATOM      6  C   UNL     1      14.178  -4.330   6.556  1.00  0.00     0.093 A 
ATOM      7  C   UNL     1      13.485  -3.409   7.343  1.00  0.00     0.122 A 
ATOM      8  C   UNL     1      14.108  -2.843   8.460  1.00  0.00     0.092 A 
ATOM      9  C   UNL     1      15.424  -3.183   8.793  1.00  0.00     0.126 A 
ATOM     10  C   UNL     1      16.147  -4.079   7.970  1.00  0.00     0.039 A 
ENDROOT
BRANCH   2  11
ATOM     11  O   UNL     1      19.588  -5.509   7.384  1.00  0.00    -0.389 OA
ATOM     12  H   UNL     1      20.246  -5.021   6.823  1.00  0.00     0.211 HD
ENDBRANCH   2  11
BRANCH   3  13
ATOM     13  C   UNL     1      17.392  -7.435   7.122  1.00  0.00    -0.001 A 
ATOM     14  C   UNL     1      17.505  -7.417   8.523  1.00  0.00     0.057 A 
ATOM     15  C   UNL     1      17.178  -8.664   6.477  1.00  0.00     0.012 A 
ATOM     16  C   UNL     1      17.422  -8.597   9.271  1.00  0.00     0.157 A 
ATOM     17  C   UNL     1      17.093  -9.846   7.215  1.00  0.00     0.050 A 
ATOM     18  C   UNL     1      17.215  -9.829   8.608  1.00  0.00     0.157 A 
BRANCH  16  19
ATOM     19  O   UNL     1      17.545  -8.500  10.659  1.00  0.00    -0.504 OA
ATOM     20  H   UNL     1      18.342  -8.094  11.128  1.00  0.00     0.293 HD
ENDBRANCH  16  19
BRANCH  18  21
ATOM     21  O   UNL     1      17.121 -11.047   9.285  1.00  0.00    -0.504 OA
ATOM     22  H   UNL     1      17.435 -11.190  10.235  1.00  0.00     0.293 HD
ENDBRANCH  18  21
ENDBRANCH   3  13
BRANCH   9  23
ATOM     23  O   UNL     1      15.973  -2.624   9.949  1.00  0.00    -0.507 OA
ATOM     24  H   UNL     1      15.585  -1.814  10.416  1.00  0.00     0.293 HD
ENDBRANCH   9  23
BRANCH   7  25
ATOM     25  O   UNL     1      12.175  -3.072   7.013  1.00  0.00    -0.508 OA
ATOM     26  H   UNL     1      11.924  -2.131   6.733  1.00  0.00     0.293 HD
ENDBRANCH   7  25
TORSDOF 6
ENDMDL
MODEL 4
REMARK VINA RESULT:    -4.922      2.616      3.882
REMARK INTER + INTRA:          -5.999
REMARK INTER:                  -5.877
REMARK INTRA:                  -0.122
REMARK UNBOUND:                -0.070
REMARK SMILES Oc1cc(O)c2c(c1)O[C@H](c1ccc(O)c(O)c1)[C@H](O)C2
REMARK SMILES IDX 21 1 19 2 10 3 9 4 7 5 8 6 2 7 3 8 4 9 6 10 20 11 11 13
REMARK SMILES IDX 18 14 12 15 16 16 13 17 14 18 17 19 15 21 5 23 1 25
REMARK H PARENT 20 12 17 20 15 22 5 24 1 26
REMARK Flexibility Score: inf
ROOT
ATOM      1  C   UNL     1      17.414  -7.219   7.731  1.00  0.00     0.079 C 
ATOM      2  C   UNL     1      16.910  -7.503   6.304  1.00  0.00     0.164 C 
ATOM      3  C   UNL     1      15.398  -7.225   6.162  1.00  0.00     0.232 C 
ATOM      4  O   UNL     1      15.092  -5.911   6.634  1.00  0.00    -0.482 OA
ATOM      5  C   UNL     1      15.802  -5.273   7.661  1.00  0.00     0.131 A 
ATOM      6  C   UNL     1      15.361  -4.025   8.109  1.00  0.00     0.093 A 
ATOM      7  C   UNL     1      16.027  -3.371   9.148  1.00  0.00     0.122 A 
ATOM      8  C   UNL     1      17.134  -3.976   9.753  1.00  0.00     0.092 A 
ATOM      9  C   UNL     1      17.588  -5.227   9.321  1.00  0.00     0.126 A 
ATOM     10  C   UNL     1      16.946  -5.872   8.237  1.00  0.00     0.039 A 
ENDROOT
BRANCH   2  11
ATOM     11  O   UNL     1      17.244  -8.804   5.883  1.00  0.00    -0.389 OA
ATOM     12  H   UNL     1      17.821  -8.730   5.080  1.00  0.00     0.211 HD
ENDBRANCH   2  11
BRANCH   3  13
ATOM     13  C   UNL     1      14.526  -8.267   6.846  1.00  0.00    -0.001 A 
ATOM     14  C   UNL     1      14.092  -9.388   6.119  1.00  0.00     0.057 A 
ATOM     15  C   UNL     1      14.174  -8.162   8.201  1.00  0.00     0.012 A 
ATOM     16  C   UNL     1      13.311 -10.383   6.719  1.00  0.00     0.157 A 
ATOM     17  C   UNL     1      13.394  -9.149   8.809  1.00  0.00     0.050 A 
ATOM     18  C   UNL     1      12.955 -10.261   8.082  1.00  0.00     0.157 A 
BRANCH  16  19
ATOM     19  O   UNL     1      12.917 -11.467   5.931  1.00  0.00    -0.504 OA
ATOM     20  H   UNL     1      13.239 -11.626   4.987  1.00  0.00     0.293 HD
ENDBRANCH  16  19
BRANCH  18  21
ATOM     21  O   UNL     1      12.179 -11.210   8.749  1.00  0.00    -0.504 OA
ATOM     22  H   UNL     1      11.524 -11.828   8.290  1.00  0.00     0.293 HD
ENDBRANCH  18  21
ENDBRANCH   3  13
BRANCH   9  23
ATOM     23  O   UNL     1      18.666  -5.802   9.999  1.00  0.00    -0.507 OA
ATOM     24  H   UNL     1      19.085  -6.683   9.733  1.00  0.00     0.293 HD
ENDBRANCH   9  23
BRANCH   7  25
ATOM     25  O   UNL     1      15.573  -2.126   9.578  1.00  0.00    -0.508 OA
ATOM     26  H   UNL     1      15.868  -1.732  10.464  1.00  0.00     0.293 HD
ENDBRANCH   7  25
TORSDOF 6
ENDMDL
MODEL 5
REMARK VINA RESULT:    -4.883      3.418      6.558
REMARK INTER + INTRA:          -5.952
REMARK INTER:                  -5.855
REMARK INTRA:                  -0.096
REMARK UNBOUND:                -0.070
REMARK SMILES Oc1cc(O)c2c(c1)O[C@H](c1ccc(O)c(O)c1)[C@H](O)C2
REMARK SMILES IDX 21 1 19 2 10 3 9 4 7 5 8 6 2 7 3 8 4 9 6 10 20 11 11 13
REMARK SMILES IDX 18 14 12 15 16 16 13 17 14 18 17 19 15 21 5 23 1 25
REMARK H PARENT 20 12 17 20 15 22 5 24 1 26
REMARK Flexibility Score: inf
ROOT
ATOM      1  C   UNL     1      15.469  -6.979   7.787  1.00  0.00     0.079 C 
ATOM      2  C   UNL     1      15.338  -6.399   6.365  1.00  0.00     0.164 C 
ATOM      3  C   UNL     1      15.889  -4.959   6.280  1.00  0.00     0.232 C 
ATOM      4  O   UNL     1      17.216  -4.906   6.808  1.00  0.00    -0.482 OA
ATOM      5  C   UNL     1      17.674  -5.743   7.835  1.00  0.00     0.131 A 
ATOM      6  C   UNL     1      18.961  -5.545   8.341  1.00  0.00     0.093 A 
ATOM      7  C   UNL     1      19.442  -6.341   9.382  1.00  0.00     0.122 A 
ATOM      8  C   UNL     1      18.624  -7.335   9.931  1.00  0.00     0.092 A 
ATOM      9  C   UNL     1      17.331  -7.546   9.442  1.00  0.00     0.126 A 
ATOM     10  C   UNL     1      16.856  -6.773   8.354  1.00  0.00     0.039 A 
ENDROOT
BRANCH   2  11
ATOM     11  O   UNL     1      14.017  -6.483   5.889  1.00  0.00    -0.389 OA
ATOM     12  H   UNL     1      13.742  -7.436   5.908  1.00  0.00     0.211 HD
ENDBRANCH   2  11
BRANCH   3  13
ATOM     13  C   UNL     1      14.993  -3.929   6.951  1.00  0.00    -0.001 A 
ATOM     14  C   UNL     1      15.390  -3.363   8.175  1.00  0.00     0.057 A 
ATOM     15  C   UNL     1      13.794  -3.495   6.362  1.00  0.00     0.012 A 
ATOM     16  C   UNL     1      14.606  -2.392   8.811  1.00  0.00     0.157 A 
ATOM     17  C   UNL     1      13.006  -2.529   6.990  1.00  0.00     0.050 A 
ATOM     18  C   UNL     1      13.397  -1.971   8.212  1.00  0.00     0.157 A 
BRANCH  16  19
ATOM     19  O   UNL     1      15.066  -1.877  10.025  1.00  0.00    -0.504 OA
ATOM     20  H   UNL     1      14.697  -1.043  10.461  1.00  0.00     0.293 HD
ENDBRANCH  16  19
BRANCH  18  21
ATOM     21  O   UNL     1      12.563  -1.010   8.786  1.00  0.00    -0.504 OA
ATOM     22  H   UNL     1      11.915  -1.201   9.538  1.00  0.00     0.293 HD
ENDBRANCH  18  21
ENDBRANCH   3  13
BRANCH   9  23
ATOM     23  O   UNL     1      16.545  -8.517  10.065  1.00  0.00    -0.507 OA
ATOM     24  H   UNL     1      15.688  -8.308  10.561  1.00  0.00     0.293 HD
ENDBRANCH   9  23
BRANCH   7  25
ATOM     25  O   UNL     1      20.729  -6.130   9.871  1.00  0.00    -0.508 OA
ATOM     26  H   UNL     1      21.549  -6.344   9.314  1.00  0.00     0.293 HD
ENDBRANCH   7  25
TORSDOF 6
ENDMDL
MODEL 6
REMARK VINA RESULT:    -4.831      2.102      4.048
REMARK INTER + INTRA:          -5.889
REMARK INTER:                  -5.792
REMARK INTRA:                  -0.097
REMARK UNBOUND:                -0.070
REMARK SMILES Oc1cc(O)c2c(c1)O[C@H](c1ccc(O)c(O)c1)[C@H](O)C2
REMARK SMILES IDX 21 1 19 2 10 3 9 4 7 5 8 6 2 7 3 8 4 9 6 10 20 11 11 13
REMARK SMILES IDX 18 14 12 15 16 16 13 17 14 18 17 19 15 21 5 23 1 25
REMARK H PARENT 20 12 17 20 15 22 5 24 1 26
REMARK Flexibility Score: inf
ROOT
ATOM      1  C   UNL     1      17.813 -10.763   8.546  1.00  0.00     0.079 C 
ATOM      2  C   UNL     1      18.219 -11.366   7.187  1.00  0.00     0.164 C 
ATOM      3  C   UNL     1      17.080 -11.263   6.150  1.00  0.00     0.232 C 
ATOM      4  O   UNL     1      16.607  -9.916   6.068  1.00  0.00    -0.482 OA
ATOM      5  C   UNL     1      16.616  -9.027   7.152  1.00  0.00     0.131 A 
ATOM      6  C   UNL     1      16.044  -7.762   6.989  1.00  0.00     0.093 A 
ATOM      7  C   UNL     1      16.010  -6.859   8.053  1.00  0.00     0.122 A 
ATOM      8  C   UNL     1      16.538  -7.228   9.295  1.00  0.00     0.092 A 
ATOM      9  C   UNL     1      17.110  -8.491   9.480  1.00  0.00     0.126 A 
ATOM     10  C   UNL     1      17.191  -9.393   8.391  1.00  0.00     0.039 A 
ENDROOT
BRANCH   2  11
ATOM     11  O   UNL     1      18.684 -12.687   7.323  1.00  0.00    -0.389 OA
ATOM     12  H   UNL     1      19.546 -12.762   6.836  1.00  0.00     0.211 HD
ENDBRANCH   2  11
BRANCH   3  13
ATOM     13  C   UNL     1      15.934 -12.228   6.414  1.00  0.00    -0.001 A 
ATOM     14  C   UNL     1      14.784 -11.769   7.078  1.00  0.00     0.057 A 
ATOM     15  C   UNL     1      15.974 -13.562   5.974  1.00  0.00     0.012 A 
ATOM     16  C   UNL     1      13.697 -12.619   7.316  1.00  0.00     0.157 A 
ATOM     17  C   UNL     1      14.895 -14.417   6.207  1.00  0.00     0.050 A 
ATOM     18  C   UNL     1      13.754 -13.962   6.876  1.00  0.00     0.157 A 
BRANCH  16  19
ATOM     19  O   UNL     1      12.590 -12.091   7.983  1.00  0.00    -0.504 OA
ATOM     20  H   UNL     1      11.729 -11.825   7.527  1.00  0.00     0.293 HD
ENDBRANCH  16  19
BRANCH  18  21
ATOM     21  O   UNL     1      12.712 -14.869   7.077  1.00  0.00    -0.504 OA
ATOM     22  H   UNL     1      11.747 -14.680   6.844  1.00  0.00     0.293 HD
ENDBRANCH  18  21
ENDBRANCH   3  13
BRANCH   9  23
ATOM     23  O   UNL     1      17.573  -8.820  10.756  1.00  0.00    -0.507 OA
ATOM     24  H   UNL     1      17.287  -9.652  11.255  1.00  0.00     0.293 HD
ENDBRANCH   9  23
BRANCH   7  25
ATOM     25  O   UNL     1      15.438  -5.602   7.869  1.00  0.00    -0.508 OA
ATOM     26  H   UNL     1      14.489  -5.403   8.162  1.00  0.00     0.293 HD
ENDBRANCH   7  25
TORSDOF 6
ENDMDL
MODEL 7
REMARK VINA RESULT:    -4.824      1.839      5.996
REMARK INTER + INTRA:          -5.880
REMARK INTER:                  -5.936
REMARK INTRA:                   0.055
REMARK UNBOUND:                -0.070
REMARK SMILES Oc1cc(O)c2c(c1)O[C@H](c1ccc(O)c(O)c1)[C@H](O)C2
REMARK SMILES IDX 21 1 19 2 10 3 9 4 7 5 8 6 2 7 3 8 4 9 6 10 20 11 11 13
REMARK SMILES IDX 18 14 12 15 16 16 13 17 14 18 17 19 15 21 5 23 1 25
REMARK H PARENT 20 12 17 20 15 22 5 24 1 26
REMARK Flexibility Score: inf
ROOT
ATOM      1  C   UNL     1      13.695  -8.167   7.842  1.00  0.00     0.079 C 
ATOM      2  C   UNL     1      14.133  -7.083   6.839  1.00  0.00     0.164 C 
ATOM      3  C   UNL     1      15.584  -7.299   6.357  1.00  0.00     0.232 C 
ATOM      4  O   UNL     1      15.750  -8.635   5.876  1.00  0.00    -0.482 OA
ATOM      5  C   UNL     1      15.035  -9.732   6.378  1.00  0.00     0.131 A 
ATOM      6  C   UNL     1      15.341 -11.010   5.903  1.00  0.00     0.093 A 
ATOM      7  C   UNL     1      14.670 -12.129   6.398  1.00  0.00     0.122 A 
ATOM      8  C   UNL     1      13.694 -11.971   7.388  1.00  0.00     0.092 A 
ATOM      9  C   UNL     1      13.376 -10.701   7.880  1.00  0.00     0.126 A 
ATOM     10  C   UNL     1      14.020  -9.558   7.347  1.00  0.00     0.039 A 
ENDROOT
BRANCH   2  11
ATOM     11  O   UNL     1      13.941  -5.788   7.355  1.00  0.00    -0.389 OA
ATOM     12  H   UNL     1      14.384  -5.740   8.241  1.00  0.00     0.211 HD
ENDBRANCH   2  11
BRANCH   3  13
ATOM     13  C   UNL     1      16.627  -6.965   7.412  1.00  0.00    -0.001 A 
ATOM     14  C   UNL     1      16.724  -7.765   8.563  1.00  0.00     0.057 A 
ATOM     15  C   UNL     1      17.528  -5.900   7.250  1.00  0.00     0.012 A 
ATOM     16  C   UNL     1      17.688  -7.506   9.545  1.00  0.00     0.157 A 
ATOM     17  C   UNL     1      18.492  -5.634   8.224  1.00  0.00     0.050 A 
ATOM     18  C   UNL     1      18.584  -6.425   9.374  1.00  0.00     0.157 A 
BRANCH  16  19
ATOM     19  O   UNL     1      17.723  -8.344  10.662  1.00  0.00    -0.504 OA
ATOM     20  H   UNL     1      18.078  -9.290  10.648  1.00  0.00     0.293 HD
ENDBRANCH  16  19
BRANCH  18  21
ATOM     21  O   UNL     1      19.570  -6.105  10.309  1.00  0.00    -0.504 OA
ATOM     22  H   UNL     1      20.086  -6.790  10.842  1.00  0.00     0.293 HD
ENDBRANCH  18  21
ENDBRANCH   3  13
BRANCH   9  23
ATOM     23  O   UNL     1      12.430 -10.613   8.904  1.00  0.00    -0.507 OA
ATOM     24  H   UNL     1      12.597 -10.936   9.848  1.00  0.00     0.293 HD
ENDBRANCH   9  23
BRANCH   7  25
ATOM     25  O   UNL     1      14.988 -13.393   5.908  1.00  0.00    -0.508 OA
ATOM     26  H   UNL     1      14.268 -14.054   5.640  1.00  0.00     0.293 HD
ENDBRANCH   7  25
TORSDOF 6
ENDMDL
MODEL 8
REMARK VINA RESULT:    -4.607      1.485      6.326
REMARK INTER + INTRA:          -5.619
REMARK INTER:                  -5.751
REMARK INTRA:                   0.132
REMARK UNBOUND:                -0.070
REMARK SMILES Oc1cc(O)c2c(c1)O[C@H](c1ccc(O)c(O)c1)[C@H](O)C2
REMARK SMILES IDX 21 1 19 2 10 3 9 4 7 5 8 6 2 7 3 8 4 9 6 10 20 11 11 13
REMARK SMILES IDX 18 14 12 15 16 16 13 17 14 18 17 19 15 21 5 23 1 25
REMARK H PARENT 20 12 17 20 15 22 5 24 1 26
REMARK Flexibility Score: inf
ROOT
ATOM      1  C   UNL     1      17.538 -10.217   8.858  1.00  0.00     0.079 C 
ATOM      2  C   UNL     1      17.114  -9.306  10.026  1.00  0.00     0.164 C 
ATOM      3  C   UNL     1      16.124  -8.212   9.571  1.00  0.00     0.232 C 
ATOM      4  O   UNL     1      15.027  -8.800   8.868  1.00  0.00    -0.482 OA
ATOM      5  C   UNL     1      15.138  -9.970   8.103  1.00  0.00     0.131 A 
ATOM      6  C   UNL     1      14.025 -10.408   7.380  1.00  0.00     0.093 A 
ATOM      7  C   UNL     1      14.104 -11.553   6.586  1.00  0.00     0.122 A 
ATOM      8  C   UNL     1      15.309 -12.259   6.503  1.00  0.00     0.092 A 
ATOM      9  C   UNL     1      16.436 -11.834   7.216  1.00  0.00     0.126 A 
ATOM     10  C   UNL     1      16.347 -10.701   8.060  1.00  0.00     0.039 A 
ENDROOT
BRANCH   2  11
ATOM     11  O   UNL     1      18.228  -8.760  10.690  1.00  0.00    -0.389 OA
ATOM     12  H   UNL     1      18.170  -9.011  11.649  1.00  0.00     0.211 HD
ENDBRANCH   2  11
BRANCH   3  13
ATOM     13  C   UNL     1      16.776  -7.113   8.746  1.00  0.00    -0.001 A 
ATOM     14  C   UNL     1      16.063  -6.534   7.683  1.00  0.00     0.057 A 
ATOM     15  C   UNL     1      18.061  -6.629   9.042  1.00  0.00     0.012 A 
ATOM     16  C   UNL     1      16.617  -5.502   6.916  1.00  0.00     0.157 A 
ATOM     17  C   UNL     1      18.622  -5.601   8.282  1.00  0.00     0.050 A 
ATOM     18  C   UNL     1      17.916  -5.030   7.219  1.00  0.00     0.157 A 
BRANCH  16  19
ATOM     19  O   UNL     1      15.848  -4.977   5.875  1.00  0.00    -0.504 OA
ATOM     20  H   UNL     1      16.065  -5.098   4.896  1.00  0.00     0.293 HD
ENDBRANCH  16  19
BRANCH  18  21
ATOM     21  O   UNL     1      18.535  -4.006   6.500  1.00  0.00    -0.504 OA
ATOM     22  H   UNL     1      19.526  -3.810   6.536  1.00  0.00     0.293 HD
ENDBRANCH  18  21
ENDBRANCH   3  13
BRANCH   9  23
ATOM     23  O   UNL     1      17.624 -12.551   7.052  1.00  0.00    -0.507 OA
ATOM     24  H   UNL     1      18.431 -12.188   6.562  1.00  0.00     0.293 HD
ENDBRANCH   9  23
BRANCH   7  25
ATOM     25  O   UNL     1      12.983 -11.975   5.875  1.00  0.00    -0.508 OA
ATOM     26  H   UNL     1      12.945 -12.890   5.440  1.00  0.00     0.293 HD
ENDBRANCH   7  25
TORSDOF 6
ENDMDL
MODEL 9
REMARK VINA RESULT:    -4.600      3.283      5.519
REMARK INTER + INTRA:          -5.610
REMARK INTER:                  -5.623
REMARK INTRA:                   0.012
REMARK UNBOUND:                -0.070
REMARK SMILES Oc1cc(O)c2c(c1)O[C@H](c1ccc(O)c(O)c1)[C@H](O)C2
REMARK SMILES IDX 21 1 19 2 10 3 9 4 7 5 8 6 2 7 3 8 4 9 6 10 20 11 11 13
REMARK SMILES IDX 18 14 12 15 16 16 13 17 14 18 17 19 15 21 5 23 1 25
REMARK H PARENT 20 12 17 20 15 22 5 24 1 26
REMARK Flexibility Score: inf
ROOT
ATOM      1  C   UNL     1      17.123  -3.974   9.748  1.00  0.00     0.079 C 
ATOM      2  C   UNL     1      18.085  -4.980   9.088  1.00  0.00     0.164 C 
ATOM      3  C   UNL     1      17.472  -5.614   7.821  1.00  0.00     0.232 C 
ATOM      4  O   UNL     1      17.005  -4.593   6.935  1.00  0.00    -0.482 OA
ATOM      5  C   UNL     1      16.517  -3.353   7.374  1.00  0.00     0.131 A 
ATOM      6  C   UNL     1      15.998  -2.463   6.430  1.00  0.00     0.093 A 
ATOM      7  C   UNL     1      15.478  -1.231   6.832  1.00  0.00     0.122 A 
ATOM      8  C   UNL     1      15.465  -0.892   8.189  1.00  0.00     0.092 A 
ATOM      9  C   UNL     1      15.976  -1.771   9.149  1.00  0.00     0.126 A 
ATOM     10  C   UNL     1      16.548  -3.001   8.743  1.00  0.00     0.039 A 
ENDROOT
BRANCH   2  11
ATOM     11  O   UNL     1      18.523  -5.957  10.002  1.00  0.00    -0.389 OA
ATOM     12  H   UNL     1      18.766  -5.501  10.849  1.00  0.00     0.211 HD
ENDBRANCH   2  11
BRANCH   3  13
ATOM     13  C   UNL     1      16.373  -6.622   8.120  1.00  0.00    -0.001 A 
ATOM     14  C   UNL     1      15.112  -6.466   7.521  1.00  0.00     0.057 A 
ATOM     15  C   UNL     1      16.595  -7.733   8.950  1.00  0.00     0.012 A 
ATOM     16  C   UNL     1      14.083  -7.386   7.750  1.00  0.00     0.157 A 
ATOM     17  C   UNL     1      15.574  -8.656   9.184  1.00  0.00     0.050 A 
ATOM     18  C   UNL     1      14.316  -8.496   8.595  1.00  0.00     0.157 A 
BRANCH  16  19
ATOM     19  O   UNL     1      12.856  -7.163   7.120  1.00  0.00    -0.504 OA
ATOM     20  H   UNL     1      12.394  -6.266   7.085  1.00  0.00     0.293 HD
ENDBRANCH  16  19
BRANCH  18  21
ATOM     21  O   UNL     1      13.340  -9.455   8.872  1.00  0.00    -0.504 OA
ATOM     22  H   UNL     1      13.540 -10.375   9.239  1.00  0.00     0.293 HD
ENDBRANCH  18  21
ENDBRANCH   3  13
BRANCH   9  23
ATOM     23  O   UNL     1      15.888  -1.398  10.492  1.00  0.00    -0.507 OA
ATOM     24  H   UNL     1      16.457  -0.672  10.908  1.00  0.00     0.293 HD
ENDBRANCH   9  23
BRANCH   7  25
ATOM     25  O   UNL     1      14.968  -0.356   5.875  1.00  0.00    -0.508 OA
ATOM     26  H   UNL     1      14.357   0.410   6.131  1.00  0.00     0.293 HD
ENDBRANCH   7  25
TORSDOF 6
ENDMDL
