MODEL 1
REMARK VINA RESULT:    -3.840      0.000      0.000
REMARK INTER + INTRA:         -10.309
REMARK INTER:                  -7.431
REMARK INTRA:                  -2.877
REMARK UNBOUND:                -2.877
REMARK SMILES CCCCCCCCCCCCCCCCCC(=O)[O-]
REMARK SMILES IDX 10 1 11 2 12 3 13 4 14 5 15 6 16 7 17 8 18 9 19 10 20 11
REMARK SMILES IDX 9 12 8 13 7 14 6 15 5 16 4 17 3 18 2 19 1 20
REMARK H PARENT
REMARK Flexibility Score: inf
ROOT
ATOM      1  C   UNL     1     -33.113  13.612  14.784  1.00  0.00     0.000 C 
ENDROOT
BRANCH   1   2
ATOM      2  C   UNL     1     -32.593  13.419  13.352  1.00  0.00     0.000 C 
BRANCH   2   3
ATOM      3  C   UNL     1     -31.397  14.343  13.076  1.00  0.00     0.000 C 
BRANCH   3   4
ATOM      4  C   UNL     1     -30.814  14.959  14.358  1.00  0.00     0.000 C 
BRANCH   4   5
ATOM      5  C   UNL     1     -29.320  14.639  14.541  1.00  0.00     0.000 C 
BRANCH   5   6
ATOM      6  C   UNL     1     -28.809  14.995  15.948  1.00  0.00     0.000 C 
BRANCH   6   7
ATOM      7  C   UNL     1     -29.934  15.462  16.887  1.00  0.00     0.006 C 
BRANCH   7   8
ATOM      8  C   UNL     1     -29.512  15.416  18.362  1.00  0.00     0.053 C 
BRANCH   8   9
ATOM      9  C   UNL     1     -28.640  16.578  18.726  1.00  0.00     0.041 C 
ATOM     10  O   UNL     1     -29.092  17.752  18.670  1.00  0.00    -0.550 OA
ATOM     11  O   UNL     1     -27.316  16.368  19.090  1.00  0.00    -0.550 OA
ENDBRANCH   8   9
ENDBRANCH   7   8
ENDBRANCH   6   7
ENDBRANCH   5   6
ENDBRANCH   4   5
ENDBRANCH   3   4
ENDBRANCH   2   3
ENDBRANCH   1   2
BRANCH   1  12
ATOM     12  C   UNL     1     -33.045  12.324  15.621  1.00  0.00     0.000 C 
BRANCH  12  13
ATOM     13  C   UNL     1     -32.001  12.407  16.750  1.00  0.00    -0.000 C 
BRANCH  13  14
ATOM     14  C   UNL     1     -30.658  11.770  16.356  1.00  0.00    -0.000 C 
BRANCH  14  15
ATOM     15  C   UNL     1     -30.815  10.691  15.270  1.00  0.00    -0.000 C 
BRANCH  15  16
ATOM     16  C   UNL     1     -29.499  10.391  14.528  1.00  0.00    -0.000 C 
BRANCH  16  17
ATOM     17  C   UNL     1     -29.248  11.239  13.269  1.00  0.00    -0.000 C 
BRANCH  17  18
ATOM     18  C   UNL     1     -30.205  10.897  12.115  1.00  0.00    -0.000 C 
BRANCH  18  19
ATOM     19  C   UNL     1     -30.450   9.385  11.980  1.00  0.00    -0.003 C 
ATOM     20  C   UNL     1     -31.932   9.016  12.045  1.00  0.00     0.004 C 
ENDBRANCH  18  19
ENDBRANCH  17  18
ENDBRANCH  16  17
ENDBRANCH  15  16
ENDBRANCH  14  15
ENDBRANCH  13  14
ENDBRANCH  12  13
ENDBRANCH   1  12
TORSDOF 16
ENDMDL
MODEL 2
REMARK VINA RESULT:    -3.787      3.367      7.233
REMARK INTER + INTRA:         -10.206
REMARK INTER:                  -8.298
REMARK INTRA:                  -1.908
REMARK UNBOUND:                -2.877
REMARK SMILES CCCCCCCCCCCCCCCCCC(=O)[O-]
REMARK SMILES IDX 10 1 11 2 12 3 13 4 14 5 15 6 16 7 17 8 18 9 19 10 20 11
REMARK SMILES IDX 9 12 8 13 7 14 6 15 5 16 4 17 3 18 2 19 1 20
REMARK H PARENT
REMARK Flexibility Score: inf
ROOT
ATOM      1  C   UNL     1     -31.105  15.088  14.125  1.00  0.00     0.000 C 
ENDROOT
BRANCH   1   2
ATOM      2  C   UNL     1     -31.867  14.379  12.996  1.00  0.00     0.000 C 
BRANCH   2   3
ATOM      3  C   UNL     1     -33.324  14.111  13.404  1.00  0.00     0.000 C 
BRANCH   3   4
ATOM      4  C   UNL     1     -33.438  13.202  14.638  1.00  0.00     0.000 C 
BRANCH   4   5
ATOM      5  C   UNL     1     -33.182  11.721  14.307  1.00  0.00     0.000 C 
BRANCH   5   6
ATOM      6  C   UNL     1     -32.119  11.088  15.220  1.00  0.00     0.000 C 
BRANCH   6   7
ATOM      7  C   UNL     1     -30.905  10.556  14.439  1.00  0.00     0.006 C 
BRANCH   7   8
ATOM      8  C   UNL     1     -30.942  10.970  12.961  1.00  0.00     0.053 C 
BRANCH   8   9
ATOM      9  C   UNL     1     -29.776  10.417  12.201  1.00  0.00     0.041 C 
ATOM     10  O   UNL     1     -29.942   9.476  11.381  1.00  0.00    -0.550 OA
ATOM     11  O   UNL     1     -28.499  10.914  12.426  1.00  0.00    -0.550 OA
ENDBRANCH   8   9
ENDBRANCH   7   8
ENDBRANCH   6   7
ENDBRANCH   5   6
ENDBRANCH   4   5
ENDBRANCH   3   4
ENDBRANCH   2   3
ENDBRANCH   1   2
BRANCH   1  12
ATOM     12  C   UNL     1     -29.796  14.374  14.501  1.00  0.00     0.000 C 
BRANCH  12  13
ATOM     13  C   UNL     1     -29.828  13.791  15.925  1.00  0.00    -0.000 C 
BRANCH  13  14
ATOM     14  C   UNL     1     -30.278  14.824  16.972  1.00  0.00    -0.000 C 
BRANCH  14  15
ATOM     15  C   UNL     1     -29.234  15.931  17.194  1.00  0.00    -0.000 C 
BRANCH  15  16
ATOM     16  C   UNL     1     -27.945  15.416  17.860  1.00  0.00    -0.000 C 
BRANCH  16  17
ATOM     17  C   UNL     1     -27.496  16.194  19.110  1.00  0.00    -0.000 C 
BRANCH  17  18
ATOM     18  C   UNL     1     -28.671  16.819  19.881  1.00  0.00    -0.000 C 
BRANCH  18  19
ATOM     19  C   UNL     1     -28.249  18.048  20.703  1.00  0.00    -0.003 C 
ATOM     20  C   UNL     1     -29.139  18.277  21.925  1.00  0.00     0.004 C 
ENDBRANCH  18  19
ENDBRANCH  17  18
ENDBRANCH  16  17
ENDBRANCH  15  16
ENDBRANCH  14  15
ENDBRANCH  13  14
ENDBRANCH  12  13
ENDBRANCH   1  12
TORSDOF 16
ENDMDL
MODEL 3
REMARK VINA RESULT:    -3.698      1.474      2.486
REMARK INTER + INTRA:         -10.034
REMARK INTER:                  -7.959
REMARK INTRA:                  -2.074
REMARK UNBOUND:                -2.877
REMARK SMILES CCCCCCCCCCCCCCCCCC(=O)[O-]
REMARK SMILES IDX 10 1 11 2 12 3 13 4 14 5 15 6 16 7 17 8 18 9 19 10 20 11
REMARK SMILES IDX 9 12 8 13 7 14 6 15 5 16 4 17 3 18 2 19 1 20
REMARK H PARENT
REMARK Flexibility Score: inf
ROOT
ATOM      1  C   UNL     1     -33.123  14.008  13.153  1.00  0.00     0.000 C 
ENDROOT
BRANCH   1   2
ATOM      2  C   UNL     1     -31.598  14.059  12.976  1.00  0.00     0.000 C 
BRANCH   2   3
ATOM      3  C   UNL     1     -30.950  14.919  14.072  1.00  0.00     0.000 C 
BRANCH   3   4
ATOM      4  C   UNL     1     -29.713  14.253  14.696  1.00  0.00     0.000 C 
BRANCH   4   5
ATOM      5  C   UNL     1     -30.042  13.491  15.992  1.00  0.00     0.000 C 
BRANCH   5   6
ATOM      6  C   UNL     1     -29.316  14.072  17.217  1.00  0.00     0.000 C 
BRANCH   6   7
ATOM      7  C   UNL     1     -29.505  15.592  17.354  1.00  0.00     0.006 C 
BRANCH   7   8
ATOM      8  C   UNL     1     -28.328  16.259  18.079  1.00  0.00     0.053 C 
BRANCH   8   9
ATOM      9  C   UNL     1     -27.036  15.555  17.802  1.00  0.00     0.041 C 
ATOM     10  O   UNL     1     -26.406  14.993  18.737  1.00  0.00    -0.550 OA
ATOM     11  O   UNL     1     -26.506  15.550  16.518  1.00  0.00    -0.550 OA
ENDBRANCH   8   9
ENDBRANCH   7   8
ENDBRANCH   6   7
ENDBRANCH   5   6
ENDBRANCH   4   5
ENDBRANCH   3   4
ENDBRANCH   2   3
ENDBRANCH   1   2
BRANCH   1  12
ATOM     12  C   UNL     1     -33.553  13.218  14.400  1.00  0.00     0.000 C 
BRANCH  12  13
ATOM     13  C   UNL     1     -32.920  11.816  14.458  1.00  0.00    -0.000 C 
BRANCH  13  14
ATOM     14  C   UNL     1     -33.669  10.796  13.585  1.00  0.00    -0.000 C 
BRANCH  14  15
ATOM     15  C   UNL     1     -32.824  10.305  12.397  1.00  0.00    -0.000 C 
BRANCH  15  16
ATOM     16  C   UNL     1     -31.960   9.078  12.741  1.00  0.00    -0.000 C 
BRANCH  16  17
ATOM     17  C   UNL     1     -30.486   9.171  12.309  1.00  0.00    -0.000 C 
BRANCH  17  18
ATOM     18  C   UNL     1     -30.066  10.596  11.911  1.00  0.00    -0.000 C 
BRANCH  18  19
ATOM     19  C   UNL     1     -29.025  11.193  12.872  1.00  0.00    -0.003 C 
ATOM     20  C   UNL     1     -28.581  10.206  13.952  1.00  0.00     0.004 C 
ENDBRANCH  18  19
ENDBRANCH  17  18
ENDBRANCH  16  17
ENDBRANCH  15  16
ENDBRANCH  14  15
ENDBRANCH  13  14
ENDBRANCH  12  13
ENDBRANCH   1  12
TORSDOF 16
ENDMDL
MODEL 4
REMARK VINA RESULT:    -3.687      1.482      2.605
REMARK INTER + INTRA:         -10.012
REMARK INTER:                  -7.599
REMARK INTRA:                  -2.413
REMARK UNBOUND:                -2.877
REMARK SMILES CCCCCCCCCCCCCCCCCC(=O)[O-]
REMARK SMILES IDX 10 1 11 2 12 3 13 4 14 5 15 6 16 7 17 8 18 9 19 10 20 11
REMARK SMILES IDX 9 12 8 13 7 14 6 15 5 16 4 17 3 18 2 19 1 20
REMARK H PARENT
REMARK Flexibility Score: inf
ROOT
ATOM      1  C   UNL     1     -33.780  12.645  14.463  1.00  0.00     0.000 C 
ENDROOT
BRANCH   1   2
ATOM      2  C   UNL     1     -33.259  13.288  15.758  1.00  0.00     0.000 C 
BRANCH   2   3
ATOM      3  C   UNL     1     -32.420  12.285  16.566  1.00  0.00     0.000 C 
BRANCH   3   4
ATOM      4  C   UNL     1     -31.205  12.937  17.245  1.00  0.00     0.000 C 
BRANCH   4   5
ATOM      5  C   UNL     1     -31.329  14.469  17.333  1.00  0.00     0.000 C 
BRANCH   5   6
ATOM      6  C   UNL     1     -30.125  15.195  16.709  1.00  0.00     0.000 C 
BRANCH   6   7
ATOM      7  C   UNL     1     -29.309  15.988  17.743  1.00  0.00     0.006 C 
BRANCH   7   8
ATOM      8  C   UNL     1     -27.797  15.821  17.537  1.00  0.00     0.053 C 
BRANCH   8   9
ATOM      9  C   UNL     1     -27.166  15.053  18.657  1.00  0.00     0.041 C 
ATOM     10  O   UNL     1     -25.960  15.249  18.961  1.00  0.00    -0.550 OA
ATOM     11  O   UNL     1     -27.899  14.092  19.342  1.00  0.00    -0.550 OA
ENDBRANCH   8   9
ENDBRANCH   7   8
ENDBRANCH   6   7
ENDBRANCH   5   6
ENDBRANCH   4   5
ENDBRANCH   3   4
ENDBRANCH   2   3
ENDBRANCH   1   2
BRANCH   1  12
ATOM     12  C   UNL     1     -33.405  13.447  13.207  1.00  0.00     0.000 C 
BRANCH  12  13
ATOM     13  C   UNL     1     -32.118  14.271  13.394  1.00  0.00    -0.000 C 
BRANCH  13  14
ATOM     14  C   UNL     1     -30.888  13.588  12.774  1.00  0.00    -0.000 C 
BRANCH  14  15
ATOM     15  C   UNL     1     -29.858  13.156  13.832  1.00  0.00    -0.000 C 
BRANCH  15  16
ATOM     16  C   UNL     1     -29.732  11.627  13.959  1.00  0.00    -0.000 C 
BRANCH  16  17
ATOM     17  C   UNL     1     -29.186  10.908  12.713  1.00  0.00    -0.000 C 
BRANCH  17  18
ATOM     18  C   UNL     1     -30.292  10.284  11.846  1.00  0.00    -0.000 C 
BRANCH  18  19
ATOM     19  C   UNL     1     -31.242   9.388  12.658  1.00  0.00    -0.003 C 
ATOM     20  C   UNL     1     -32.715   9.727  12.431  1.00  0.00     0.004 C 
ENDBRANCH  18  19
ENDBRANCH  17  18
ENDBRANCH  16  17
ENDBRANCH  15  16
ENDBRANCH  14  15
ENDBRANCH  13  14
ENDBRANCH  12  13
ENDBRANCH   1  12
TORSDOF 16
ENDMDL
MODEL 5
REMARK VINA RESULT:    -3.639      2.806      6.782
REMARK INTER + INTRA:          -9.921
REMARK INTER:                  -8.539
REMARK INTRA:                  -1.382
REMARK UNBOUND:                -2.877
REMARK SMILES CCCCCCCCCCCCCCCCCC(=O)[O-]
REMARK SMILES IDX 10 1 11 2 12 3 13 4 14 5 15 6 16 7 17 8 18 9 19 10 20 11
REMARK SMILES IDX 9 12 8 13 7 14 6 15 5 16 4 17 3 18 2 19 1 20
REMARK H PARENT
REMARK Flexibility Score: inf
ROOT
ATOM      1  C   UNL     1     -33.393  13.999  13.274  1.00  0.00     0.000 C 
ENDROOT
BRANCH   1   2
ATOM      2  C   UNL     1     -34.114  12.645  13.361  1.00  0.00     0.000 C 
BRANCH   2   3
ATOM      3  C   UNL     1     -33.647  11.856  14.595  1.00  0.00     0.000 C 
BRANCH   3   4
ATOM      4  C   UNL     1     -33.329  10.386  14.275  1.00  0.00     0.000 C 
BRANCH   4   5
ATOM      5  C   UNL     1     -33.472  10.064  12.776  1.00  0.00     0.000 C 
BRANCH   5   6
ATOM      6  C   UNL     1     -32.202   9.425  12.188  1.00  0.00     0.000 C 
BRANCH   6   7
ATOM      7  C   UNL     1     -30.939   9.761  12.998  1.00  0.00     0.006 C 
BRANCH   7   8
ATOM      8  C   UNL     1     -30.282  11.068  12.530  1.00  0.00     0.053 C 
BRANCH   8   9
ATOM      9  C   UNL     1     -28.868  11.179  13.008  1.00  0.00     0.041 C 
ATOM     10  O   UNL     1     -28.367  12.309  13.251  1.00  0.00    -0.550 OA
ATOM     11  O   UNL     1     -28.088  10.038  13.148  1.00  0.00    -0.550 OA
ENDBRANCH   8   9
ENDBRANCH   7   8
ENDBRANCH   6   7
ENDBRANCH   5   6
ENDBRANCH   4   5
ENDBRANCH   3   4
ENDBRANCH   2   3
ENDBRANCH   1   2
BRANCH   1  12
ATOM     12  C   UNL     1     -32.249  14.131  14.292  1.00  0.00     0.000 C 
BRANCH  12  13
ATOM     13  C   UNL     1     -31.077  14.974  13.758  1.00  0.00    -0.000 C 
BRANCH  13  14
ATOM     14  C   UNL     1     -29.791  14.779  14.578  1.00  0.00    -0.000 C 
BRANCH  14  15
ATOM     15  C   UNL     1     -30.078  14.426  16.047  1.00  0.00    -0.000 C 
BRANCH  15  16
ATOM     16  C   UNL     1     -29.612  15.517  17.029  1.00  0.00    -0.000 C 
BRANCH  16  17
ATOM     17  C   UNL     1     -28.211  15.305  17.630  1.00  0.00    -0.000 C 
BRANCH  17  18
ATOM     18  C   UNL     1     -28.013  16.042  18.965  1.00  0.00    -0.000 C 
BRANCH  18  19
ATOM     19  C   UNL     1     -28.813  17.353  19.038  1.00  0.00    -0.003 C 
ATOM     20  C   UNL     1     -28.595  18.108  20.350  1.00  0.00     0.004 C 
ENDBRANCH  18  19
ENDBRANCH  17  18
ENDBRANCH  16  17
ENDBRANCH  15  16
ENDBRANCH  14  15
ENDBRANCH  13  14
ENDBRANCH  12  13
ENDBRANCH   1  12
TORSDOF 16
ENDMDL
MODEL 6
REMARK VINA RESULT:    -3.601      3.057      6.764
REMARK INTER + INTRA:          -9.847
REMARK INTER:                  -7.647
REMARK INTRA:                  -2.201
REMARK UNBOUND:                -2.877
REMARK SMILES CCCCCCCCCCCCCCCCCC(=O)[O-]
REMARK SMILES IDX 10 1 11 2 12 3 13 4 14 5 15 6 16 7 17 8 18 9 19 10 20 11
REMARK SMILES IDX 9 12 8 13 7 14 6 15 5 16 4 17 3 18 2 19 1 20
REMARK H PARENT
REMARK Flexibility Score: inf
ROOT
ATOM      1  C   UNL     1     -31.367  13.625  17.433  1.00  0.00     0.000 C 
ENDROOT
BRANCH   1   2
ATOM      2  C   UNL     1     -31.985  12.637  16.432  1.00  0.00     0.000 C 
BRANCH   2   3
ATOM      3  C   UNL     1     -33.192  13.267  15.717  1.00  0.00     0.000 C 
BRANCH   3   4
ATOM      4  C   UNL     1     -33.122  13.116  14.189  1.00  0.00     0.000 C 
BRANCH   4   5
ATOM      5  C   UNL     1     -32.653  14.404  13.489  1.00  0.00     0.000 C 
BRANCH   5   6
ATOM      6  C   UNL     1     -31.155  14.375  13.143  1.00  0.00     0.000 C 
BRANCH   6   7
ATOM      7  C   UNL     1     -30.625  12.948  12.921  1.00  0.00     0.006 C 
BRANCH   7   8
ATOM      8  C   UNL     1     -29.369  12.661  13.755  1.00  0.00     0.053 C 
BRANCH   8   9
ATOM      9  C   UNL     1     -28.855  11.274  13.524  1.00  0.00     0.041 C 
ATOM     10  O   UNL     1     -28.739  10.472  14.488  1.00  0.00    -0.550 OA
ATOM     11  O   UNL     1     -28.469  10.877  12.250  1.00  0.00    -0.550 OA
ENDBRANCH   8   9
ENDBRANCH   7   8
ENDBRANCH   6   7
ENDBRANCH   5   6
ENDBRANCH   4   5
ENDBRANCH   3   4
ENDBRANCH   2   3
ENDBRANCH   1   2
BRANCH   1  12
ATOM     12  C   UNL     1     -29.842  13.745  17.287  1.00  0.00     0.000 C 
BRANCH  12  13
ATOM     13  C   UNL     1     -29.415  15.047  16.586  1.00  0.00    -0.000 C 
BRANCH  13  14
ATOM     14  C   UNL     1     -28.420  15.866  17.425  1.00  0.00    -0.000 C 
BRANCH  14  15
ATOM     15  C   UNL     1     -29.094  17.035  18.164  1.00  0.00    -0.000 C 
BRANCH  15  16
ATOM     16  C   UNL     1     -28.521  17.263  19.575  1.00  0.00    -0.000 C 
BRANCH  16  17
ATOM     17  C   UNL     1     -29.423  16.802  20.733  1.00  0.00    -0.000 C 
BRANCH  17  18
ATOM     18  C   UNL     1     -28.941  15.495  21.385  1.00  0.00    -0.000 C 
BRANCH  18  19
ATOM     19  C   UNL     1     -29.864  14.306  21.073  1.00  0.00    -0.003 C 
ATOM     20  C   UNL     1     -31.342  14.696  21.036  1.00  0.00     0.004 C 
ENDBRANCH  18  19
ENDBRANCH  17  18
ENDBRANCH  16  17
ENDBRANCH  15  16
ENDBRANCH  14  15
ENDBRANCH  13  14
ENDBRANCH  12  13
ENDBRANCH   1  12
TORSDOF 16
ENDMDL
MODEL 7
REMARK VINA RESULT:    -3.592      2.968      6.836
REMARK INTER + INTRA:          -9.829
REMARK INTER:                  -7.484
REMARK INTRA:                  -2.345
REMARK UNBOUND:                -2.877
REMARK SMILES CCCCCCCCCCCCCCCCCC(=O)[O-]
REMARK SMILES IDX 10 1 11 2 12 3 13 4 14 5 15 6 16 7 17 8 18 9 19 10 20 11
REMARK SMILES IDX 9 12 8 13 7 14 6 15 5 16 4 17 3 18 2 19 1 20
REMARK H PARENT
REMARK Flexibility Score: inf
ROOT
ATOM      1  C   UNL     1     -29.486  15.112  15.454  1.00  0.00     0.000 C 
ENDROOT
BRANCH   1   2
ATOM      2  C   UNL     1     -30.969  14.798  15.203  1.00  0.00     0.000 C 
BRANCH   2   3
ATOM      3  C   UNL     1     -31.629  14.232  16.470  1.00  0.00     0.000 C 
BRANCH   3   4
ATOM      4  C   UNL     1     -32.821  13.313  16.159  1.00  0.00     0.000 C 
BRANCH   4   5
ATOM      5  C   UNL     1     -33.329  13.472  14.715  1.00  0.00     0.000 C 
BRANCH   5   6
ATOM      6  C   UNL     1     -33.371  12.136  13.954  1.00  0.00     0.000 C 
BRANCH   6   7
ATOM      7  C   UNL     1     -32.081  11.315  14.125  1.00  0.00     0.006 C 
BRANCH   7   8
ATOM      8  C   UNL     1     -31.286  11.209  12.816  1.00  0.00     0.053 C 
BRANCH   8   9
ATOM      9  C   UNL     1     -30.343  12.359  12.645  1.00  0.00     0.041 C 
ATOM     10  O   UNL     1     -29.186  12.309  13.139  1.00  0.00    -0.550 OA
ATOM     11  O   UNL     1     -30.755  13.503  11.973  1.00  0.00    -0.550 OA
ENDBRANCH   8   9
ENDBRANCH   7   8
ENDBRANCH   6   7
ENDBRANCH   5   6
ENDBRANCH   4   5
ENDBRANCH   3   4
ENDBRANCH   2   3
ENDBRANCH   1   2
BRANCH   1  12
ATOM     12  C   UNL     1     -28.935  14.420  16.711  1.00  0.00     0.000 C 
BRANCH  12  13
ATOM     13  C   UNL     1     -28.224  15.401  17.661  1.00  0.00    -0.000 C 
BRANCH  13  14
ATOM     14  C   UNL     1     -29.066  16.655  17.948  1.00  0.00    -0.000 C 
BRANCH  14  15
ATOM     15  C   UNL     1     -28.623  17.381  19.230  1.00  0.00    -0.000 C 
BRANCH  15  16
ATOM     16  C   UNL     1     -28.041  16.428  20.289  1.00  0.00    -0.000 C 
BRANCH  16  17
ATOM     17  C   UNL     1     -29.081  15.709  21.167  1.00  0.00    -0.000 C 
BRANCH  17  18
ATOM     18  C   UNL     1     -28.978  14.176  21.087  1.00  0.00    -0.000 C 
BRANCH  18  19
ATOM     19  C   UNL     1     -30.108  13.552  20.253  1.00  0.00    -0.003 C 
ATOM     20  C   UNL     1     -31.336  14.458  20.148  1.00  0.00     0.004 C 
ENDBRANCH  18  19
ENDBRANCH  17  18
ENDBRANCH  16  17
ENDBRANCH  15  16
ENDBRANCH  14  15
ENDBRANCH  13  14
ENDBRANCH  12  13
ENDBRANCH   1  12
TORSDOF 16
ENDMDL
MODEL 8
REMARK VINA RESULT:    -3.589      1.651      3.274
REMARK INTER + INTRA:          -9.824
REMARK INTER:                  -7.395
REMARK INTRA:                  -2.429
REMARK UNBOUND:                -2.877
REMARK SMILES CCCCCCCCCCCCCCCCCC(=O)[O-]
REMARK SMILES IDX 10 1 11 2 12 3 13 4 14 5 15 6 16 7 17 8 18 9 19 10 20 11
REMARK SMILES IDX 9 12 8 13 7 14 6 15 5 16 4 17 3 18 2 19 1 20
REMARK H PARENT
REMARK Flexibility Score: inf
ROOT
ATOM      1  C   UNL     1     -32.150  13.077  17.026  1.00  0.00     0.000 C 
ENDROOT
BRANCH   1   2
ATOM      2  C   UNL     1     -31.283  14.343  17.096  1.00  0.00     0.000 C 
BRANCH   2   3
ATOM      3  C   UNL     1     -29.806  14.008  16.837  1.00  0.00     0.000 C 
BRANCH   3   4
ATOM      4  C   UNL     1     -28.995  15.226  16.364  1.00  0.00     0.000 C 
BRANCH   4   5
ATOM      5  C   UNL     1     -28.161  15.855  17.495  1.00  0.00     0.000 C 
BRANCH   5   6
ATOM      6  C   UNL     1     -28.923  16.959  18.245  1.00  0.00     0.000 C 
BRANCH   6   7
ATOM      7  C   UNL     1     -29.129  16.632  19.734  1.00  0.00     0.006 C 
BRANCH   7   8
ATOM      8  C   UNL     1     -28.762  17.814  20.642  1.00  0.00     0.053 C 
BRANCH   8   9
ATOM      9  C   UNL     1     -27.307  17.811  20.994  1.00  0.00     0.041 C 
ATOM     10  O   UNL     1     -26.770  18.841  21.482  1.00  0.00    -0.550 OA
ATOM     11  O   UNL     1     -26.533  16.684  20.749  1.00  0.00    -0.550 OA
ENDBRANCH   8   9
ENDBRANCH   7   8
ENDBRANCH   6   7
ENDBRANCH   5   6
ENDBRANCH   4   5
ENDBRANCH   3   4
ENDBRANCH   2   3
ENDBRANCH   1   2
BRANCH   1  12
ATOM     12  C   UNL     1     -33.371  13.241  16.106  1.00  0.00     0.000 C 
BRANCH  12  13
ATOM     13  C   UNL     1     -33.387  12.218  14.956  1.00  0.00    -0.000 C 
BRANCH  13  14
ATOM     14  C   UNL     1     -33.415  12.889  13.573  1.00  0.00    -0.000 C 
BRANCH  14  15
ATOM     15  C   UNL     1     -32.875  14.329  13.606  1.00  0.00    -0.000 C 
BRANCH  15  16
ATOM     16  C   UNL     1     -31.362  14.409  13.334  1.00  0.00    -0.000 C 
BRANCH  16  17
ATOM     17  C   UNL     1     -30.760  13.190  12.612  1.00  0.00    -0.000 C 
BRANCH  17  18
ATOM     18  C   UNL     1     -29.661  12.491  13.431  1.00  0.00    -0.000 C 
BRANCH  18  19
ATOM     19  C   UNL     1     -30.009  11.030  13.757  1.00  0.00    -0.003 C 
ATOM     20  C   UNL     1     -29.921  10.720  15.252  1.00  0.00     0.004 C 
ENDBRANCH  18  19
ENDBRANCH  17  18
ENDBRANCH  16  17
ENDBRANCH  15  16
ENDBRANCH  14  15
ENDBRANCH  13  14
ENDBRANCH  12  13
ENDBRANCH   1  12
TORSDOF 16
ENDMDL
MODEL 9
REMARK VINA RESULT:    -3.580      2.451      4.138
REMARK INTER + INTRA:          -9.806
REMARK INTER:                  -7.565
REMARK INTRA:                  -2.241
REMARK UNBOUND:                -2.877
REMARK SMILES CCCCCCCCCCCCCCCCCC(=O)[O-]
REMARK SMILES IDX 10 1 11 2 12 3 13 4 14 5 15 6 16 7 17 8 18 9 19 10 20 11
REMARK SMILES IDX 9 12 8 13 7 14 6 15 5 16 4 17 3 18 2 19 1 20
REMARK H PARENT
REMARK Flexibility Score: inf
ROOT
ATOM      1  C   UNL     1     -30.658  14.914  16.517  1.00  0.00     0.000 C 
ENDROOT
BRANCH   1   2
ATOM      2  C   UNL     1     -29.207  15.195  16.098  1.00  0.00     0.000 C 
BRANCH   2   3
ATOM      3  C   UNL     1     -28.371  15.663  17.299  1.00  0.00     0.000 C 
BRANCH   3   4
ATOM      4  C   UNL     1     -29.025  16.829  18.059  1.00  0.00     0.000 C 
BRANCH   4   5
ATOM      5  C   UNL     1     -28.936  16.662  19.587  1.00  0.00     0.000 C 
BRANCH   5   6
ATOM      6  C   UNL     1     -29.569  15.348  20.074  1.00  0.00     0.000 C 
BRANCH   6   7
ATOM      7  C   UNL     1     -29.883  15.362  21.579  1.00  0.00     0.006 C 
BRANCH   7   8
ATOM      8  C   UNL     1     -30.989  16.367  21.929  1.00  0.00     0.053 C 
BRANCH   8   9
ATOM      9  C   UNL     1     -30.565  17.300  23.021  1.00  0.00     0.041 C 
ATOM     10  O   UNL     1     -30.666  16.952  24.227  1.00  0.00    -0.550 OA
ATOM     11  O   UNL     1     -30.092  18.568  22.709  1.00  0.00    -0.550 OA
ENDBRANCH   8   9
ENDBRANCH   7   8
ENDBRANCH   6   7
ENDBRANCH   5   6
ENDBRANCH   4   5
ENDBRANCH   3   4
ENDBRANCH   2   3
ENDBRANCH   1   2
BRANCH   1  12
ATOM     12  C   UNL     1     -30.895  13.441  16.887  1.00  0.00     0.000 C 
BRANCH  12  13
ATOM     13  C   UNL     1     -29.859  12.497  16.250  1.00  0.00    -0.000 C 
BRANCH  13  14
ATOM     14  C   UNL     1     -30.486  11.179  15.764  1.00  0.00    -0.000 C 
BRANCH  14  15
ATOM     15  C   UNL     1     -30.327  10.977  14.247  1.00  0.00    -0.000 C 
BRANCH  15  16
ATOM     16  C   UNL     1     -29.818  12.237  13.523  1.00  0.00    -0.000 C 
BRANCH  16  17
ATOM     17  C   UNL     1     -30.839  12.917  12.594  1.00  0.00    -0.000 C 
BRANCH  17  18
ATOM     18  C   UNL     1     -31.272  14.305  13.094  1.00  0.00    -0.000 C 
BRANCH  18  19
ATOM     19  C   UNL     1     -32.777  14.378  13.400  1.00  0.00    -0.003 C 
ATOM     20  C   UNL     1     -33.333  13.065  13.953  1.00  0.00     0.004 C 
ENDBRANCH  18  19
ENDBRANCH  17  18
ENDBRANCH  16  17
ENDBRANCH  15  16
ENDBRANCH  14  15
ENDBRANCH  13  14
ENDBRANCH  12  13
ENDBRANCH   1  12
TORSDOF 16
ENDMDL
