MODEL 1
REMARK VINA RESULT:    -8.123      0.000      0.000
REMARK INTER + INTRA:         -11.470
REMARK INTER:                 -11.447
REMARK INTRA:                  -0.023
REMARK UNBOUND:                -0.023
REMARK SMILES C[C@@H](CO)CCC(=O)[C@H](C)[C@@H]1C(=O)C[C@@H]2[C@@H]3CC=C4C[C@H](O)CC[C@@]4(C)[C@H]3CC[C@]21C
REMARK SMILES IDX 6 1 5 2 2 3 1 4 3 5 4 6 7 8 8 9 9 10 10 11 11 12 12 13 30 14
REMARK SMILES IDX 13 15 14 16 15 17 29 18 31 19 16 20 28 21 27 22 17 23 25 24
REMARK SMILES IDX 18 25 19 26 24 27 26 28 20 29 23 30 21 31 22 32
REMARK H PARENT 4 7 22 33
REMARK Flexibility Score: inf
ROOT
ATOM      1  C   UNL     1     119.713 131.009 128.756  1.00  0.00     0.076 C 
ENDROOT
BRANCH   1   2
ATOM      2  C   UNL     1     121.148 131.126 128.218  1.00  0.00     0.013 C 
BRANCH   2   3
ATOM      3  C   UNL     1     121.890 132.416 128.639  1.00  0.00     0.012 C 
ATOM      4  C   UNL     1     123.255 132.554 127.947  1.00  0.00     0.010 C 
BRANCH   3   5
ATOM      5  C   UNL     1     121.031 133.678 128.435  1.00  0.00     0.159 C 
BRANCH   5   6
ATOM      6  O   UNL     1     120.952 133.984 127.069  1.00  0.00    -0.396 OA
ATOM      7  H   UNL     1     120.501 133.212 126.639  1.00  0.00     0.210 HD
ENDBRANCH   5   6
ENDBRANCH   3   5
ENDBRANCH   2   3
ENDBRANCH   1   2
BRANCH   1   8
ATOM      8  C   UNL     1     119.536 129.731 129.534  1.00  0.00     0.136 C 
ATOM      9  O   UNL     1     120.444 129.338 130.254  1.00  0.00    -0.299 OA
BRANCH   8  10
ATOM     10  C   UNL     1     118.237 128.952 129.453  1.00  0.00     0.064 C 
ATOM     11  C   UNL     1     117.419 129.282 130.711  1.00  0.00     0.017 C 
BRANCH  10  12
ATOM     12  C   UNL     1     118.481 127.409 129.313  1.00  0.00     0.072 C 
ATOM     13  C   UNL     1     119.204 127.006 128.042  1.00  0.00     0.137 C 
ATOM     14  C   UNL     1     117.214 126.480 129.257  1.00  0.00    -0.019 C 
ATOM     15  O   UNL     1     120.169 127.596 127.586  1.00  0.00    -0.299 OA
ATOM     16  C   UNL     1     118.707 125.722 127.459  1.00  0.00     0.080 C 
ATOM     17  C   UNL     1     117.824 125.221 128.593  1.00  0.00     0.007 C 
ATOM     18  C   UNL     1     116.626 126.078 130.655  1.00  0.00     0.008 C 
ATOM     19  C   UNL     1     116.116 127.136 128.356  1.00  0.00     0.012 C 
ATOM     20  C   UNL     1     116.874 124.012 128.380  1.00  0.00     0.001 C 
ATOM     21  C   UNL     1     116.224 124.576 130.781  1.00  0.00     0.005 C 
ATOM     22  C   UNL     1     115.734 123.987 129.432  1.00  0.00     0.003 C 
ATOM     23  C   UNL     1     116.251 123.845 126.992  1.00  0.00     0.031 C 
ATOM     24  C   UNL     1     115.050 122.571 129.482  1.00  0.00    -0.008 C 
ATOM     25  C   UNL     1     115.465 122.556 126.956  1.00  0.00    -0.027 C 
ATOM     26  C   UNL     1     114.938 121.967 128.064  1.00  0.00    -0.065 C 
ATOM     27  C   UNL     1     115.859 121.576 130.369  1.00  0.00     0.014 C 
ATOM     28  C   UNL     1     113.619 122.742 130.063  1.00  0.00     0.016 C 
ATOM     29  C   UNL     1     114.423 120.548 127.955  1.00  0.00     0.063 C 
ATOM     30  C   UNL     1     115.362 120.119 130.270  1.00  0.00     0.033 C 
ATOM     31  C   UNL     1     115.301 119.627 128.811  1.00  0.00     0.118 C 
BRANCH  31  32
ATOM     32  O   UNL     1     114.777 118.325 128.768  1.00  0.00    -0.393 OA
ATOM     33  H   UNL     1     114.184 118.229 129.560  1.00  0.00     0.210 HD
ENDBRANCH  31  32
ENDBRANCH  10  12
ENDBRANCH   8  10
ENDBRANCH   1   8
TORSDOF 8
ENDMDL
MODEL 2
REMARK VINA RESULT:    -7.123      2.593      3.989
REMARK INTER + INTRA:         -10.061
REMARK INTER:                 -10.040
REMARK INTRA:                  -0.021
REMARK UNBOUND:                -0.023
REMARK SMILES C[C@@H](CO)CCC(=O)[C@H](C)[C@@H]1C(=O)C[C@@H]2[C@@H]3CC=C4C[C@H](O)CC[C@@]4(C)[C@H]3CC[C@]21C
REMARK SMILES IDX 6 1 5 2 2 3 1 4 3 5 4 6 7 8 8 9 9 10 10 11 11 12 12 13 30 14
REMARK SMILES IDX 13 15 14 16 15 17 29 18 31 19 16 20 28 21 27 22 17 23 25 24
REMARK SMILES IDX 18 25 19 26 24 27 26 28 20 29 23 30 21 31 22 32
REMARK H PARENT 4 7 22 33
REMARK Flexibility Score: inf
ROOT
ATOM      1  C   UNL     1     119.627 127.630 128.772  1.00  0.00     0.076 C 
ENDROOT
BRANCH   1   2
ATOM      2  C   UNL     1     120.368 128.810 129.423  1.00  0.00     0.013 C 
BRANCH   2   3
ATOM      3  C   UNL     1     120.406 130.097 128.567  1.00  0.00     0.012 C 
ATOM      4  C   UNL     1     119.387 131.143 129.044  1.00  0.00     0.010 C 
BRANCH   3   5
ATOM      5  C   UNL     1     121.822 130.697 128.476  1.00  0.00     0.159 C 
BRANCH   5   6
ATOM      6  O   UNL     1     121.996 131.319 127.231  1.00  0.00    -0.396 OA
ATOM      7  H   UNL     1     121.374 130.864 126.606  1.00  0.00     0.210 HD
ENDBRANCH   5   6
ENDBRANCH   3   5
ENDBRANCH   2   3
ENDBRANCH   1   2
BRANCH   1   8
ATOM      8  C   UNL     1     118.327 127.358 129.482  1.00  0.00     0.136 C 
ATOM      9  O   UNL     1     117.515 128.263 129.613  1.00  0.00    -0.299 OA
BRANCH   8  10
ATOM     10  C   UNL     1     118.008 125.968 130.002  1.00  0.00     0.064 C 
ATOM     11  C   UNL     1     119.177 125.527 130.895  1.00  0.00     0.017 C 
BRANCH  10  12
ATOM     12  C   UNL     1     117.753 124.947 128.839  1.00  0.00     0.072 C 
ATOM     13  C   UNL     1     116.386 125.066 128.193  1.00  0.00     0.137 C 
ATOM     14  C   UNL     1     117.794 123.418 129.199  1.00  0.00    -0.019 C 
ATOM     15  O   UNL     1     115.854 126.125 127.905  1.00  0.00    -0.299 OA
ATOM     16  C   UNL     1     115.794 123.747 127.810  1.00  0.00     0.080 C 
ATOM     17  C   UNL     1     116.994 122.833 128.009  1.00  0.00     0.007 C 
ATOM     18  C   UNL     1     119.227 122.778 129.206  1.00  0.00     0.008 C 
ATOM     19  C   UNL     1     117.066 123.176 130.562  1.00  0.00     0.012 C 
ATOM     20  C   UNL     1     116.826 121.290 127.970  1.00  0.00     0.001 C 
ATOM     21  C   UNL     1     119.315 121.378 128.523  1.00  0.00     0.005 C 
ATOM     22  C   UNL     1     118.001 120.568 128.681  1.00  0.00     0.003 C 
ATOM     23  C   UNL     1     115.514 120.713 128.506  1.00  0.00     0.031 C 
ATOM     24  C   UNL     1     118.052 119.048 128.274  1.00  0.00    -0.008 C 
ATOM     25  C   UNL     1     115.498 119.221 128.269  1.00  0.00    -0.027 C 
ATOM     26  C   UNL     1     116.624 118.468 128.147  1.00  0.00    -0.065 C 
ATOM     27  C   UNL     1     118.780 118.845 126.911  1.00  0.00     0.014 C 
ATOM     28  C   UNL     1     118.805 118.271 129.389  1.00  0.00     0.016 C 
ATOM     29  C   UNL     1     116.497 117.051 127.631  1.00  0.00     0.063 C 
ATOM     30  C   UNL     1     118.658 117.410 126.356  1.00  0.00     0.033 C 
ATOM     31  C   UNL     1     117.192 116.947 126.267  1.00  0.00     0.118 C 
BRANCH  31  32
ATOM     32  O   UNL     1     117.137 115.616 125.826  1.00  0.00    -0.393 OA
ATOM     33  H   UNL     1     116.471 115.151 126.400  1.00  0.00     0.210 HD
ENDBRANCH  31  32
ENDBRANCH  10  12
ENDBRANCH   8  10
ENDBRANCH   1   8
TORSDOF 8
ENDMDL
MODEL 3
REMARK VINA RESULT:    -6.953      2.187      9.490
REMARK INTER + INTRA:          -9.821
REMARK INTER:                 -10.500
REMARK INTRA:                   0.679
REMARK UNBOUND:                -0.023
REMARK SMILES C[C@@H](CO)CCC(=O)[C@H](C)[C@@H]1C(=O)C[C@@H]2[C@@H]3CC=C4C[C@H](O)CC[C@@]4(C)[C@H]3CC[C@]21C
REMARK SMILES IDX 6 1 5 2 2 3 1 4 3 5 4 6 7 8 8 9 9 10 10 11 11 12 12 13 30 14
REMARK SMILES IDX 13 15 14 16 15 17 29 18 31 19 16 20 28 21 27 22 17 23 25 24
REMARK SMILES IDX 18 25 19 26 24 27 26 28 20 29 23 30 21 31 22 32
REMARK H PARENT 4 7 22 33
REMARK Flexibility Score: inf
ROOT
ATOM      1  C   UNL     1     115.823 121.360 129.828  1.00  0.00     0.076 C 
ENDROOT
BRANCH   1   2
ATOM      2  C   UNL     1     115.960 120.238 130.870  1.00  0.00     0.013 C 
BRANCH   2   3
ATOM      3  C   UNL     1     115.455 120.609 132.284  1.00  0.00     0.012 C 
ATOM      4  C   UNL     1     113.999 120.175 132.514  1.00  0.00     0.010 C 
BRANCH   3   5
ATOM      5  C   UNL     1     116.379 120.074 133.394  1.00  0.00     0.159 C 
BRANCH   5   6
ATOM      6  O   UNL     1     115.623 119.382 134.350  1.00  0.00    -0.396 OA
ATOM      7  H   UNL     1     114.676 119.460 134.062  1.00  0.00     0.210 HD
ENDBRANCH   5   6
ENDBRANCH   3   5
ENDBRANCH   2   3
ENDBRANCH   1   2
BRANCH   1   8
ATOM      8  C   UNL     1     116.516 122.613 130.297  1.00  0.00     0.136 C 
ATOM      9  O   UNL     1     117.737 122.630 130.369  1.00  0.00    -0.299 OA
BRANCH   8  10
ATOM     10  C   UNL     1     115.715 123.854 130.645  1.00  0.00     0.064 C 
ATOM     11  C   UNL     1     114.230 123.463 130.642  1.00  0.00     0.017 C 
BRANCH  10  12
ATOM     12  C   UNL     1     116.002 125.038 129.658  1.00  0.00     0.072 C 
ATOM     13  C   UNL     1     116.442 124.603 128.274  1.00  0.00     0.137 C 
ATOM     14  C   UNL     1     117.149 126.040 130.047  1.00  0.00    -0.019 C 
ATOM     15  O   UNL     1     115.931 123.689 127.648  1.00  0.00    -0.299 OA
ATOM     16  C   UNL     1     117.486 125.492 127.676  1.00  0.00     0.080 C 
ATOM     17  C   UNL     1     117.462 126.653 128.659  1.00  0.00     0.007 C 
ATOM     18  C   UNL     1     116.718 127.193 131.020  1.00  0.00     0.008 C 
ATOM     19  C   UNL     1     118.370 125.251 130.621  1.00  0.00     0.012 C 
ATOM     20  C   UNL     1     118.558 127.751 128.611  1.00  0.00     0.001 C 
ATOM     21  C   UNL     1     117.270 128.602 130.641  1.00  0.00     0.005 C 
ATOM     22  C   UNL     1     118.659 128.520 129.955  1.00  0.00     0.003 C 
ATOM     23  C   UNL     1     119.967 127.319 128.198  1.00  0.00     0.031 C 
ATOM     24  C   UNL     1     119.440 129.873 129.769  1.00  0.00    -0.008 C 
ATOM     25  C   UNL     1     120.848 128.542 128.095  1.00  0.00    -0.027 C 
ATOM     26  C   UNL     1     120.614 129.696 128.778  1.00  0.00    -0.065 C 
ATOM     27  C   UNL     1     118.511 130.999 129.220  1.00  0.00     0.014 C 
ATOM     28  C   UNL     1     120.015 130.298 131.148  1.00  0.00     0.016 C 
ATOM     29  C   UNL     1     121.383 130.939 128.387  1.00  0.00     0.063 C 
ATOM     30  C   UNL     1     119.270 132.276 128.804  1.00  0.00     0.033 C 
ATOM     31  C   UNL     1     120.408 131.974 127.811  1.00  0.00     0.118 C 
BRANCH  31  32
ATOM     32  O   UNL     1     121.112 133.152 127.519  1.00  0.00    -0.393 OA
ATOM     33  H   UNL     1     121.244 133.170 126.534  1.00  0.00     0.210 HD
ENDBRANCH  31  32
ENDBRANCH  10  12
ENDBRANCH   8  10
ENDBRANCH   1   8
TORSDOF 8
ENDMDL
MODEL 4
REMARK VINA RESULT:    -6.942      2.281      8.988
REMARK INTER + INTRA:          -9.806
REMARK INTER:                  -9.553
REMARK INTRA:                  -0.253
REMARK UNBOUND:                -0.023
REMARK SMILES C[C@@H](CO)CCC(=O)[C@H](C)[C@@H]1C(=O)C[C@@H]2[C@@H]3CC=C4C[C@H](O)CC[C@@]4(C)[C@H]3CC[C@]21C
REMARK SMILES IDX 6 1 5 2 2 3 1 4 3 5 4 6 7 8 8 9 9 10 10 11 11 12 12 13 30 14
REMARK SMILES IDX 13 15 14 16 15 17 29 18 31 19 16 20 28 21 27 22 17 23 25 24
REMARK SMILES IDX 18 25 19 26 24 27 26 28 20 29 23 30 21 31 22 32
REMARK H PARENT 4 7 22 33
REMARK Flexibility Score: inf
ROOT
ATOM      1  C   UNL     1     113.785 120.564 130.977  1.00  0.00     0.076 C 
ENDROOT
BRANCH   1   2
ATOM      2  C   UNL     1     114.498 120.042 132.234  1.00  0.00     0.013 C 
BRANCH   2   3
ATOM      3  C   UNL     1     115.072 121.146 133.154  1.00  0.00     0.012 C 
ATOM      4  C   UNL     1     114.403 121.156 134.537  1.00  0.00     0.010 C 
BRANCH   3   5
ATOM      5  C   UNL     1     116.605 121.068 133.275  1.00  0.00     0.159 C 
BRANCH   5   6
ATOM      6  O   UNL     1     117.143 120.463 132.130  1.00  0.00    -0.396 OA
ATOM      7  H   UNL     1     116.759 120.950 131.355  1.00  0.00     0.210 HD
ENDBRANCH   5   6
ENDBRANCH   3   5
ENDBRANCH   2   3
ENDBRANCH   1   2
BRANCH   1   8
ATOM      8  C   UNL     1     114.537 120.169 129.732  1.00  0.00     0.136 C 
ATOM      9  O   UNL     1     115.480 119.395 129.824  1.00  0.00    -0.299 OA
BRANCH   8  10
ATOM     10  C   UNL     1     114.113 120.696 128.374  1.00  0.00     0.064 C 
ATOM     11  C   UNL     1     114.994 120.014 127.316  1.00  0.00     0.017 C 
BRANCH  10  12
ATOM     12  C   UNL     1     114.216 122.258 128.289  1.00  0.00     0.072 C 
ATOM     13  C   UNL     1     113.992 122.823 126.900  1.00  0.00     0.137 C 
ATOM     14  C   UNL     1     115.592 122.914 128.671  1.00  0.00    -0.019 C 
ATOM     15  O   UNL     1     113.113 122.448 126.141  1.00  0.00    -0.299 OA
ATOM     16  C   UNL     1     114.870 123.991 126.585  1.00  0.00     0.080 C 
ATOM     17  C   UNL     1     115.454 124.282 127.960  1.00  0.00     0.007 C 
ATOM     18  C   UNL     1     115.803 123.163 130.206  1.00  0.00     0.008 C 
ATOM     19  C   UNL     1     116.765 122.067 128.076  1.00  0.00     0.012 C 
ATOM     20  C   UNL     1     116.633 125.278 128.122  1.00  0.00     0.001 C 
ATOM     21  C   UNL     1     116.424 124.551 130.559  1.00  0.00     0.005 C 
ATOM     22  C   UNL     1     117.394 125.053 129.456  1.00  0.00     0.003 C 
ATOM     23  C   UNL     1     117.660 125.341 126.990  1.00  0.00     0.031 C 
ATOM     24  C   UNL     1     118.285 126.301 129.811  1.00  0.00    -0.008 C 
ATOM     25  C   UNL     1     118.649 126.446 127.281  1.00  0.00    -0.027 C 
ATOM     26  C   UNL     1     118.924 126.896 128.535  1.00  0.00    -0.065 C 
ATOM     27  C   UNL     1     117.450 127.422 130.501  1.00  0.00     0.014 C 
ATOM     28  C   UNL     1     119.420 125.834 130.763  1.00  0.00     0.016 C 
ATOM     29  C   UNL     1     119.704 128.184 128.689  1.00  0.00     0.063 C 
ATOM     30  C   UNL     1     118.218 128.750 130.662  1.00  0.00     0.033 C 
ATOM     31  C   UNL     1     118.800 129.247 129.325  1.00  0.00     0.118 C 
BRANCH  31  32
ATOM     32  O   UNL     1     119.548 130.416 129.535  1.00  0.00    -0.393 OA
ATOM     33  H   UNL     1     118.974 131.177 129.252  1.00  0.00     0.210 HD
ENDBRANCH  31  32
ENDBRANCH  10  12
ENDBRANCH   8  10
ENDBRANCH   1   8
TORSDOF 8
ENDMDL
MODEL 5
REMARK VINA RESULT:    -6.905      3.183      4.865
REMARK INTER + INTRA:          -9.754
REMARK INTER:                 -10.070
REMARK INTRA:                   0.316
REMARK UNBOUND:                -0.023
REMARK SMILES C[C@@H](CO)CCC(=O)[C@H](C)[C@@H]1C(=O)C[C@@H]2[C@@H]3CC=C4C[C@H](O)CC[C@@]4(C)[C@H]3CC[C@]21C
REMARK SMILES IDX 6 1 5 2 2 3 1 4 3 5 4 6 7 8 8 9 9 10 10 11 11 12 12 13 30 14
REMARK SMILES IDX 13 15 14 16 15 17 29 18 31 19 16 20 28 21 27 22 17 23 25 24
REMARK SMILES IDX 18 25 19 26 24 27 26 28 20 29 23 30 21 31 22 32
REMARK H PARENT 4 7 22 33
REMARK Flexibility Score: inf
ROOT
ATOM      1  C   UNL     1     118.945 127.452 128.747  1.00  0.00     0.076 C 
ENDROOT
BRANCH   1   2
ATOM      2  C   UNL     1     120.058 128.363 128.205  1.00  0.00     0.013 C 
BRANCH   2   3
ATOM      3  C   UNL     1     120.699 129.294 129.260  1.00  0.00     0.012 C 
ATOM      4  C   UNL     1     121.537 130.410 128.618  1.00  0.00     0.010 C 
BRANCH   3   5
ATOM      5  C   UNL     1     119.659 129.870 130.240  1.00  0.00     0.159 C 
BRANCH   5   6
ATOM      6  O   UNL     1     120.283 130.209 131.449  1.00  0.00    -0.396 OA
ATOM      7  H   UNL     1     121.164 130.596 131.207  1.00  0.00     0.210 HD
ENDBRANCH   5   6
ENDBRANCH   3   5
ENDBRANCH   2   3
ENDBRANCH   1   2
BRANCH   1   8
ATOM      8  C   UNL     1     118.500 126.467 127.697  1.00  0.00     0.136 C 
ATOM      9  O   UNL     1     119.294 126.110 126.838  1.00  0.00    -0.299 OA
BRANCH   8  10
ATOM     10  C   UNL     1     117.095 125.896 127.720  1.00  0.00     0.064 C 
ATOM     11  C   UNL     1     116.260 126.756 128.682  1.00  0.00     0.017 C 
BRANCH  10  12
ATOM     12  C   UNL     1     117.078 124.384 128.137  1.00  0.00     0.072 C 
ATOM     13  C   UNL     1     115.708 123.737 128.078  1.00  0.00     0.137 C 
ATOM     14  C   UNL     1     117.523 124.034 129.603  1.00  0.00    -0.019 C 
ATOM     15  O   UNL     1     114.912 123.899 127.168  1.00  0.00    -0.299 OA
ATOM     16  C   UNL     1     115.465 122.759 129.183  1.00  0.00     0.080 C 
ATOM     17  C   UNL     1     116.866 122.642 129.766  1.00  0.00     0.007 C 
ATOM     18  C   UNL     1     119.072 123.888 129.807  1.00  0.00     0.008 C 
ATOM     19  C   UNL     1     116.923 125.078 130.601  1.00  0.00     0.012 C 
ATOM     20  C   UNL     1     117.101 121.911 131.115  1.00  0.00     0.001 C 
ATOM     21  C   UNL     1     119.498 122.668 130.682  1.00  0.00     0.005 C 
ATOM     22  C   UNL     1     118.443 122.332 131.769  1.00  0.00     0.003 C 
ATOM     23  C   UNL     1     115.999 122.015 132.172  1.00  0.00     0.031 C 
ATOM     24  C   UNL     1     118.873 121.304 132.880  1.00  0.00    -0.008 C 
ATOM     25  C   UNL     1     116.361 121.144 133.351  1.00  0.00    -0.027 C 
ATOM     26  C   UNL     1     117.640 120.804 133.669  1.00  0.00    -0.065 C 
ATOM     27  C   UNL     1     119.588 120.062 132.264  1.00  0.00     0.014 C 
ATOM     28  C   UNL     1     119.833 122.023 133.866  1.00  0.00     0.016 C 
ATOM     29  C   UNL     1     117.868 119.707 134.686  1.00  0.00     0.063 C 
ATOM     30  C   UNL     1     119.824 118.923 133.278  1.00  0.00     0.033 C 
ATOM     31  C   UNL     1     118.525 118.507 133.993  1.00  0.00     0.118 C 
BRANCH  31  32
ATOM     32  O   UNL     1     118.803 117.520 134.952  1.00  0.00    -0.393 OA
ATOM     33  H   UNL     1     119.130 116.723 134.456  1.00  0.00     0.210 HD
ENDBRANCH  31  32
ENDBRANCH  10  12
ENDBRANCH   8  10
ENDBRANCH   1   8
TORSDOF 8
ENDMDL
MODEL 6
REMARK VINA RESULT:    -6.726      2.130      3.130
REMARK INTER + INTRA:          -9.502
REMARK INTER:                  -9.547
REMARK INTRA:                   0.045
REMARK UNBOUND:                -0.023
REMARK SMILES C[C@@H](CO)CCC(=O)[C@H](C)[C@@H]1C(=O)C[C@@H]2[C@@H]3CC=C4C[C@H](O)CC[C@@]4(C)[C@H]3CC[C@]21C
REMARK SMILES IDX 6 1 5 2 2 3 1 4 3 5 4 6 7 8 8 9 9 10 10 11 11 12 12 13 30 14
REMARK SMILES IDX 13 15 14 16 15 17 29 18 31 19 16 20 28 21 27 22 17 23 25 24
REMARK SMILES IDX 18 25 19 26 24 27 26 28 20 29 23 30 21 31 22 32
REMARK H PARENT 4 7 22 33
REMARK Flexibility Score: inf
ROOT
ATOM      1  C   UNL     1     119.655 128.719 129.412  1.00  0.00     0.076 C 
ENDROOT
BRANCH   1   2
ATOM      2  C   UNL     1     119.276 130.207 129.472  1.00  0.00     0.013 C 
BRANCH   2   3
ATOM      3  C   UNL     1     119.985 131.095 128.422  1.00  0.00     0.012 C 
ATOM      4  C   UNL     1     119.561 132.568 128.524  1.00  0.00     0.010 C 
BRANCH   3   5
ATOM      5  C   UNL     1     121.517 130.950 128.472  1.00  0.00     0.159 C 
BRANCH   5   6
ATOM      6  O   UNL     1     122.078 131.410 127.273  1.00  0.00    -0.396 OA
ATOM      7  H   UNL     1     122.688 132.153 127.521  1.00  0.00     0.210 HD
ENDBRANCH   5   6
ENDBRANCH   3   5
ENDBRANCH   2   3
ENDBRANCH   1   2
BRANCH   1   8
ATOM      8  C   UNL     1     118.466 127.851 129.730  1.00  0.00     0.136 C 
ATOM      9  O   UNL     1     117.883 128.000 130.795  1.00  0.00    -0.299 OA
BRANCH   8  10
ATOM     10  C   UNL     1     117.971 126.823 128.729  1.00  0.00     0.064 C 
ATOM     11  C   UNL     1     116.513 127.168 128.391  1.00  0.00     0.017 C 
BRANCH  10  12
ATOM     12  C   UNL     1     118.107 125.358 129.271  1.00  0.00     0.072 C 
ATOM     13  C   UNL     1     119.536 124.914 129.518  1.00  0.00     0.137 C 
ATOM     14  C   UNL     1     117.576 124.197 128.355  1.00  0.00    -0.019 C 
ATOM     15  O   UNL     1     120.386 125.608 130.052  1.00  0.00    -0.299 OA
ATOM     16  C   UNL     1     119.781 123.482 129.168  1.00  0.00     0.080 C 
ATOM     17  C   UNL     1     118.355 122.998 128.949  1.00  0.00     0.007 C 
ATOM     18  C   UNL     1     116.038 123.908 128.476  1.00  0.00     0.008 C 
ATOM     19  C   UNL     1     117.978 124.470 126.868  1.00  0.00     0.012 C 
ATOM     20  C   UNL     1     118.082 121.605 128.321  1.00  0.00     0.001 C 
ATOM     21  C   UNL     1     115.666 122.394 128.538  1.00  0.00     0.005 C 
ATOM     22  C   UNL     1     116.652 121.516 127.724  1.00  0.00     0.003 C 
ATOM     23  C   UNL     1     119.073 121.102 127.269  1.00  0.00     0.031 C 
ATOM     24  C   UNL     1     116.237 120.017 127.486  1.00  0.00    -0.008 C 
ATOM     25  C   UNL     1     118.702 119.692 126.875  1.00  0.00    -0.027 C 
ATOM     26  C   UNL     1     117.442 119.189 126.983  1.00  0.00    -0.065 C 
ATOM     27  C   UNL     1     115.708 119.355 128.795  1.00  0.00     0.014 C 
ATOM     28  C   UNL     1     115.127 119.986 126.399  1.00  0.00     0.016 C 
ATOM     29  C   UNL     1     117.241 117.696 126.834  1.00  0.00     0.063 C 
ATOM     30  C   UNL     1     115.503 117.831 128.674  1.00  0.00     0.033 C 
ATOM     31  C   UNL     1     116.772 117.115 128.174  1.00  0.00     0.118 C 
BRANCH  31  32
ATOM     32  O   UNL     1     116.515 115.745 128.013  1.00  0.00    -0.393 OA
ATOM     33  H   UNL     1     117.278 115.369 127.499  1.00  0.00     0.210 HD
ENDBRANCH  31  32
ENDBRANCH  10  12
ENDBRANCH   8  10
ENDBRANCH   1   8
TORSDOF 8
ENDMDL
MODEL 7
REMARK VINA RESULT:    -6.719      3.627      6.275
REMARK INTER + INTRA:          -9.492
REMARK INTER:                  -9.502
REMARK INTRA:                   0.010
REMARK UNBOUND:                -0.023
REMARK SMILES C[C@@H](CO)CCC(=O)[C@H](C)[C@@H]1C(=O)C[C@@H]2[C@@H]3CC=C4C[C@H](O)CC[C@@]4(C)[C@H]3CC[C@]21C
REMARK SMILES IDX 6 1 5 2 2 3 1 4 3 5 4 6 7 8 8 9 9 10 10 11 11 12 12 13 30 14
REMARK SMILES IDX 13 15 14 16 15 17 29 18 31 19 16 20 28 21 27 22 17 23 25 24
REMARK SMILES IDX 18 25 19 26 24 27 26 28 20 29 23 30 21 31 22 32
REMARK H PARENT 4 7 22 33
REMARK Flexibility Score: inf
ROOT
ATOM      1  C   UNL     1     116.347 125.887 128.445  1.00  0.00     0.076 C 
ENDROOT
BRANCH   1   2
ATOM      2  C   UNL     1     117.720 126.548 128.245  1.00  0.00     0.013 C 
BRANCH   2   3
ATOM      3  C   UNL     1     118.881 125.557 127.991  1.00  0.00     0.012 C 
ATOM      4  C   UNL     1     119.649 125.880 126.700  1.00  0.00     0.010 C 
BRANCH   3   5
ATOM      5  C   UNL     1     119.833 125.450 129.196  1.00  0.00     0.159 C 
BRANCH   5   6
ATOM      6  O   UNL     1     119.600 126.512 130.082  1.00  0.00    -0.396 OA
ATOM      7  H   UNL     1     120.449 127.025 130.127  1.00  0.00     0.210 HD
ENDBRANCH   5   6
ENDBRANCH   3   5
ENDBRANCH   2   3
ENDBRANCH   1   2
BRANCH   1   8
ATOM      8  C   UNL     1     116.212 125.348 129.845  1.00  0.00     0.136 C 
ATOM      9  O   UNL     1     116.714 125.965 130.775  1.00  0.00    -0.299 OA
BRANCH   8  10
ATOM     10  C   UNL     1     115.435 124.072 130.110  1.00  0.00     0.064 C 
ATOM     11  C   UNL     1     116.042 123.409 131.355  1.00  0.00     0.017 C 
BRANCH  10  12
ATOM     12  C   UNL     1     115.452 123.105 128.875  1.00  0.00     0.072 C 
ATOM     13  C   UNL     1     114.098 122.522 128.522  1.00  0.00     0.137 C 
ATOM     14  C   UNL     1     116.328 121.805 128.989  1.00  0.00    -0.019 C 
ATOM     15  O   UNL     1     113.060 123.163 128.500  1.00  0.00    -0.299 OA
ATOM     16  C   UNL     1     114.164 121.100 128.064  1.00  0.00     0.080 C 
ATOM     17  C   UNL     1     115.667 120.930 127.896  1.00  0.00     0.007 C 
ATOM     18  C   UNL     1     117.845 121.996 128.632  1.00  0.00     0.008 C 
ATOM     19  C   UNL     1     116.163 121.178 130.412  1.00  0.00     0.012 C 
ATOM     20  C   UNL     1     116.281 119.524 127.659  1.00  0.00     0.001 C 
ATOM     21  C   UNL     1     118.449 120.865 127.743  1.00  0.00     0.005 C 
ATOM     22  C   UNL     1     117.790 119.489 128.021  1.00  0.00     0.003 C 
ATOM     23  C   UNL     1     115.597 118.336 128.338  1.00  0.00     0.031 C 
ATOM     24  C   UNL     1     118.488 118.227 127.390  1.00  0.00    -0.008 C 
ATOM     25  C   UNL     1     116.266 117.058 127.888  1.00  0.00    -0.027 C 
ATOM     26  C   UNL     1     117.551 116.999 127.446  1.00  0.00    -0.065 C 
ATOM     27  C   UNL     1     118.874 118.474 125.899  1.00  0.00     0.014 C 
ATOM     28  C   UNL     1     119.766 117.914 128.215  1.00  0.00     0.016 C 
ATOM     29  C   UNL     1     118.024 115.737 126.757  1.00  0.00     0.063 C 
ATOM     30  C   UNL     1     119.350 117.201 125.169  1.00  0.00     0.033 C 
ATOM     31  C   UNL     1     118.332 116.051 125.287  1.00  0.00     0.118 C 
BRANCH  31  32
ATOM     32  O   UNL     1     118.841 114.897 124.670  1.00  0.00    -0.393 OA
ATOM     33  H   UNL     1     119.082 114.265 125.399  1.00  0.00     0.210 HD
ENDBRANCH  31  32
ENDBRANCH  10  12
ENDBRANCH   8  10
ENDBRANCH   1   8
TORSDOF 8
ENDMDL
MODEL 8
REMARK VINA RESULT:    -6.701      3.151      4.023
REMARK INTER + INTRA:          -9.467
REMARK INTER:                 -10.124
REMARK INTRA:                   0.657
REMARK UNBOUND:                -0.023
REMARK SMILES C[C@@H](CO)CCC(=O)[C@H](C)[C@@H]1C(=O)C[C@@H]2[C@@H]3CC=C4C[C@H](O)CC[C@@]4(C)[C@H]3CC[C@]21C
REMARK SMILES IDX 6 1 5 2 2 3 1 4 3 5 4 6 7 8 8 9 9 10 10 11 11 12 12 13 30 14
REMARK SMILES IDX 13 15 14 16 15 17 29 18 31 19 16 20 28 21 27 22 17 23 25 24
REMARK SMILES IDX 18 25 19 26 24 27 26 28 20 29 23 30 21 31 22 32
REMARK H PARENT 4 7 22 33
REMARK Flexibility Score: inf
ROOT
ATOM      1  C   UNL     1     119.758 128.876 128.553  1.00  0.00     0.076 C 
ENDROOT
BRANCH   1   2
ATOM      2  C   UNL     1     120.959 129.758 128.929  1.00  0.00     0.013 C 
BRANCH   2   3
ATOM      3  C   UNL     1     121.074 131.070 128.116  1.00  0.00     0.012 C 
ATOM      4  C   UNL     1     119.876 132.003 128.347  1.00  0.00     0.010 C 
BRANCH   3   5
ATOM      5  C   UNL     1     122.407 131.799 128.368  1.00  0.00     0.159 C 
BRANCH   5   6
ATOM      6  O   UNL     1     122.826 132.442 127.195  1.00  0.00    -0.396 OA
ATOM      7  H   UNL     1     123.785 132.213 127.081  1.00  0.00     0.210 HD
ENDBRANCH   5   6
ENDBRANCH   3   5
ENDBRANCH   2   3
ENDBRANCH   1   2
BRANCH   1   8
ATOM      8  C   UNL     1     118.809 128.741 129.715  1.00  0.00     0.136 C 
ATOM      9  O   UNL     1     119.049 129.337 130.756  1.00  0.00    -0.299 OA
BRANCH   8  10
ATOM     10  C   UNL     1     117.551 127.901 129.591  1.00  0.00     0.064 C 
ATOM     11  C   UNL     1     117.334 127.189 130.935  1.00  0.00     0.017 C 
BRANCH  10  12
ATOM     12  C   UNL     1     117.639 126.880 128.405  1.00  0.00     0.072 C 
ATOM     13  C   UNL     1     116.293 126.449 127.854  1.00  0.00     0.137 C 
ATOM     14  C   UNL     1     118.313 125.490 128.696  1.00  0.00    -0.019 C 
ATOM     15  O   UNL     1     115.362 127.209 127.646  1.00  0.00    -0.299 OA
ATOM     16  C   UNL     1     116.249 125.008 127.454  1.00  0.00     0.080 C 
ATOM     17  C   UNL     1     117.726 124.649 127.536  1.00  0.00     0.007 C 
ATOM     18  C   UNL     1     119.878 125.479 128.585  1.00  0.00     0.008 C 
ATOM     19  C   UNL     1     117.848 124.958 130.091  1.00  0.00     0.012 C 
ATOM     20  C   UNL     1     118.184 123.169 127.443  1.00  0.00     0.001 C 
ATOM     21  C   UNL     1     120.466 124.241 127.838  1.00  0.00     0.005 C 
ATOM     22  C   UNL     1     119.600 122.969 128.045  1.00  0.00     0.003 C 
ATOM     23  C   UNL     1     117.256 122.107 128.036  1.00  0.00     0.031 C 
ATOM     24  C   UNL     1     120.222 121.603 127.572  1.00  0.00    -0.008 C 
ATOM     25  C   UNL     1     117.819 120.738 127.738  1.00  0.00    -0.027 C 
ATOM     26  C   UNL     1     119.140 120.501 127.512  1.00  0.00    -0.065 C 
ATOM     27  C   UNL     1     120.866 121.727 126.158  1.00  0.00     0.014 C 
ATOM     28  C   UNL     1     121.305 121.178 128.602  1.00  0.00     0.016 C 
ATOM     29  C   UNL     1     119.550 119.159 126.945  1.00  0.00     0.063 C 
ATOM     30  C   UNL     1     121.285 120.372 125.551  1.00  0.00     0.033 C 
ATOM     31  C   UNL     1     120.123 119.361 125.537  1.00  0.00     0.118 C 
BRANCH  31  32
ATOM     32  O   UNL     1     120.571 118.125 125.044  1.00  0.00    -0.393 OA
ATOM     33  H   UNL     1     119.786 117.684 124.623  1.00  0.00     0.210 HD
ENDBRANCH  31  32
ENDBRANCH  10  12
ENDBRANCH   8  10
ENDBRANCH   1   8
TORSDOF 8
ENDMDL
MODEL 9
REMARK VINA RESULT:    -6.622      4.672      8.360
REMARK INTER + INTRA:          -9.355
REMARK INTER:                  -8.913
REMARK INTRA:                  -0.442
REMARK UNBOUND:                -0.023
REMARK SMILES C[C@@H](CO)CCC(=O)[C@H](C)[C@@H]1C(=O)C[C@@H]2[C@@H]3CC=C4C[C@H](O)CC[C@@]4(C)[C@H]3CC[C@]21C
REMARK SMILES IDX 6 1 5 2 2 3 1 4 3 5 4 6 7 8 8 9 9 10 10 11 11 12 12 13 30 14
REMARK SMILES IDX 13 15 14 16 15 17 29 18 31 19 16 20 28 21 27 22 17 23 25 24
REMARK SMILES IDX 18 25 19 26 24 27 26 28 20 29 23 30 21 31 22 32
REMARK H PARENT 4 7 22 33
REMARK Flexibility Score: inf
ROOT
ATOM      1  C   UNL     1     114.515 122.912 127.782  1.00  0.00     0.076 C 
ENDROOT
BRANCH   1   2
ATOM      2  C   UNL     1     115.916 122.990 127.154  1.00  0.00     0.013 C 
BRANCH   2   3
ATOM      3  C   UNL     1     116.833 124.079 127.759  1.00  0.00     0.012 C 
ATOM      4  C   UNL     1     118.095 124.312 126.914  1.00  0.00     0.010 C 
BRANCH   3   5
ATOM      5  C   UNL     1     116.082 125.398 128.017  1.00  0.00     0.159 C 
BRANCH   5   6
ATOM      6  O   UNL     1     116.024 125.651 129.395  1.00  0.00    -0.396 OA
ATOM      7  H   UNL     1     116.012 126.639 129.494  1.00  0.00     0.210 HD
ENDBRANCH   5   6
ENDBRANCH   3   5
ENDBRANCH   2   3
ENDBRANCH   1   2
BRANCH   1   8
ATOM      8  C   UNL     1     114.301 121.577 128.447  1.00  0.00     0.136 C 
ATOM      9  O   UNL     1     114.472 120.552 127.800  1.00  0.00    -0.299 OA
BRANCH   8  10
ATOM     10  C   UNL     1     113.910 121.498 129.910  1.00  0.00     0.064 C 
ATOM     11  C   UNL     1     113.873 122.932 130.459  1.00  0.00     0.017 C 
BRANCH  10  12
ATOM     12  C   UNL     1     114.888 120.590 130.735  1.00  0.00     0.072 C 
ATOM     13  C   UNL     1     114.432 120.312 132.154  1.00  0.00     0.137 C 
ATOM     14  C   UNL     1     116.343 121.130 130.977  1.00  0.00    -0.019 C 
ATOM     15  O   UNL     1     113.286 120.032 132.464  1.00  0.00    -0.299 OA
ATOM     16  C   UNL     1     115.555 120.278 133.142  1.00  0.00     0.080 C 
ATOM     17  C   UNL     1     116.753 120.280 132.204  1.00  0.00     0.007 C 
ATOM     18  C   UNL     1     117.355 120.852 129.810  1.00  0.00     0.008 C 
ATOM     19  C   UNL     1     116.292 122.656 131.319  1.00  0.00     0.012 C 
ATOM     20  C   UNL     1     118.188 120.495 132.757  1.00  0.00     0.001 C 
ATOM     21  C   UNL     1     118.763 120.365 130.275  1.00  0.00     0.005 C 
ATOM     22  C   UNL     1     119.165 120.967 131.647  1.00  0.00     0.003 C 
ATOM     23  C   UNL     1     118.344 121.426 133.961  1.00  0.00     0.031 C 
ATOM     24  C   UNL     1     120.660 120.771 132.098  1.00  0.00    -0.008 C 
ATOM     25  C   UNL     1     119.784 121.406 134.417  1.00  0.00    -0.027 C 
ATOM     26  C   UNL     1     120.826 121.098 133.599  1.00  0.00    -0.065 C 
ATOM     27  C   UNL     1     121.139 119.305 131.866  1.00  0.00     0.014 C 
ATOM     28  C   UNL     1     121.548 121.745 131.276  1.00  0.00     0.016 C 
ATOM     29  C   UNL     1     122.181 120.830 134.220  1.00  0.00     0.063 C 
ATOM     30  C   UNL     1     122.514 119.000 132.497  1.00  0.00     0.033 C 
ATOM     31  C   UNL     1     122.555 119.359 133.995  1.00  0.00     0.118 C 
BRANCH  31  32
ATOM     32  O   UNL     1     123.843 119.132 134.505  1.00  0.00    -0.393 OA
ATOM     33  H   UNL     1     123.727 118.761 135.419  1.00  0.00     0.210 HD
ENDBRANCH  31  32
ENDBRANCH  10  12
ENDBRANCH   8  10
ENDBRANCH   1   8
TORSDOF 8
ENDMDL
