MODEL 1
REMARK VINA RESULT:    -5.154      0.000      0.000
REMARK INTER + INTRA:          -6.332
REMARK INTER:                  -6.058
REMARK INTRA:                  -0.274
REMARK UNBOUND:                -0.274
REMARK SMILES O=c1c(O)c(-c2ccc(O)cc2)oc2cc(O)cc(O)c12
REMARK SMILES IDX 5 1 3 2 2 3 1 4 21 5 19 6 18 7 16 8 15 9 14 10 13 11 6 12
REMARK SMILES IDX 7 13 8 14 9 15 12 16 11 17 10 18 4 20 20 22 17 24
REMARK H PARENT 10 19 4 21 20 23 17 25
REMARK Flexibility Score: inf
ROOT
ATOM      1  C   UNL     1       2.745  17.075  29.939  1.00  0.00     0.180 A 
ATOM      2  C   UNL     1       1.666  17.930  30.238  1.00  0.00     0.208 A 
ATOM      3  C   UNL     1       0.492  17.379  30.773  1.00  0.00     0.238 A 
ATOM      4  O   UNL     1      -0.477  18.136  31.056  1.00  0.00    -0.285 OA
ATOM      5  C   UNL     1       0.407  15.986  30.980  1.00  0.00     0.111 A 
ATOM      6  C   UNL     1      -0.742  15.352  31.511  1.00  0.00     0.134 A 
ATOM      7  C   UNL     1      -0.753  13.959  31.678  1.00  0.00     0.093 A 
ATOM      8  C   UNL     1       0.359  13.190  31.325  1.00  0.00     0.123 A 
ATOM      9  C   UNL     1       1.497  13.812  30.800  1.00  0.00     0.094 A 
ATOM     10  C   UNL     1       1.528  15.199  30.628  1.00  0.00     0.146 A 
ATOM     11  O   UNL     1       2.622  15.765  30.133  1.00  0.00    -0.452 OA
ENDROOT
BRANCH   1  12
ATOM     12  C   UNL     1       4.023  17.583  29.390  1.00  0.00     0.021 A 
ATOM     13  C   UNL     1       5.084  17.869  30.265  1.00  0.00     0.016 A 
ATOM     14  C   UNL     1       6.293  18.371  29.771  1.00  0.00     0.047 A 
ATOM     15  C   UNL     1       6.448  18.608  28.399  1.00  0.00     0.115 A 
ATOM     16  C   UNL     1       4.180  17.842  28.016  1.00  0.00     0.016 A 
ATOM     17  C   UNL     1       5.389  18.345  27.526  1.00  0.00     0.047 A 
BRANCH  15  18
ATOM     18  O   UNL     1       7.648  19.107  27.896  1.00  0.00    -0.508 OA
ATOM     19  H   UNL     1       7.883  20.089  27.965  1.00  0.00     0.293 HD
ENDBRANCH  15  18
ENDBRANCH   1  12
BRANCH   2  20
ATOM     20  O   UNL     1       1.758  19.300  29.978  1.00  0.00    -0.502 OA
ATOM     21  H   UNL     1       2.569  19.848  30.238  1.00  0.00     0.293 HD
ENDBRANCH   2  20
BRANCH   6  22
ATOM     22  O   UNL     1      -1.870  16.090  31.872  1.00  0.00    -0.507 OA
ATOM     23  H   UNL     1      -2.317  16.731  31.227  1.00  0.00     0.293 HD
ENDBRANCH   6  22
BRANCH   8  24
ATOM     24  O   UNL     1       0.323  11.809  31.500  1.00  0.00    -0.508 OA
ATOM     25  H   UNL     1      -0.426  11.245  31.116  1.00  0.00     0.293 HD
ENDBRANCH   8  24
TORSDOF 5
ENDMDL
MODEL 2
REMARK VINA RESULT:    -4.859      4.753      8.358
REMARK INTER + INTRA:          -5.986
REMARK INTER:                  -5.739
REMARK INTRA:                  -0.247
REMARK UNBOUND:                -0.274
REMARK SMILES O=c1c(O)c(-c2ccc(O)cc2)oc2cc(O)cc(O)c12
REMARK SMILES IDX 5 1 3 2 2 3 1 4 21 5 19 6 18 7 16 8 15 9 14 10 13 11 6 12
REMARK SMILES IDX 7 13 8 14 9 15 12 16 11 17 10 18 4 20 20 22 17 24
REMARK H PARENT 10 19 4 21 20 23 17 25
REMARK Flexibility Score: inf
ROOT
ATOM      1  C   UNL     1      -0.615  11.010  33.172  1.00  0.00     0.180 A 
ATOM      2  C   UNL     1       0.371  10.623  34.101  1.00  0.00     0.208 A 
ATOM      3  C   UNL     1       0.256   9.375  34.732  1.00  0.00     0.238 A 
ATOM      4  O   UNL     1       1.139   9.013  35.557  1.00  0.00    -0.285 OA
ATOM      5  C   UNL     1      -0.848   8.547  34.444  1.00  0.00     0.111 A 
ATOM      6  C   UNL     1      -1.040   7.277  35.041  1.00  0.00     0.134 A 
ATOM      7  C   UNL     1      -2.171   6.517  34.708  1.00  0.00     0.093 A 
ATOM      8  C   UNL     1      -3.111   6.998  33.794  1.00  0.00     0.123 A 
ATOM      9  C   UNL     1      -2.927   8.252  33.201  1.00  0.00     0.094 A 
ATOM     10  C   UNL     1      -1.805   9.025  33.518  1.00  0.00     0.146 A 
ATOM     11  O   UNL     1      -1.651  10.209  32.937  1.00  0.00    -0.452 OA
ENDROOT
BRANCH   1  12
ATOM     12  C   UNL     1      -0.554  12.301  32.451  1.00  0.00     0.021 A 
ATOM     13  C   UNL     1       0.332  12.447  31.370  1.00  0.00     0.016 A 
ATOM     14  C   UNL     1       0.422  13.665  30.689  1.00  0.00     0.047 A 
ATOM     15  C   UNL     1      -0.359  14.756  31.090  1.00  0.00     0.115 A 
ATOM     16  C   UNL     1      -1.321  13.407  32.861  1.00  0.00     0.016 A 
ATOM     17  C   UNL     1      -1.226  14.624  32.178  1.00  0.00     0.047 A 
BRANCH  15  18
ATOM     18  O   UNL     1      -0.277  15.973  30.418  1.00  0.00    -0.508 OA
ATOM     19  H   UNL     1      -0.123  16.018  29.418  1.00  0.00     0.293 HD
ENDBRANCH  15  18
ENDBRANCH   1  12
BRANCH   2  20
ATOM     20  O   UNL     1       1.430  11.483  34.405  1.00  0.00    -0.502 OA
ATOM     21  H   UNL     1       2.224  11.190  34.960  1.00  0.00     0.293 HD
ENDBRANCH   2  20
BRANCH   6  22
ATOM     22  O   UNL     1      -0.121   6.767  35.958  1.00  0.00    -0.507 OA
ATOM     23  H   UNL     1       0.538   6.039  35.705  1.00  0.00     0.293 HD
ENDBRANCH   6  22
BRANCH   8  24
ATOM     24  O   UNL     1      -4.226   6.224  33.482  1.00  0.00    -0.508 OA
ATOM     25  H   UNL     1      -4.306   5.262  33.788  1.00  0.00     0.293 HD
ENDBRANCH   8  24
TORSDOF 5
ENDMDL
MODEL 3
REMARK VINA RESULT:    -4.826      4.999      8.680
REMARK INTER + INTRA:          -5.946
REMARK INTER:                  -5.713
REMARK INTRA:                  -0.233
REMARK UNBOUND:                -0.274
REMARK SMILES O=c1c(O)c(-c2ccc(O)cc2)oc2cc(O)cc(O)c12
REMARK SMILES IDX 5 1 3 2 2 3 1 4 21 5 19 6 18 7 16 8 15 9 14 10 13 11 6 12
REMARK SMILES IDX 7 13 8 14 9 15 12 16 11 17 10 18 4 20 20 22 17 24
REMARK H PARENT 10 19 4 21 20 23 17 25
REMARK Flexibility Score: inf
ROOT
ATOM      1  C   UNL     1      -0.121  10.837  33.583  1.00  0.00     0.180 A 
ATOM      2  C   UNL     1      -1.078   9.805  33.645  1.00  0.00     0.208 A 
ATOM      3  C   UNL     1      -0.784   8.651  34.386  1.00  0.00     0.238 A 
ATOM      4  O   UNL     1      -1.638   7.725  34.458  1.00  0.00    -0.285 OA
ATOM      5  C   UNL     1       0.463   8.536  35.033  1.00  0.00     0.111 A 
ATOM      6  C   UNL     1       0.839   7.404  35.796  1.00  0.00     0.134 A 
ATOM      7  C   UNL     1       2.104   7.362  36.402  1.00  0.00     0.093 A 
ATOM      8  C   UNL     1       2.998   8.425  36.260  1.00  0.00     0.123 A 
ATOM      9  C   UNL     1       2.632   9.547  35.508  1.00  0.00     0.094 A 
ATOM     10  C   UNL     1       1.375   9.609  34.898  1.00  0.00     0.146 A 
ATOM     11  O   UNL     1       1.051  10.687  34.194  1.00  0.00    -0.452 OA
ENDROOT
BRANCH   1  12
ATOM     12  C   UNL     1      -0.364  12.093  32.838  1.00  0.00     0.021 A 
ATOM     13  C   UNL     1       0.346  12.341  31.652  1.00  0.00     0.016 A 
ATOM     14  C   UNL     1       0.148  13.531  30.944  1.00  0.00     0.047 A 
ATOM     15  C   UNL     1      -0.749  14.494  31.422  1.00  0.00     0.115 A 
ATOM     16  C   UNL     1      -1.249  13.073  33.323  1.00  0.00     0.016 A 
ATOM     17  C   UNL     1      -1.443  14.263  32.613  1.00  0.00     0.047 A 
BRANCH  15  18
ATOM     18  O   UNL     1      -0.954  15.682  30.725  1.00  0.00    -0.508 OA
ATOM     19  H   UNL     1      -1.805  15.850  30.202  1.00  0.00     0.293 HD
ENDBRANCH  15  18
ENDBRANCH   1  12
BRANCH   2  20
ATOM     20  O   UNL     1      -2.287   9.923  32.954  1.00  0.00    -0.502 OA
ATOM     21  H   UNL     1      -3.174  10.043  33.429  1.00  0.00     0.293 HD
ENDBRANCH   2  20
BRANCH   6  22
ATOM     22  O   UNL     1      -0.031   6.325  35.956  1.00  0.00    -0.507 OA
ATOM     23  H   UNL     1       0.210   5.526  36.533  1.00  0.00     0.293 HD
ENDBRANCH   6  22
BRANCH   8  24
ATOM     24  O   UNL     1       4.248   8.358  36.871  1.00  0.00    -0.508 OA
ATOM     25  H   UNL     1       4.669   7.472  37.121  1.00  0.00     0.293 HD
ENDBRANCH   8  24
TORSDOF 5
ENDMDL
MODEL 4
REMARK VINA RESULT:    -4.787      2.227      6.980
REMARK INTER + INTRA:          -5.901
REMARK INTER:                  -5.819
REMARK INTRA:                  -0.081
REMARK UNBOUND:                -0.274
REMARK SMILES O=c1c(O)c(-c2ccc(O)cc2)oc2cc(O)cc(O)c12
REMARK SMILES IDX 5 1 3 2 2 3 1 4 21 5 19 6 18 7 16 8 15 9 14 10 13 11 6 12
REMARK SMILES IDX 7 13 8 14 9 15 12 16 11 17 10 18 4 20 20 22 17 24
REMARK H PARENT 10 19 4 21 20 23 17 25
REMARK Flexibility Score: inf
ROOT
ATOM      1  C   UNL     1       0.183  13.856  32.180  1.00  0.00     0.180 A 
ATOM      2  C   UNL     1      -0.933  14.712  32.103  1.00  0.00     0.208 A 
ATOM      3  C   UNL     1      -0.799  15.942  31.441  1.00  0.00     0.238 A 
ATOM      4  O   UNL     1      -1.794  16.712  31.356  1.00  0.00    -0.285 OA
ATOM      5  C   UNL     1       0.446  16.303  30.886  1.00  0.00     0.111 A 
ATOM      6  C   UNL     1       0.664  17.526  30.206  1.00  0.00     0.134 A 
ATOM      7  C   UNL     1       1.936  17.817  29.690  1.00  0.00     0.093 A 
ATOM      8  C   UNL     1       2.990  16.913  29.840  1.00  0.00     0.123 A 
ATOM      9  C   UNL     1       2.780  15.704  30.511  1.00  0.00     0.094 A 
ATOM     10  C   UNL     1       1.519  15.394  31.031  1.00  0.00     0.146 A 
ATOM     11  O   UNL     1       1.345  14.237  31.658  1.00  0.00    -0.452 OA
ENDROOT
BRANCH   1  12
ATOM     12  C   UNL     1       0.116  12.534  32.845  1.00  0.00     0.021 A 
ATOM     13  C   UNL     1       1.034  12.227  33.863  1.00  0.00     0.016 A 
ATOM     14  C   UNL     1       1.004  10.977  34.490  1.00  0.00     0.047 A 
ATOM     15  C   UNL     1       0.067  10.014  34.095  1.00  0.00     0.115 A 
ATOM     16  C   UNL     1      -0.809  11.555  32.440  1.00  0.00     0.016 A 
ATOM     17  C   UNL     1      -0.835  10.306  33.068  1.00  0.00     0.047 A 
BRANCH  15  18
ATOM     18  O   UNL     1       0.028   8.766  34.712  1.00  0.00    -0.508 OA
ATOM     19  H   UNL     1      -0.850   8.308  34.926  1.00  0.00     0.293 HD
ENDBRANCH  15  18
ENDBRANCH   1  12
BRANCH   2  20
ATOM     20  O   UNL     1      -2.142  14.351  32.704  1.00  0.00    -0.502 OA
ATOM     21  H   UNL     1      -2.253  13.490  33.225  1.00  0.00     0.293 HD
ENDBRANCH   2  20
BRANCH   6  22
ATOM     22  O   UNL     1      -0.367  18.451  30.039  1.00  0.00    -0.507 OA
ATOM     23  H   UNL     1      -1.278  18.177  29.688  1.00  0.00     0.293 HD
ENDBRANCH   6  22
BRANCH   8  24
ATOM     24  O   UNL     1       4.244  17.226  29.319  1.00  0.00    -0.508 OA
ATOM     25  H   UNL     1       5.031  17.434  29.922  1.00  0.00     0.293 HD
ENDBRANCH   8  24
TORSDOF 5
ENDMDL
MODEL 5
REMARK VINA RESULT:    -4.783      4.066      7.202
REMARK INTER + INTRA:          -5.895
REMARK INTER:                  -5.698
REMARK INTRA:                  -0.197
REMARK UNBOUND:                -0.274
REMARK SMILES O=c1c(O)c(-c2ccc(O)cc2)oc2cc(O)cc(O)c12
REMARK SMILES IDX 5 1 3 2 2 3 1 4 21 5 19 6 18 7 16 8 15 9 14 10 13 11 6 12
REMARK SMILES IDX 7 13 8 14 9 15 12 16 11 17 10 18 4 20 20 22 17 24
REMARK H PARENT 10 19 4 21 20 23 17 25
REMARK Flexibility Score: inf
ROOT
ATOM      1  C   UNL     1       0.711  12.388  33.172  1.00  0.00     0.180 A 
ATOM      2  C   UNL     1      -0.145  11.276  33.053  1.00  0.00     0.208 A 
ATOM      3  C   UNL     1       0.020  10.196  33.933  1.00  0.00     0.238 A 
ATOM      4  O   UNL     1      -0.748   9.199  33.842  1.00  0.00    -0.285 OA
ATOM      5  C   UNL     1       1.045  10.234  34.900  1.00  0.00     0.111 A 
ATOM      6  C   UNL     1       1.280   9.185  35.822  1.00  0.00     0.134 A 
ATOM      7  C   UNL     1       2.327   9.295  36.748  1.00  0.00     0.093 A 
ATOM      8  C   UNL     1       3.142  10.429  36.772  1.00  0.00     0.123 A 
ATOM      9  C   UNL     1       2.915  11.469  35.864  1.00  0.00     0.094 A 
ATOM     10  C   UNL     1       1.874  11.380  34.934  1.00  0.00     0.146 A 
ATOM     11  O   UNL     1       1.677  12.383  34.087  1.00  0.00    -0.452 OA
ENDROOT
BRANCH   1  12
ATOM     12  C   UNL     1       0.588  13.574  32.294  1.00  0.00     0.021 A 
ATOM     13  C   UNL     1       1.624  13.877  31.395  1.00  0.00     0.016 A 
ATOM     14  C   UNL     1       1.539  15.005  30.571  1.00  0.00     0.047 A 
ATOM     15  C   UNL     1       0.426  15.851  30.650  1.00  0.00     0.115 A 
ATOM     16  C   UNL     1      -0.517  14.440  32.381  1.00  0.00     0.016 A 
ATOM     17  C   UNL     1      -0.598  15.567  31.558  1.00  0.00     0.047 A 
BRANCH  15  18
ATOM     18  O   UNL     1       0.331  16.977  29.834  1.00  0.00    -0.508 OA
ATOM     19  H   UNL     1      -0.425  17.643  29.937  1.00  0.00     0.293 HD
ENDBRANCH  15  18
ENDBRANCH   1  12
BRANCH   2  20
ATOM     20  O   UNL     1      -1.121  11.241  32.053  1.00  0.00    -0.502 OA
ATOM     21  H   UNL     1      -1.906  11.881  32.040  1.00  0.00     0.293 HD
ENDBRANCH   2  20
BRANCH   6  22
ATOM     22  O   UNL     1       0.485   8.039  35.824  1.00  0.00    -0.507 OA
ATOM     23  H   UNL     1       0.788   7.178  35.382  1.00  0.00     0.293 HD
ENDBRANCH   6  22
BRANCH   8  24
ATOM     24  O   UNL     1       4.176  10.514  37.702  1.00  0.00    -0.508 OA
ATOM     25  H   UNL     1       4.523  11.407  38.029  1.00  0.00     0.293 HD
ENDBRANCH   8  24
TORSDOF 5
ENDMDL
MODEL 6
REMARK VINA RESULT:    -4.746      2.266      3.561
REMARK INTER + INTRA:          -5.852
REMARK INTER:                  -5.682
REMARK INTRA:                  -0.170
REMARK UNBOUND:                -0.274
REMARK SMILES O=c1c(O)c(-c2ccc(O)cc2)oc2cc(O)cc(O)c12
REMARK SMILES IDX 5 1 3 2 2 3 1 4 21 5 19 6 18 7 16 8 15 9 14 10 13 11 6 12
REMARK SMILES IDX 7 13 8 14 9 15 12 16 11 17 10 18 4 20 20 22 17 24
REMARK H PARENT 10 19 4 21 20 23 17 25
REMARK Flexibility Score: inf
ROOT
ATOM      1  C   UNL     1       2.251  15.900  31.049  1.00  0.00     0.180 A 
ATOM      2  C   UNL     1       3.084  15.843  32.183  1.00  0.00     0.208 A 
ATOM      3  C   UNL     1       2.894  14.810  33.113  1.00  0.00     0.238 A 
ATOM      4  O   UNL     1       3.641  14.742  34.127  1.00  0.00    -0.285 OA
ATOM      5  C   UNL     1       1.867  13.866  32.907  1.00  0.00     0.111 A 
ATOM      6  C   UNL     1       1.608  12.796  33.798  1.00  0.00     0.134 A 
ATOM      7  C   UNL     1       0.560  11.904  33.526  1.00  0.00     0.093 A 
ATOM      8  C   UNL     1      -0.232  12.059  32.386  1.00  0.00     0.123 A 
ATOM      9  C   UNL     1       0.020  13.113  31.502  1.00  0.00     0.094 A 
ATOM     10  C   UNL     1       1.061  14.012  31.753  1.00  0.00     0.146 A 
ATOM     11  O   UNL     1       1.282  15.002  30.895  1.00  0.00    -0.452 OA
ENDROOT
BRANCH   1  12
ATOM     12  C   UNL     1       2.400  16.949  30.014  1.00  0.00     0.021 A 
ATOM     13  C   UNL     1       1.347  17.850  29.787  1.00  0.00     0.016 A 
ATOM     14  C   UNL     1       1.459  18.834  28.799  1.00  0.00     0.047 A 
ATOM     15  C   UNL     1       2.616  18.917  28.016  1.00  0.00     0.115 A 
ATOM     16  C   UNL     1       3.552  17.026  29.210  1.00  0.00     0.016 A 
ATOM     17  C   UNL     1       3.659  18.010  28.222  1.00  0.00     0.047 A 
BRANCH  15  18
ATOM     18  O   UNL     1       2.738  19.894  27.030  1.00  0.00    -0.508 OA
ATOM     19  H   UNL     1       2.242  19.824  26.150  1.00  0.00     0.293 HD
ENDBRANCH  15  18
ENDBRANCH   1  12
BRANCH   2  20
ATOM     20  O   UNL     1       4.063  16.819  32.389  1.00  0.00    -0.502 OA
ATOM     21  H   UNL     1       4.846  16.942  31.760  1.00  0.00     0.293 HD
ENDBRANCH   2  20
BRANCH   6  22
ATOM     22  O   UNL     1       2.379  12.614  34.946  1.00  0.00    -0.507 OA
ATOM     23  H   UNL     1       2.064  12.033  35.714  1.00  0.00     0.293 HD
ENDBRANCH   6  22
BRANCH   8  24
ATOM     24  O   UNL     1      -1.267  11.159  32.140  1.00  0.00    -0.508 OA
ATOM     25  H   UNL     1      -1.504  10.868  31.200  1.00  0.00     0.293 HD
ENDBRANCH   8  24
TORSDOF 5
ENDMDL
MODEL 7
REMARK VINA RESULT:    -4.745      2.673      3.995
REMARK INTER + INTRA:          -5.851
REMARK INTER:                  -5.868
REMARK INTRA:                   0.017
REMARK UNBOUND:                -0.274
REMARK SMILES O=c1c(O)c(-c2ccc(O)cc2)oc2cc(O)cc(O)c12
REMARK SMILES IDX 5 1 3 2 2 3 1 4 21 5 19 6 18 7 16 8 15 9 14 10 13 11 6 12
REMARK SMILES IDX 7 13 8 14 9 15 12 16 11 17 10 18 4 20 20 22 17 24
REMARK H PARENT 10 19 4 21 20 23 17 25
REMARK Flexibility Score: inf
ROOT
ATOM      1  C   UNL     1       1.749  15.507  31.194  1.00  0.00     0.180 A 
ATOM      2  C   UNL     1       0.554  14.762  31.150  1.00  0.00     0.208 A 
ATOM      3  C   UNL     1       0.335  13.774  32.121  1.00  0.00     0.238 A 
ATOM      4  O   UNL     1      -0.736  13.108  32.099  1.00  0.00    -0.285 OA
ATOM      5  C   UNL     1       1.318  13.531  33.103  1.00  0.00     0.111 A 
ATOM      6  C   UNL     1       1.176  12.550  34.114  1.00  0.00     0.134 A 
ATOM      7  C   UNL     1       2.204  12.362  35.050  1.00  0.00     0.093 A 
ATOM      8  C   UNL     1       3.367  13.132  34.995  1.00  0.00     0.123 A 
ATOM      9  C   UNL     1       3.513  14.103  33.999  1.00  0.00     0.094 A 
ATOM     10  C   UNL     1       2.499  14.308  33.058  1.00  0.00     0.146 A 
ATOM     11  O   UNL     1       2.660  15.239  32.125  1.00  0.00    -0.452 OA
ENDROOT
BRANCH   1  12
ATOM     12  C   UNL     1       2.045  16.579  30.217  1.00  0.00     0.021 A 
ATOM     13  C   UNL     1       3.308  16.627  29.605  1.00  0.00     0.016 A 
ATOM     14  C   UNL     1       3.616  17.644  28.695  1.00  0.00     0.047 A 
ATOM     15  C   UNL     1       2.672  18.635  28.401  1.00  0.00     0.115 A 
ATOM     16  C   UNL     1       1.108  17.589  29.931  1.00  0.00     0.016 A 
ATOM     17  C   UNL     1       1.420  18.606  29.023  1.00  0.00     0.047 A 
BRANCH  15  18
ATOM     18  O   UNL     1       2.968  19.652  27.497  1.00  0.00    -0.508 OA
ATOM     19  H   UNL     1       2.551  19.680  26.574  1.00  0.00     0.293 HD
ENDBRANCH  15  18
ENDBRANCH   1  12
BRANCH   2  20
ATOM     20  O   UNL     1      -0.382  14.990  30.138  1.00  0.00    -0.502 OA
ATOM     21  H   UNL     1      -1.345  14.687  30.212  1.00  0.00     0.293 HD
ENDBRANCH   2  20
BRANCH   6  22
ATOM     22  O   UNL     1       0.026  11.762  34.196  1.00  0.00    -0.507 OA
ATOM     23  H   UNL     1      -0.360  11.296  33.383  1.00  0.00     0.293 HD
ENDBRANCH   6  22
BRANCH   8  24
ATOM     24  O   UNL     1       4.374  12.925  35.936  1.00  0.00    -0.508 OA
ATOM     25  H   UNL     1       5.078  12.208  35.810  1.00  0.00     0.293 HD
ENDBRANCH   8  24
TORSDOF 5
ENDMDL
MODEL 8
REMARK VINA RESULT:    -4.704     11.557     14.150
REMARK INTER + INTRA:          -5.803
REMARK INTER:                  -5.506
REMARK INTRA:                  -0.297
REMARK UNBOUND:                -0.274
REMARK SMILES O=c1c(O)c(-c2ccc(O)cc2)oc2cc(O)cc(O)c12
REMARK SMILES IDX 5 1 3 2 2 3 1 4 21 5 19 6 18 7 16 8 15 9 14 10 13 11 6 12
REMARK SMILES IDX 7 13 8 14 9 15 12 16 11 17 10 18 4 20 20 22 17 24
REMARK H PARENT 10 19 4 21 20 23 17 25
REMARK Flexibility Score: inf
ROOT
ATOM      1  C   UNL     1       4.442   8.469  39.784  1.00  0.00     0.180 A 
ATOM      2  C   UNL     1       4.290   9.357  40.867  1.00  0.00     0.208 A 
ATOM      3  C   UNL     1       4.938   9.069  42.077  1.00  0.00     0.238 A 
ATOM      4  O   UNL     1       4.819   9.862  43.050  1.00  0.00    -0.285 OA
ATOM      5  C   UNL     1       5.707   7.893  42.193  1.00  0.00     0.111 A 
ATOM      6  C   UNL     1       6.389   7.527  43.379  1.00  0.00     0.134 A 
ATOM      7  C   UNL     1       7.127   6.334  43.417  1.00  0.00     0.093 A 
ATOM      8  C   UNL     1       7.196   5.502  42.297  1.00  0.00     0.123 A 
ATOM      9  C   UNL     1       6.525   5.859  41.123  1.00  0.00     0.094 A 
ATOM     10  C   UNL     1       5.787   7.045  41.063  1.00  0.00     0.146 A 
ATOM     11  O   UNL     1       5.163   7.362  39.934  1.00  0.00    -0.452 OA
ENDROOT
BRANCH   1  12
ATOM     12  C   UNL     1       3.806   8.715  38.469  1.00  0.00     0.021 A 
ATOM     13  C   UNL     1       2.562   8.128  38.184  1.00  0.00     0.016 A 
ATOM     14  C   UNL     1       1.953   8.328  36.941  1.00  0.00     0.047 A 
ATOM     15  C   UNL     1       2.589   9.102  35.962  1.00  0.00     0.115 A 
ATOM     16  C   UNL     1       4.448   9.475  37.475  1.00  0.00     0.016 A 
ATOM     17  C   UNL     1       3.837   9.671  36.232  1.00  0.00     0.047 A 
BRANCH  15  18
ATOM     18  O   UNL     1       1.992   9.308  34.721  1.00  0.00    -0.508 OA
ATOM     19  H   UNL     1       1.718   8.533  34.129  1.00  0.00     0.293 HD
ENDBRANCH  15  18
ENDBRANCH   1  12
BRANCH   2  20
ATOM     20  O   UNL     1       3.483  10.491  40.741  1.00  0.00    -0.502 OA
ATOM     21  H   UNL     1       3.584  11.299  41.344  1.00  0.00     0.293 HD
ENDBRANCH   2  20
BRANCH   6  22
ATOM     22  O   UNL     1       6.339   8.335  44.515  1.00  0.00    -0.507 OA
ATOM     23  H   UNL     1       5.468   8.729  44.852  1.00  0.00     0.293 HD
ENDBRANCH   6  22
BRANCH   8  24
ATOM     24  O   UNL     1       7.935   4.323  42.362  1.00  0.00    -0.508 OA
ATOM     25  H   UNL     1       7.559   3.484  42.787  1.00  0.00     0.293 HD
ENDBRANCH   8  24
TORSDOF 5
ENDMDL
MODEL 9
REMARK VINA RESULT:    -4.640     11.809     13.575
REMARK INTER + INTRA:          -5.728
REMARK INTER:                  -5.431
REMARK INTRA:                  -0.298
REMARK UNBOUND:                -0.274
REMARK SMILES O=c1c(O)c(-c2ccc(O)cc2)oc2cc(O)cc(O)c12
REMARK SMILES IDX 5 1 3 2 2 3 1 4 21 5 19 6 18 7 16 8 15 9 14 10 13 11 6 12
REMARK SMILES IDX 7 13 8 14 9 15 12 16 11 17 10 18 4 20 20 22 17 24
REMARK H PARENT 10 19 4 21 20 23 17 25
REMARK Flexibility Score: inf
ROOT
ATOM      1  C   UNL     1       7.910   5.801  31.836  1.00  0.00     0.180 A 
ATOM      2  C   UNL     1       6.723   5.222  31.345  1.00  0.00     0.208 A 
ATOM      3  C   UNL     1       6.684   4.782  30.014  1.00  0.00     0.238 A 
ATOM      4  O   UNL     1       5.630   4.252  29.566  1.00  0.00    -0.285 OA
ATOM      5  C   UNL     1       7.817   4.945  29.191  1.00  0.00     0.111 A 
ATOM      6  C   UNL     1       7.857   4.532  27.837  1.00  0.00     0.134 A 
ATOM      7  C   UNL     1       9.021   4.738  27.082  1.00  0.00     0.093 A 
ATOM      8  C   UNL     1      10.142   5.347  27.650  1.00  0.00     0.123 A 
ATOM      9  C   UNL     1      10.108   5.757  28.987  1.00  0.00     0.094 A 
ATOM     10  C   UNL     1       8.959   5.558  29.758  1.00  0.00     0.146 A 
ATOM     11  O   UNL     1       8.955   5.952  31.026  1.00  0.00    -0.452 OA
ENDROOT
BRANCH   1  12
ATOM     12  C   UNL     1       8.037   6.272  33.234  1.00  0.00     0.021 A 
ATOM     13  C   UNL     1       7.744   7.612  33.540  1.00  0.00     0.016 A 
ATOM     14  C   UNL     1       7.879   8.084  34.850  1.00  0.00     0.047 A 
ATOM     15  C   UNL     1       8.323   7.227  35.865  1.00  0.00     0.115 A 
ATOM     16  C   UNL     1       8.501   5.423  34.254  1.00  0.00     0.016 A 
ATOM     17  C   UNL     1       8.636   5.899  35.563  1.00  0.00     0.047 A 
BRANCH  15  18
ATOM     18  O   UNL     1       8.460   7.687  37.173  1.00  0.00    -0.508 OA
ATOM     19  H   UNL     1       8.445   8.675  37.391  1.00  0.00     0.293 HD
ENDBRANCH  15  18
ENDBRANCH   1  12
BRANCH   2  20
ATOM     20  O   UNL     1       5.598   5.117  32.167  1.00  0.00    -0.502 OA
ATOM     21  H   UNL     1       5.666   5.070  33.176  1.00  0.00     0.293 HD
ENDBRANCH   2  20
BRANCH   6  22
ATOM     22  O   UNL     1       6.754   3.921  27.239  1.00  0.00    -0.507 OA
ATOM     23  H   UNL     1       6.431   3.004  27.526  1.00  0.00     0.293 HD
ENDBRANCH   6  22
BRANCH   8  24
ATOM     24  O   UNL     1      11.285   5.541  26.878  1.00  0.00    -0.508 OA
ATOM     25  H   UNL     1      11.234   5.644  25.872  1.00  0.00     0.293 HD
ENDBRANCH   8  24
TORSDOF 5
ENDMDL
