MODEL 1
REMARK VINA RESULT:    -8.102      0.000      0.000
REMARK INTER + INTRA:         -11.752
REMARK INTER:                 -11.181
REMARK INTRA:                  -0.571
REMARK UNBOUND:                -0.571
REMARK SMILES CC[C@@H](CC[C@@H](C)[C@H]1CC[C@H]2[C@H]3CC=C4C[C@H](O)CC[C@@]4(C)[C@@H]3CC[C@]12C)C(C)C
REMARK SMILES IDX 5 1 4 2 3 3 2 4 1 5 28 6 29 7 30 8 6 9 7 10 8 11 9 12 26 13
REMARK SMILES IDX 10 14 11 15 25 16 27 17 12 18 24 19 23 20 13 21 21 22 14 23
REMARK SMILES IDX 15 24 20 25 22 26 16 27 19 28 17 29 18 30
REMARK H PARENT 18 31
REMARK Flexibility Score: inf
ROOT
ATOM      1  C   UNL     1      17.978  20.241   8.703  1.00  0.00     0.004 C 
ENDROOT
BRANCH   1   2
ATOM      2  C   UNL     1      19.373  20.861   8.968  1.00  0.00     0.004 C 
BRANCH   2   3
ATOM      3  C   UNL     1      19.332  22.108   9.901  1.00  0.00    -0.009 C 
BRANCH   3   4
ATOM      4  C   UNL     1      17.966  22.847   9.752  1.00  0.00     0.000 C 
ATOM      5  C   UNL     1      18.083  24.234   9.108  1.00  0.00     0.004 C 
ENDBRANCH   3   4
BRANCH   3   6
ATOM      6  C   UNL     1      20.594  23.003   9.658  1.00  0.00    -0.014 C 
ATOM      7  C   UNL     1      21.575  22.411   8.633  1.00  0.00     0.007 C 
ATOM      8  C   UNL     1      21.339  23.404  10.944  1.00  0.00     0.007 C 
ENDBRANCH   3   6
ENDBRANCH   2   3
ENDBRANCH   1   2
BRANCH   1   9
ATOM      9  C   UNL     1      17.977  18.688   8.619  1.00  0.00    -0.011 C 
ATOM     10  C   UNL     1      19.422  18.157   8.561  1.00  0.00     0.008 C 
BRANCH   9  11
ATOM     11  C   UNL     1      17.174  17.967   9.767  1.00  0.00    -0.002 C 
ATOM     12  C   UNL     1      17.109  16.413   9.737  1.00  0.00     0.005 C 
ATOM     13  C   UNL     1      17.578  18.317  11.229  1.00  0.00    -0.026 C 
ATOM     14  C   UNL     1      16.933  15.956  11.199  1.00  0.00     0.005 C 
ATOM     15  C   UNL     1      16.758  17.253  11.979  1.00  0.00    -0.001 C 
ATOM     16  C   UNL     1      17.122  19.741  11.701  1.00  0.00     0.007 C 
ATOM     17  C   UNL     1      19.116  18.137  11.416  1.00  0.00     0.012 C 
ATOM     18  C   UNL     1      16.870  17.269  13.527  1.00  0.00     0.000 C 
ATOM     19  C   UNL     1      16.520  19.776  13.142  1.00  0.00     0.005 C 
ATOM     20  C   UNL     1      17.150  18.701  14.065  1.00  0.00     0.003 C 
ATOM     21  C   UNL     1      17.870  16.304  14.164  1.00  0.00     0.031 C 
ATOM     22  C   UNL     1      16.824  18.791  15.597  1.00  0.00    -0.008 C 
ATOM     23  C   UNL     1      17.861  16.453  15.669  1.00  0.00    -0.027 C 
ATOM     24  C   UNL     1      17.442  17.572  16.322  1.00  0.00    -0.065 C 
ATOM     25  C   UNL     1      17.466  20.089  16.186  1.00  0.00     0.014 C 
ATOM     26  C   UNL     1      15.293  18.829  15.846  1.00  0.00     0.016 C 
ATOM     27  C   UNL     1      17.535  17.610  17.834  1.00  0.00     0.063 C 
ATOM     28  C   UNL     1      17.479  20.129  17.721  1.00  0.00     0.033 C 
ATOM     29  C   UNL     1      18.205  18.905  18.301  1.00  0.00     0.118 C 
BRANCH  29  30
ATOM     30  O   UNL     1      18.181  18.951  19.703  1.00  0.00    -0.393 OA
ATOM     31  H   UNL     1      17.591  18.211  20.003  1.00  0.00     0.210 HD
ENDBRANCH  29  30
ENDBRANCH   9  11
ENDBRANCH   1   9
TORSDOF 7
ENDMDL
MODEL 2
REMARK VINA RESULT:    -7.914      4.049      5.616
REMARK INTER + INTRA:         -11.493
REMARK INTER:                 -10.560
REMARK INTRA:                  -0.933
REMARK UNBOUND:                -0.571
REMARK SMILES CC[C@@H](CC[C@@H](C)[C@H]1CC[C@H]2[C@H]3CC=C4C[C@H](O)CC[C@@]4(C)[C@@H]3CC[C@]12C)C(C)C
REMARK SMILES IDX 5 1 4 2 3 3 2 4 1 5 28 6 29 7 30 8 6 9 7 10 8 11 9 12 26 13
REMARK SMILES IDX 10 14 11 15 25 16 27 17 12 18 24 19 23 20 13 21 21 22 14 23
REMARK SMILES IDX 15 24 20 25 22 26 16 27 19 28 17 29 18 30
REMARK H PARENT 18 31
REMARK Flexibility Score: inf
ROOT
ATOM      1  C   UNL     1      18.831  21.882   9.276  1.00  0.00     0.004 C 
ENDROOT
BRANCH   1   2
ATOM      2  C   UNL     1      18.381  23.211   9.932  1.00  0.00     0.004 C 
BRANCH   2   3
ATOM      3  C   UNL     1      18.999  24.475   9.262  1.00  0.00    -0.009 C 
BRANCH   3   4
ATOM      4  C   UNL     1      17.919  25.217   8.414  1.00  0.00     0.000 C 
ATOM      5  C   UNL     1      16.479  24.856   8.797  1.00  0.00     0.004 C 
ENDBRANCH   3   4
BRANCH   3   6
ATOM      6  C   UNL     1      20.298  24.087   8.478  1.00  0.00    -0.014 C 
ATOM      7  C   UNL     1      21.592  24.512   9.191  1.00  0.00     0.007 C 
ATOM      8  C   UNL     1      20.312  24.558   7.012  1.00  0.00     0.007 C 
ENDBRANCH   3   6
ENDBRANCH   2   3
ENDBRANCH   1   2
BRANCH   1   9
ATOM      9  C   UNL     1      18.085  20.625   9.811  1.00  0.00    -0.011 C 
ATOM     10  C   UNL     1      16.561  20.840   9.741  1.00  0.00     0.008 C 
BRANCH   9  11
ATOM     11  C   UNL     1      18.481  19.274   9.103  1.00  0.00    -0.002 C 
ATOM     12  C   UNL     1      19.904  19.173   8.484  1.00  0.00     0.005 C 
ATOM     13  C   UNL     1      18.323  17.973   9.942  1.00  0.00    -0.026 C 
ATOM     14  C   UNL     1      20.287  17.679   8.511  1.00  0.00     0.005 C 
ATOM     15  C   UNL     1      19.026  16.979   9.001  1.00  0.00    -0.001 C 
ATOM     16  C   UNL     1      16.838  17.516  10.151  1.00  0.00     0.007 C 
ATOM     17  C   UNL     1      19.053  18.127  11.312  1.00  0.00     0.012 C 
ATOM     18  C   UNL     1      19.074  15.502   9.479  1.00  0.00     0.000 C 
ATOM     19  C   UNL     1      16.606  15.983   9.965  1.00  0.00     0.005 C 
ATOM     20  C   UNL     1      17.851  15.150  10.371  1.00  0.00     0.003 C 
ATOM     21  C   UNL     1      20.346  15.040  10.190  1.00  0.00     0.031 C 
ATOM     22  C   UNL     1      17.669  13.595  10.474  1.00  0.00    -0.008 C 
ATOM     23  C   UNL     1      20.225  13.588  10.595  1.00  0.00    -0.027 C 
ATOM     24  C   UNL     1      19.040  12.942  10.771  1.00  0.00    -0.065 C 
ATOM     25  C   UNL     1      16.703  13.266  11.657  1.00  0.00     0.014 C 
ATOM     26  C   UNL     1      17.080  13.007   9.164  1.00  0.00     0.016 C 
ATOM     27  C   UNL     1      19.060  11.497  11.230  1.00  0.00     0.063 C 
ATOM     28  C   UNL     1      16.692  11.780  12.050  1.00  0.00     0.033 C 
ATOM     29  C   UNL     1      18.105  11.293  12.409  1.00  0.00     0.118 C 
BRANCH  29  30
ATOM     30  O   UNL     1      18.073   9.929  12.738  1.00  0.00    -0.393 OA
ATOM     31  H   UNL     1      17.253   9.785  13.280  1.00  0.00     0.210 HD
ENDBRANCH  29  30
ENDBRANCH   9  11
ENDBRANCH   1   9
TORSDOF 7
ENDMDL
MODEL 3
REMARK VINA RESULT:    -7.904      3.803      7.560
REMARK INTER + INTRA:         -11.478
REMARK INTER:                  -9.771
REMARK INTRA:                  -1.707
REMARK UNBOUND:                -0.571
REMARK SMILES CC[C@@H](CC[C@@H](C)[C@H]1CC[C@H]2[C@H]3CC=C4C[C@H](O)CC[C@@]4(C)[C@@H]3CC[C@]12C)C(C)C
REMARK SMILES IDX 5 1 4 2 3 3 2 4 1 5 28 6 29 7 30 8 6 9 7 10 8 11 9 12 26 13
REMARK SMILES IDX 10 14 11 15 25 16 27 17 12 18 24 19 23 20 13 21 21 22 14 23
REMARK SMILES IDX 15 24 20 25 22 26 16 27 19 28 17 29 18 30
REMARK H PARENT 18 31
REMARK Flexibility Score: inf
ROOT
ATOM      1  C   UNL     1      16.073  20.186  14.197  1.00  0.00     0.004 C 
ENDROOT
BRANCH   1   2
ATOM      2  C   UNL     1      15.995  20.160  15.744  1.00  0.00     0.004 C 
BRANCH   2   3
ATOM      3  C   UNL     1      16.282  18.756  16.358  1.00  0.00    -0.009 C 
BRANCH   3   4
ATOM      4  C   UNL     1      15.024  18.235  17.119  1.00  0.00     0.000 C 
ATOM      5  C   UNL     1      14.371  17.011  16.466  1.00  0.00     0.004 C 
ENDBRANCH   3   4
BRANCH   3   6
ATOM      6  C   UNL     1      17.596  18.800  17.210  1.00  0.00    -0.014 C 
ATOM      7  C   UNL     1      17.691  17.667  18.244  1.00  0.00     0.007 C 
ATOM      8  C   UNL     1      17.868  20.161  17.877  1.00  0.00     0.007 C 
ENDBRANCH   3   6
ENDBRANCH   2   3
ENDBRANCH   1   2
BRANCH   1   9
ATOM      9  C   UNL     1      15.291  19.036  13.501  1.00  0.00    -0.011 C 
ATOM     10  C   UNL     1      13.934  19.551  12.985  1.00  0.00     0.008 C 
BRANCH   9  11
ATOM     11  C   UNL     1      16.077  18.310  12.345  1.00  0.00    -0.002 C 
ATOM     12  C   UNL     1      17.461  18.890  11.938  1.00  0.00     0.005 C 
ATOM     13  C   UNL     1      16.326  16.783  12.520  1.00  0.00    -0.026 C 
ATOM     14  C   UNL     1      18.281  17.711  11.376  1.00  0.00     0.005 C 
ATOM     15  C   UNL     1      17.295  16.550  11.348  1.00  0.00    -0.001 C 
ATOM     16  C   UNL     1      15.051  15.894  12.313  1.00  0.00     0.007 C 
ATOM     17  C   UNL     1      16.978  16.503  13.908  1.00  0.00     0.012 C 
ATOM     18  C   UNL     1      17.793  15.092  11.151  1.00  0.00     0.000 C 
ATOM     19  C   UNL     1      15.297  14.608  11.461  1.00  0.00     0.005 C 
ATOM     20  C   UNL     1      16.737  14.058  11.636  1.00  0.00     0.003 C 
ATOM     21  C   UNL     1      19.147  14.730  11.761  1.00  0.00     0.031 C 
ATOM     22  C   UNL     1      17.039  12.638  11.041  1.00  0.00    -0.008 C 
ATOM     23  C   UNL     1      19.475  13.278  11.487  1.00  0.00    -0.027 C 
ATOM     24  C   UNL     1      18.545  12.325  11.211  1.00  0.00    -0.065 C 
ATOM     25  C   UNL     1      16.222  11.564  11.830  1.00  0.00     0.014 C 
ATOM     26  C   UNL     1      16.653  12.561   9.540  1.00  0.00     0.016 C 
ATOM     27  C   UNL     1      19.005  10.895  11.009  1.00  0.00     0.063 C 
ATOM     28  C   UNL     1      16.666  10.121  11.547  1.00  0.00     0.033 C 
ATOM     29  C   UNL     1      18.161   9.933  11.848  1.00  0.00     0.118 C 
BRANCH  29  30
ATOM     30  O   UNL     1      18.547   8.615  11.557  1.00  0.00    -0.393 OA
ATOM     31  H   UNL     1      18.784   8.189  12.422  1.00  0.00     0.210 HD
ENDBRANCH  29  30
ENDBRANCH   9  11
ENDBRANCH   1   9
TORSDOF 7
ENDMDL
MODEL 4
REMARK VINA RESULT:    -7.788      3.775      6.189
REMARK INTER + INTRA:         -11.318
REMARK INTER:                  -9.974
REMARK INTRA:                  -1.344
REMARK UNBOUND:                -0.571
REMARK SMILES CC[C@@H](CC[C@@H](C)[C@H]1CC[C@H]2[C@H]3CC=C4C[C@H](O)CC[C@@]4(C)[C@@H]3CC[C@]12C)C(C)C
REMARK SMILES IDX 5 1 4 2 3 3 2 4 1 5 28 6 29 7 30 8 6 9 7 10 8 11 9 12 26 13
REMARK SMILES IDX 10 14 11 15 25 16 27 17 12 18 24 19 23 20 13 21 21 22 14 23
REMARK SMILES IDX 15 24 20 25 22 26 16 27 19 28 17 29 18 30
REMARK H PARENT 18 31
REMARK Flexibility Score: inf
ROOT
ATOM      1  C   UNL     1      19.022  20.162   9.208  1.00  0.00     0.004 C 
ENDROOT
BRANCH   1   2
ATOM      2  C   UNL     1      17.532  20.387   8.849  1.00  0.00     0.004 C 
BRANCH   2   3
ATOM      3  C   UNL     1      16.880  21.577   9.616  1.00  0.00    -0.009 C 
BRANCH   3   4
ATOM      4  C   UNL     1      17.984  22.545  10.145  1.00  0.00     0.000 C 
ATOM      5  C   UNL     1      18.164  23.802   9.286  1.00  0.00     0.004 C 
ENDBRANCH   3   4
BRANCH   3   6
ATOM      6  C   UNL     1      15.899  21.038  10.711  1.00  0.00    -0.014 C 
ATOM      7  C   UNL     1      16.610  20.317  11.868  1.00  0.00     0.007 C 
ATOM      8  C   UNL     1      14.756  20.167  10.158  1.00  0.00     0.007 C 
ENDBRANCH   3   6
ENDBRANCH   2   3
ENDBRANCH   1   2
BRANCH   1   9
ATOM      9  C   UNL     1      19.615  18.833   8.659  1.00  0.00    -0.011 C 
ATOM     10  C   UNL     1      20.837  19.124   7.766  1.00  0.00     0.008 C 
BRANCH   9  11
ATOM     11  C   UNL     1      19.984  17.771   9.763  1.00  0.00    -0.002 C 
ATOM     12  C   UNL     1      20.218  18.285  11.211  1.00  0.00     0.005 C 
ATOM     13  C   UNL     1      19.012  16.566   9.925  1.00  0.00    -0.026 C 
ATOM     14  C   UNL     1      19.863  17.117  12.152  1.00  0.00     0.005 C 
ATOM     15  C   UNL     1      19.587  15.950  11.212  1.00  0.00    -0.001 C 
ATOM     16  C   UNL     1      19.098  15.508   8.770  1.00  0.00     0.007 C 
ATOM     17  C   UNL     1      17.549  17.077  10.100  1.00  0.00     0.012 C 
ATOM     18  C   UNL     1      18.885  14.665  11.729  1.00  0.00     0.000 C 
ATOM     19  C   UNL     1      19.090  14.024   9.258  1.00  0.00     0.005 C 
ATOM     20  C   UNL     1      18.269  13.842  10.562  1.00  0.00     0.003 C 
ATOM     21  C   UNL     1      17.824  14.839  12.816  1.00  0.00     0.031 C 
ATOM     22  C   UNL     1      17.968  12.372  11.019  1.00  0.00    -0.008 C 
ATOM     23  C   UNL     1      17.236  13.498  13.197  1.00  0.00    -0.027 C 
ATOM     24  C   UNL     1      17.250  12.403  12.390  1.00  0.00    -0.065 C 
ATOM     25  C   UNL     1      17.016  11.694   9.982  1.00  0.00     0.014 C 
ATOM     26  C   UNL     1      19.271  11.536  11.128  1.00  0.00     0.016 C 
ATOM     27  C   UNL     1      16.577  11.133  12.874  1.00  0.00     0.063 C 
ATOM     28  C   UNL     1      16.407  10.372  10.475  1.00  0.00     0.033 C 
ATOM     29  C   UNL     1      15.646  10.572  11.796  1.00  0.00     0.118 C 
BRANCH  29  30
ATOM     30  O   UNL     1      15.123   9.348  12.238  1.00  0.00    -0.393 OA
ATOM     31  H   UNL     1      15.890   8.723  12.324  1.00  0.00     0.210 HD
ENDBRANCH  29  30
ENDBRANCH   9  11
ENDBRANCH   1   9
TORSDOF 7
ENDMDL
MODEL 5
REMARK VINA RESULT:    -7.738      4.055      5.985
REMARK INTER + INTRA:         -11.249
REMARK INTER:                 -10.315
REMARK INTRA:                  -0.935
REMARK UNBOUND:                -0.571
REMARK SMILES CC[C@@H](CC[C@@H](C)[C@H]1CC[C@H]2[C@H]3CC=C4C[C@H](O)CC[C@@]4(C)[C@@H]3CC[C@]12C)C(C)C
REMARK SMILES IDX 5 1 4 2 3 3 2 4 1 5 28 6 29 7 30 8 6 9 7 10 8 11 9 12 26 13
REMARK SMILES IDX 10 14 11 15 25 16 27 17 12 18 24 19 23 20 13 21 21 22 14 23
REMARK SMILES IDX 15 24 20 25 22 26 16 27 19 28 17 29 18 30
REMARK H PARENT 18 31
REMARK Flexibility Score: inf
ROOT
ATOM      1  C   UNL     1      19.263  20.217   9.287  1.00  0.00     0.004 C 
ENDROOT
BRANCH   1   2
ATOM      2  C   UNL     1      20.272  21.391   9.252  1.00  0.00     0.004 C 
BRANCH   2   3
ATOM      3  C   UNL     1      19.665  22.717   8.705  1.00  0.00    -0.009 C 
BRANCH   3   4
ATOM      4  C   UNL     1      20.791  23.776   8.490  1.00  0.00     0.000 C 
ATOM      5  C   UNL     1      21.496  23.659   7.134  1.00  0.00     0.004 C 
ENDBRANCH   3   4
BRANCH   3   6
ATOM      6  C   UNL     1      18.487  23.188   9.624  1.00  0.00    -0.014 C 
ATOM      7  C   UNL     1      17.705  24.382   9.052  1.00  0.00     0.007 C 
ATOM      8  C   UNL     1      18.896  23.462  11.082  1.00  0.00     0.007 C 
ENDBRANCH   3   6
ENDBRANCH   2   3
ENDBRANCH   1   2
BRANCH   1   9
ATOM      9  C   UNL     1      19.797  18.899   8.657  1.00  0.00    -0.011 C 
ATOM     10  C   UNL     1      20.953  19.204   7.685  1.00  0.00     0.008 C 
BRANCH   9  11
ATOM     11  C   UNL     1      20.234  17.800   9.699  1.00  0.00    -0.002 C 
ATOM     12  C   UNL     1      20.604  18.271  11.133  1.00  0.00     0.005 C 
ATOM     13  C   UNL     1      19.251  16.613   9.916  1.00  0.00    -0.026 C 
ATOM     14  C   UNL     1      20.304  17.087  12.074  1.00  0.00     0.005 C 
ATOM     15  C   UNL     1      19.919  15.951  11.133  1.00  0.00    -0.001 C 
ATOM     16  C   UNL     1      19.211  15.584   8.734  1.00  0.00     0.007 C 
ATOM     17  C   UNL     1      17.821  17.152  10.230  1.00  0.00     0.012 C 
ATOM     18  C   UNL     1      19.233  14.669  11.678  1.00  0.00     0.000 C 
ATOM     19  C   UNL     1      19.209  14.088   9.185  1.00  0.00     0.005 C 
ATOM     20  C   UNL     1      18.499  13.891  10.550  1.00  0.00     0.003 C 
ATOM     21  C   UNL     1      18.275  14.839  12.857  1.00  0.00     0.031 C 
ATOM     22  C   UNL     1      18.203  12.416  10.997  1.00  0.00    -0.008 C 
ATOM     23  C   UNL     1      17.689  13.502  13.256  1.00  0.00    -0.027 C 
ATOM     24  C   UNL     1      17.607  12.427  12.425  1.00  0.00    -0.065 C 
ATOM     25  C   UNL     1      17.149  11.786  10.030  1.00  0.00     0.014 C 
ATOM     26  C   UNL     1      19.490  11.549  10.972  1.00  0.00     0.016 C 
ATOM     27  C   UNL     1      16.948  11.161  12.935  1.00  0.00     0.063 C 
ATOM     28  C   UNL     1      16.553  10.466  10.543  1.00  0.00     0.033 C 
ATOM     29  C   UNL     1      15.914  10.649  11.928  1.00  0.00     0.118 C 
BRANCH  29  30
ATOM     30  O   UNL     1      15.401   9.425  12.385  1.00  0.00    -0.393 OA
ATOM     31  H   UNL     1      16.181   8.858  12.621  1.00  0.00     0.210 HD
ENDBRANCH  29  30
ENDBRANCH   9  11
ENDBRANCH   1   9
TORSDOF 7
ENDMDL
MODEL 6
REMARK VINA RESULT:    -7.720      3.828      5.726
REMARK INTER + INTRA:         -11.225
REMARK INTER:                  -9.948
REMARK INTRA:                  -1.277
REMARK UNBOUND:                -0.571
REMARK SMILES CC[C@@H](CC[C@@H](C)[C@H]1CC[C@H]2[C@H]3CC=C4C[C@H](O)CC[C@@]4(C)[C@@H]3CC[C@]12C)C(C)C
REMARK SMILES IDX 5 1 4 2 3 3 2 4 1 5 28 6 29 7 30 8 6 9 7 10 8 11 9 12 26 13
REMARK SMILES IDX 10 14 11 15 25 16 27 17 12 18 24 19 23 20 13 21 21 22 14 23
REMARK SMILES IDX 15 24 20 25 22 26 16 27 19 28 17 29 18 30
REMARK H PARENT 18 31
REMARK Flexibility Score: inf
ROOT
ATOM      1  C   UNL     1      17.781  20.206  10.000  1.00  0.00     0.004 C 
ENDROOT
BRANCH   1   2
ATOM      2  C   UNL     1      18.519  21.243   9.117  1.00  0.00     0.004 C 
BRANCH   2   3
ATOM      3  C   UNL     1      19.657  22.000   9.865  1.00  0.00    -0.009 C 
BRANCH   3   4
ATOM      4  C   UNL     1      19.298  23.512  10.003  1.00  0.00     0.000 C 
ATOM      5  C   UNL     1      18.032  23.917   9.240  1.00  0.00     0.004 C 
ENDBRANCH   3   4
BRANCH   3   6
ATOM      6  C   UNL     1      21.035  21.711   9.179  1.00  0.00    -0.014 C 
ATOM      7  C   UNL     1      21.664  22.951   8.525  1.00  0.00     0.007 C 
ATOM      8  C   UNL     1      21.010  20.534   8.187  1.00  0.00     0.007 C 
ENDBRANCH   3   6
ENDBRANCH   2   3
ENDBRANCH   1   2
BRANCH   1   9
ATOM      9  C   UNL     1      17.585  18.819   9.324  1.00  0.00    -0.011 C 
ATOM     10  C   UNL     1      17.944  18.900   7.828  1.00  0.00     0.008 C 
BRANCH   9  11
ATOM     11  C   UNL     1      18.366  17.636  10.011  1.00  0.00    -0.002 C 
ATOM     12  C   UNL     1      19.253  17.974  11.243  1.00  0.00     0.005 C 
ATOM     13  C   UNL     1      17.521  16.407  10.459  1.00  0.00    -0.026 C 
ATOM     14  C   UNL     1      19.311  16.695  12.103  1.00  0.00     0.005 C 
ATOM     15  C   UNL     1      18.588  15.647  11.265  1.00  0.00    -0.001 C 
ATOM     16  C   UNL     1      17.029  15.498   9.280  1.00  0.00     0.007 C 
ATOM     17  C   UNL     1      16.320  16.875  11.337  1.00  0.00     0.012 C 
ATOM     18  C   UNL     1      18.140  14.301  11.895  1.00  0.00     0.000 C 
ATOM     19  C   UNL     1      17.177  13.966   9.546  1.00  0.00     0.005 C 
ATOM     20  C   UNL     1      17.028  13.617  11.050  1.00  0.00     0.003 C 
ATOM     21  C   UNL     1      17.695  14.328  13.357  1.00  0.00     0.031 C 
ATOM     22  C   UNL     1      16.902  12.099  11.425  1.00  0.00    -0.008 C 
ATOM     23  C   UNL     1      17.285  12.944  13.809  1.00  0.00    -0.027 C 
ATOM     24  C   UNL     1      16.884  11.954  12.965  1.00  0.00    -0.065 C 
ATOM     25  C   UNL     1      15.555  11.539  10.864  1.00  0.00     0.014 C 
ATOM     26  C   UNL     1      18.075  11.273  10.833  1.00  0.00     0.016 C 
ATOM     27  C   UNL     1      16.448  10.627  13.555  1.00  0.00     0.063 C 
ATOM     28  C   UNL     1      15.178  10.160  11.426  1.00  0.00     0.033 C 
ATOM     29  C   UNL     1      15.107  10.189  12.961  1.00  0.00     0.118 C 
BRANCH  29  30
ATOM     30  O   UNL     1      14.787   8.914  13.451  1.00  0.00    -0.393 OA
ATOM     31  H   UNL     1      13.863   8.714  13.146  1.00  0.00     0.210 HD
ENDBRANCH  29  30
ENDBRANCH   9  11
ENDBRANCH   1   9
TORSDOF 7
ENDMDL
MODEL 7
REMARK VINA RESULT:    -7.717      4.634      6.455
REMARK INTER + INTRA:         -11.220
REMARK INTER:                  -9.953
REMARK INTRA:                  -1.267
REMARK UNBOUND:                -0.571
REMARK SMILES CC[C@@H](CC[C@@H](C)[C@H]1CC[C@H]2[C@H]3CC=C4C[C@H](O)CC[C@@]4(C)[C@@H]3CC[C@]12C)C(C)C
REMARK SMILES IDX 5 1 4 2 3 3 2 4 1 5 28 6 29 7 30 8 6 9 7 10 8 11 9 12 26 13
REMARK SMILES IDX 10 14 11 15 25 16 27 17 12 18 24 19 23 20 13 21 21 22 14 23
REMARK SMILES IDX 15 24 20 25 22 26 16 27 19 28 17 29 18 30
REMARK H PARENT 18 31
REMARK Flexibility Score: inf
ROOT
ATOM      1  C   UNL     1      20.115  19.548   8.402  1.00  0.00     0.004 C 
ENDROOT
BRANCH   1   2
ATOM      2  C   UNL     1      21.077  20.737   8.154  1.00  0.00     0.004 C 
BRANCH   2   3
ATOM      3  C   UNL     1      20.360  22.121   8.122  1.00  0.00    -0.009 C 
BRANCH   3   4
ATOM      4  C   UNL     1      21.372  23.241   7.725  1.00  0.00     0.000 C 
ATOM      5  C   UNL     1      20.880  24.140   6.585  1.00  0.00     0.004 C 
ENDBRANCH   3   4
BRANCH   3   6
ATOM      6  C   UNL     1      19.604  22.365   9.471  1.00  0.00    -0.014 C 
ATOM      7  C   UNL     1      18.169  22.883   9.282  1.00  0.00     0.007 C 
ATOM      8  C   UNL     1      20.368  23.254  10.469  1.00  0.00     0.007 C 
ENDBRANCH   3   6
ENDBRANCH   2   3
ENDBRANCH   1   2
BRANCH   1   9
ATOM      9  C   UNL     1      20.504  18.657   9.616  1.00  0.00    -0.011 C 
ATOM     10  C   UNL     1      21.288  19.483  10.653  1.00  0.00     0.008 C 
BRANCH   9  11
ATOM     11  C   UNL     1      19.295  17.918  10.305  1.00  0.00    -0.002 C 
ATOM     12  C   UNL     1      17.863  18.452  10.017  1.00  0.00     0.005 C 
ATOM     13  C   UNL     1      19.195  16.381  10.080  1.00  0.00    -0.026 C 
ATOM     14  C   UNL     1      16.909  17.250  10.175  1.00  0.00     0.005 C 
ATOM     15  C   UNL     1      17.804  16.127  10.686  1.00  0.00    -0.001 C 
ATOM     16  C   UNL     1      20.257  15.543  10.873  1.00  0.00     0.007 C 
ATOM     17  C   UNL     1      19.260  16.058   8.556  1.00  0.00     0.012 C 
ATOM     18  C   UNL     1      17.311  14.655  10.675  1.00  0.00     0.000 C 
ATOM     19  C   UNL     1      19.684  14.260  11.555  1.00  0.00     0.005 C 
ATOM     20  C   UNL     1      18.499  13.655  10.757  1.00  0.00     0.003 C 
ATOM     21  C   UNL     1      16.397  14.234   9.525  1.00  0.00     0.031 C 
ATOM     22  C   UNL     1      17.997  12.232  11.189  1.00  0.00    -0.008 C 
ATOM     23  C   UNL     1      16.019  12.775   9.660  1.00  0.00    -0.027 C 
ATOM     24  C   UNL     1      16.745  11.861  10.358  1.00  0.00    -0.065 C 
ATOM     25  C   UNL     1      19.113  11.179  10.892  1.00  0.00     0.014 C 
ATOM     26  C   UNL     1      17.654  12.190  12.702  1.00  0.00     0.016 C 
ATOM     27  C   UNL     1      16.282  10.417  10.369  1.00  0.00     0.063 C 
ATOM     28  C   UNL     1      18.628   9.724  10.983  1.00  0.00     0.033 C 
ATOM     29  C   UNL     1      17.443   9.476  10.037  1.00  0.00     0.118 C 
BRANCH  29  30
ATOM     30  O   UNL     1      17.002   8.149  10.157  1.00  0.00    -0.393 OA
ATOM     31  H   UNL     1      16.251   8.155  10.807  1.00  0.00     0.210 HD
ENDBRANCH  29  30
ENDBRANCH   9  11
ENDBRANCH   1   9
TORSDOF 7
ENDMDL
MODEL 8
REMARK VINA RESULT:    -7.706      4.438      9.012
REMARK INTER + INTRA:         -11.206
REMARK INTER:                 -10.031
REMARK INTRA:                  -1.174
REMARK UNBOUND:                -0.571
REMARK SMILES CC[C@@H](CC[C@@H](C)[C@H]1CC[C@H]2[C@H]3CC=C4C[C@H](O)CC[C@@]4(C)[C@@H]3CC[C@]12C)C(C)C
REMARK SMILES IDX 5 1 4 2 3 3 2 4 1 5 28 6 29 7 30 8 6 9 7 10 8 11 9 12 26 13
REMARK SMILES IDX 10 14 11 15 25 16 27 17 12 18 24 19 23 20 13 21 21 22 14 23
REMARK SMILES IDX 15 24 20 25 22 26 16 27 19 28 17 29 18 30
REMARK H PARENT 18 31
REMARK Flexibility Score: inf
ROOT
ATOM      1  C   UNL     1      17.474  11.402  12.749  1.00  0.00     0.004 C 
ENDROOT
BRANCH   1   2
ATOM      2  C   UNL     1      17.517   9.988  12.119  1.00  0.00     0.004 C 
BRANCH   2   3
ATOM      3  C   UNL     1      16.525   9.806  10.931  1.00  0.00    -0.009 C 
BRANCH   3   4
ATOM      4  C   UNL     1      15.138   9.321  11.458  1.00  0.00     0.000 C 
ATOM      5  C   UNL     1      13.963  10.186  10.988  1.00  0.00     0.004 C 
ENDBRANCH   3   4
BRANCH   3   6
ATOM      6  C   UNL     1      17.165   8.895   9.831  1.00  0.00    -0.014 C 
ATOM      7  C   UNL     1      16.178   7.884   9.224  1.00  0.00     0.007 C 
ATOM      8  C   UNL     1      18.457   8.184  10.275  1.00  0.00     0.007 C 
ENDBRANCH   3   6
ENDBRANCH   2   3
ENDBRANCH   1   2
BRANCH   1   9
ATOM      9  C   UNL     1      18.326  12.462  11.994  1.00  0.00    -0.011 C 
ATOM     10  C   UNL     1      19.346  11.767  11.072  1.00  0.00     0.008 C 
BRANCH   9  11
ATOM     11  C   UNL     1      17.489  13.523  11.182  1.00  0.00    -0.002 C 
ATOM     12  C   UNL     1      16.026  13.789  11.636  1.00  0.00     0.005 C 
ATOM     13  C   UNL     1      18.117  14.939  11.027  1.00  0.00    -0.026 C 
ATOM     14  C   UNL     1      15.695  15.236  11.218  1.00  0.00     0.005 C 
ATOM     15  C   UNL     1      16.915  15.683  10.422  1.00  0.00    -0.001 C 
ATOM     16  C   UNL     1      19.318  15.005  10.022  1.00  0.00     0.007 C 
ATOM     17  C   UNL     1      18.532  15.496  12.424  1.00  0.00     0.012 C 
ATOM     18  C   UNL     1      17.137  17.183  10.087  1.00  0.00     0.000 C 
ATOM     19  C   UNL     1      19.287  16.239   9.065  1.00  0.00     0.005 C 
ATOM     20  C   UNL     1      18.621  17.475   9.727  1.00  0.00     0.003 C 
ATOM     21  C   UNL     1      16.677  18.205  11.128  1.00  0.00     0.031 C 
ATOM     22  C   UNL     1      18.750  18.846   8.976  1.00  0.00    -0.008 C 
ATOM     23  C   UNL     1      16.974  19.610  10.652  1.00  0.00    -0.027 C 
ATOM     24  C   UNL     1      17.925  19.918   9.729  1.00  0.00    -0.065 C 
ATOM     25  C   UNL     1      20.247  19.293   8.972  1.00  0.00     0.014 C 
ATOM     26  C   UNL     1      18.253  18.736   7.510  1.00  0.00     0.016 C 
ATOM     27  C   UNL     1      18.156  21.375   9.380  1.00  0.00     0.063 C 
ATOM     28  C   UNL     1      20.453  20.754   8.543  1.00  0.00     0.033 C 
ATOM     29  C   UNL     1      19.649  21.711   9.436  1.00  0.00     0.118 C 
BRANCH  29  30
ATOM     30  O   UNL     1      19.833  23.035   9.009  1.00  0.00    -0.393 OA
ATOM     31  H   UNL     1      20.786  23.259   9.175  1.00  0.00     0.210 HD
ENDBRANCH  29  30
ENDBRANCH   9  11
ENDBRANCH   1   9
TORSDOF 7
ENDMDL
MODEL 9
REMARK VINA RESULT:    -7.648      3.271      8.204
REMARK INTER + INTRA:         -11.126
REMARK INTER:                  -9.565
REMARK INTRA:                  -1.561
REMARK UNBOUND:                -0.571
REMARK SMILES CC[C@@H](CC[C@@H](C)[C@H]1CC[C@H]2[C@H]3CC=C4C[C@H](O)CC[C@@]4(C)[C@@H]3CC[C@]12C)C(C)C
REMARK SMILES IDX 5 1 4 2 3 3 2 4 1 5 28 6 29 7 30 8 6 9 7 10 8 11 9 12 26 13
REMARK SMILES IDX 10 14 11 15 25 16 27 17 12 18 24 19 23 20 13 21 21 22 14 23
REMARK SMILES IDX 15 24 20 25 22 26 16 27 19 28 17 29 18 30
REMARK H PARENT 18 31
REMARK Flexibility Score: inf
ROOT
ATOM      1  C   UNL     1      15.881  16.202  11.997  1.00  0.00     0.004 C 
ENDROOT
BRANCH   1   2
ATOM      2  C   UNL     1      15.462  16.027  13.478  1.00  0.00     0.004 C 
BRANCH   2   3
ATOM      3  C   UNL     1      16.655  15.707  14.428  1.00  0.00    -0.009 C 
BRANCH   3   4
ATOM      4  C   UNL     1      17.346  17.027  14.887  1.00  0.00     0.000 C 
ATOM      5  C   UNL     1      17.251  17.281  16.396  1.00  0.00     0.004 C 
ENDBRANCH   3   4
BRANCH   3   6
ATOM      6  C   UNL     1      17.610  14.663  13.758  1.00  0.00    -0.014 C 
ATOM      7  C   UNL     1      17.233  13.204  14.063  1.00  0.00     0.007 C 
ATOM      8  C   UNL     1      19.104  14.902  14.044  1.00  0.00     0.007 C 
ENDBRANCH   3   6
ENDBRANCH   2   3
ENDBRANCH   1   2
BRANCH   1   9
ATOM      9  C   UNL     1      15.960  17.684  11.529  1.00  0.00    -0.011 C 
ATOM     10  C   UNL     1      15.014  18.560  12.372  1.00  0.00     0.008 C 
BRANCH   9  11
ATOM     11  C   UNL     1      17.411  18.296  11.521  1.00  0.00    -0.002 C 
ATOM     12  C   UNL     1      18.605  17.322  11.308  1.00  0.00     0.005 C 
ATOM     13  C   UNL     1      17.673  19.463  10.525  1.00  0.00    -0.026 C 
ATOM     14  C   UNL     1      19.733  18.150  10.660  1.00  0.00     0.005 C 
ATOM     15  C   UNL     1      19.200  19.577  10.664  1.00  0.00    -0.001 C 
ATOM     16  C   UNL     1      17.019  20.826  10.942  1.00  0.00     0.007 C 
ATOM     17  C   UNL     1      17.226  19.051   9.088  1.00  0.00     0.012 C 
ATOM     18  C   UNL     1      19.885  20.681   9.814  1.00  0.00     0.000 C 
ATOM     19  C   UNL     1      17.949  22.067  10.757  1.00  0.00     0.005 C 
ATOM     20  C   UNL     1      18.934  21.888   9.572  1.00  0.00     0.003 C 
ATOM     21  C   UNL     1      20.486  20.257   8.474  1.00  0.00     0.031 C 
ATOM     22  C   UNL     1      19.746  23.151   9.118  1.00  0.00    -0.008 C 
ATOM     23  C   UNL     1      21.102  21.448   7.773  1.00  0.00    -0.027 C 
ATOM     24  C   UNL     1      20.750  22.741   8.014  1.00  0.00    -0.065 C 
ATOM     25  C   UNL     1      18.763  24.208   8.518  1.00  0.00     0.014 C 
ATOM     26  C   UNL     1      20.508  23.791  10.309  1.00  0.00     0.016 C 
ATOM     27  C   UNL     1      21.409  23.838   7.201  1.00  0.00     0.063 C 
ATOM     28  C   UNL     1      19.467  25.346   7.763  1.00  0.00     0.033 C 
ATOM     29  C   UNL     1      20.356  24.796   6.638  1.00  0.00     0.118 C 
BRANCH  29  30
ATOM     30  O   UNL     1      21.007  25.852   5.981  1.00  0.00    -0.393 OA
ATOM     31  H   UNL     1      20.385  26.178   5.279  1.00  0.00     0.210 HD
ENDBRANCH  29  30
ENDBRANCH   9  11
ENDBRANCH   1   9
TORSDOF 7
ENDMDL
