MODEL 1
REMARK VINA RESULT:    -2.357      0.000      0.000
REMARK INTER + INTRA:          -6.787
REMARK INTER:                  -5.112
REMARK INTRA:                  -1.674
REMARK UNBOUND:                -1.674
REMARK SMILES CCCCCCCCCCCCCCCCCCCCCC(=O)[O-]
REMARK SMILES IDX 12 1 11 2 10 3 9 4 8 5 7 6 6 7 5 8 4 9 3 10 2 11 1 12 13 13
REMARK SMILES IDX 14 14 15 15 16 16 17 17 18 18 19 19 20 20 21 21 22 22 23 23
REMARK SMILES IDX 24 24
REMARK H PARENT
REMARK Flexibility Score: inf
ROOT
ATOM      1  C   UNL     1       5.462 -35.838  22.943  1.00  0.00     0.000 C 
ENDROOT
BRANCH   1   2
ATOM      2  C   UNL     1       6.009 -36.127  21.529  1.00  0.00     0.000 C 
BRANCH   2   3
ATOM      3  C   UNL     1       5.007 -35.817  20.404  1.00  0.00     0.000 C 
BRANCH   3   4
ATOM      4  C   UNL     1       5.677 -35.720  19.022  1.00  0.00    -0.000 C 
BRANCH   4   5
ATOM      5  C   UNL     1       4.696 -35.325  17.901  1.00  0.00    -0.000 C 
BRANCH   5   6
ATOM      6  C   UNL     1       3.975 -36.496  17.207  1.00  0.00    -0.000 C 
BRANCH   6   7
ATOM      7  C   UNL     1       2.674 -36.074  16.501  1.00  0.00    -0.000 C 
BRANCH   7   8
ATOM      8  C   UNL     1       2.120 -37.160  15.561  1.00  0.00    -0.000 C 
BRANCH   8   9
ATOM      9  C   UNL     1       2.625 -37.089  14.108  1.00  0.00    -0.000 C 
BRANCH   9  10
ATOM     10  C   UNL     1       3.910 -37.904  13.880  1.00  0.00    -0.000 C 
BRANCH  10  11
ATOM     11  C   UNL     1       3.741 -39.384  14.251  1.00  0.00    -0.003 C 
ATOM     12  C   UNL     1       4.988 -40.214  13.941  1.00  0.00     0.004 C 
ENDBRANCH  10  11
ENDBRANCH   9  10
ENDBRANCH   8   9
ENDBRANCH   7   8
ENDBRANCH   6   7
ENDBRANCH   5   6
ENDBRANCH   4   5
ENDBRANCH   3   4
ENDBRANCH   2   3
ENDBRANCH   1   2
BRANCH   1  13
ATOM     13  C   UNL     1       6.089 -36.753  24.005  1.00  0.00     0.000 C 
BRANCH  13  14
ATOM     14  C   UNL     1       5.019 -37.313  24.952  1.00  0.00     0.000 C 
BRANCH  14  15
ATOM     15  C   UNL     1       5.244 -38.810  25.212  1.00  0.00     0.000 C 
BRANCH  15  16
ATOM     16  C   UNL     1       4.482 -39.712  24.223  1.00  0.00     0.000 C 
BRANCH  16  17
ATOM     17  C   UNL     1       5.365 -40.435  23.189  1.00  0.00     0.000 C 
BRANCH  17  18
ATOM     18  C   UNL     1       5.332 -39.764  21.806  1.00  0.00     0.000 C 
BRANCH  18  19
ATOM     19  C   UNL     1       4.027 -38.993  21.551  1.00  0.00     0.000 C 
BRANCH  19  20
ATOM     20  C   UNL     1       3.653 -38.927  20.062  1.00  0.00     0.006 C 
BRANCH  20  21
ATOM     21  C   UNL     1       2.622 -37.824  19.800  1.00  0.00     0.053 C 
BRANCH  21  22
ATOM     22  C   UNL     1       1.426 -38.384  19.097  1.00  0.00     0.041 C 
ATOM     23  O   UNL     1       1.556 -38.954  17.982  1.00  0.00    -0.550 OA
ATOM     24  O   UNL     1       0.159 -38.226  19.646  1.00  0.00    -0.550 OA
ENDBRANCH  21  22
ENDBRANCH  20  21
ENDBRANCH  19  20
ENDBRANCH  18  19
ENDBRANCH  17  18
ENDBRANCH  16  17
ENDBRANCH  15  16
ENDBRANCH  14  15
ENDBRANCH  13  14
ENDBRANCH   1  13
TORSDOF 20
ENDMDL
MODEL 2
REMARK VINA RESULT:    -2.086      2.618      4.330
REMARK INTER + INTRA:          -6.199
REMARK INTER:                  -4.147
REMARK INTRA:                  -2.052
REMARK UNBOUND:                -1.674
REMARK SMILES CCCCCCCCCCCCCCCCCCCCCC(=O)[O-]
REMARK SMILES IDX 12 1 11 2 10 3 9 4 8 5 7 6 6 7 5 8 4 9 3 10 2 11 1 12 13 13
REMARK SMILES IDX 14 14 15 15 16 16 17 17 18 18 19 19 20 20 21 21 22 22 23 23
REMARK SMILES IDX 24 24
REMARK H PARENT
REMARK Flexibility Score: inf
ROOT
ATOM      1  C   UNL     1       3.974 -37.727  20.477  1.00  0.00     0.000 C 
ENDROOT
BRANCH   1   2
ATOM      2  C   UNL     1       3.411 -38.263  19.143  1.00  0.00     0.000 C 
BRANCH   2   3
ATOM      3  C   UNL     1       1.890 -38.484  19.158  1.00  0.00     0.000 C 
BRANCH   3   4
ATOM      4  C   UNL     1       1.232 -38.181  17.801  1.00  0.00    -0.000 C 
BRANCH   4   5
ATOM      5  C   UNL     1       2.192 -37.508  16.800  1.00  0.00    -0.000 C 
BRANCH   5   6
ATOM      6  C   UNL     1       1.543 -36.996  15.500  1.00  0.00    -0.000 C 
BRANCH   6   7
ATOM      7  C   UNL     1       2.199 -37.568  14.230  1.00  0.00    -0.000 C 
BRANCH   7   8
ATOM      8  C   UNL     1       3.693 -37.216  14.116  1.00  0.00    -0.000 C 
BRANCH   8   9
ATOM      9  C   UNL     1       4.632 -38.413  13.875  1.00  0.00    -0.000 C 
BRANCH   9  10
ATOM     10  C   UNL     1       4.172 -39.690  14.598  1.00  0.00    -0.000 C 
BRANCH  10  11
ATOM     11  C   UNL     1       4.621 -40.969  13.876  1.00  0.00    -0.003 C 
ATOM     12  C   UNL     1       5.375 -41.929  14.796  1.00  0.00     0.004 C 
ENDBRANCH  10  11
ENDBRANCH   9  10
ENDBRANCH   8   9
ENDBRANCH   7   8
ENDBRANCH   6   7
ENDBRANCH   5   6
ENDBRANCH   4   5
ENDBRANCH   3   4
ENDBRANCH   2   3
ENDBRANCH   1   2
BRANCH   1  13
ATOM     13  C   UNL     1       5.508 -37.676  20.480  1.00  0.00     0.000 C 
BRANCH  13  14
ATOM     14  C   UNL     1       6.016 -36.342  21.043  1.00  0.00     0.000 C 
BRANCH  14  15
ATOM     15  C   UNL     1       4.963 -35.693  21.954  1.00  0.00     0.000 C 
BRANCH  15  16
ATOM     16  C   UNL     1       5.317 -35.797  23.448  1.00  0.00     0.000 C 
BRANCH  16  17
ATOM     17  C   UNL     1       4.459 -36.791  24.252  1.00  0.00     0.000 C 
BRANCH  17  18
ATOM     18  C   UNL     1       5.304 -37.752  25.106  1.00  0.00     0.000 C 
BRANCH  18  19
ATOM     19  C   UNL     1       5.992 -38.842  24.268  1.00  0.00     0.000 C 
BRANCH  19  20
ATOM     20  C   UNL     1       4.996 -39.707  23.480  1.00  0.00     0.006 C 
BRANCH  20  21
ATOM     21  C   UNL     1       5.727 -40.713  22.585  1.00  0.00     0.053 C 
BRANCH  21  22
ATOM     22  C   UNL     1       5.772 -42.057  23.238  1.00  0.00     0.041 C 
ATOM     23  O   UNL     1       6.038 -43.084  22.559  1.00  0.00    -0.550 OA
ATOM     24  O   UNL     1       5.465 -42.185  24.588  1.00  0.00    -0.550 OA
ENDBRANCH  21  22
ENDBRANCH  20  21
ENDBRANCH  19  20
ENDBRANCH  18  19
ENDBRANCH  17  18
ENDBRANCH  16  17
ENDBRANCH  15  16
ENDBRANCH  14  15
ENDBRANCH  13  14
ENDBRANCH   1  13
TORSDOF 20
ENDMDL
MODEL 3
REMARK VINA RESULT:    -1.970      1.877      5.862
REMARK INTER + INTRA:          -5.948
REMARK INTER:                  -4.714
REMARK INTRA:                  -1.234
REMARK UNBOUND:                -1.674
REMARK SMILES CCCCCCCCCCCCCCCCCCCCCC(=O)[O-]
REMARK SMILES IDX 12 1 11 2 10 3 9 4 8 5 7 6 6 7 5 8 4 9 3 10 2 11 1 12 13 13
REMARK SMILES IDX 14 14 15 15 16 16 17 17 18 18 19 19 20 20 21 21 22 22 23 23
REMARK SMILES IDX 24 24
REMARK H PARENT
REMARK Flexibility Score: inf
ROOT
ATOM      1  C   UNL     1       6.016 -35.360  23.365  1.00  0.00     0.000 C 
ENDROOT
BRANCH   1   2
ATOM      2  C   UNL     1       5.674 -36.111  24.670  1.00  0.00     0.000 C 
BRANCH   2   3
ATOM      3  C   UNL     1       4.743 -37.317  24.462  1.00  0.00     0.000 C 
BRANCH   3   4
ATOM      4  C   UNL     1       5.496 -38.659  24.481  1.00  0.00    -0.000 C 
BRANCH   4   5
ATOM      5  C   UNL     1       4.616 -39.853  24.063  1.00  0.00    -0.000 C 
BRANCH   5   6
ATOM      6  C   UNL     1       4.911 -40.440  22.669  1.00  0.00    -0.000 C 
BRANCH   6   7
ATOM      7  C   UNL     1       5.735 -39.496  21.776  1.00  0.00    -0.000 C 
BRANCH   7   8
ATOM      8  C   UNL     1       4.982 -39.064  20.505  1.00  0.00    -0.000 C 
BRANCH   8   9
ATOM      9  C   UNL     1       3.465 -38.860  20.679  1.00  0.00    -0.000 C 
BRANCH   9  10
ATOM     10  C   UNL     1       2.806 -38.196  19.457  1.00  0.00    -0.000 C 
BRANCH  10  11
ATOM     11  C   UNL     1       1.554 -38.950  18.984  1.00  0.00    -0.003 C 
ATOM     12  C   UNL     1       0.276 -38.125  19.144  1.00  0.00     0.004 C 
ENDBRANCH  10  11
ENDBRANCH   9  10
ENDBRANCH   8   9
ENDBRANCH   7   8
ENDBRANCH   6   7
ENDBRANCH   5   6
ENDBRANCH   4   5
ENDBRANCH   3   4
ENDBRANCH   2   3
ENDBRANCH   1   2
BRANCH   1  13
ATOM     13  C   UNL     1       5.877 -36.257  22.127  1.00  0.00     0.000 C 
BRANCH  13  14
ATOM     14  C   UNL     1       5.226 -35.496  20.964  1.00  0.00     0.000 C 
BRANCH  14  15
ATOM     15  C   UNL     1       6.090 -35.585  19.697  1.00  0.00     0.000 C 
BRANCH  15  16
ATOM     16  C   UNL     1       5.315 -35.222  18.417  1.00  0.00     0.000 C 
BRANCH  16  17
ATOM     17  C   UNL     1       4.133 -36.152  18.086  1.00  0.00     0.000 C 
BRANCH  17  18
ATOM     18  C   UNL     1       3.704 -36.067  16.612  1.00  0.00     0.000 C 
BRANCH  18  19
ATOM     19  C   UNL     1       2.207 -36.357  16.411  1.00  0.00     0.000 C 
BRANCH  19  20
ATOM     20  C   UNL     1       1.948 -37.696  15.703  1.00  0.00     0.006 C 
BRANCH  20  21
ATOM     21  C   UNL     1       2.394 -37.639  14.238  1.00  0.00     0.053 C 
BRANCH  21  22
ATOM     22  C   UNL     1       3.782 -38.177  14.093  1.00  0.00     0.041 C 
ATOM     23  O   UNL     1       4.745 -37.395  13.875  1.00  0.00    -0.550 OA
ATOM     24  O   UNL     1       4.006 -39.548  14.143  1.00  0.00    -0.550 OA
ENDBRANCH  21  22
ENDBRANCH  20  21
ENDBRANCH  19  20
ENDBRANCH  18  19
ENDBRANCH  17  18
ENDBRANCH  16  17
ENDBRANCH  15  16
ENDBRANCH  14  15
ENDBRANCH  13  14
ENDBRANCH   1  13
TORSDOF 20
ENDMDL
MODEL 4
REMARK VINA RESULT:    -1.779      2.065      7.345
REMARK INTER + INTRA:          -5.533
REMARK INTER:                  -3.988
REMARK INTRA:                  -1.545
REMARK UNBOUND:                -1.674
REMARK SMILES CCCCCCCCCCCCCCCCCCCCCC(=O)[O-]
REMARK SMILES IDX 12 1 11 2 10 3 9 4 8 5 7 6 6 7 5 8 4 9 3 10 2 11 1 12 13 13
REMARK SMILES IDX 14 14 15 15 16 16 17 17 18 18 19 19 20 20 21 21 22 22 23 23
REMARK SMILES IDX 24 24
REMARK H PARENT
REMARK Flexibility Score: inf
ROOT
ATOM      1  C   UNL     1       3.622 -37.017  20.850  1.00  0.00     0.000 C 
ENDROOT
BRANCH   1   2
ATOM      2  C   UNL     1       4.777 -37.914  21.343  1.00  0.00     0.000 C 
BRANCH   2   3
ATOM      3  C   UNL     1       5.056 -39.120  20.430  1.00  0.00     0.000 C 
BRANCH   3   4
ATOM      4  C   UNL     1       6.056 -40.113  21.046  1.00  0.00    -0.000 C 
BRANCH   4   5
ATOM      5  C   UNL     1       5.495 -40.853  22.276  1.00  0.00    -0.000 C 
BRANCH   5   6
ATOM      6  C   UNL     1       4.225 -40.239  22.898  1.00  0.00    -0.000 C 
BRANCH   6   7
ATOM      7  C   UNL     1       4.378 -39.919  24.396  1.00  0.00    -0.000 C 
BRANCH   7   8
ATOM      8  C   UNL     1       5.554 -38.969  24.689  1.00  0.00    -0.000 C 
BRANCH   8   9
ATOM      9  C   UNL     1       5.283 -37.903  25.767  1.00  0.00    -0.000 C 
BRANCH   9  10
ATOM     10  C   UNL     1       5.949 -36.552  25.456  1.00  0.00    -0.000 C 
BRANCH  10  11
ATOM     11  C   UNL     1       5.416 -35.919  24.161  1.00  0.00    -0.003 C 
ATOM     12  C   UNL     1       6.119 -34.605  23.818  1.00  0.00     0.004 C 
ENDBRANCH  10  11
ENDBRANCH   9  10
ENDBRANCH   8   9
ENDBRANCH   7   8
ENDBRANCH   6   7
ENDBRANCH   5   6
ENDBRANCH   4   5
ENDBRANCH   3   4
ENDBRANCH   2   3
ENDBRANCH   1   2
BRANCH   1  13
ATOM     13  C   UNL     1       4.084 -35.580  20.567  1.00  0.00     0.000 C 
BRANCH  13  14
ATOM     14  C   UNL     1       5.570 -35.543  20.189  1.00  0.00     0.000 C 
BRANCH  14  15
ATOM     15  C   UNL     1       5.751 -35.223  18.698  1.00  0.00     0.000 C 
BRANCH  15  16
ATOM     16  C   UNL     1       4.413 -35.073  17.951  1.00  0.00     0.000 C 
BRANCH  16  17
ATOM     17  C   UNL     1       4.056 -36.242  17.014  1.00  0.00     0.000 C 
BRANCH  17  18
ATOM     18  C   UNL     1       3.047 -37.219  17.640  1.00  0.00     0.000 C 
BRANCH  18  19
ATOM     19  C   UNL     1       2.039 -37.768  16.618  1.00  0.00     0.000 C 
BRANCH  19  20
ATOM     20  C   UNL     1       1.987 -36.939  15.325  1.00  0.00     0.006 C 
BRANCH  20  21
ATOM     21  C   UNL     1       2.232 -37.819  14.095  1.00  0.00     0.053 C 
BRANCH  21  22
ATOM     22  C   UNL     1       3.662 -38.250  14.038  1.00  0.00     0.041 C 
ATOM     23  O   UNL     1       4.579 -37.394  13.928  1.00  0.00    -0.550 OA
ATOM     24  O   UNL     1       3.982 -39.603  14.051  1.00  0.00    -0.550 OA
ENDBRANCH  21  22
ENDBRANCH  20  21
ENDBRANCH  19  20
ENDBRANCH  18  19
ENDBRANCH  17  18
ENDBRANCH  16  17
ENDBRANCH  15  16
ENDBRANCH  14  15
ENDBRANCH  13  14
ENDBRANCH   1  13
TORSDOF 20
ENDMDL
MODEL 5
REMARK VINA RESULT:    -1.763      1.327      6.487
REMARK INTER + INTRA:          -5.498
REMARK INTER:                  -4.780
REMARK INTRA:                  -0.718
REMARK UNBOUND:                -1.674
REMARK SMILES CCCCCCCCCCCCCCCCCCCCCC(=O)[O-]
REMARK SMILES IDX 12 1 11 2 10 3 9 4 8 5 7 6 6 7 5 8 4 9 3 10 2 11 1 12 13 13
REMARK SMILES IDX 14 14 15 15 16 16 17 17 18 18 19 19 20 20 21 21 22 22 23 23
REMARK SMILES IDX 24 24
REMARK H PARENT
REMARK Flexibility Score: inf
ROOT
ATOM      1  C   UNL     1       4.619 -36.236  20.776  1.00  0.00     0.000 C 
ENDROOT
BRANCH   1   2
ATOM      2  C   UNL     1       4.508 -36.189  22.315  1.00  0.00     0.000 C 
BRANCH   2   3
ATOM      3  C   UNL     1       5.207 -34.974  22.948  1.00  0.00     0.000 C 
BRANCH   3   4
ATOM      4  C   UNL     1       6.099 -35.356  24.141  1.00  0.00    -0.000 C 
BRANCH   4   5
ATOM      5  C   UNL     1       6.124 -36.873  24.416  1.00  0.00    -0.000 C 
BRANCH   5   6
ATOM      6  C   UNL     1       5.225 -37.354  25.571  1.00  0.00    -0.000 C 
BRANCH   6   7
ATOM      7  C   UNL     1       4.799 -38.826  25.434  1.00  0.00    -0.000 C 
BRANCH   7   8
ATOM      8  C   UNL     1       4.713 -39.293  23.970  1.00  0.00    -0.000 C 
BRANCH   8   9
ATOM      9  C   UNL     1       5.161 -40.744  23.717  1.00  0.00    -0.000 C 
BRANCH   9  10
ATOM     10  C   UNL     1       5.783 -40.946  22.324  1.00  0.00    -0.000 C 
BRANCH  10  11
ATOM     11  C   UNL     1       5.417 -39.817  21.349  1.00  0.00    -0.003 C 
ATOM     12  C   UNL     1       5.939 -40.071  19.934  1.00  0.00     0.004 C 
ENDBRANCH  10  11
ENDBRANCH   9  10
ENDBRANCH   8   9
ENDBRANCH   7   8
ENDBRANCH   6   7
ENDBRANCH   5   6
ENDBRANCH   4   5
ENDBRANCH   3   4
ENDBRANCH   2   3
ENDBRANCH   1   2
BRANCH   1  13
ATOM     13  C   UNL     1       5.976 -35.717  20.277  1.00  0.00     0.000 C 
BRANCH  13  14
ATOM     14  C   UNL     1       5.910 -35.342  18.791  1.00  0.00     0.000 C 
BRANCH  14  15
ATOM     15  C   UNL     1       4.454 -35.251  18.310  1.00  0.00     0.000 C 
BRANCH  15  16
ATOM     16  C   UNL     1       4.102 -36.318  17.259  1.00  0.00     0.000 C 
BRANCH  16  17
ATOM     17  C   UNL     1       3.233 -35.819  16.090  1.00  0.00     0.000 C 
BRANCH  17  18
ATOM     18  C   UNL     1       3.212 -36.797  14.903  1.00  0.00     0.000 C 
BRANCH  18  19
ATOM     19  C   UNL     1       2.518 -38.126  15.241  1.00  0.00     0.000 C 
BRANCH  19  20
ATOM     20  C   UNL     1       2.530 -38.441  16.745  1.00  0.00     0.006 C 
BRANCH  20  21
ATOM     21  C   UNL     1       1.248 -37.945  17.423  1.00  0.00     0.053 C 
BRANCH  21  22
ATOM     22  C   UNL     1       1.220 -38.365  18.858  1.00  0.00     0.041 C 
ATOM     23  O   UNL     1       0.122 -38.595  19.430  1.00  0.00    -0.550 OA
ATOM     24  O   UNL     1       2.404 -38.450  19.582  1.00  0.00    -0.550 OA
ENDBRANCH  21  22
ENDBRANCH  20  21
ENDBRANCH  19  20
ENDBRANCH  18  19
ENDBRANCH  17  18
ENDBRANCH  16  17
ENDBRANCH  15  16
ENDBRANCH  14  15
ENDBRANCH  13  14
ENDBRANCH   1  13
TORSDOF 20
ENDMDL
MODEL 6
REMARK VINA RESULT:    -1.680      2.075      7.279
REMARK INTER + INTRA:          -5.319
REMARK INTER:                  -3.472
REMARK INTRA:                  -1.847
REMARK UNBOUND:                -1.674
REMARK SMILES CCCCCCCCCCCCCCCCCCCCCC(=O)[O-]
REMARK SMILES IDX 12 1 11 2 10 3 9 4 8 5 7 6 6 7 5 8 4 9 3 10 2 11 1 12 13 13
REMARK SMILES IDX 14 14 15 15 16 16 17 17 18 18 19 19 20 20 21 21 22 22 23 23
REMARK SMILES IDX 24 24
REMARK H PARENT
REMARK Flexibility Score: inf
ROOT
ATOM      1  C   UNL     1       5.044 -38.477  21.191  1.00  0.00     0.000 C 
ENDROOT
BRANCH   1   2
ATOM      2  C   UNL     1       5.873 -39.765  21.383  1.00  0.00     0.000 C 
BRANCH   2   3
ATOM      3  C   UNL     1       5.217 -40.786  22.327  1.00  0.00     0.000 C 
BRANCH   3   4
ATOM      4  C   UNL     1       4.219 -40.138  23.302  1.00  0.00    -0.000 C 
BRANCH   4   5
ATOM      5  C   UNL     1       4.787 -39.968  24.725  1.00  0.00    -0.000 C 
BRANCH   5   6
ATOM      6  C   UNL     1       4.671 -38.552  25.322  1.00  0.00    -0.000 C 
BRANCH   6   7
ATOM      7  C   UNL     1       6.036 -37.916  25.639  1.00  0.00    -0.000 C 
BRANCH   7   8
ATOM      8  C   UNL     1       6.124 -36.439  25.211  1.00  0.00    -0.000 C 
BRANCH   8   9
ATOM      9  C   UNL     1       5.671 -36.147  23.769  1.00  0.00    -0.000 C 
BRANCH   9  10
ATOM     10  C   UNL     1       5.729 -34.651  23.414  1.00  0.00    -0.000 C 
BRANCH  10  11
ATOM     11  C   UNL     1       4.512 -34.194  22.595  1.00  0.00    -0.003 C 
ATOM     12  C   UNL     1       3.609 -35.358  22.186  1.00  0.00     0.004 C 
ENDBRANCH  10  11
ENDBRANCH   9  10
ENDBRANCH   8   9
ENDBRANCH   7   8
ENDBRANCH   6   7
ENDBRANCH   5   6
ENDBRANCH   4   5
ENDBRANCH   3   4
ENDBRANCH   2   3
ENDBRANCH   1   2
BRANCH   1  13
ATOM     13  C   UNL     1       5.359 -37.779  19.860  1.00  0.00     0.000 C 
BRANCH  13  14
ATOM     14  C   UNL     1       5.899 -36.362  20.093  1.00  0.00     0.000 C 
BRANCH  14  15
ATOM     15  C   UNL     1       5.827 -35.527  18.806  1.00  0.00     0.000 C 
BRANCH  15  16
ATOM     16  C   UNL     1       4.382 -35.238  18.359  1.00  0.00     0.000 C 
BRANCH  16  17
ATOM     17  C   UNL     1       3.875 -36.110  17.195  1.00  0.00     0.000 C 
BRANCH  17  18
ATOM     18  C   UNL     1       2.984 -37.271  17.667  1.00  0.00     0.000 C 
BRANCH  18  19
ATOM     19  C   UNL     1       2.338 -38.036  16.500  1.00  0.00     0.000 C 
BRANCH  19  20
ATOM     20  C   UNL     1       1.826 -37.107  15.388  1.00  0.00     0.006 C 
BRANCH  20  21
ATOM     21  C   UNL     1       2.249 -37.618  14.006  1.00  0.00     0.053 C 
BRANCH  21  22
ATOM     22  C   UNL     1       3.679 -38.056  14.026  1.00  0.00     0.041 C 
ATOM     23  O   UNL     1       4.603 -37.209  13.909  1.00  0.00    -0.550 OA
ATOM     24  O   UNL     1       3.991 -39.407  14.117  1.00  0.00    -0.550 OA
ENDBRANCH  21  22
ENDBRANCH  20  21
ENDBRANCH  19  20
ENDBRANCH  18  19
ENDBRANCH  17  18
ENDBRANCH  16  17
ENDBRANCH  15  16
ENDBRANCH  14  15
ENDBRANCH  13  14
ENDBRANCH   1  13
TORSDOF 20
ENDMDL
MODEL 7
REMARK VINA RESULT:    -1.523      0.883      2.168
REMARK INTER + INTRA:          -4.977
REMARK INTER:                  -4.010
REMARK INTRA:                  -0.967
REMARK UNBOUND:                -1.674
REMARK SMILES CCCCCCCCCCCCCCCCCCCCCC(=O)[O-]
REMARK SMILES IDX 12 1 11 2 10 3 9 4 8 5 7 6 6 7 5 8 4 9 3 10 2 11 1 12 13 13
REMARK SMILES IDX 14 14 15 15 16 16 17 17 18 18 19 19 20 20 21 21 22 22 23 23
REMARK SMILES IDX 24 24
REMARK H PARENT
REMARK Flexibility Score: inf
ROOT
ATOM      1  C   UNL     1       5.175 -36.780  24.211  1.00  0.00     0.000 C 
ENDROOT
BRANCH   1   2
ATOM      2  C   UNL     1       6.113 -35.554  24.190  1.00  0.00     0.000 C 
BRANCH   2   3
ATOM      3  C   UNL     1       6.090 -34.781  22.861  1.00  0.00     0.000 C 
BRANCH   3   4
ATOM      4  C   UNL     1       6.119 -35.708  21.634  1.00  0.00    -0.000 C 
BRANCH   4   5
ATOM      5  C   UNL     1       5.337 -35.145  20.432  1.00  0.00    -0.000 C 
BRANCH   5   6
ATOM      6  C   UNL     1       5.818 -35.618  19.046  1.00  0.00    -0.000 C 
BRANCH   6   7
ATOM      7  C   UNL     1       4.997 -35.027  17.886  1.00  0.00    -0.000 C 
BRANCH   7   8
ATOM      8  C   UNL     1       3.619 -35.695  17.725  1.00  0.00    -0.000 C 
BRANCH   8   9
ATOM      9  C   UNL     1       3.567 -36.855  16.713  1.00  0.00    -0.000 C 
BRANCH   9  10
ATOM     10  C   UNL     1       2.418 -36.714  15.699  1.00  0.00    -0.000 C 
BRANCH  10  11
ATOM     11  C   UNL     1       2.846 -37.084  14.271  1.00  0.00    -0.003 C 
ATOM     12  C   UNL     1       3.964 -38.127  14.244  1.00  0.00     0.004 C 
ENDBRANCH  10  11
ENDBRANCH   9  10
ENDBRANCH   8   9
ENDBRANCH   7   8
ENDBRANCH   6   7
ENDBRANCH   5   6
ENDBRANCH   4   5
ENDBRANCH   3   4
ENDBRANCH   2   3
ENDBRANCH   1   2
BRANCH   1  13
ATOM     13  C   UNL     1       4.995 -37.347  25.626  1.00  0.00     0.000 C 
BRANCH  13  14
ATOM     14  C   UNL     1       4.504 -38.800  25.580  1.00  0.00     0.000 C 
BRANCH  14  15
ATOM     15  C   UNL     1       5.386 -39.650  24.653  1.00  0.00     0.000 C 
BRANCH  15  16
ATOM     16  C   UNL     1       4.615 -40.219  23.448  1.00  0.00     0.000 C 
BRANCH  16  17
ATOM     17  C   UNL     1       5.202 -39.857  22.071  1.00  0.00     0.000 C 
BRANCH  17  18
ATOM     18  C   UNL     1       4.457 -38.693  21.394  1.00  0.00     0.000 C 
BRANCH  18  19
ATOM     19  C   UNL     1       4.771 -38.580  19.893  1.00  0.00     0.000 C 
BRANCH  19  20
ATOM     20  C   UNL     1       3.508 -38.579  19.018  1.00  0.00     0.006 C 
BRANCH  20  21
ATOM     21  C   UNL     1       2.243 -38.696  19.875  1.00  0.00     0.053 C 
BRANCH  21  22
ATOM     22  C   UNL     1       1.030 -38.372  19.062  1.00  0.00     0.041 C 
ATOM     23  O   UNL     1       0.003 -37.899  19.616  1.00  0.00    -0.550 OA
ATOM     24  O   UNL     1       1.012 -38.645  17.699  1.00  0.00    -0.550 OA
ENDBRANCH  21  22
ENDBRANCH  20  21
ENDBRANCH  19  20
ENDBRANCH  18  19
ENDBRANCH  17  18
ENDBRANCH  16  17
ENDBRANCH  15  16
ENDBRANCH  14  15
ENDBRANCH  13  14
ENDBRANCH   1  13
TORSDOF 20
ENDMDL
MODEL 8
REMARK VINA RESULT:    -1.397      2.216      3.623
REMARK INTER + INTRA:          -4.704
REMARK INTER:                  -4.159
REMARK INTRA:                  -0.545
REMARK UNBOUND:                -1.674
REMARK SMILES CCCCCCCCCCCCCCCCCCCCCC(=O)[O-]
REMARK SMILES IDX 12 1 11 2 10 3 9 4 8 5 7 6 6 7 5 8 4 9 3 10 2 11 1 12 13 13
REMARK SMILES IDX 14 14 15 15 16 16 17 17 18 18 19 19 20 20 21 21 22 22 23 23
REMARK SMILES IDX 24 24
REMARK H PARENT
REMARK Flexibility Score: inf
ROOT
ATOM      1  C   UNL     1       3.838 -35.534  21.164  1.00  0.00     0.000 C 
ENDROOT
BRANCH   1   2
ATOM      2  C   UNL     1       4.759 -35.664  19.933  1.00  0.00     0.000 C 
BRANCH   2   3
ATOM      3  C   UNL     1       5.291 -37.089  19.707  1.00  0.00     0.000 C 
BRANCH   3   4
ATOM      4  C   UNL     1       4.333 -37.956  18.873  1.00  0.00    -0.000 C 
BRANCH   4   5
ATOM      5  C   UNL     1       3.052 -38.346  19.636  1.00  0.00    -0.000 C 
BRANCH   5   6
ATOM      6  C   UNL     1       1.735 -38.174  18.854  1.00  0.00    -0.000 C 
BRANCH   6   7
ATOM      7  C   UNL     1       1.855 -37.195  17.673  1.00  0.00    -0.000 C 
BRANCH   7   8
ATOM      8  C   UNL     1       1.968 -37.907  16.312  1.00  0.00    -0.000 C 
BRANCH   8   9
ATOM      9  C   UNL     1       2.327 -36.997  15.124  1.00  0.00    -0.000 C 
BRANCH   9  10
ATOM     10  C   UNL     1       3.125 -37.726  14.029  1.00  0.00    -0.000 C 
BRANCH  10  11
ATOM     11  C   UNL     1       4.262 -38.585  14.605  1.00  0.00    -0.003 C 
ATOM     12  C   UNL     1       4.406 -39.926  13.885  1.00  0.00     0.004 C 
ENDBRANCH  10  11
ENDBRANCH   9  10
ENDBRANCH   8   9
ENDBRANCH   7   8
ENDBRANCH   6   7
ENDBRANCH   5   6
ENDBRANCH   4   5
ENDBRANCH   3   4
ENDBRANCH   2   3
ENDBRANCH   1   2
BRANCH   1  13
ATOM     13  C   UNL     1       4.479 -34.698  22.282  1.00  0.00     0.000 C 
BRANCH  13  14
ATOM     14  C   UNL     1       5.769 -35.355  22.790  1.00  0.00     0.000 C 
BRANCH  14  15
ATOM     15  C   UNL     1       5.790 -35.413  24.325  1.00  0.00     0.000 C 
BRANCH  15  16
ATOM     16  C   UNL     1       5.488 -36.818  24.876  1.00  0.00     0.000 C 
BRANCH  16  17
ATOM     17  C   UNL     1       5.871 -37.980  23.940  1.00  0.00     0.000 C 
BRANCH  17  18
ATOM     18  C   UNL     1       4.682 -38.490  23.108  1.00  0.00     0.000 C 
BRANCH  18  19
ATOM     19  C   UNL     1       4.301 -39.941  23.445  1.00  0.00     0.000 C 
BRANCH  19  20
ATOM     20  C   UNL     1       5.350 -40.647  24.317  1.00  0.00     0.006 C 
BRANCH  20  21
ATOM     21  C   UNL     1       5.809 -41.960  23.674  1.00  0.00     0.053 C 
BRANCH  21  22
ATOM     22  C   UNL     1       6.039 -41.771  22.208  1.00  0.00     0.041 C 
ATOM     23  O   UNL     1       6.105 -40.611  21.721  1.00  0.00    -0.550 OA
ATOM     24  O   UNL     1       6.125 -42.876  21.369  1.00  0.00    -0.550 OA
ENDBRANCH  21  22
ENDBRANCH  20  21
ENDBRANCH  19  20
ENDBRANCH  18  19
ENDBRANCH  17  18
ENDBRANCH  16  17
ENDBRANCH  15  16
ENDBRANCH  14  15
ENDBRANCH  13  14
ENDBRANCH   1  13
TORSDOF 20
ENDMDL
MODEL 9
REMARK VINA RESULT:    -1.321      1.605      7.082
REMARK INTER + INTRA:          -4.540
REMARK INTER:                  -2.917
REMARK INTRA:                  -1.622
REMARK UNBOUND:                -1.674
REMARK SMILES CCCCCCCCCCCCCCCCCCCCCC(=O)[O-]
REMARK SMILES IDX 12 1 11 2 10 3 9 4 8 5 7 6 6 7 5 8 4 9 3 10 2 11 1 12 13 13
REMARK SMILES IDX 14 14 15 15 16 16 17 17 18 18 19 19 20 20 21 21 22 22 23 23
REMARK SMILES IDX 24 24
REMARK H PARENT
REMARK Flexibility Score: inf
ROOT
ATOM      1  C   UNL     1       4.834 -38.446  19.913  1.00  0.00     0.000 C 
ENDROOT
BRANCH   1   2
ATOM      2  C   UNL     1       5.630 -38.711  21.208  1.00  0.00     0.000 C 
BRANCH   2   3
ATOM      3  C   UNL     1       6.069 -40.176  21.375  1.00  0.00     0.000 C 
BRANCH   3   4
ATOM      4  C   UNL     1       5.323 -40.892  22.514  1.00  0.00    -0.000 C 
BRANCH   4   5
ATOM      5  C   UNL     1       4.046 -40.155  22.959  1.00  0.00    -0.000 C 
BRANCH   5   6
ATOM      6  C   UNL     1       4.053 -39.628  24.407  1.00  0.00    -0.000 C 
BRANCH   6   7
ATOM      7  C   UNL     1       5.382 -38.960  24.803  1.00  0.00    -0.000 C 
BRANCH   7   8
ATOM      8  C   UNL     1       5.187 -37.676  25.630  1.00  0.00    -0.000 C 
BRANCH   8   9
ATOM      9  C   UNL     1       6.119 -36.509  25.258  1.00  0.00    -0.000 C 
BRANCH   9  10
ATOM     10  C   UNL     1       6.108 -36.190  23.753  1.00  0.00    -0.000 C 
BRANCH  10  11
ATOM     11  C   UNL     1       5.430 -34.847  23.441  1.00  0.00    -0.003 C 
ATOM     12  C   UNL     1       4.234 -34.998  22.500  1.00  0.00     0.004 C 
ENDBRANCH  10  11
ENDBRANCH   9  10
ENDBRANCH   8   9
ENDBRANCH   7   8
ENDBRANCH   6   7
ENDBRANCH   5   6
ENDBRANCH   4   5
ENDBRANCH   3   4
ENDBRANCH   2   3
ENDBRANCH   1   2
BRANCH   1  13
ATOM     13  C   UNL     1       4.473 -36.963  19.748  1.00  0.00     0.000 C 
BRANCH  13  14
ATOM     14  C   UNL     1       5.727 -36.113  19.506  1.00  0.00     0.000 C 
BRANCH  14  15
ATOM     15  C   UNL     1       5.435 -34.969  18.524  1.00  0.00     0.000 C 
BRANCH  15  16
ATOM     16  C   UNL     1       4.101 -35.146  17.776  1.00  0.00     0.000 C 
BRANCH  16  17
ATOM     17  C   UNL     1       4.003 -36.418  16.914  1.00  0.00     0.000 C 
BRANCH  17  18
ATOM     18  C   UNL     1       3.063 -36.248  15.708  1.00  0.00     0.000 C 
BRANCH  18  19
ATOM     19  C   UNL     1       2.002 -37.358  15.622  1.00  0.00     0.000 C 
BRANCH  19  20
ATOM     20  C   UNL     1       1.900 -38.189  16.911  1.00  0.00     0.006 C 
BRANCH  20  21
ATOM     21  C   UNL     1       0.544 -37.981  17.594  1.00  0.00     0.053 C 
BRANCH  21  22
ATOM     22  C   UNL     1       0.621 -38.374  19.035  1.00  0.00     0.041 C 
ATOM     23  O   UNL     1      -0.268 -37.996  19.844  1.00  0.00    -0.550 OA
ATOM     24  O   UNL     1       1.704 -39.112  19.499  1.00  0.00    -0.550 OA
ENDBRANCH  21  22
ENDBRANCH  20  21
ENDBRANCH  19  20
ENDBRANCH  18  19
ENDBRANCH  17  18
ENDBRANCH  16  17
ENDBRANCH  15  16
ENDBRANCH  14  15
ENDBRANCH  13  14
ENDBRANCH   1  13
TORSDOF 20
ENDMDL
