MODEL 1
REMARK VINA RESULT:    -6.079      0.000      0.000
REMARK INTER + INTRA:          -9.476
REMARK INTER:                  -8.745
REMARK INTRA:                  -0.731
REMARK UNBOUND:                -0.731
REMARK SMILES O=C(CO)[C@@H](O)[C@@H](O)[C@H](O)CO
REMARK SMILES IDX 7 1 9 2 11 3 12 4 10 6 5 8 2 9 1 10 3 11 4 12 6 14 8 16
REMARK H PARENT 12 5 10 7 4 13 6 15 8 17
REMARK Flexibility Score: inf
ROOT
ATOM      1  C   UNL     1     -30.472   2.728  31.626  1.00  0.00     0.181 C 
ENDROOT
BRANCH   1   2
ATOM      2  C   UNL     1     -31.149   1.601  32.453  1.00  0.00     0.171 C 
BRANCH   2   3
ATOM      3  C   UNL     1     -32.621   1.855  32.846  1.00  0.00     0.190 C 
BRANCH   3   4
ATOM      4  O   UNL     1     -33.499   1.457  31.828  1.00  0.00    -0.394 OA
ATOM      5  H   UNL     1     -34.187   0.884  32.256  1.00  0.00     0.210 HD
ENDBRANCH   3   4
ENDBRANCH   2   3
BRANCH   2   6
ATOM      6  O   UNL     1     -31.006   0.356  31.813  1.00  0.00    -0.388 OA
ATOM      7  H   UNL     1     -31.594  -0.298  32.272  1.00  0.00     0.211 HD
ENDBRANCH   2   6
ENDBRANCH   1   2
BRANCH   1   8
ATOM      8  C   UNL     1     -28.914   2.671  31.561  1.00  0.00     0.214 C 
BRANCH   8   9
ATOM      9  C   UNL     1     -28.217   3.204  32.802  1.00  0.00     0.189 C 
ATOM     10  O   UNL     1     -28.749   4.079  33.471  1.00  0.00    -0.294 OA
BRANCH   9  11
ATOM     11  C   UNL     1     -26.901   2.642  33.264  1.00  0.00     0.234 C 
BRANCH  11  12
ATOM     12  O   UNL     1     -26.011   2.600  32.186  1.00  0.00    -0.388 OA
ATOM     13  H   UNL     1     -25.268   3.217  32.416  1.00  0.00     0.211 HD
ENDBRANCH  11  12
ENDBRANCH   9  11
ENDBRANCH   8   9
BRANCH   8  14
ATOM     14  O   UNL     1     -28.488   1.353  31.314  1.00  0.00    -0.382 OA
ATOM     15  H   UNL     1     -28.271   1.277  30.348  1.00  0.00     0.211 HD
ENDBRANCH   8  14
ENDBRANCH   1   8
BRANCH   1  16
ATOM     16  O   UNL     1     -31.034   2.764  30.336  1.00  0.00    -0.387 OA
ATOM     17  H   UNL     1     -31.927   3.191  30.414  1.00  0.00     0.211 HD
ENDBRANCH   1  16
TORSDOF 10
ENDMDL
MODEL 2
REMARK VINA RESULT:    -6.012      1.364      2.151
REMARK INTER + INTRA:          -9.379
REMARK INTER:                  -8.710
REMARK INTRA:                  -0.669
REMARK UNBOUND:                -0.731
REMARK SMILES O=C(CO)[C@@H](O)[C@@H](O)[C@H](O)CO
REMARK SMILES IDX 7 1 9 2 11 3 12 4 10 6 5 8 2 9 1 10 3 11 4 12 6 14 8 16
REMARK H PARENT 12 5 10 7 4 13 6 15 8 17
REMARK Flexibility Score: inf
ROOT
ATOM      1  C   UNL     1     -30.351   2.600  32.421  1.00  0.00     0.181 C 
ENDROOT
BRANCH   1   2
ATOM      2  C   UNL     1     -31.829   2.834  32.839  1.00  0.00     0.171 C 
BRANCH   2   3
ATOM      3  C   UNL     1     -32.694   1.561  32.971  1.00  0.00     0.190 C 
BRANCH   3   4
ATOM      4  O   UNL     1     -33.460   1.341  31.817  1.00  0.00    -0.394 OA
ATOM      5  H   UNL     1     -34.349   1.747  31.986  1.00  0.00     0.210 HD
ENDBRANCH   3   4
ENDBRANCH   2   3
BRANCH   2   6
ATOM      6  O   UNL     1     -31.900   3.614  34.009  1.00  0.00    -0.388 OA
ATOM      7  H   UNL     1     -31.160   4.274  33.986  1.00  0.00     0.211 HD
ENDBRANCH   2   6
ENDBRANCH   1   2
BRANCH   1   8
ATOM      8  C   UNL     1     -29.315   2.598  33.587  1.00  0.00     0.214 C 
BRANCH   8   9
ATOM      9  C   UNL     1     -27.942   2.071  33.202  1.00  0.00     0.189 C 
ATOM     10  O   UNL     1     -27.796   0.887  32.937  1.00  0.00    -0.294 OA
BRANCH   9  11
ATOM     11  C   UNL     1     -26.756   2.988  33.083  1.00  0.00     0.234 C 
BRANCH  11  12
ATOM     12  O   UNL     1     -25.984   2.608  31.980  1.00  0.00    -0.388 OA
ATOM     13  H   UNL     1     -25.338   3.345  31.828  1.00  0.00     0.211 HD
ENDBRANCH  11  12
ENDBRANCH   9  11
ENDBRANCH   8   9
BRANCH   8  14
ATOM     14  O   UNL     1     -29.187   3.891  34.124  1.00  0.00    -0.382 OA
ATOM     15  H   UNL     1     -29.086   3.806  35.108  1.00  0.00     0.211 HD
ENDBRANCH   8  14
ENDBRANCH   1   8
BRANCH   1  16
ATOM     16  O   UNL     1     -30.262   1.420  31.659  1.00  0.00    -0.387 OA
ATOM     17  H   UNL     1     -29.321   1.336  31.352  1.00  0.00     0.211 HD
ENDBRANCH   1  16
TORSDOF 10
ENDMDL
MODEL 3
REMARK VINA RESULT:    -5.796      1.399      5.021
REMARK INTER + INTRA:          -9.068
REMARK INTER:                  -8.603
REMARK INTRA:                  -0.465
REMARK UNBOUND:                -0.731
REMARK SMILES O=C(CO)[C@@H](O)[C@@H](O)[C@H](O)CO
REMARK SMILES IDX 7 1 9 2 11 3 12 4 10 6 5 8 2 9 1 10 3 11 4 12 6 14 8 16
REMARK H PARENT 12 5 10 7 4 13 6 15 8 17
REMARK Flexibility Score: inf
ROOT
ATOM      1  C   UNL     1     -29.261   2.583  33.914  1.00  0.00     0.181 C 
ENDROOT
BRANCH   1   2
ATOM      2  C   UNL     1     -27.930   3.324  33.608  1.00  0.00     0.171 C 
BRANCH   2   3
ATOM      3  C   UNL     1     -27.356   3.104  32.191  1.00  0.00     0.190 C 
BRANCH   3   4
ATOM      4  O   UNL     1     -26.044   2.610  32.240  1.00  0.00    -0.394 OA
ATOM      5  H   UNL     1     -26.064   1.814  32.833  1.00  0.00     0.210 HD
ENDBRANCH   3   4
ENDBRANCH   2   3
BRANCH   2   6
ATOM      6  O   UNL     1     -28.043   4.696  33.898  1.00  0.00    -0.388 OA
ATOM      7  H   UNL     1     -27.906   5.203  33.056  1.00  0.00     0.211 HD
ENDBRANCH   2   6
ENDBRANCH   1   2
BRANCH   1   8
ATOM      8  C   UNL     1     -30.522   3.134  33.178  1.00  0.00     0.214 C 
BRANCH   8   9
ATOM      9  C   UNL     1     -31.311   2.080  32.418  1.00  0.00     0.189 C 
ATOM     10  O   UNL     1     -30.829   1.557  31.424  1.00  0.00    -0.294 OA
BRANCH   9  11
ATOM     11  C   UNL     1     -32.661   1.619  32.893  1.00  0.00     0.234 C 
BRANCH  11  12
ATOM     12  O   UNL     1     -33.486   1.386  31.787  1.00  0.00    -0.388 OA
ATOM     13  H   UNL     1     -33.942   0.521  31.959  1.00  0.00     0.211 HD
ENDBRANCH  11  12
ENDBRANCH   9  11
ENDBRANCH   8   9
BRANCH   8  14
ATOM     14  O   UNL     1     -31.369   3.787  34.091  1.00  0.00    -0.382 OA
ATOM     15  H   UNL     1     -30.807   4.352  34.682  1.00  0.00     0.211 HD
ENDBRANCH   8  14
ENDBRANCH   1   8
BRANCH   1  16
ATOM     16  O   UNL     1     -29.095   1.206  33.678  1.00  0.00    -0.387 OA
ATOM     17  H   UNL     1     -29.625   0.978  32.869  1.00  0.00     0.211 HD
ENDBRANCH   1  16
TORSDOF 10
ENDMDL
MODEL 4
REMARK VINA RESULT:    -5.619      7.991      9.694
REMARK INTER + INTRA:          -8.813
REMARK INTER:                  -7.470
REMARK INTRA:                  -1.343
REMARK UNBOUND:                -0.731
REMARK SMILES O=C(CO)[C@@H](O)[C@@H](O)[C@H](O)CO
REMARK SMILES IDX 7 1 9 2 11 3 12 4 10 6 5 8 2 9 1 10 3 11 4 12 6 14 8 16
REMARK H PARENT 12 5 10 7 4 13 6 15 8 17
REMARK Flexibility Score: inf
ROOT
ATOM      1  C   UNL     1     -28.788  -1.001  24.884  1.00  0.00     0.181 C 
ENDROOT
BRANCH   1   2
ATOM      2  C   UNL     1     -27.281  -0.627  24.935  1.00  0.00     0.171 C 
BRANCH   2   3
ATOM      3  C   UNL     1     -26.432  -1.116  23.741  1.00  0.00     0.190 C 
BRANCH   3   4
ATOM      4  O   UNL     1     -26.752  -0.421  22.566  1.00  0.00    -0.394 OA
ATOM      5  H   UNL     1     -26.571  -1.042  21.813  1.00  0.00     0.210 HD
ENDBRANCH   3   4
ENDBRANCH   2   3
BRANCH   2   6
ATOM      6  O   UNL     1     -27.116   0.757  25.137  1.00  0.00    -0.388 OA
ATOM      7  H   UNL     1     -27.764   1.048  25.830  1.00  0.00     0.211 HD
ENDBRANCH   2   6
ENDBRANCH   1   2
BRANCH   1   8
ATOM      8  C   UNL     1     -29.774   0.198  24.722  1.00  0.00     0.214 C 
BRANCH   8   9
ATOM      9  C   UNL     1     -30.202   0.464  23.288  1.00  0.00     0.189 C 
ATOM     10  O   UNL     1     -29.382   0.857  22.471  1.00  0.00    -0.294 OA
BRANCH   9  11
ATOM     11  C   UNL     1     -31.610   0.203  22.830  1.00  0.00     0.234 C 
BRANCH  11  12
ATOM     12  O   UNL     1     -31.975  -1.103  23.175  1.00  0.00    -0.388 OA
ATOM     13  H   UNL     1     -32.681  -1.018  23.867  1.00  0.00     0.211 HD
ENDBRANCH  11  12
ENDBRANCH   9  11
ENDBRANCH   8   9
BRANCH   8  14
ATOM     14  O   UNL     1     -30.913  -0.000  25.522  1.00  0.00    -0.382 OA
ATOM     15  H   UNL     1     -31.175   0.877  25.906  1.00  0.00     0.211 HD
ENDBRANCH   8  14
ENDBRANCH   1   8
BRANCH   1  16
ATOM     16  O   UNL     1     -28.996  -1.969  23.884  1.00  0.00    -0.387 OA
ATOM     17  H   UNL     1     -28.115  -2.381  23.682  1.00  0.00     0.211 HD
ENDBRANCH   1  16
TORSDOF 10
ENDMDL
MODEL 5
REMARK VINA RESULT:    -5.574      1.146      4.646
REMARK INTER + INTRA:          -8.748
REMARK INTER:                  -8.001
REMARK INTRA:                  -0.747
REMARK UNBOUND:                -0.731
REMARK SMILES O=C(CO)[C@@H](O)[C@@H](O)[C@H](O)CO
REMARK SMILES IDX 7 1 9 2 11 3 12 4 10 6 5 8 2 9 1 10 3 11 4 12 6 14 8 16
REMARK H PARENT 12 5 10 7 4 13 6 15 8 17
REMARK Flexibility Score: inf
ROOT
ATOM      1  C   UNL     1     -28.961   1.160  32.163  1.00  0.00     0.181 C 
ENDROOT
BRANCH   1   2
ATOM      2  C   UNL     1     -28.505   2.547  32.695  1.00  0.00     0.171 C 
BRANCH   2   3
ATOM      3  C   UNL     1     -27.071   2.603  33.267  1.00  0.00     0.190 C 
BRANCH   3   4
ATOM      4  O   UNL     1     -26.112   2.624  32.244  1.00  0.00    -0.394 OA
ATOM      5  H   UNL     1     -25.592   3.462  32.361  1.00  0.00     0.210 HD
ENDBRANCH   3   4
ENDBRANCH   2   3
BRANCH   2   6
ATOM      6  O   UNL     1     -28.698   3.544  31.721  1.00  0.00    -0.388 OA
ATOM      7  H   UNL     1     -27.825   3.983  31.549  1.00  0.00     0.211 HD
ENDBRANCH   2   6
ENDBRANCH   1   2
BRANCH   1   8
ATOM      8  C   UNL     1     -30.480   1.034  31.832  1.00  0.00     0.214 C 
BRANCH   8   9
ATOM      9  C   UNL     1     -31.403   1.415  32.978  1.00  0.00     0.189 C 
ATOM     10  O   UNL     1     -31.107   1.114  34.125  1.00  0.00    -0.294 OA
BRANCH   9  11
ATOM     11  C   UNL     1     -32.658   2.210  32.743  1.00  0.00     0.234 C 
BRANCH  11  12
ATOM     12  O   UNL     1     -33.500   1.501  31.879  1.00  0.00    -0.388 OA
ATOM     13  H   UNL     1     -33.009   0.675  31.630  1.00  0.00     0.211 HD
ENDBRANCH  11  12
ENDBRANCH   9  11
ENDBRANCH   8   9
BRANCH   8  14
ATOM     14  O   UNL     1     -30.795   1.807  30.700  1.00  0.00    -0.382 OA
ATOM     15  H   UNL     1     -29.996   1.827  30.110  1.00  0.00     0.211 HD
ENDBRANCH   8  14
ENDBRANCH   1   8
BRANCH   1  16
ATOM     16  O   UNL     1     -28.168   0.799  31.059  1.00  0.00    -0.387 OA
ATOM     17  H   UNL     1     -28.678   1.031  30.239  1.00  0.00     0.211 HD
ENDBRANCH   1  16
TORSDOF 10
ENDMDL
MODEL 6
REMARK VINA RESULT:    -5.553      8.543      9.741
REMARK INTER + INTRA:          -8.719
REMARK INTER:                  -7.511
REMARK INTRA:                  -1.208
REMARK UNBOUND:                -0.731
REMARK SMILES O=C(CO)[C@@H](O)[C@@H](O)[C@H](O)CO
REMARK SMILES IDX 7 1 9 2 11 3 12 4 10 6 5 8 2 9 1 10 3 11 4 12 6 14 8 16
REMARK H PARENT 12 5 10 7 4 13 6 15 8 17
REMARK Flexibility Score: inf
ROOT
ATOM      1  C   UNL     1     -30.407  -0.007  24.002  1.00  0.00     0.181 C 
ENDROOT
BRANCH   1   2
ATOM      2  C   UNL     1     -29.785  -0.265  25.403  1.00  0.00     0.171 C 
BRANCH   2   3
ATOM      3  C   UNL     1     -30.706   0.034  26.606  1.00  0.00     0.190 C 
BRANCH   3   4
ATOM      4  O   UNL     1     -31.668  -0.971  26.778  1.00  0.00    -0.394 OA
ATOM      5  H   UNL     1     -31.173  -1.831  26.821  1.00  0.00     0.210 HD
ENDBRANCH   3   4
ENDBRANCH   2   3
BRANCH   2   6
ATOM      6  O   UNL     1     -29.258  -1.568  25.484  1.00  0.00    -0.388 OA
ATOM      7  H   UNL     1     -29.390  -1.898  26.410  1.00  0.00     0.211 HD
ENDBRANCH   2   6
ENDBRANCH   1   2
BRANCH   1   8
ATOM      8  C   UNL     1     -29.414  -0.090  22.801  1.00  0.00     0.214 C 
BRANCH   8   9
ATOM      9  C   UNL     1     -29.473  -1.400  22.032  1.00  0.00     0.189 C 
ATOM     10  O   UNL     1     -29.063  -2.429  22.548  1.00  0.00    -0.294 OA
BRANCH   9  11
ATOM     11  C   UNL     1     -30.080  -1.474  20.658  1.00  0.00     0.234 C 
BRANCH  11  12
ATOM     12  O   UNL     1     -31.401  -1.017  20.709  1.00  0.00    -0.388 OA
ATOM     13  H   UNL     1     -31.854  -1.559  21.406  1.00  0.00     0.211 HD
ENDBRANCH  11  12
ENDBRANCH   9  11
ENDBRANCH   8   9
BRANCH   8  14
ATOM     14  O   UNL     1     -29.631   0.983  21.918  1.00  0.00    -0.382 OA
ATOM     15  H   UNL     1     -30.581   0.957  21.631  1.00  0.00     0.211 HD
ENDBRANCH   8  14
ENDBRANCH   1   8
BRANCH   1  16
ATOM     16  O   UNL     1     -31.506  -0.864  23.813  1.00  0.00    -0.387 OA
ATOM     17  H   UNL     1     -32.325  -0.350  24.040  1.00  0.00     0.211 HD
ENDBRANCH   1  16
TORSDOF 10
ENDMDL
MODEL 7
REMARK VINA RESULT:    -5.526      8.100      8.997
REMARK INTER + INTRA:          -8.680
REMARK INTER:                  -7.357
REMARK INTRA:                  -1.322
REMARK UNBOUND:                -0.731
REMARK SMILES O=C(CO)[C@@H](O)[C@@H](O)[C@H](O)CO
REMARK SMILES IDX 7 1 9 2 11 3 12 4 10 6 5 8 2 9 1 10 3 11 4 12 6 14 8 16
REMARK H PARENT 12 5 10 7 4 13 6 15 8 17
REMARK Flexibility Score: inf
ROOT
ATOM      1  C   UNL     1     -29.402   0.703  23.879  1.00  0.00     0.181 C 
ENDROOT
BRANCH   1   2
ATOM      2  C   UNL     1     -30.893   0.272  23.808  1.00  0.00     0.171 C 
BRANCH   2   3
ATOM      3  C   UNL     1     -31.345  -0.349  22.468  1.00  0.00     0.190 C 
BRANCH   3   4
ATOM      4  O   UNL     1     -30.879  -1.664  22.329  1.00  0.00    -0.394 OA
ATOM      5  H   UNL     1     -30.866  -2.057  23.241  1.00  0.00     0.210 HD
ENDBRANCH   3   4
ENDBRANCH   2   3
BRANCH   2   6
ATOM      6  O   UNL     1     -31.222  -0.569  24.889  1.00  0.00    -0.388 OA
ATOM      7  H   UNL     1     -32.086  -0.262  25.268  1.00  0.00     0.211 HD
ENDBRANCH   2   6
ENDBRANCH   1   2
BRANCH   1   8
ATOM      8  C   UNL     1     -28.531  -0.059  24.925  1.00  0.00     0.214 C 
BRANCH   8   9
ATOM      9  C   UNL     1     -27.883  -1.327  24.392  1.00  0.00     0.189 C 
ATOM     10  O   UNL     1     -28.576  -2.293  24.109  1.00  0.00    -0.294 OA
BRANCH   9  11
ATOM     11  C   UNL     1     -26.401  -1.407  24.150  1.00  0.00     0.234 C 
BRANCH  11  12
ATOM     12  O   UNL     1     -25.976  -0.248  23.490  1.00  0.00    -0.388 OA
ATOM     13  H   UNL     1     -25.169  -0.505  22.972  1.00  0.00     0.211 HD
ENDBRANCH  11  12
ENDBRANCH   9  11
ENDBRANCH   8   9
BRANCH   8  14
ATOM     14  O   UNL     1     -27.538   0.793  25.442  1.00  0.00    -0.382 OA
ATOM     15  H   UNL     1     -27.184   0.382  26.274  1.00  0.00     0.211 HD
ENDBRANCH   8  14
ENDBRANCH   1   8
BRANCH   1  16
ATOM     16  O   UNL     1     -28.833   0.632  22.594  1.00  0.00    -0.387 OA
ATOM     17  H   UNL     1     -29.558   0.811  21.939  1.00  0.00     0.211 HD
ENDBRANCH   1  16
TORSDOF 10
ENDMDL
MODEL 8
REMARK VINA RESULT:    -5.491      9.016      9.830
REMARK INTER + INTRA:          -8.629
REMARK INTER:                  -7.303
REMARK INTRA:                  -1.326
REMARK UNBOUND:                -0.731
REMARK SMILES O=C(CO)[C@@H](O)[C@@H](O)[C@H](O)CO
REMARK SMILES IDX 7 1 9 2 11 3 12 4 10 6 5 8 2 9 1 10 3 11 4 12 6 14 8 16
REMARK H PARENT 12 5 10 7 4 13 6 15 8 17
REMARK Flexibility Score: inf
ROOT
ATOM      1  C   UNL     1     -28.944  -1.774  22.511  1.00  0.00     0.181 C 
ENDROOT
BRANCH   1   2
ATOM      2  C   UNL     1     -30.495  -1.855  22.480  1.00  0.00     0.171 C 
BRANCH   2   3
ATOM      3  C   UNL     1     -31.189  -1.878  23.859  1.00  0.00     0.190 C 
BRANCH   3   4
ATOM      4  O   UNL     1     -31.207  -0.604  24.445  1.00  0.00    -0.394 OA
ATOM      5  H   UNL     1     -30.534  -0.060  23.959  1.00  0.00     0.210 HD
ENDBRANCH   3   4
ENDBRANCH   2   3
BRANCH   2   6
ATOM      6  O   UNL     1     -31.033  -0.844  21.662  1.00  0.00    -0.388 OA
ATOM      7  H   UNL     1     -30.308  -0.496  21.081  1.00  0.00     0.211 HD
ENDBRANCH   2   6
ENDBRANCH   1   2
BRANCH   1   8
ATOM      8  C   UNL     1     -28.327  -0.478  21.898  1.00  0.00     0.214 C 
BRANCH   8   9
ATOM      9  C   UNL     1     -28.150   0.659  22.890  1.00  0.00     0.189 C 
ATOM     10  O   UNL     1     -29.132   1.198  23.381  1.00  0.00    -0.294 OA
BRANCH   9  11
ATOM     11  C   UNL     1     -26.785   1.108  23.332  1.00  0.00     0.234 C 
BRANCH  11  12
ATOM     12  O   UNL     1     -26.022  -0.009  23.688  1.00  0.00    -0.388 OA
ATOM     13  H   UNL     1     -25.315   0.323  24.300  1.00  0.00     0.211 HD
ENDBRANCH  11  12
ENDBRANCH   9  11
ENDBRANCH   8   9
BRANCH   8  14
ATOM     14  O   UNL     1     -27.091  -0.769  21.293  1.00  0.00    -0.382 OA
ATOM     15  H   UNL     1     -27.229  -1.519  20.658  1.00  0.00     0.211 HD
ENDBRANCH   8  14
ENDBRANCH   1   8
BRANCH   1  16
ATOM     16  O   UNL     1     -28.491  -1.979  23.827  1.00  0.00    -0.387 OA
ATOM     17  H   UNL     1     -29.140  -1.537  24.436  1.00  0.00     0.211 HD
ENDBRANCH   1  16
TORSDOF 10
ENDMDL
MODEL 9
REMARK VINA RESULT:    -5.428      9.046     10.237
REMARK INTER + INTRA:          -8.539
REMARK INTER:                  -7.205
REMARK INTRA:                  -1.334
REMARK UNBOUND:                -0.731
REMARK SMILES O=C(CO)[C@@H](O)[C@@H](O)[C@H](O)CO
REMARK SMILES IDX 7 1 9 2 11 3 12 4 10 6 5 8 2 9 1 10 3 11 4 12 6 14 8 16
REMARK H PARENT 12 5 10 7 4 13 6 15 8 17
REMARK Flexibility Score: inf
ROOT
ATOM      1  C   UNL     1     -29.502  -2.213  22.789  1.00  0.00     0.181 C 
ENDROOT
BRANCH   1   2
ATOM      2  C   UNL     1     -28.735  -2.180  21.438  1.00  0.00     0.171 C 
BRANCH   2   3
ATOM      3  C   UNL     1     -29.385  -1.332  20.323  1.00  0.00     0.190 C 
BRANCH   3   4
ATOM      4  O   UNL     1     -29.440   0.024  20.677  1.00  0.00    -0.394 OA
ATOM      5  H   UNL     1     -28.624   0.447  20.302  1.00  0.00     0.210 HD
ENDBRANCH   3   4
ENDBRANCH   2   3
BRANCH   2   6
ATOM      6  O   UNL     1     -27.391  -1.810  21.634  1.00  0.00    -0.388 OA
ATOM      7  H   UNL     1     -27.374  -0.884  21.991  1.00  0.00     0.211 HD
ENDBRANCH   2   6
ENDBRANCH   1   2
BRANCH   1   8
ATOM      8  C   UNL     1     -28.900  -1.329  23.925  1.00  0.00     0.214 C 
BRANCH   8   9
ATOM      9  C   UNL     1     -29.728  -0.099  24.263  1.00  0.00     0.189 C 
ATOM     10  O   UNL     1     -29.763   0.844  23.486  1.00  0.00    -0.294 OA
BRANCH   9  11
ATOM     11  C   UNL     1     -30.557  -0.034  25.515  1.00  0.00     0.234 C 
BRANCH  11  12
ATOM     12  O   UNL     1     -31.329  -1.196  25.621  1.00  0.00    -0.388 OA
ATOM     13  H   UNL     1     -31.431  -1.545  24.698  1.00  0.00     0.211 HD
ENDBRANCH  11  12
ENDBRANCH   9  11
ENDBRANCH   8   9
BRANCH   8  14
ATOM     14  O   UNL     1     -28.706  -2.097  25.086  1.00  0.00    -0.382 OA
ATOM     15  H   UNL     1     -28.079  -1.605  25.679  1.00  0.00     0.211 HD
ENDBRANCH   8  14
ENDBRANCH   1   8
BRANCH   1  16
ATOM     16  O   UNL     1     -30.856  -1.903  22.566  1.00  0.00    -0.387 OA
ATOM     17  H   UNL     1     -31.117  -2.320  21.703  1.00  0.00     0.211 HD
ENDBRANCH   1  16
TORSDOF 10
ENDMDL
