MODEL 1
REMARK VINA RESULT:    -4.904      0.000      0.000
REMARK INTER + INTRA:         -11.521
REMARK INTER:                  -9.490
REMARK INTRA:                  -2.031
REMARK UNBOUND:                -2.031
REMARK SMILES CCCCCCCCCCCCCCCCCC(=O)[O-]
REMARK SMILES IDX 10 1 11 2 12 3 13 4 14 5 15 6 16 7 17 8 18 9 19 10 20 11
REMARK SMILES IDX 9 12 8 13 7 14 6 15 5 16 4 17 3 18 2 19 1 20
REMARK H PARENT
REMARK Flexibility Score: inf
ROOT
ATOM      1  C   UNL     1       4.460 -38.101  24.647  1.00  0.00     0.000 C 
ENDROOT
BRANCH   1   2
ATOM      2  C   UNL     1       5.168 -38.616  23.382  1.00  0.00     0.000 C 
BRANCH   2   3
ATOM      3  C   UNL     1       4.297 -38.497  22.117  1.00  0.00     0.000 C 
BRANCH   3   4
ATOM      4  C   UNL     1       4.798 -37.487  21.066  1.00  0.00     0.000 C 
BRANCH   4   5
ATOM      5  C   UNL     1       4.216 -37.737  19.667  1.00  0.00     0.000 C 
BRANCH   5   6
ATOM      6  C   UNL     1       2.839 -37.076  19.517  1.00  0.00     0.000 C 
BRANCH   6   7
ATOM      7  C   UNL     1       2.171 -37.369  18.162  1.00  0.00     0.006 C 
BRANCH   7   8
ATOM      8  C   UNL     1       3.157 -37.439  16.982  1.00  0.00     0.053 C 
BRANCH   8   9
ATOM      9  C   UNL     1       2.682 -36.665  15.789  1.00  0.00     0.041 C 
ATOM     10  O   UNL     1       1.600 -36.022  15.841  1.00  0.00    -0.550 OA
ATOM     11  O   UNL     1       3.415 -36.681  14.607  1.00  0.00    -0.550 OA
ENDBRANCH   8   9
ENDBRANCH   7   8
ENDBRANCH   6   7
ENDBRANCH   5   6
ENDBRANCH   4   5
ENDBRANCH   3   4
ENDBRANCH   2   3
ENDBRANCH   1   2
BRANCH   1  12
ATOM     12  C   UNL     1       5.025 -36.758  25.147  1.00  0.00     0.000 C 
BRANCH  12  13
ATOM     13  C   UNL     1       5.940 -36.016  24.154  1.00  0.00    -0.000 C 
BRANCH  13  14
ATOM     14  C   UNL     1       6.125 -34.529  24.504  1.00  0.00    -0.000 C 
BRANCH  14  15
ATOM     15  C   UNL     1       5.840 -33.602  23.310  1.00  0.00    -0.000 C 
BRANCH  15  16
ATOM     16  C   UNL     1       4.581 -34.009  22.525  1.00  0.00    -0.000 C 
BRANCH  16  17
ATOM     17  C   UNL     1       4.756 -33.816  21.004  1.00  0.00    -0.000 C 
BRANCH  17  18
ATOM     18  C   UNL     1       6.041 -34.453  20.446  1.00  0.00    -0.000 C 
BRANCH  18  19
ATOM     19  C   UNL     1       6.097 -34.443  18.913  1.00  0.00    -0.003 C 
ATOM     20  C   UNL     1       4.710 -34.229  18.313  1.00  0.00     0.004 C 
ENDBRANCH  18  19
ENDBRANCH  17  18
ENDBRANCH  16  17
ENDBRANCH  15  16
ENDBRANCH  14  15
ENDBRANCH  13  14
ENDBRANCH  12  13
ENDBRANCH   1  12
TORSDOF 16
ENDMDL
MODEL 2
REMARK VINA RESULT:    -4.834      2.742      6.310
REMARK INTER + INTRA:         -11.386
REMARK INTER:                 -10.085
REMARK INTRA:                  -1.301
REMARK UNBOUND:                -2.031
REMARK SMILES CCCCCCCCCCCCCCCCCC(=O)[O-]
REMARK SMILES IDX 10 1 11 2 12 3 13 4 14 5 15 6 16 7 17 8 18 9 19 10 20 11
REMARK SMILES IDX 9 12 8 13 7 14 6 15 5 16 4 17 3 18 2 19 1 20
REMARK H PARENT
REMARK Flexibility Score: inf
ROOT
ATOM      1  C   UNL     1       5.024 -34.576  19.607  1.00  0.00     0.000 C 
ENDROOT
BRANCH   1   2
ATOM      2  C   UNL     1       4.436 -33.591  20.631  1.00  0.00     0.000 C 
BRANCH   2   3
ATOM      3  C   UNL     1       4.307 -34.196  22.041  1.00  0.00     0.000 C 
BRANCH   3   4
ATOM      4  C   UNL     1       5.379 -33.745  23.051  1.00  0.00     0.000 C 
BRANCH   4   5
ATOM      5  C   UNL     1       5.784 -34.853  24.034  1.00  0.00     0.000 C 
BRANCH   5   6
ATOM      6  C   UNL     1       5.550 -36.242  23.424  1.00  0.00     0.000 C 
BRANCH   6   7
ATOM      7  C   UNL     1       4.682 -37.153  24.311  1.00  0.00     0.006 C 
BRANCH   7   8
ATOM      8  C   UNL     1       4.979 -38.654  24.146  1.00  0.00     0.053 C 
BRANCH   8   9
ATOM      9  C   UNL     1       4.772 -39.130  22.739  1.00  0.00     0.041 C 
ATOM     10  O   UNL     1       3.696 -38.875  22.137  1.00  0.00    -0.550 OA
ATOM     11  O   UNL     1       5.750 -39.888  22.105  1.00  0.00    -0.550 OA
ENDBRANCH   8   9
ENDBRANCH   7   8
ENDBRANCH   6   7
ENDBRANCH   5   6
ENDBRANCH   4   5
ENDBRANCH   3   4
ENDBRANCH   2   3
ENDBRANCH   1   2
BRANCH   1  12
ATOM     12  C   UNL     1       5.401 -35.935  20.228  1.00  0.00     0.000 C 
BRANCH  12  13
ATOM     13  C   UNL     1       4.748 -37.165  19.571  1.00  0.00    -0.000 C 
BRANCH  13  14
ATOM     14  C   UNL     1       3.296 -36.912  19.131  1.00  0.00    -0.000 C 
BRANCH  14  15
ATOM     15  C   UNL     1       3.049 -37.291  17.662  1.00  0.00    -0.000 C 
BRANCH  15  16
ATOM     16  C   UNL     1       3.095 -36.077  16.716  1.00  0.00    -0.000 C 
BRANCH  16  17
ATOM     17  C   UNL     1       1.939 -36.092  15.694  1.00  0.00    -0.000 C 
BRANCH  17  18
ATOM     18  C   UNL     1       2.315 -36.738  14.349  1.00  0.00    -0.000 C 
BRANCH  18  19
ATOM     19  C   UNL     1       3.825 -36.954  14.190  1.00  0.00    -0.003 C 
ATOM     20  C   UNL     1       4.167 -38.440  14.143  1.00  0.00     0.004 C 
ENDBRANCH  18  19
ENDBRANCH  17  18
ENDBRANCH  16  17
ENDBRANCH  15  16
ENDBRANCH  14  15
ENDBRANCH  13  14
ENDBRANCH  12  13
ENDBRANCH   1  12
TORSDOF 16
ENDMDL
MODEL 3
REMARK VINA RESULT:    -4.665      2.652      5.949
REMARK INTER + INTRA:         -11.060
REMARK INTER:                  -9.748
REMARK INTRA:                  -1.313
REMARK UNBOUND:                -2.031
REMARK SMILES CCCCCCCCCCCCCCCCCC(=O)[O-]
REMARK SMILES IDX 10 1 11 2 12 3 13 4 14 5 15 6 16 7 17 8 18 9 19 10 20 11
REMARK SMILES IDX 9 12 8 13 7 14 6 15 5 16 4 17 3 18 2 19 1 20
REMARK H PARENT
REMARK Flexibility Score: inf
ROOT
ATOM      1  C   UNL     1       4.017 -34.277  21.734  1.00  0.00     0.000 C 
ENDROOT
BRANCH   1   2
ATOM      2  C   UNL     1       4.780 -33.479  22.804  1.00  0.00     0.000 C 
BRANCH   2   3
ATOM      3  C   UNL     1       6.114 -34.137  23.205  1.00  0.00     0.000 C 
BRANCH   3   4
ATOM      4  C   UNL     1       6.071 -35.669  23.360  1.00  0.00     0.000 C 
BRANCH   4   5
ATOM      5  C   UNL     1       6.007 -36.124  24.825  1.00  0.00     0.000 C 
BRANCH   5   6
ATOM      6  C   UNL     1       4.793 -37.033  25.066  1.00  0.00     0.000 C 
BRANCH   6   7
ATOM      7  C   UNL     1       4.316 -37.754  23.794  1.00  0.00     0.006 C 
BRANCH   7   8
ATOM      8  C   UNL     1       4.936 -39.149  23.596  1.00  0.00     0.053 C 
BRANCH   8   9
ATOM      9  C   UNL     1       5.343 -39.401  22.176  1.00  0.00     0.041 C 
ATOM     10  O   UNL     1       5.699 -40.554  21.814  1.00  0.00    -0.550 OA
ATOM     11  O   UNL     1       5.366 -38.357  21.258  1.00  0.00    -0.550 OA
ENDBRANCH   8   9
ENDBRANCH   7   8
ENDBRANCH   6   7
ENDBRANCH   5   6
ENDBRANCH   4   5
ENDBRANCH   3   4
ENDBRANCH   2   3
ENDBRANCH   1   2
BRANCH   1  12
ATOM     12  C   UNL     1       4.541 -34.022  20.307  1.00  0.00     0.000 C 
BRANCH  12  13
ATOM     13  C   UNL     1       5.452 -35.123  19.733  1.00  0.00    -0.000 C 
BRANCH  13  14
ATOM     14  C   UNL     1       4.737 -36.021  18.708  1.00  0.00    -0.000 C 
BRANCH  14  15
ATOM     15  C   UNL     1       3.498 -36.717  19.296  1.00  0.00    -0.000 C 
BRANCH  15  16
ATOM     16  C   UNL     1       2.398 -36.963  18.249  1.00  0.00    -0.000 C 
BRANCH  16  17
ATOM     17  C   UNL     1       2.963 -37.021  16.814  1.00  0.00    -0.000 C 
BRANCH  17  18
ATOM     18  C   UNL     1       1.977 -36.524  15.743  1.00  0.00    -0.000 C 
BRANCH  18  19
ATOM     19  C   UNL     1       2.574 -36.532  14.330  1.00  0.00    -0.003 C 
ATOM     20  C   UNL     1       3.832 -37.394  14.269  1.00  0.00     0.004 C 
ENDBRANCH  18  19
ENDBRANCH  17  18
ENDBRANCH  16  17
ENDBRANCH  15  16
ENDBRANCH  14  15
ENDBRANCH  13  14
ENDBRANCH  12  13
ENDBRANCH   1  12
TORSDOF 16
ENDMDL
MODEL 4
REMARK VINA RESULT:    -4.621      1.115      2.069
REMARK INTER + INTRA:         -10.975
REMARK INTER:                  -9.433
REMARK INTRA:                  -1.542
REMARK UNBOUND:                -2.031
REMARK SMILES CCCCCCCCCCCCCCCCCC(=O)[O-]
REMARK SMILES IDX 10 1 11 2 12 3 13 4 14 5 15 6 16 7 17 8 18 9 19 10 20 11
REMARK SMILES IDX 9 12 8 13 7 14 6 15 5 16 4 17 3 18 2 19 1 20
REMARK H PARENT
REMARK Flexibility Score: inf
ROOT
ATOM      1  C   UNL     1       4.271 -39.033  22.520  1.00  0.00     0.000 C 
ENDROOT
BRANCH   1   2
ATOM      2  C   UNL     1       5.344 -38.883  21.429  1.00  0.00     0.000 C 
BRANCH   2   3
ATOM      3  C   UNL     1       5.232 -37.557  20.654  1.00  0.00     0.000 C 
BRANCH   3   4
ATOM      4  C   UNL     1       4.560 -37.657  19.272  1.00  0.00     0.000 C 
BRANCH   4   5
ATOM      5  C   UNL     1       3.190 -36.966  19.217  1.00  0.00     0.000 C 
BRANCH   5   6
ATOM      6  C   UNL     1       2.437 -37.337  17.931  1.00  0.00     0.000 C 
BRANCH   6   7
ATOM      7  C   UNL     1       2.675 -36.340  16.783  1.00  0.00     0.006 C 
BRANCH   7   8
ATOM      8  C   UNL     1       2.308 -36.889  15.393  1.00  0.00     0.053 C 
BRANCH   8   9
ATOM      9  C   UNL     1       3.505 -37.368  14.628  1.00  0.00     0.041 C 
ATOM     10  O   UNL     1       3.856 -38.576  14.692  1.00  0.00    -0.550 OA
ATOM     11  O   UNL     1       4.258 -36.474  13.875  1.00  0.00    -0.550 OA
ENDBRANCH   8   9
ENDBRANCH   7   8
ENDBRANCH   6   7
ENDBRANCH   5   6
ENDBRANCH   4   5
ENDBRANCH   3   4
ENDBRANCH   2   3
ENDBRANCH   1   2
BRANCH   1  12
ATOM     12  C   UNL     1       4.820 -38.796  23.940  1.00  0.00     0.000 C 
BRANCH  12  13
ATOM     13  C   UNL     1       4.735 -37.344  24.447  1.00  0.00    -0.000 C 
BRANCH  13  14
ATOM     14  C   UNL     1       5.972 -36.506  24.081  1.00  0.00    -0.000 C 
BRANCH  14  15
ATOM     15  C   UNL     1       6.068 -35.208  24.899  1.00  0.00    -0.000 C 
BRANCH  15  16
ATOM     16  C   UNL     1       6.124 -33.948  24.016  1.00  0.00    -0.000 C 
BRANCH  16  17
ATOM     17  C   UNL     1       5.827 -34.262  22.535  1.00  0.00    -0.000 C 
BRANCH  17  18
ATOM     18  C   UNL     1       4.553 -33.582  22.004  1.00  0.00    -0.000 C 
BRANCH  18  19
ATOM     19  C   UNL     1       4.255 -33.930  20.540  1.00  0.00    -0.003 C 
ATOM     20  C   UNL     1       5.543 -34.161  19.756  1.00  0.00     0.004 C 
ENDBRANCH  18  19
ENDBRANCH  17  18
ENDBRANCH  16  17
ENDBRANCH  15  16
ENDBRANCH  14  15
ENDBRANCH  13  14
ENDBRANCH  12  13
ENDBRANCH   1  12
TORSDOF 16
ENDMDL
MODEL 5
REMARK VINA RESULT:    -4.490      0.998      3.761
REMARK INTER + INTRA:         -10.722
REMARK INTER:                  -9.712
REMARK INTRA:                  -1.010
REMARK UNBOUND:                -2.031
REMARK SMILES CCCCCCCCCCCCCCCCCC(=O)[O-]
REMARK SMILES IDX 10 1 11 2 12 3 13 4 14 5 15 6 16 7 17 8 18 9 19 10 20 11
REMARK SMILES IDX 9 12 8 13 7 14 6 15 5 16 4 17 3 18 2 19 1 20
REMARK H PARENT
REMARK Flexibility Score: inf
ROOT
ATOM      1  C   UNL     1       4.426 -33.617  22.275  1.00  0.00     0.000 C 
ENDROOT
BRANCH   1   2
ATOM      2  C   UNL     1       4.188 -33.567  20.757  1.00  0.00     0.000 C 
BRANCH   2   3
ATOM      3  C   UNL     1       5.220 -34.388  19.960  1.00  0.00     0.000 C 
BRANCH   3   4
ATOM      4  C   UNL     1       5.212 -34.154  18.438  1.00  0.00     0.000 C 
BRANCH   4   5
ATOM      5  C   UNL     1       4.118 -34.951  17.712  1.00  0.00     0.000 C 
BRANCH   5   6
ATOM      6  C   UNL     1       3.644 -36.137  18.565  1.00  0.00     0.000 C 
BRANCH   6   7
ATOM      7  C   UNL     1       2.983 -37.252  17.736  1.00  0.00     0.006 C 
BRANCH   7   8
ATOM      8  C   UNL     1       2.209 -36.743  16.508  1.00  0.00     0.053 C 
BRANCH   8   9
ATOM      9  C   UNL     1       2.946 -36.980  15.224  1.00  0.00     0.041 C 
ATOM     10  O   UNL     1       2.896 -36.128  14.298  1.00  0.00    -0.550 OA
ATOM     11  O   UNL     1       3.658 -38.159  15.034  1.00  0.00    -0.550 OA
ENDBRANCH   8   9
ENDBRANCH   7   8
ENDBRANCH   6   7
ENDBRANCH   5   6
ENDBRANCH   4   5
ENDBRANCH   3   4
ENDBRANCH   2   3
ENDBRANCH   1   2
BRANCH   1  12
ATOM     12  C   UNL     1       5.820 -34.156  22.647  1.00  0.00     0.000 C 
BRANCH  12  13
ATOM     13  C   UNL     1       6.125 -34.213  24.156  1.00  0.00    -0.000 C 
BRANCH  13  14
ATOM     14  C   UNL     1       6.056 -35.639  24.729  1.00  0.00    -0.000 C 
BRANCH  14  15
ATOM     15  C   UNL     1       5.068 -36.536  23.966  1.00  0.00    -0.000 C 
BRANCH  15  16
ATOM     16  C   UNL     1       4.576 -37.731  24.802  1.00  0.00    -0.000 C 
BRANCH  16  17
ATOM     17  C   UNL     1       4.571 -39.044  23.993  1.00  0.00    -0.000 C 
BRANCH  17  18
ATOM     18  C   UNL     1       4.245 -38.848  22.502  1.00  0.00    -0.000 C 
BRANCH  18  19
ATOM     19  C   UNL     1       5.442 -39.131  21.585  1.00  0.00    -0.003 C 
ATOM     20  C   UNL     1       5.504 -38.129  20.437  1.00  0.00     0.004 C 
ENDBRANCH  18  19
ENDBRANCH  17  18
ENDBRANCH  16  17
ENDBRANCH  15  16
ENDBRANCH  14  15
ENDBRANCH  13  14
ENDBRANCH  12  13
ENDBRANCH   1  12
TORSDOF 16
ENDMDL
MODEL 6
REMARK VINA RESULT:    -4.474      2.029      5.341
REMARK INTER + INTRA:         -10.690
REMARK INTER:                  -9.522
REMARK INTRA:                  -1.169
REMARK UNBOUND:                -2.031
REMARK SMILES CCCCCCCCCCCCCCCCCC(=O)[O-]
REMARK SMILES IDX 10 1 11 2 12 3 13 4 14 5 15 6 16 7 17 8 18 9 19 10 20 11
REMARK SMILES IDX 9 12 8 13 7 14 6 15 5 16 4 17 3 18 2 19 1 20
REMARK H PARENT
REMARK Flexibility Score: inf
ROOT
ATOM      1  C   UNL     1       4.557 -39.295  22.494  1.00  0.00     0.000 C 
ENDROOT
BRANCH   1   2
ATOM      2  C   UNL     1       4.960 -38.999  23.948  1.00  0.00     0.000 C 
BRANCH   2   3
ATOM      3  C   UNL     1       4.584 -37.575  24.398  1.00  0.00     0.000 C 
BRANCH   3   4
ATOM      4  C   UNL     1       5.670 -36.828  25.193  1.00  0.00     0.000 C 
BRANCH   4   5
ATOM      5  C   UNL     1       6.017 -35.456  24.596  1.00  0.00     0.000 C 
BRANCH   5   6
ATOM      6  C   UNL     1       5.215 -35.195  23.313  1.00  0.00     0.000 C 
BRANCH   6   7
ATOM      7  C   UNL     1       5.848 -34.120  22.412  1.00  0.00     0.006 C 
BRANCH   7   8
ATOM      8  C   UNL     1       6.124 -34.593  20.974  1.00  0.00     0.053 C 
BRANCH   8   9
ATOM      9  C   UNL     1       5.115 -34.074  19.994  1.00  0.00     0.041 C 
ATOM     10  O   UNL     1       5.311 -34.201  18.757  1.00  0.00    -0.550 OA
ATOM     11  O   UNL     1       3.975 -33.418  20.445  1.00  0.00    -0.550 OA
ENDBRANCH   8   9
ENDBRANCH   7   8
ENDBRANCH   6   7
ENDBRANCH   5   6
ENDBRANCH   4   5
ENDBRANCH   3   4
ENDBRANCH   2   3
ENDBRANCH   1   2
BRANCH   1  12
ATOM     12  C   UNL     1       5.288 -38.401  21.474  1.00  0.00     0.000 C 
BRANCH  12  13
ATOM     13  C   UNL     1       4.407 -37.365  20.753  1.00  0.00    -0.000 C 
BRANCH  13  14
ATOM     14  C   UNL     1       4.234 -37.663  19.253  1.00  0.00    -0.000 C 
BRANCH  14  15
ATOM     15  C   UNL     1       3.119 -36.823  18.609  1.00  0.00    -0.000 C 
BRANCH  15  16
ATOM     16  C   UNL     1       2.689 -37.357  17.231  1.00  0.00    -0.000 C 
BRANCH  16  17
ATOM     17  C   UNL     1       2.349 -36.218  16.246  1.00  0.00    -0.000 C 
BRANCH  17  18
ATOM     18  C   UNL     1       2.431 -36.637  14.768  1.00  0.00    -0.000 C 
BRANCH  18  19
ATOM     19  C   UNL     1       3.866 -36.922  14.305  1.00  0.00    -0.003 C 
ATOM     20  C   UNL     1       4.118 -38.422  14.187  1.00  0.00     0.004 C 
ENDBRANCH  18  19
ENDBRANCH  17  18
ENDBRANCH  16  17
ENDBRANCH  15  16
ENDBRANCH  14  15
ENDBRANCH  13  14
ENDBRANCH  12  13
ENDBRANCH   1  12
TORSDOF 16
ENDMDL
MODEL 7
REMARK VINA RESULT:    -4.020      0.842      3.692
REMARK INTER + INTRA:          -9.812
REMARK INTER:                  -7.776
REMARK INTRA:                  -2.035
REMARK UNBOUND:                -2.031
REMARK SMILES CCCCCCCCCCCCCCCCCC(=O)[O-]
REMARK SMILES IDX 10 1 11 2 12 3 13 4 14 5 15 6 16 7 17 8 18 9 19 10 20 11
REMARK SMILES IDX 9 12 8 13 7 14 6 15 5 16 4 17 3 18 2 19 1 20
REMARK H PARENT
REMARK Flexibility Score: inf
ROOT
ATOM      1  C   UNL     1       5.954 -34.689  24.075  1.00  0.00     0.000 C 
ENDROOT
BRANCH   1   2
ATOM      2  C   UNL     1       5.910 -34.389  22.567  1.00  0.00     0.000 C 
BRANCH   2   3
ATOM      3  C   UNL     1       4.600 -33.709  22.128  1.00  0.00     0.000 C 
BRANCH   3   4
ATOM      4  C   UNL     1       4.216 -33.912  20.651  1.00  0.00     0.000 C 
BRANCH   4   5
ATOM      5  C   UNL     1       5.367 -34.474  19.803  1.00  0.00     0.000 C 
BRANCH   5   6
ATOM      6  C   UNL     1       5.152 -34.170  18.313  1.00  0.00     0.000 C 
BRANCH   6   7
ATOM      7  C   UNL     1       3.804 -34.685  17.779  1.00  0.00     0.006 C 
BRANCH   7   8
ATOM      8  C   UNL     1       3.918 -35.947  16.906  1.00  0.00     0.053 C 
BRANCH   8   9
ATOM      9  C   UNL     1       2.871 -36.002  15.835  1.00  0.00     0.041 C 
ATOM     10  O   UNL     1       1.659 -35.815  16.124  1.00  0.00    -0.550 OA
ATOM     11  O   UNL     1       3.225 -36.298  14.524  1.00  0.00    -0.550 OA
ENDBRANCH   8   9
ENDBRANCH   7   8
ENDBRANCH   6   7
ENDBRANCH   5   6
ENDBRANCH   4   5
ENDBRANCH   3   4
ENDBRANCH   2   3
ENDBRANCH   1   2
BRANCH   1  12
ATOM     12  C   UNL     1       6.068 -36.194  24.385  1.00  0.00     0.000 C 
BRANCH  12  13
ATOM     13  C   UNL     1       4.779 -37.010  24.175  1.00  0.00    -0.000 C 
BRANCH  13  14
ATOM     14  C   UNL     1       5.041 -38.405  23.580  1.00  0.00    -0.000 C 
BRANCH  14  15
ATOM     15  C   UNL     1       4.391 -38.589  22.199  1.00  0.00    -0.000 C 
BRANCH  15  16
ATOM     16  C   UNL     1       5.117 -37.809  21.088  1.00  0.00    -0.000 C 
BRANCH  16  17
ATOM     17  C   UNL     1       4.300 -37.764  19.780  1.00  0.00    -0.000 C 
BRANCH  17  18
ATOM     18  C   UNL     1       2.792 -37.554  20.002  1.00  0.00    -0.000 C 
BRANCH  18  19
ATOM     19  C   UNL     1       1.942 -38.003  18.807  1.00  0.00    -0.003 C 
ATOM     20  C   UNL     1       0.525 -37.445  18.898  1.00  0.00     0.004 C 
ENDBRANCH  18  19
ENDBRANCH  17  18
ENDBRANCH  16  17
ENDBRANCH  15  16
ENDBRANCH  14  15
ENDBRANCH  13  14
ENDBRANCH  12  13
ENDBRANCH   1  12
TORSDOF 16
ENDMDL
MODEL 8
REMARK VINA RESULT:    -3.985      3.495      6.384
REMARK INTER + INTRA:          -9.743
REMARK INTER:                  -7.685
REMARK INTRA:                  -2.058
REMARK UNBOUND:                -2.031
REMARK SMILES CCCCCCCCCCCCCCCCCC(=O)[O-]
REMARK SMILES IDX 10 1 11 2 12 3 13 4 14 5 15 6 16 7 17 8 18 9 19 10 20 11
REMARK SMILES IDX 9 12 8 13 7 14 6 15 5 16 4 17 3 18 2 19 1 20
REMARK H PARENT
REMARK Flexibility Score: inf
ROOT
ATOM      1  C   UNL     1       2.587 -37.608  17.378  1.00  0.00     0.000 C 
ENDROOT
BRANCH   1   2
ATOM      2  C   UNL     1       1.880 -37.626  18.744  1.00  0.00     0.000 C 
BRANCH   2   3
ATOM      3  C   UNL     1       2.853 -37.449  19.925  1.00  0.00     0.000 C 
BRANCH   3   4
ATOM      4  C   UNL     1       4.333 -37.728  19.606  1.00  0.00     0.000 C 
BRANCH   4   5
ATOM      5  C   UNL     1       5.085 -38.393  20.769  1.00  0.00     0.000 C 
BRANCH   5   6
ATOM      6  C   UNL     1       4.199 -38.478  22.019  1.00  0.00     0.000 C 
BRANCH   6   7
ATOM      7  C   UNL     1       4.994 -38.371  23.332  1.00  0.00     0.006 C 
BRANCH   7   8
ATOM      8  C   UNL     1       5.557 -36.965  23.609  1.00  0.00     0.053 C 
BRANCH   8   9
ATOM      9  C   UNL     1       5.347 -36.531  25.029  1.00  0.00     0.041 C 
ATOM     10  O   UNL     1       4.462 -37.082  25.736  1.00  0.00    -0.550 OA
ATOM     11  O   UNL     1       6.102 -35.493  25.562  1.00  0.00    -0.550 OA
ENDBRANCH   8   9
ENDBRANCH   7   8
ENDBRANCH   6   7
ENDBRANCH   5   6
ENDBRANCH   4   5
ENDBRANCH   3   4
ENDBRANCH   2   3
ENDBRANCH   1   2
BRANCH   1  12
ATOM     12  C   UNL     1       2.173 -36.408  16.504  1.00  0.00     0.000 C 
BRANCH  12  13
ATOM     13  C   UNL     1       3.158 -35.224  16.499  1.00  0.00    -0.000 C 
BRANCH  13  14
ATOM     14  C   UNL     1       4.362 -35.439  17.432  1.00  0.00    -0.000 C 
BRANCH  14  15
ATOM     15  C   UNL     1       4.601 -34.245  18.371  1.00  0.00    -0.000 C 
BRANCH  15  16
ATOM     16  C   UNL     1       5.961 -34.313  19.088  1.00  0.00    -0.000 C 
BRANCH  16  17
ATOM     17  C   UNL     1       5.815 -34.683  20.579  1.00  0.00    -0.000 C 
BRANCH  17  18
ATOM     18  C   UNL     1       4.403 -34.435  21.139  1.00  0.00    -0.000 C 
BRANCH  18  19
ATOM     19  C   UNL     1       4.411 -33.633  22.447  1.00  0.00    -0.003 C 
ATOM     20  C   UNL     1       5.837 -33.357  22.915  1.00  0.00     0.004 C 
ENDBRANCH  18  19
ENDBRANCH  17  18
ENDBRANCH  16  17
ENDBRANCH  15  16
ENDBRANCH  14  15
ENDBRANCH  13  14
ENDBRANCH  12  13
ENDBRANCH   1  12
TORSDOF 16
ENDMDL
MODEL 9
REMARK VINA RESULT:    -3.930      1.148      3.713
REMARK INTER + INTRA:          -9.638
REMARK INTER:                  -7.981
REMARK INTRA:                  -1.657
REMARK UNBOUND:                -2.031
REMARK SMILES CCCCCCCCCCCCCCCCCC(=O)[O-]
REMARK SMILES IDX 10 1 11 2 12 3 13 4 14 5 15 6 16 7 17 8 18 9 19 10 20 11
REMARK SMILES IDX 9 12 8 13 7 14 6 15 5 16 4 17 3 18 2 19 1 20
REMARK H PARENT
REMARK Flexibility Score: inf
ROOT
ATOM      1  C   UNL     1       4.844 -34.926  23.002  1.00  0.00     0.000 C 
ENDROOT
BRANCH   1   2
ATOM      2  C   UNL     1       4.757 -33.508  22.412  1.00  0.00     0.000 C 
BRANCH   2   3
ATOM      3  C   UNL     1       4.218 -33.490  20.969  1.00  0.00     0.000 C 
BRANCH   3   4
ATOM      4  C   UNL     1       4.386 -34.807  20.188  1.00  0.00     0.000 C 
BRANCH   4   5
ATOM      5  C   UNL     1       5.152 -34.630  18.869  1.00  0.00     0.000 C 
BRANCH   5   6
ATOM      6  C   UNL     1       4.220 -34.808  17.663  1.00  0.00     0.000 C 
BRANCH   6   7
ATOM      7  C   UNL     1       3.462 -36.148  17.676  1.00  0.00     0.006 C 
BRANCH   7   8
ATOM      8  C   UNL     1       2.251 -36.191  16.728  1.00  0.00     0.053 C 
BRANCH   8   9
ATOM      9  C   UNL     1       2.594 -36.760  15.384  1.00  0.00     0.041 C 
ATOM     10  O   UNL     1       1.966 -36.385  14.358  1.00  0.00    -0.550 OA
ATOM     11  O   UNL     1       3.580 -37.733  15.266  1.00  0.00    -0.550 OA
ENDBRANCH   8   9
ENDBRANCH   7   8
ENDBRANCH   6   7
ENDBRANCH   5   6
ENDBRANCH   4   5
ENDBRANCH   3   4
ENDBRANCH   2   3
ENDBRANCH   1   2
BRANCH   1  12
ATOM     12  C   UNL     1       5.988 -35.082  24.023  1.00  0.00     0.000 C 
BRANCH  12  13
ATOM     13  C   UNL     1       6.117 -36.478  24.661  1.00  0.00    -0.000 C 
BRANCH  13  14
ATOM     14  C   UNL     1       4.827 -36.941  25.360  1.00  0.00    -0.000 C 
BRANCH  14  15
ATOM     15  C   UNL     1       4.096 -38.044  24.578  1.00  0.00    -0.000 C 
BRANCH  15  16
ATOM     16  C   UNL     1       5.020 -39.210  24.182  1.00  0.00    -0.000 C 
BRANCH  16  17
ATOM     17  C   UNL     1       4.981 -39.495  22.666  1.00  0.00    -0.000 C 
BRANCH  17  18
ATOM     18  C   UNL     1       4.307 -38.380  21.847  1.00  0.00    -0.000 C 
BRANCH  18  19
ATOM     19  C   UNL     1       5.090 -38.012  20.580  1.00  0.00    -0.003 C 
ATOM     20  C   UNL     1       6.107 -39.094  20.228  1.00  0.00     0.004 C 
ENDBRANCH  18  19
ENDBRANCH  17  18
ENDBRANCH  16  17
ENDBRANCH  15  16
ENDBRANCH  14  15
ENDBRANCH  13  14
ENDBRANCH  12  13
ENDBRANCH   1  12
TORSDOF 16
ENDMDL
