MODEL 1
REMARK VINA RESULT:    -3.423      0.000      0.000
REMARK INTER + INTRA:          -4.648
REMARK INTER:                  -4.823
REMARK INTRA:                   0.175
REMARK UNBOUND:                 0.175
REMARK SMILES CC1=CCC(=C(C)C)C(=O)CC(C)=CCC1
REMARK SMILES IDX 12 1 14 2 13 3 15 4 16 5 2 6 1 7 3 8 11 10 9 11 10 12 5 13
REMARK SMILES IDX 6 14 7 15 8 16 4 17
REMARK H PARENT
REMARK Flexibility Score: 60.00
ROOT
ATOM      1  C   UNL     1    -122.941 -99.516   4.709  1.00  0.00    -0.070 C 
ATOM      2  C   UNL     1    -124.278 -99.304   4.603  1.00  0.00    -0.027 C 
ATOM      3  C   UNL     1    -122.135 -98.610   5.608  1.00  0.00     0.039 C 
ENDROOT
BRANCH   2   4
ATOM      4  C   UNL     1    -125.252-100.161   3.831  1.00  0.00     0.032 C 
BRANCH   4   5
ATOM      5  C   UNL     1    -125.348 -99.785   2.346  1.00  0.00     0.034 C 
BRANCH   5   6
ATOM      6  C   UNL     1    -125.210-101.023   1.481  1.00  0.00    -0.077 C 
ATOM      7  C   UNL     1    -126.264-102.095   1.596  1.00  0.00     0.039 C 
ATOM      8  C   UNL     1    -124.151-101.251   0.670  1.00  0.00    -0.023 CG0
ATOM      9  G   UNL     1    -123.011-100.293   0.415  1.00  0.00     0.000 G0
ENDBRANCH   5   6
ENDBRANCH   4   5
ENDBRANCH   2   4
BRANCH   1  10
ATOM     10  C   UNL     1    -122.161-100.519   3.869  1.00  0.00     0.111 C 
BRANCH  10  11
ATOM     11  C   UNL     1    -121.606 -99.947   2.589  1.00  0.00     0.163 C 
ATOM     12  O   UNL     1    -121.024 -98.829   2.654  1.00  0.00    -0.294 OA
BRANCH  11  13
ATOM     13  C   UNL     1    -121.770-100.622   1.260  1.00  0.00    -0.002 C 
ATOM     14  C   UNL     1    -120.862-101.552   0.830  1.00  0.00    -0.069 C 
ATOM     15  C   UNL     1    -119.586-101.833   1.596  1.00  0.00     0.039 C 
ATOM     16  C   UNL     1    -121.056-102.317  -0.461  1.00  0.00     0.039 C 
BRANCH  13  17
ATOM     17  C   UNL     1    -123.001-100.292   0.417  1.00  0.00     0.066 CG0
ATOM     18  G   UNL     1    -124.145-101.240   0.687  1.00  0.00     0.000 G0
ENDBRANCH  13  17
ENDBRANCH  11  13
ENDBRANCH  10  11
ENDBRANCH   1  10
TORSDOF 0
ENDMDL
MODEL 2
REMARK VINA RESULT:    -3.149      1.942      4.290
REMARK INTER + INTRA:          -4.263
REMARK INTER:                  -4.597
REMARK INTRA:                   0.333
REMARK UNBOUND:                 0.175
REMARK SMILES CC1=CCC(=C(C)C)C(=O)CC(C)=CCC1
REMARK SMILES IDX 12 1 14 2 13 3 15 4 16 5 2 6 1 7 3 8 11 10 9 11 10 12 5 13
REMARK SMILES IDX 6 14 7 15 8 16 4 17
REMARK H PARENT
REMARK Flexibility Score: 60.00
ROOT
ATOM      1  C   UNL     1    -125.293 -99.580   4.985  1.00  0.00    -0.070 C 
ATOM      2  C   UNL     1    -124.089-100.072   5.377  1.00  0.00    -0.027 C 
ATOM      3  C   UNL     1    -126.547-100.203   5.548  1.00  0.00     0.039 C 
ENDROOT
BRANCH   2   4
ATOM      4  C   UNL     1    -122.738 -99.518   4.994  1.00  0.00     0.032 C 
BRANCH   4   5
ATOM      5  C   UNL     1    -121.925-100.461   4.098  1.00  0.00     0.034 C 
BRANCH   5   6
ATOM      6  C   UNL     1    -121.990-100.000   2.655  1.00  0.00    -0.077 C 
ATOM      7  C   UNL     1    -120.937 -99.040   2.164  1.00  0.00     0.039 C 
ATOM      8  C   UNL     1    -122.987-100.344   1.807  1.00  0.00    -0.023 CG0
ATOM      9  G   UNL     1    -124.115-101.301   2.112  1.00  0.00     0.000 G0
ENDBRANCH   5   6
ENDBRANCH   4   5
ENDBRANCH   2   4
BRANCH   1  10
ATOM     10  C   UNL     1    -125.478 -98.527   3.900  1.00  0.00     0.111 C 
BRANCH  10  11
ATOM     11  C   UNL     1    -125.472 -99.085   2.499  1.00  0.00     0.163 C 
ATOM     12  O   UNL     1    -125.509 -98.262   1.542  1.00  0.00    -0.294 OA
BRANCH  11  13
ATOM     13  C   UNL     1    -125.482-100.557   2.211  1.00  0.00    -0.002 C 
ATOM     14  C   UNL     1    -126.661-101.222   2.003  1.00  0.00    -0.069 C 
ATOM     15  C   UNL     1    -128.001-100.546   2.198  1.00  0.00     0.039 C 
ATOM     16  C   UNL     1    -126.691-102.684   1.615  1.00  0.00     0.039 C 
BRANCH  13  17
ATOM     17  C   UNL     1    -124.146-101.291   2.098  1.00  0.00     0.066 CG0
ATOM     18  G   UNL     1    -123.002-100.348   1.809  1.00  0.00     0.000 G0
ENDBRANCH  13  17
ENDBRANCH  11  13
ENDBRANCH  10  11
ENDBRANCH   1  10
TORSDOF 0
ENDMDL
MODEL 3
REMARK VINA RESULT:    -3.049      1.796      5.099
REMARK INTER + INTRA:          -4.122
REMARK INTER:                  -4.294
REMARK INTRA:                   0.172
REMARK UNBOUND:                 0.175
REMARK SMILES CC1=CCC(=C(C)C)C(=O)CC(C)=CCC1
REMARK SMILES IDX 12 1 14 2 13 3 15 4 16 5 2 6 1 7 3 8 11 10 9 11 10 12 5 13
REMARK SMILES IDX 6 14 7 15 8 16 4 17
REMARK H PARENT
REMARK Flexibility Score: 60.00
ROOT
ATOM      1  C   UNL     1    -123.117-102.281   0.384  1.00  0.00    -0.070 C 
ATOM      2  C   UNL     1    -121.959-102.980   0.502  1.00  0.00    -0.027 C 
ATOM      3  C   UNL     1    -124.398-102.917   0.867  1.00  0.00     0.039 C 
ENDROOT
BRANCH   2   4
ATOM      4  C   UNL     1    -120.579-102.472   0.162  1.00  0.00     0.032 C 
BRANCH   4   5
ATOM      5  C   UNL     1    -119.800-101.962   1.382  1.00  0.00     0.034 C 
BRANCH   5   6
ATOM      6  C   UNL     1    -119.727-100.448   1.364  1.00  0.00    -0.077 C 
ATOM      7  C   UNL     1    -118.575 -99.798   0.642  1.00  0.00     0.039 C 
ATOM      8  C   UNL     1    -120.597 -99.652   2.029  1.00  0.00    -0.023 CG0
ATOM      9  G   UNL     1    -121.814-100.118   2.792  1.00  0.00     0.000 G0
ENDBRANCH   5   6
ENDBRANCH   4   5
ENDBRANCH   2   4
BRANCH   1  10
ATOM     10  C   UNL     1    -123.245-100.945  -0.337  1.00  0.00     0.111 C 
BRANCH  10  11
ATOM     11  C   UNL     1    -123.108 -99.746   0.567  1.00  0.00     0.163 C 
ATOM     12  O   UNL     1    -122.926 -98.622   0.022  1.00  0.00    -0.294 OA
BRANCH  11  13
ATOM     13  C   UNL     1    -123.125 -99.851   2.063  1.00  0.00    -0.002 C 
ATOM     14  C   UNL     1    -124.301 -99.759   2.759  1.00  0.00    -0.069 C 
ATOM     15  C   UNL     1    -125.604 -99.403   2.075  1.00  0.00     0.039 C 
ATOM     16  C   UNL     1    -124.357 -99.958   4.257  1.00  0.00     0.039 C 
BRANCH  13  17
ATOM     17  C   UNL     1    -121.810-100.118   2.794  1.00  0.00     0.066 CG0
ATOM     18  G   UNL     1    -120.613 -99.651   2.000  1.00  0.00     0.000 G0
ENDBRANCH  13  17
ENDBRANCH  11  13
ENDBRANCH  10  11
ENDBRANCH   1  10
TORSDOF 0
ENDMDL
MODEL 4
REMARK VINA RESULT:    -3.032      3.067      5.670
REMARK INTER + INTRA:          -4.098
REMARK INTER:                  -4.256
REMARK INTRA:                   0.159
REMARK UNBOUND:                 0.175
REMARK SMILES CC1=CCC(=C(C)C)C(=O)CC(C)=CCC1
REMARK SMILES IDX 12 1 14 2 13 3 15 4 16 5 2 6 1 7 3 8 11 10 9 11 10 12 5 13
REMARK SMILES IDX 6 14 7 15 8 16 4 17
REMARK H PARENT
REMARK Flexibility Score: 60.00
ROOT
ATOM      1  C   UNL     1    -118.868 -97.613   0.890  1.00  0.00    -0.070 C 
ATOM      2  C   UNL     1    -117.552 -97.951   0.889  1.00  0.00    -0.027 C 
ATOM      3  C   UNL     1    -119.282 -96.322   1.552  1.00  0.00     0.039 C 
ENDROOT
BRANCH   2   4
ATOM      4  C   UNL     1    -116.945 -99.148   0.198  1.00  0.00     0.032 C 
BRANCH   4   5
ATOM      5  C   UNL     1    -116.981-100.425   1.049  1.00  0.00     0.034 C 
BRANCH   5   6
ATOM      6  C   UNL     1    -117.466-101.596   0.217  1.00  0.00    -0.077 C 
ATOM      7  C   UNL     1    -116.631-102.031  -0.960  1.00  0.00     0.039 C 
ATOM      8  C   UNL     1    -118.648-102.222   0.429  1.00  0.00    -0.023 CG0
ATOM      9  G   UNL     1    -119.607-101.938   1.561  1.00  0.00     0.000 G0
ENDBRANCH   5   6
ENDBRANCH   4   5
ENDBRANCH   2   4
BRANCH   1  10
ATOM     10  C   UNL     1    -119.987 -98.518   0.391  1.00  0.00     0.111 C 
BRANCH  10  11
ATOM     11  C   UNL     1    -120.496 -99.490   1.426  1.00  0.00     0.163 C 
ATOM     12  O   UNL     1    -120.697 -99.049   2.591  1.00  0.00    -0.294 OA
BRANCH  11  13
ATOM     13  C   UNL     1    -120.712-100.945   1.136  1.00  0.00    -0.002 C 
ATOM     14  C   UNL     1    -121.834-101.369   0.473  1.00  0.00    -0.069 C 
ATOM     15  C   UNL     1    -122.965-100.421   0.137  1.00  0.00     0.039 C 
ATOM     16  C   UNL     1    -122.028-102.818   0.083  1.00  0.00     0.039 C 
BRANCH  13  17
ATOM     17  C   UNL     1    -119.630-101.943   1.545  1.00  0.00     0.066 CG0
ATOM     18  G   UNL     1    -118.651-102.210   0.426  1.00  0.00     0.000 G0
ENDBRANCH  13  17
ENDBRANCH  11  13
ENDBRANCH  10  11
ENDBRANCH   1  10
TORSDOF 0
ENDMDL
MODEL 5
REMARK VINA RESULT:    -2.963      3.481      6.301
REMARK INTER + INTRA:          -4.000
REMARK INTER:                  -4.285
REMARK INTRA:                   0.285
REMARK UNBOUND:                 0.175
REMARK SMILES CC1=CCC(=C(C)C)C(=O)CC(C)=CCC1
REMARK SMILES IDX 12 1 14 2 13 3 15 4 16 5 2 6 1 7 3 8 11 10 9 11 10 12 5 13
REMARK SMILES IDX 6 14 7 15 8 16 4 17
REMARK H PARENT
REMARK Flexibility Score: 60.00
ROOT
ATOM      1  C   UNL     1    -117.715-101.080   0.535  1.00  0.00    -0.070 C 
ATOM      2  C   UNL     1    -116.667-100.355   1.005  1.00  0.00    -0.027 C 
ATOM      3  C   UNL     1    -118.023-102.408   1.183  1.00  0.00     0.039 C 
ENDROOT
BRANCH   2   4
ATOM      4  C   UNL     1    -116.270 -98.972   0.547  1.00  0.00     0.032 C 
BRANCH   4   5
ATOM      5  C   UNL     1    -116.872 -97.851   1.403  1.00  0.00     0.034 C 
BRANCH   5   6
ATOM      6  C   UNL     1    -118.005 -97.172   0.658  1.00  0.00    -0.077 C 
ATOM      7  C   UNL     1    -117.662 -96.069  -0.310  1.00  0.00     0.039 C 
ATOM      8  C   UNL     1    -119.312 -97.449   0.875  1.00  0.00    -0.023 CG0
ATOM      9  G   UNL     1    -119.846 -98.525   1.791  1.00  0.00     0.000 G0
ENDBRANCH   5   6
ENDBRANCH   4   5
ENDBRANCH   2   4
BRANCH   1  10
ATOM     10  C   UNL     1    -118.524-100.716  -0.703  1.00  0.00     0.111 C 
BRANCH  10  11
ATOM     11  C   UNL     1    -119.795 -99.961  -0.404  1.00  0.00     0.163 C 
ATOM     12  O   UNL     1    -120.411 -99.446  -1.377  1.00  0.00    -0.294 OA
BRANCH  11  13
ATOM     13  C   UNL     1    -120.309 -99.758   0.991  1.00  0.00    -0.002 C 
ATOM     14  C   UNL     1    -121.133-100.682   1.575  1.00  0.00    -0.069 C 
ATOM     15  C   UNL     1    -121.679-101.864   0.801  1.00  0.00     0.039 C 
ATOM     16  C   UNL     1    -121.586-100.549   3.013  1.00  0.00     0.039 C 
BRANCH  13  17
ATOM     17  C   UNL     1    -119.851 -98.525   1.769  1.00  0.00     0.066 CG0
ATOM     18  G   UNL     1    -119.296 -97.453   0.861  1.00  0.00     0.000 G0
ENDBRANCH  13  17
ENDBRANCH  11  13
ENDBRANCH  10  11
ENDBRANCH   1  10
TORSDOF 0
ENDMDL
MODEL 6
REMARK VINA RESULT:    -2.926      1.590      2.159
REMARK INTER + INTRA:          -3.949
REMARK INTER:                  -4.095
REMARK INTRA:                   0.147
REMARK UNBOUND:                 0.175
REMARK SMILES CC1=CCC(=C(C)C)C(=O)CC(C)=CCC1
REMARK SMILES IDX 12 1 14 2 13 3 15 4 16 5 2 6 1 7 3 8 11 10 9 11 10 12 5 13
REMARK SMILES IDX 6 14 7 15 8 16 4 17
REMARK H PARENT
REMARK Flexibility Score: 60.00
ROOT
ATOM      1  C   UNL     1    -123.201 -99.978   3.700  1.00  0.00    -0.070 C 
ATOM      2  C   UNL     1    -124.454-100.115   3.192  1.00  0.00    -0.027 C 
ATOM      3  C   UNL     1    -123.031 -99.912   5.198  1.00  0.00     0.039 C 
ENDROOT
BRANCH   2   4
ATOM      4  C   UNL     1    -124.804-100.291   1.735  1.00  0.00     0.032 C 
BRANCH   4   5
ATOM      5  C   UNL     1    -124.407-101.663   1.174  1.00  0.00     0.034 C 
BRANCH   5   6
ATOM      6  C   UNL     1    -123.741-101.505  -0.179  1.00  0.00    -0.077 C 
ATOM      7  C   UNL     1    -124.559-100.947  -1.315  1.00  0.00     0.039 C 
ATOM      8  C   UNL     1    -122.477-101.912  -0.440  1.00  0.00    -0.023 CG0
ATOM      9  G   UNL     1    -121.506-102.478   0.569  1.00  0.00     0.000 G0
ENDBRANCH   5   6
ENDBRANCH   4   5
ENDBRANCH   2   4
BRANCH   1  10
ATOM     10  C   UNL     1    -121.954 -99.740   2.857  1.00  0.00     0.111 C 
BRANCH  10  11
ATOM     11  C   UNL     1    -121.119-100.976   2.637  1.00  0.00     0.163 C 
ATOM     12  O   UNL     1    -120.749-101.620   3.657  1.00  0.00    -0.294 OA
BRANCH  11  13
ATOM     13  C   UNL     1    -120.674-101.423   1.276  1.00  0.00    -0.002 C 
ATOM     14  C   UNL     1    -119.537-100.912   0.708  1.00  0.00    -0.069 C 
ATOM     15  C   UNL     1    -118.766 -99.779   1.351  1.00  0.00     0.039 C 
ATOM     16  C   UNL     1    -119.014-101.417  -0.619  1.00  0.00     0.039 C 
BRANCH  13  17
ATOM     17  C   UNL     1    -121.483-102.501   0.557  1.00  0.00     0.066 CG0
ATOM     18  G   UNL     1    -122.477-101.912  -0.416  1.00  0.00     0.000 G0
ENDBRANCH  13  17
ENDBRANCH  11  13
ENDBRANCH  10  11
ENDBRANCH   1  10
TORSDOF 0
ENDMDL
MODEL 7
REMARK VINA RESULT:    -2.744      1.868      3.881
REMARK INTER + INTRA:          -3.693
REMARK INTER:                  -3.877
REMARK INTRA:                   0.185
REMARK UNBOUND:                 0.175
REMARK SMILES CC1=CCC(=C(C)C)C(=O)CC(C)=CCC1
REMARK SMILES IDX 12 1 14 2 13 3 15 4 16 5 2 6 1 7 3 8 11 10 9 11 10 12 5 13
REMARK SMILES IDX 6 14 7 15 8 16 4 17
REMARK H PARENT
REMARK Flexibility Score: 60.00
ROOT
ATOM      1  C   UNL     1    -124.322 -99.601   4.088  1.00  0.00    -0.070 C 
ATOM      2  C   UNL     1    -123.072 -99.803   4.580  1.00  0.00    -0.027 C 
ATOM      3  C   UNL     1    -125.497 -99.732   5.026  1.00  0.00     0.039 C 
ENDROOT
BRANCH   2   4
ATOM      4  C   UNL     1    -121.781 -99.624   3.817  1.00  0.00     0.032 C 
BRANCH   4   5
ATOM      5  C   UNL     1    -121.303-100.906   3.121  1.00  0.00     0.034 C 
BRANCH   5   6
ATOM      6  C   UNL     1    -120.987-100.626   1.665  1.00  0.00    -0.077 C 
ATOM      7  C   UNL     1    -119.780 -99.782   1.346  1.00  0.00     0.039 C 
ATOM      8  C   UNL     1    -121.775-101.029   0.641  1.00  0.00    -0.023 CG0
ATOM      9  G   UNL     1    -123.010-101.890   0.763  1.00  0.00     0.000 G0
ENDBRANCH   5   6
ENDBRANCH   4   5
ENDBRANCH   2   4
BRANCH   1  10
ATOM     10  C   UNL     1    -124.642 -99.390   2.614  1.00  0.00     0.111 C 
BRANCH  10  11
ATOM     11  C   UNL     1    -125.007-100.656   1.879  1.00  0.00     0.163 C 
ATOM     12  O   UNL     1    -125.904-101.386   2.385  1.00  0.00    -0.294 OA
BRANCH  11  13
ATOM     13  C   UNL     1    -124.314-101.094   0.623  1.00  0.00    -0.002 C 
ATOM     14  C   UNL     1    -124.800-100.737  -0.606  1.00  0.00    -0.069 C 
ATOM     15  C   UNL     1    -126.124-100.019  -0.761  1.00  0.00     0.039 C 
ATOM     16  C   UNL     1    -124.067-101.084  -1.883  1.00  0.00     0.039 C 
BRANCH  13  17
ATOM     17  C   UNL     1    -123.022-101.902   0.743  1.00  0.00     0.066 CG0
ATOM     18  G   UNL     1    -121.795-101.027   0.650  1.00  0.00     0.000 G0
ENDBRANCH  13  17
ENDBRANCH  11  13
ENDBRANCH  10  11
ENDBRANCH   1  10
TORSDOF 0
ENDMDL
MODEL 8
REMARK VINA RESULT:    -2.679      3.721      5.797
REMARK INTER + INTRA:          -3.601
REMARK INTER:                  -3.904
REMARK INTRA:                   0.303
REMARK UNBOUND:                 0.175
REMARK SMILES CC1=CCC(=C(C)C)C(=O)CC(C)=CCC1
REMARK SMILES IDX 12 1 14 2 13 3 15 4 16 5 2 6 1 7 3 8 11 10 9 11 10 12 5 13
REMARK SMILES IDX 6 14 7 15 8 16 4 17
REMARK H PARENT
REMARK Flexibility Score: 60.00
ROOT
ATOM      1  C   UNL     1    -120.998-100.039   2.236  1.00  0.00    -0.070 C 
ATOM      2  C   UNL     1    -120.725-101.370   2.267  1.00  0.00    -0.027 C 
ATOM      3  C   UNL     1    -121.807 -99.442   3.362  1.00  0.00     0.039 C 
ENDROOT
BRANCH   2   4
ATOM      4  C   UNL     1    -119.857-102.119   1.284  1.00  0.00     0.032 C 
BRANCH   4   5
ATOM      5  C   UNL     1    -118.356-101.882   1.494  1.00  0.00     0.034 C 
BRANCH   5   6
ATOM      6  C   UNL     1    -117.716-101.393   0.210  1.00  0.00    -0.077 C 
ATOM      7  C   UNL     1    -117.564-102.369  -0.929  1.00  0.00     0.039 C 
ATOM      8  C   UNL     1    -117.203-100.149   0.059  1.00  0.00    -0.023 CG0
ATOM      9  G   UNL     1    -117.273 -99.036   1.078  1.00  0.00     0.000 G0
ENDBRANCH   5   6
ENDBRANCH   4   5
ENDBRANCH   2   4
BRANCH   1  10
ATOM     10  C   UNL     1    -120.667 -99.122   1.066  1.00  0.00     0.111 C 
BRANCH  10  11
ATOM     11  C   UNL     1    -119.654 -98.054   1.393  1.00  0.00     0.163 C 
ATOM     12  O   UNL     1    -119.986 -97.170   2.231  1.00  0.00    -0.294 OA
BRANCH  11  13
ATOM     13  C   UNL     1    -118.313 -97.976   0.726  1.00  0.00    -0.002 C 
ATOM     14  C   UNL     1    -118.018 -96.954  -0.138  1.00  0.00    -0.069 C 
ATOM     15  C   UNL     1    -119.067 -95.952  -0.571  1.00  0.00     0.039 C 
ATOM     16  C   UNL     1    -116.642 -96.799  -0.747  1.00  0.00     0.039 C 
BRANCH  13  17
ATOM     17  C   UNL     1    -117.259 -99.028   1.071  1.00  0.00     0.066 CG0
ATOM     18  G   UNL     1    -117.224-100.150   0.061  1.00  0.00     0.000 G0
ENDBRANCH  13  17
ENDBRANCH  11  13
ENDBRANCH  10  11
ENDBRANCH   1  10
TORSDOF 0
ENDMDL
MODEL 9
REMARK VINA RESULT:    -2.598     10.631     12.825
REMARK INTER + INTRA:          -3.487
REMARK INTER:                  -3.700
REMARK INTRA:                   0.213
REMARK UNBOUND:                 0.175
REMARK SMILES CC1=CCC(=C(C)C)C(=O)CC(C)=CCC1
REMARK SMILES IDX 12 1 14 2 13 3 15 4 16 5 2 6 1 7 3 8 11 10 9 11 10 12 5 13
REMARK SMILES IDX 6 14 7 15 8 16 4 17
REMARK H PARENT
REMARK Flexibility Score: 60.00
ROOT
ATOM      1  C   UNL     1    -116.081 -94.190   4.345  1.00  0.00    -0.070 C 
ATOM      2  C   UNL     1    -116.031 -95.321   5.096  1.00  0.00    -0.027 C 
ATOM      3  C   UNL     1    -116.875 -94.211   3.061  1.00  0.00     0.039 C 
ENDROOT
BRANCH   2   4
ATOM      4  C   UNL     1    -115.369 -95.458   6.446  1.00  0.00     0.032 C 
BRANCH   4   5
ATOM      5  C   UNL     1    -113.846 -95.623   6.364  1.00  0.00     0.034 C 
BRANCH   5   6
ATOM      6  C   UNL     1    -113.158 -94.598   7.243  1.00  0.00    -0.077 C 
ATOM      7  C   UNL     1    -113.484 -94.586   8.714  1.00  0.00     0.039 C 
ATOM      8  C   UNL     1    -112.326 -93.644   6.764  1.00  0.00    -0.023 CG0
ATOM      9  G   UNL     1    -111.872 -93.507   5.330  1.00  0.00     0.000 G0
ENDBRANCH   5   6
ENDBRANCH   4   5
ENDBRANCH   2   4
BRANCH   1  10
ATOM     10  C   UNL     1    -115.271 -92.932   4.631  1.00  0.00     0.111 C 
BRANCH  10  11
ATOM     11  C   UNL     1    -113.955 -92.871   3.896  1.00  0.00     0.163 C 
ATOM     12  O   UNL     1    -113.943 -93.240   2.689  1.00  0.00    -0.294 OA
BRANCH  11  13
ATOM     13  C   UNL     1    -112.676 -92.450   4.556  1.00  0.00    -0.002 C 
ATOM     14  C   UNL     1    -112.263 -91.144   4.515  1.00  0.00    -0.069 C 
ATOM     15  C   UNL     1    -112.990 -90.106   3.687  1.00  0.00     0.039 C 
ATOM     16  C   UNL     1    -111.029 -90.676   5.254  1.00  0.00     0.039 C 
BRANCH  13  17
ATOM     17  C   UNL     1    -111.868 -93.495   5.324  1.00  0.00     0.066 CG0
ATOM     18  G   UNL     1    -112.334 -93.635   6.754  1.00  0.00     0.000 G0
ENDBRANCH  13  17
ENDBRANCH  11  13
ENDBRANCH  10  11
ENDBRANCH   1  10
TORSDOF 0
ENDMDL
