MODEL 1
REMARK VINA RESULT:    -7.953      0.000      0.000
REMARK INTER + INTRA:          -9.425
REMARK INTER:                  -9.115
REMARK INTRA:                  -0.310
REMARK UNBOUND:                -0.310
REMARK SMILES O=C1C[C@@H](c2ccc(O)cc2)Oc2cc(O)cc(O)c21
REMARK SMILES IDX 3 1 4 2 12 3 13 4 14 5 15 6 17 7 18 8 20 9 2 10 1 11 5 12
REMARK SMILES IDX 6 13 11 14 7 15 10 16 8 17 9 18 19 20 16 22
REMARK H PARENT 9 19 19 21 16 23
REMARK Flexibility Score: inf
ROOT
ATOM      1  C   UNL     1     -45.402  -9.942  12.728  1.00  0.00     0.131 C 
ATOM      2  C   UNL     1     -45.011 -11.369  12.319  1.00  0.00     0.211 C 
ATOM      3  O   UNL     1     -44.113 -11.343  11.205  1.00  0.00    -0.484 OA
ATOM      4  C   UNL     1     -43.092 -10.391  11.077  1.00  0.00     0.138 A 
ATOM      5  C   UNL     1     -42.094 -10.591  10.120  1.00  0.00     0.093 A 
ATOM      6  C   UNL     1     -41.056  -9.670   9.981  1.00  0.00     0.123 A 
ATOM      7  C   UNL     1     -41.031  -8.524  10.783  1.00  0.00     0.093 A 
ATOM      8  C   UNL     1     -42.043  -8.281  11.719  1.00  0.00     0.133 A 
ATOM      9  C   UNL     1     -43.075  -9.241  11.898  1.00  0.00     0.102 A 
ATOM     10  C   UNL     1     -44.157  -9.124  12.905  1.00  0.00     0.174 C 
ATOM     11  O   UNL     1     -44.036  -8.399  13.928  1.00  0.00    -0.294 OA
ENDROOT
BRANCH   2  12
ATOM     12  C   UNL     1     -46.239 -12.181  11.980  1.00  0.00    -0.007 A 
ATOM     13  C   UNL     1     -46.568 -12.460  10.641  1.00  0.00     0.011 A 
ATOM     14  C   UNL     1     -47.102 -12.613  13.002  1.00  0.00     0.011 A 
ATOM     15  C   UNL     1     -47.724 -13.185  10.334  1.00  0.00     0.046 A 
ATOM     16  C   UNL     1     -48.258 -13.335  12.691  1.00  0.00     0.046 A 
ATOM     17  C   UNL     1     -48.572 -13.625  11.359  1.00  0.00     0.115 A 
BRANCH  17  18
ATOM     18  O   UNL     1     -49.729 -14.342  11.066  1.00  0.00    -0.508 OA
ATOM     19  H   UNL     1     -49.687 -15.299  10.731  1.00  0.00     0.293 HD
ENDBRANCH  17  18
ENDBRANCH   2  12
BRANCH   8  20
ATOM     20  O   UNL     1     -41.997  -7.071  12.416  1.00  0.00    -0.507 OA
ATOM     21  H   UNL     1     -41.163  -6.512  12.525  1.00  0.00     0.293 HD
ENDBRANCH   8  20
BRANCH   6  22
ATOM     22  O   UNL     1     -40.054  -9.899   9.039  1.00  0.00    -0.508 OA
ATOM     23  H   UNL     1     -39.156  -9.436   9.097  1.00  0.00     0.293 HD
ENDBRANCH   6  22
TORSDOF 4
ENDMDL
MODEL 2
REMARK VINA RESULT:    -7.553      1.699      6.815
REMARK INTER + INTRA:          -8.967
REMARK INTER:                  -8.667
REMARK INTRA:                  -0.300
REMARK UNBOUND:                -0.310
REMARK SMILES O=C1C[C@@H](c2ccc(O)cc2)Oc2cc(O)cc(O)c21
REMARK SMILES IDX 3 1 4 2 12 3 13 4 14 5 15 6 17 7 18 8 20 9 2 10 1 11 5 12
REMARK SMILES IDX 6 13 11 14 7 15 10 16 8 17 9 18 19 20 16 22
REMARK H PARENT 9 19 19 21 16 23
REMARK Flexibility Score: inf
ROOT
ATOM      1  C   UNL     1     -44.944 -11.308  13.869  1.00  0.00     0.131 C 
ATOM      2  C   UNL     1     -45.168 -10.683  12.484  1.00  0.00     0.211 C 
ATOM      3  O   UNL     1     -45.899 -11.580  11.642  1.00  0.00    -0.484 OA
ATOM      4  C   UNL     1     -46.958 -12.369  12.113  1.00  0.00     0.138 A 
ATOM      5  C   UNL     1     -47.793 -13.004  11.190  1.00  0.00     0.093 A 
ATOM      6  C   UNL     1     -48.865 -13.781  11.628  1.00  0.00     0.123 A 
ATOM      7  C   UNL     1     -49.087 -13.951  12.999  1.00  0.00     0.093 A 
ATOM      8  C   UNL     1     -48.239 -13.358  13.941  1.00  0.00     0.133 A 
ATOM      9  C   UNL     1     -47.175 -12.526  13.500  1.00  0.00     0.102 A 
ATOM     10  C   UNL     1     -46.258 -11.793  14.406  1.00  0.00     0.174 C 
ATOM     11  O   UNL     1     -46.576 -11.523  15.595  1.00  0.00    -0.294 OA
ENDROOT
BRANCH   2  12
ATOM     12  C   UNL     1     -43.849 -10.323  11.844  1.00  0.00    -0.007 A 
ATOM     13  C   UNL     1     -43.361  -9.005  11.893  1.00  0.00     0.011 A 
ATOM     14  C   UNL     1     -43.123 -11.296  11.134  1.00  0.00     0.011 A 
ATOM     15  C   UNL     1     -42.154  -8.674  11.270  1.00  0.00     0.046 A 
ATOM     16  C   UNL     1     -41.918 -10.961  10.509  1.00  0.00     0.046 A 
ATOM     17  C   UNL     1     -41.429  -9.652  10.576  1.00  0.00     0.115 A 
BRANCH  17  18
ATOM     18  O   UNL     1     -40.228  -9.333   9.946  1.00  0.00    -0.508 OA
ATOM     19  H   UNL     1     -39.743 -10.006   9.363  1.00  0.00     0.293 HD
ENDBRANCH  17  18
ENDBRANCH   2  12
BRANCH   8  20
ATOM     20  O   UNL     1     -48.471 -13.650  15.288  1.00  0.00    -0.507 OA
ATOM     21  H   UNL     1     -48.530 -14.586  15.662  1.00  0.00     0.293 HD
ENDBRANCH   8  20
BRANCH   6  22
ATOM     22  O   UNL     1     -49.703 -14.386  10.693  1.00  0.00    -0.508 OA
ATOM     23  H   UNL     1     -50.701 -14.214  10.685  1.00  0.00     0.293 HD
ENDBRANCH   6  22
TORSDOF 4
ENDMDL
MODEL 3
REMARK VINA RESULT:    -7.351      2.041      7.543
REMARK INTER + INTRA:          -8.735
REMARK INTER:                  -8.416
REMARK INTRA:                  -0.320
REMARK UNBOUND:                -0.310
REMARK SMILES O=C1C[C@@H](c2ccc(O)cc2)Oc2cc(O)cc(O)c21
REMARK SMILES IDX 3 1 4 2 12 3 13 4 14 5 15 6 17 7 18 8 20 9 2 10 1 11 5 12
REMARK SMILES IDX 6 13 11 14 7 15 10 16 8 17 9 18 19 20 16 22
REMARK H PARENT 9 19 19 21 16 23
REMARK Flexibility Score: inf
ROOT
ATOM      1  C   UNL     1     -45.993 -12.470  11.461  1.00  0.00     0.131 C 
ATOM      2  C   UNL     1     -45.336 -11.946  12.746  1.00  0.00     0.211 C 
ATOM      3  O   UNL     1     -46.331 -11.641  13.729  1.00  0.00    -0.484 OA
ATOM      4  C   UNL     1     -47.469 -12.436  13.928  1.00  0.00     0.138 A 
ATOM      5  C   UNL     1     -48.243 -12.236  15.073  1.00  0.00     0.093 A 
ATOM      6  C   UNL     1     -49.371 -13.023  15.308  1.00  0.00     0.123 A 
ATOM      7  C   UNL     1     -49.746 -13.996  14.375  1.00  0.00     0.093 A 
ATOM      8  C   UNL     1     -49.009 -14.184  13.200  1.00  0.00     0.133 A 
ATOM      9  C   UNL     1     -47.832 -13.419  12.982  1.00  0.00     0.102 A 
ATOM     10  C   UNL     1     -46.937 -13.582  11.811  1.00  0.00     0.174 C 
ATOM     11  O   UNL     1     -46.912 -14.646  11.137  1.00  0.00    -0.294 OA
ENDROOT
BRANCH   2  12
ATOM     12  C   UNL     1     -44.498 -10.724  12.456  1.00  0.00    -0.007 A 
ATOM     13  C   UNL     1     -44.713  -9.522  13.154  1.00  0.00     0.011 A 
ATOM     14  C   UNL     1     -43.531 -10.760  11.435  1.00  0.00     0.011 A 
ATOM     15  C   UNL     1     -43.954  -8.386  12.856  1.00  0.00     0.046 A 
ATOM     16  C   UNL     1     -42.776  -9.621  11.139  1.00  0.00     0.046 A 
ATOM     17  C   UNL     1     -42.983  -8.433  11.848  1.00  0.00     0.115 A 
BRANCH  17  18
ATOM     18  O   UNL     1     -42.224  -7.307  11.538  1.00  0.00    -0.508 OA
ATOM     19  H   UNL     1     -42.437  -6.400  11.939  1.00  0.00     0.293 HD
ENDBRANCH  17  18
ENDBRANCH   2  12
BRANCH   8  20
ATOM     20  O   UNL     1     -49.500 -15.111  12.276  1.00  0.00    -0.507 OA
ATOM     21  H   UNL     1     -48.926 -15.590  11.597  1.00  0.00     0.293 HD
ENDBRANCH   8  20
BRANCH   6  22
ATOM     22  O   UNL     1     -50.117 -12.827  16.468  1.00  0.00    -0.508 OA
ATOM     23  H   UNL     1     -51.028 -13.253  16.592  1.00  0.00     0.293 HD
ENDBRANCH   6  22
TORSDOF 4
ENDMDL
MODEL 4
REMARK VINA RESULT:    -7.114      2.108      6.895
REMARK INTER + INTRA:          -8.463
REMARK INTER:                  -8.152
REMARK INTRA:                  -0.311
REMARK UNBOUND:                -0.310
REMARK SMILES O=C1C[C@@H](c2ccc(O)cc2)Oc2cc(O)cc(O)c21
REMARK SMILES IDX 3 1 4 2 12 3 13 4 14 5 15 6 17 7 18 8 20 9 2 10 1 11 5 12
REMARK SMILES IDX 6 13 11 14 7 15 10 16 8 17 9 18 19 20 16 22
REMARK H PARENT 9 19 19 21 16 23
REMARK Flexibility Score: inf
ROOT
ATOM      1  C   UNL     1     -45.425 -10.544  14.669  1.00  0.00     0.131 C 
ATOM      2  C   UNL     1     -45.495  -9.640  13.430  1.00  0.00     0.211 C 
ATOM      3  O   UNL     1     -45.693 -10.424  12.248  1.00  0.00    -0.484 OA
ATOM      4  C   UNL     1     -46.538 -11.541  12.213  1.00  0.00     0.138 A 
ATOM      5  C   UNL     1     -46.893 -12.084  10.976  1.00  0.00     0.093 A 
ATOM      6  C   UNL     1     -47.747 -13.185  10.908  1.00  0.00     0.123 A 
ATOM      7  C   UNL     1     -48.224 -13.769  12.086  1.00  0.00     0.093 A 
ATOM      8  C   UNL     1     -47.848 -13.268  13.338  1.00  0.00     0.133 A 
ATOM      9  C   UNL     1     -47.019 -12.116  13.410  1.00  0.00     0.102 A 
ATOM     10  C   UNL     1     -46.614 -11.458  14.677  1.00  0.00     0.174 C 
ATOM     11  O   UNL     1     -47.271 -11.606  15.741  1.00  0.00    -0.294 OA
ENDROOT
BRANCH   2  12
ATOM     12  C   UNL     1     -44.238  -8.813  13.303  1.00  0.00    -0.007 A 
ATOM     13  C   UNL     1     -43.540  -8.385  14.447  1.00  0.00     0.011 A 
ATOM     14  C   UNL     1     -43.785  -8.410  12.034  1.00  0.00     0.011 A 
ATOM     15  C   UNL     1     -42.394  -7.593  14.321  1.00  0.00     0.046 A 
ATOM     16  C   UNL     1     -42.641  -7.616  11.912  1.00  0.00     0.046 A 
ATOM     17  C   UNL     1     -41.941  -7.207  13.053  1.00  0.00     0.115 A 
BRANCH  17  18
ATOM     18  O   UNL     1     -40.805  -6.413  12.915  1.00  0.00    -0.508 OA
ATOM     19  H   UNL     1     -40.832  -5.417  13.099  1.00  0.00     0.293 HD
ENDBRANCH  17  18
ENDBRANCH   2  12
BRANCH   8  20
ATOM     20  O   UNL     1     -48.291 -13.961  14.467  1.00  0.00    -0.507 OA
ATOM     21  H   UNL     1     -48.276 -13.585  15.404  1.00  0.00     0.293 HD
ENDBRANCH   8  20
BRANCH   6  22
ATOM     22  O   UNL     1     -48.112 -13.697   9.664  1.00  0.00    -0.508 OA
ATOM     23  H   UNL     1     -48.484 -13.102   8.934  1.00  0.00     0.293 HD
ENDBRANCH   6  22
TORSDOF 4
ENDMDL
MODEL 5
REMARK VINA RESULT:    -7.006      3.721      6.362
REMARK INTER + INTRA:          -8.340
REMARK INTER:                  -8.025
REMARK INTRA:                  -0.315
REMARK UNBOUND:                -0.310
REMARK SMILES O=C1C[C@@H](c2ccc(O)cc2)Oc2cc(O)cc(O)c21
REMARK SMILES IDX 3 1 4 2 12 3 13 4 14 5 15 6 17 7 18 8 20 9 2 10 1 11 5 12
REMARK SMILES IDX 6 13 11 14 7 15 10 16 8 17 9 18 19 20 16 22
REMARK H PARENT 9 19 19 21 16 23
REMARK Flexibility Score: inf
ROOT
ATOM      1  C   UNL     1     -49.161 -14.332  12.900  1.00  0.00     0.131 C 
ATOM      2  C   UNL     1     -49.790 -13.182  13.699  1.00  0.00     0.211 C 
ATOM      3  O   UNL     1     -48.848 -12.648  14.635  1.00  0.00    -0.484 OA
ATOM      4  C   UNL     1     -47.489 -12.483  14.332  1.00  0.00     0.138 A 
ATOM      5  C   UNL     1     -46.694 -11.710  15.182  1.00  0.00     0.093 A 
ATOM      6  C   UNL     1     -45.343 -11.513  14.897  1.00  0.00     0.123 A 
ATOM      7  C   UNL     1     -44.773 -12.119  13.772  1.00  0.00     0.093 A 
ATOM      8  C   UNL     1     -45.541 -12.932  12.930  1.00  0.00     0.133 A 
ATOM      9  C   UNL     1     -46.929 -13.094  13.189  1.00  0.00     0.102 A 
ATOM     10  C   UNL     1     -47.852 -13.873  12.328  1.00  0.00     0.174 C 
ATOM     11  O   UNL     1     -47.589 -14.112  11.120  1.00  0.00    -0.294 OA
ENDROOT
BRANCH   2  12
ATOM     12  C   UNL     1     -51.031 -13.652  14.419  1.00  0.00    -0.007 A 
ATOM     13  C   UNL     1     -52.008 -14.410  13.749  1.00  0.00     0.011 A 
ATOM     14  C   UNL     1     -51.252 -13.280  15.757  1.00  0.00     0.011 A 
ATOM     15  C   UNL     1     -53.170 -14.815  14.414  1.00  0.00     0.046 A 
ATOM     16  C   UNL     1     -52.416 -13.684  16.419  1.00  0.00     0.046 A 
ATOM     17  C   UNL     1     -53.376 -14.453  15.752  1.00  0.00     0.115 A 
BRANCH  17  18
ATOM     18  O   UNL     1     -54.532 -14.844  16.424  1.00  0.00    -0.508 OA
ATOM     19  H   UNL     1     -55.135 -15.571  16.057  1.00  0.00     0.293 HD
ENDBRANCH  17  18
ENDBRANCH   2  12
BRANCH   8  20
ATOM     20  O   UNL     1     -44.880 -13.575  11.880  1.00  0.00    -0.507 OA
ATOM     21  H   UNL     1     -45.347 -14.095  11.151  1.00  0.00     0.293 HD
ENDBRANCH   8  20
BRANCH   6  22
ATOM     22  O   UNL     1     -44.570 -10.718  15.742  1.00  0.00    -0.508 OA
ATOM     23  H   UNL     1     -44.989 -10.009  16.332  1.00  0.00     0.293 HD
ENDBRANCH   6  22
TORSDOF 4
ENDMDL
MODEL 6
REMARK VINA RESULT:    -6.982      2.490      7.940
REMARK INTER + INTRA:          -8.313
REMARK INTER:                  -8.005
REMARK INTRA:                  -0.308
REMARK UNBOUND:                -0.310
REMARK SMILES O=C1C[C@@H](c2ccc(O)cc2)Oc2cc(O)cc(O)c21
REMARK SMILES IDX 3 1 4 2 12 3 13 4 14 5 15 6 17 7 18 8 20 9 2 10 1 11 5 12
REMARK SMILES IDX 6 13 11 14 7 15 10 16 8 17 9 18 19 20 16 22
REMARK H PARENT 9 19 19 21 16 23
REMARK Flexibility Score: inf
ROOT
ATOM      1  C   UNL     1     -47.835 -12.511  11.339  1.00  0.00     0.131 C 
ATOM      2  C   UNL     1     -46.791 -12.742  12.440  1.00  0.00     0.211 C 
ATOM      3  O   UNL     1     -47.359 -12.490  13.730  1.00  0.00    -0.484 OA
ATOM      4  C   UNL     1     -48.668 -12.863  14.068  1.00  0.00     0.138 A 
ATOM      5  C   UNL     1     -49.055 -12.836  15.409  1.00  0.00     0.093 A 
ATOM      6  C   UNL     1     -50.345 -13.219  15.779  1.00  0.00     0.123 A 
ATOM      7  C   UNL     1     -51.265 -13.602  14.797  1.00  0.00     0.093 A 
ATOM      8  C   UNL     1     -50.911 -13.595  13.442  1.00  0.00     0.133 A 
ATOM      9  C   UNL     1     -49.584 -13.254  13.067  1.00  0.00     0.102 A 
ATOM     10  C   UNL     1     -49.079 -13.281  11.672  1.00  0.00     0.174 C 
ATOM     11  O   UNL     1     -49.635 -13.971  10.778  1.00  0.00    -0.294 OA
ENDROOT
BRANCH   2  12
ATOM     12  C   UNL     1     -45.584 -11.862  12.222  1.00  0.00    -0.007 A 
ATOM     13  C   UNL     1     -45.433 -10.658  12.933  1.00  0.00     0.011 A 
ATOM     14  C   UNL     1     -44.625 -12.210  11.254  1.00  0.00     0.011 A 
ATOM     15  C   UNL     1     -44.328  -9.833  12.702  1.00  0.00     0.046 A 
ATOM     16  C   UNL     1     -43.522 -11.382  11.023  1.00  0.00     0.046 A 
ATOM     17  C   UNL     1     -43.369 -10.194  11.746  1.00  0.00     0.115 A 
BRANCH  17  18
ATOM     18  O   UNL     1     -42.267  -9.378  11.502  1.00  0.00    -0.508 OA
ATOM     19  H   UNL     1     -42.197  -8.824  10.655  1.00  0.00     0.293 HD
ENDBRANCH  17  18
ENDBRANCH   2  12
BRANCH   8  20
ATOM     20  O   UNL     1     -51.912 -13.901  12.516  1.00  0.00    -0.507 OA
ATOM     21  H   UNL     1     -52.781 -14.357  12.752  1.00  0.00     0.293 HD
ENDBRANCH   8  20
BRANCH   6  22
ATOM     22  O   UNL     1     -50.706 -13.211  17.125  1.00  0.00    -0.508 OA
ATOM     23  H   UNL     1     -50.016 -13.107  17.859  1.00  0.00     0.293 HD
ENDBRANCH   6  22
TORSDOF 4
ENDMDL
MODEL 7
REMARK VINA RESULT:    -6.912      1.498      2.952
REMARK INTER + INTRA:          -8.232
REMARK INTER:                  -7.917
REMARK INTRA:                  -0.315
REMARK UNBOUND:                -0.310
REMARK SMILES O=C1C[C@@H](c2ccc(O)cc2)Oc2cc(O)cc(O)c21
REMARK SMILES IDX 3 1 4 2 12 3 13 4 14 5 15 6 17 7 18 8 20 9 2 10 1 11 5 12
REMARK SMILES IDX 6 13 11 14 7 15 10 16 8 17 9 18 19 20 16 22
REMARK H PARENT 9 19 19 21 16 23
REMARK Flexibility Score: inf
ROOT
ATOM      1  C   UNL     1     -43.574 -11.385  10.878  1.00  0.00     0.131 C 
ATOM      2  C   UNL     1     -44.764 -10.691  11.555  1.00  0.00     0.211 C 
ATOM      3  O   UNL     1     -44.309  -9.815  12.592  1.00  0.00    -0.484 OA
ATOM      4  C   UNL     1     -43.158  -9.024  12.466  1.00  0.00     0.138 A 
ATOM      5  C   UNL     1     -42.932  -8.003  13.391  1.00  0.00     0.093 A 
ATOM      6  C   UNL     1     -41.805  -7.188  13.281  1.00  0.00     0.123 A 
ATOM      7  C   UNL     1     -40.879  -7.417  12.257  1.00  0.00     0.093 A 
ATOM      8  C   UNL     1     -41.064  -8.462  11.344  1.00  0.00     0.133 A 
ATOM      9  C   UNL     1     -42.235  -9.261  11.423  1.00  0.00     0.102 A 
ATOM     10  C   UNL     1     -42.569 -10.348  10.470  1.00  0.00     0.174 C 
ATOM     11  O   UNL     1     -42.072 -10.393   9.314  1.00  0.00    -0.294 OA
ENDROOT
BRANCH   2  12
ATOM     12  C   UNL     1     -45.724 -11.711  12.119  1.00  0.00    -0.007 A 
ATOM     13  C   UNL     1     -46.116 -12.827  11.358  1.00  0.00     0.011 A 
ATOM     14  C   UNL     1     -46.286 -11.521  13.393  1.00  0.00     0.011 A 
ATOM     15  C   UNL     1     -47.030 -13.751  11.875  1.00  0.00     0.046 A 
ATOM     16  C   UNL     1     -47.202 -12.444  13.907  1.00  0.00     0.046 A 
ATOM     17  C   UNL     1     -47.574 -13.562  13.152  1.00  0.00     0.115 A 
BRANCH  17  18
ATOM     18  O   UNL     1     -48.490 -14.471  13.676  1.00  0.00    -0.508 OA
ATOM     19  H   UNL     1     -48.670 -14.524  14.672  1.00  0.00     0.293 HD
ENDBRANCH  17  18
ENDBRANCH   2  12
BRANCH   8  20
ATOM     20  O   UNL     1     -40.050  -8.684  10.408  1.00  0.00    -0.507 OA
ATOM     21  H   UNL     1     -39.789  -9.596  10.062  1.00  0.00     0.293 HD
ENDBRANCH   8  20
BRANCH   6  22
ATOM     22  O   UNL     1     -41.609  -6.157  14.197  1.00  0.00    -0.508 OA
ATOM     23  H   UNL     1     -42.374  -5.782  14.745  1.00  0.00     0.293 HD
ENDBRANCH   6  22
TORSDOF 4
ENDMDL
MODEL 8
REMARK VINA RESULT:    -6.770      8.487     10.794
REMARK INTER + INTRA:          -8.070
REMARK INTER:                  -7.784
REMARK INTRA:                  -0.285
REMARK UNBOUND:                -0.310
REMARK SMILES O=C1C[C@@H](c2ccc(O)cc2)Oc2cc(O)cc(O)c21
REMARK SMILES IDX 3 1 4 2 12 3 13 4 14 5 15 6 17 7 18 8 20 9 2 10 1 11 5 12
REMARK SMILES IDX 6 13 11 14 7 15 10 16 8 17 9 18 19 20 16 22
REMARK H PARENT 9 19 19 21 16 23
REMARK Flexibility Score: inf
ROOT
ATOM      1  C   UNL     1     -38.870  -7.365   4.799  1.00  0.00     0.131 C 
ATOM      2  C   UNL     1     -39.180  -7.866   3.381  1.00  0.00     0.211 C 
ATOM      3  O   UNL     1     -39.218  -6.771   2.460  1.00  0.00    -0.484 OA
ATOM      4  C   UNL     1     -38.322  -5.695   2.524  1.00  0.00     0.138 A 
ATOM      5  C   UNL     1     -38.241  -4.814   1.443  1.00  0.00     0.093 A 
ATOM      6  C   UNL     1     -37.346  -3.745   1.470  1.00  0.00     0.123 A 
ATOM      7  C   UNL     1     -36.547  -3.534   2.599  1.00  0.00     0.093 A 
ATOM      8  C   UNL     1     -36.642  -4.379   3.711  1.00  0.00     0.133 A 
ATOM      9  C   UNL     1     -37.516  -5.498   3.668  1.00  0.00     0.102 A 
ATOM     10  C   UNL     1     -37.647  -6.497   4.756  1.00  0.00     0.174 C 
ATOM     11  O   UNL     1     -36.738  -6.670   5.610  1.00  0.00    -0.294 OA
ENDROOT
BRANCH   2  12
ATOM     12  C   UNL     1     -40.491  -8.614   3.356  1.00  0.00    -0.007 A 
ATOM     13  C   UNL     1     -40.839  -9.418   2.255  1.00  0.00     0.011 A 
ATOM     14  C   UNL     1     -41.408  -8.464   4.411  1.00  0.00     0.011 A 
ATOM     15  C   UNL     1     -42.069 -10.082   2.226  1.00  0.00     0.046 A 
ATOM     16  C   UNL     1     -42.638  -9.127   4.377  1.00  0.00     0.046 A 
ATOM     17  C   UNL     1     -42.972  -9.939   3.288  1.00  0.00     0.115 A 
BRANCH  17  18
ATOM     18  O   UNL     1     -44.203 -10.591   3.267  1.00  0.00    -0.508 OA
ATOM     19  H   UNL     1     -44.290 -11.545   2.936  1.00  0.00     0.293 HD
ENDBRANCH  17  18
ENDBRANCH   2  12
BRANCH   8  20
ATOM     20  O   UNL     1     -35.880  -4.049   4.835  1.00  0.00    -0.507 OA
ATOM     21  H   UNL     1     -35.707  -4.678   5.606  1.00  0.00     0.293 HD
ENDBRANCH   8  20
BRANCH   6  22
ATOM     22  O   UNL     1     -37.260  -2.891   0.371  1.00  0.00    -0.508 OA
ATOM     23  H   UNL     1     -38.085  -2.480  -0.047  1.00  0.00     0.293 HD
ENDBRANCH   6  22
TORSDOF 4
ENDMDL
MODEL 9
REMARK VINA RESULT:    -6.386      2.011      6.821
REMARK INTER + INTRA:          -7.629
REMARK INTER:                  -7.329
REMARK INTRA:                  -0.300
REMARK UNBOUND:                -0.310
REMARK SMILES O=C1C[C@@H](c2ccc(O)cc2)Oc2cc(O)cc(O)c21
REMARK SMILES IDX 3 1 4 2 12 3 13 4 14 5 15 6 17 7 18 8 20 9 2 10 1 11 5 12
REMARK SMILES IDX 6 13 11 14 7 15 10 16 8 17 9 18 19 20 16 22
REMARK H PARENT 9 19 19 21 16 23
REMARK Flexibility Score: inf
ROOT
ATOM      1  C   UNL     1     -45.144 -12.091  10.909  1.00  0.00     0.131 C 
ATOM      2  C   UNL     1     -43.876 -11.998  11.771  1.00  0.00     0.211 C 
ATOM      3  O   UNL     1     -44.165 -11.359  13.019  1.00  0.00    -0.484 OA
ATOM      4  C   UNL     1     -45.350 -11.590  13.733  1.00  0.00     0.138 A 
ATOM      5  C   UNL     1     -45.440 -11.154  15.056  1.00  0.00     0.093 A 
ATOM      6  C   UNL     1     -46.599 -11.385  15.797  1.00  0.00     0.123 A 
ATOM      7  C   UNL     1     -47.689 -12.029  15.202  1.00  0.00     0.093 A 
ATOM      8  C   UNL     1     -47.636 -12.437  13.864  1.00  0.00     0.133 A 
ATOM      9  C   UNL     1     -46.440 -12.248  13.121  1.00  0.00     0.102 A 
ATOM     10  C   UNL     1     -46.246 -12.702  11.722  1.00  0.00     0.174 C 
ATOM     11  O   UNL     1     -46.947 -13.620  11.219  1.00  0.00    -0.294 OA
ENDROOT
BRANCH   2  12
ATOM     12  C   UNL     1     -42.790 -11.246  11.040  1.00  0.00    -0.007 A 
ATOM     13  C   UNL     1     -41.768 -11.937  10.364  1.00  0.00     0.011 A 
ATOM     14  C   UNL     1     -42.755  -9.841  11.081  1.00  0.00     0.011 A 
ATOM     15  C   UNL     1     -40.747 -11.233   9.716  1.00  0.00     0.046 A 
ATOM     16  C   UNL     1     -41.732  -9.141  10.434  1.00  0.00     0.046 A 
ATOM     17  C   UNL     1     -40.728  -9.833   9.749  1.00  0.00     0.115 A 
BRANCH  17  18
ATOM     18  O   UNL     1     -39.714  -9.121   9.113  1.00  0.00    -0.508 OA
ATOM     19  H   UNL     1     -39.820  -8.138   8.887  1.00  0.00     0.293 HD
ENDBRANCH  17  18
ENDBRANCH   2  12
BRANCH   8  20
ATOM     20  O   UNL     1     -48.796 -12.989  13.314  1.00  0.00    -0.507 OA
ATOM     21  H   UNL     1     -48.819 -13.516  12.453  1.00  0.00     0.293 HD
ENDBRANCH   8  20
BRANCH   6  22
ATOM     22  O   UNL     1     -46.662 -10.965  17.125  1.00  0.00    -0.508 OA
ATOM     23  H   UNL     1     -46.052 -11.355  17.834  1.00  0.00     0.293 HD
ENDBRANCH   6  22
TORSDOF 4
ENDMDL
