MODEL 1
REMARK VINA RESULT:    -3.733      0.000      0.000
REMARK INTER + INTRA:          -5.907
REMARK INTER:                  -5.697
REMARK INTRA:                  -0.209
REMARK UNBOUND:                -0.209
REMARK SMILES CC1=CCC[C@@H](C)C(=O)C[C@@H](C(C)C)C(=O)C1
REMARK SMILES IDX 8 1 9 2 6 3 7 4 5 5 4 6 3 7 2 8 1 9 10 11 11 12 15 13 16 14
REMARK SMILES IDX 17 15 12 17 13 18 14 19
REMARK H PARENT
REMARK Flexibility Score: 70.00
ROOT
ATOM      1  C   UNL     1      19.317  28.468  30.190  1.00  0.00     0.136 C 
ATOM      2  O   UNL     1      18.507  28.596  31.098  1.00  0.00    -0.299 OA
ENDROOT
BRANCH   1   3
ATOM      3  C   UNL     1      18.883  28.888  28.797  1.00  0.00     0.053 C 
ATOM      4  C   UNL     1      18.661  30.396  28.593  1.00  0.00     0.016 C 
BRANCH   3   5
ATOM      5  C   UNL     1      17.752  27.981  28.250  1.00  0.00     0.015 C 
BRANCH   5   6
ATOM      6  C   UNL     1      17.759  26.462  28.555  1.00  0.00     0.028 C 
BRANCH   6   7
ATOM      7  C   UNL     1      18.415  25.517  27.576  1.00  0.00    -0.028 C 
ATOM      8  C   UNL     1      19.631  24.941  27.708  1.00  0.00    -0.070 CG0
ATOM      9  C   UNL     1      20.249  24.326  26.479  1.00  0.00     0.039 C 
ATOM     10  G   UNL     1      20.427  24.976  28.994  1.00  0.00     0.000 G0
ENDBRANCH   6   7
ENDBRANCH   5   6
ENDBRANCH   3   5
ENDBRANCH   1   3
BRANCH   1  11
ATOM     11  C   UNL     1      20.650  27.824  30.498  1.00  0.00     0.087 C 
BRANCH  11  12
ATOM     12  C   UNL     1      21.466  27.456  29.221  1.00  0.00     0.066 C 
BRANCH  12  13
ATOM     13  C   UNL     1      21.579  25.949  28.942  1.00  0.00     0.140 C 
ATOM     14  O   UNL     1      22.662  25.507  28.584  1.00  0.00    -0.299 OA
BRANCH  13  15
ATOM     15  C   UNL     1      20.416  24.974  28.989  1.00  0.00     0.106 CG0
ATOM     16  G   UNL     1      19.636  24.944  27.693  1.00  0.00     0.000 G0
ENDBRANCH  13  15
ENDBRANCH  12  13
BRANCH  12  17
ATOM     17  C   UNL     1      22.872  28.149  29.189  1.00  0.00    -0.006 C 
ATOM     18  C   UNL     1      22.970  29.376  30.107  1.00  0.00     0.008 C 
ATOM     19  C   UNL     1      23.321  28.514  27.763  1.00  0.00     0.008 C 
ENDBRANCH  12  17
ENDBRANCH  11  12
ENDBRANCH   1  11
TORSDOF 1
ENDMDL
MODEL 2
REMARK VINA RESULT:    -3.697      1.818      3.877
REMARK INTER + INTRA:          -5.851
REMARK INTER:                  -5.845
REMARK INTRA:                  -0.006
REMARK UNBOUND:                -0.209
REMARK SMILES CC1=CCC[C@@H](C)C(=O)C[C@@H](C(C)C)C(=O)C1
REMARK SMILES IDX 8 1 9 2 6 3 7 4 5 5 4 6 3 7 2 8 1 9 10 11 11 12 15 13 16 14
REMARK SMILES IDX 17 15 12 17 13 18 14 19
REMARK H PARENT
REMARK Flexibility Score: 70.00
ROOT
ATOM      1  C   UNL     1      20.873  25.532  28.569  1.00  0.00     0.136 C 
ATOM      2  O   UNL     1      20.992  25.058  29.691  1.00  0.00    -0.299 OA
ENDROOT
BRANCH   1   3
ATOM      3  C   UNL     1      19.937  24.826  27.604  1.00  0.00     0.053 C 
ATOM      4  C   UNL     1      20.561  24.393  26.266  1.00  0.00     0.016 C 
BRANCH   3   5
ATOM      5  C   UNL     1      18.577  25.558  27.485  1.00  0.00     0.015 C 
BRANCH   5   6
ATOM      6  C   UNL     1      17.938  26.219  28.732  1.00  0.00     0.028 C 
BRANCH   6   7
ATOM      7  C   UNL     1      17.530  27.672  28.667  1.00  0.00    -0.028 C 
ATOM      8  C   UNL     1      18.076  28.691  29.367  1.00  0.00    -0.070 CG0
ATOM      9  C   UNL     1      17.305  29.985  29.430  1.00  0.00     0.039 C 
ATOM     10  G   UNL     1      19.357  28.557  30.160  1.00  0.00     0.000 G0
ENDBRANCH   6   7
ENDBRANCH   5   6
ENDBRANCH   3   5
ENDBRANCH   1   3
BRANCH   1  11
ATOM     11  C   UNL     1      21.725  26.725  28.195  1.00  0.00     0.087 C 
BRANCH  11  12
ATOM     12  C   UNL     1      21.802  27.804  29.317  1.00  0.00     0.066 C 
BRANCH  12  13
ATOM     13  C   UNL     1      20.617  28.782  29.351  1.00  0.00     0.140 C 
ATOM     14  O   UNL     1      20.713  29.828  28.725  1.00  0.00    -0.299 OA
BRANCH  13  15
ATOM     15  C   UNL     1      19.364  28.589  30.186  1.00  0.00     0.106 CG0
ATOM     16  G   UNL     1      18.099  28.688  29.361  1.00  0.00     0.000 G0
ENDBRANCH  13  15
ENDBRANCH  12  13
BRANCH  12  17
ATOM     17  C   UNL     1      23.171  28.567  29.320  1.00  0.00    -0.006 C 
ATOM     18  C   UNL     1      24.381  27.653  29.079  1.00  0.00     0.008 C 
ATOM     19  C   UNL     1      23.381  29.403  30.595  1.00  0.00     0.008 C 
ENDBRANCH  12  17
ENDBRANCH  11  12
ENDBRANCH   1  11
TORSDOF 1
ENDMDL
MODEL 3
REMARK VINA RESULT:    -3.602      3.277      4.657
REMARK INTER + INTRA:          -5.707
REMARK INTER:                  -5.667
REMARK INTRA:                  -0.041
REMARK UNBOUND:                -0.209
REMARK SMILES CC1=CCC[C@@H](C)C(=O)C[C@@H](C(C)C)C(=O)C1
REMARK SMILES IDX 8 1 9 2 6 3 7 4 5 5 4 6 3 7 2 8 1 9 10 11 11 12 15 13 16 14
REMARK SMILES IDX 17 15 12 17 13 18 14 19
REMARK H PARENT
REMARK Flexibility Score: 70.00
ROOT
ATOM      1  C   UNL     1      17.581  26.683  28.164  1.00  0.00     0.136 C 
ATOM      2  O   UNL     1      17.831  27.286  27.130  1.00  0.00    -0.299 OA
ENDROOT
BRANCH   1   3
ATOM      3  C   UNL     1      16.666  27.361  29.169  1.00  0.00     0.053 C 
ATOM      4  C   UNL     1      17.370  28.103  30.317  1.00  0.00     0.016 C 
BRANCH   3   5
ATOM      5  C   UNL     1      15.504  26.434  29.604  1.00  0.00     0.015 C 
BRANCH   5   6
ATOM      6  C   UNL     1      14.688  25.659  28.539  1.00  0.00     0.028 C 
BRANCH   6   7
ATOM      7  C   UNL     1      14.672  24.149  28.579  1.00  0.00    -0.028 C 
ATOM      8  C   UNL     1      15.180  23.316  27.643  1.00  0.00    -0.070 CG0
ATOM      9  C   UNL     1      14.753  21.871  27.691  1.00  0.00     0.039 C 
ATOM     10  G   UNL     1      16.062  23.787  26.508  1.00  0.00     0.000 G0
ENDBRANCH   6   7
ENDBRANCH   5   6
ENDBRANCH   3   5
ENDBRANCH   1   3
BRANCH   1  11
ATOM     11  C   UNL     1      18.263  25.356  28.410  1.00  0.00     0.087 C 
BRANCH  11  12
ATOM     12  C   UNL     1      18.573  24.570  27.098  1.00  0.00     0.066 C 
BRANCH  12  13
ATOM     13  C   UNL     1      17.528  23.508  26.723  1.00  0.00     0.140 C 
ATOM     14  O   UNL     1      17.912  22.365  26.522  1.00  0.00    -0.299 OA
BRANCH  13  15
ATOM     15  C   UNL     1      16.055  23.794  26.489  1.00  0.00     0.106 CG0
ATOM     16  G   UNL     1      15.182  23.289  27.617  1.00  0.00     0.000 G0
ENDBRANCH  13  15
ENDBRANCH  12  13
BRANCH  12  17
ATOM     17  C   UNL     1      20.022  23.973  27.088  1.00  0.00    -0.006 C 
ATOM     18  C   UNL     1      20.983  24.681  28.054  1.00  0.00     0.008 C 
ATOM     19  C   UNL     1      20.631  23.919  25.676  1.00  0.00     0.008 C 
ENDBRANCH  12  17
ENDBRANCH  11  12
ENDBRANCH   1  11
TORSDOF 1
ENDMDL
MODEL 4
REMARK VINA RESULT:    -3.425      2.138      4.422
REMARK INTER + INTRA:          -5.437
REMARK INTER:                  -5.159
REMARK INTRA:                  -0.278
REMARK UNBOUND:                -0.209
REMARK SMILES CC1=CCC[C@@H](C)C(=O)C[C@@H](C(C)C)C(=O)C1
REMARK SMILES IDX 8 1 9 2 6 3 7 4 5 5 4 6 3 7 2 8 1 9 10 11 11 12 15 13 16 14
REMARK SMILES IDX 17 15 12 17 13 18 14 19
REMARK H PARENT
REMARK Flexibility Score: 70.00
ROOT
ATOM      1  C   UNL     1      21.401  28.062  29.294  1.00  0.00     0.136 C 
ATOM      2  O   UNL     1      22.054  28.065  28.260  1.00  0.00    -0.299 OA
ENDROOT
BRANCH   1   3
ATOM      3  C   UNL     1      21.494  29.287  30.187  1.00  0.00     0.053 C 
ATOM      4  C   UNL     1      21.403  29.019  31.699  1.00  0.00     0.016 C 
BRANCH   3   5
ATOM      5  C   UNL     1      20.599  30.442  29.673  1.00  0.00     0.015 C 
BRANCH   5   6
ATOM      6  C   UNL     1      19.300  30.128  28.888  1.00  0.00     0.028 C 
BRANCH   6   7
ATOM      7  C   UNL     1      18.049  29.763  29.651  1.00  0.00    -0.028 C 
ATOM      8  C   UNL     1      17.167  28.792  29.328  1.00  0.00    -0.070 CG0
ATOM      9  C   UNL     1      15.819  28.821  30.003  1.00  0.00     0.039 C 
ATOM     10  G   UNL     1      17.433  27.754  28.260  1.00  0.00     0.000 G0
ENDBRANCH   6   7
ENDBRANCH   5   6
ENDBRANCH   3   5
ENDBRANCH   1   3
BRANCH   1  11
ATOM     11  C   UNL     1      20.623  26.817  29.654  1.00  0.00     0.087 C 
BRANCH  11  12
ATOM     12  C   UNL     1      19.697  26.314  28.503  1.00  0.00     0.066 C 
BRANCH  12  13
ATOM     13  C   UNL     1      18.196  26.538  28.742  1.00  0.00     0.140 C 
ATOM     14  O   UNL     1      17.563  25.657  29.306  1.00  0.00    -0.299 OA
BRANCH  13  15
ATOM     15  C   UNL     1      17.413  27.740  28.243  1.00  0.00     0.106 CG0
ATOM     16  G   UNL     1      17.171  28.764  29.331  1.00  0.00     0.000 G0
ENDBRANCH  13  15
ENDBRANCH  12  13
BRANCH  12  17
ATOM     17  C   UNL     1      19.995  24.829  28.101  1.00  0.00    -0.006 C 
ATOM     18  C   UNL     1      21.492  24.489  28.085  1.00  0.00     0.008 C 
ATOM     19  C   UNL     1      19.346  24.436  26.763  1.00  0.00     0.008 C 
ENDBRANCH  12  17
ENDBRANCH  11  12
ENDBRANCH   1  11
TORSDOF 1
ENDMDL
MODEL 5
REMARK VINA RESULT:    -3.415      3.281      5.528
REMARK INTER + INTRA:          -5.422
REMARK INTER:                  -4.955
REMARK INTRA:                  -0.467
REMARK UNBOUND:                -0.209
REMARK SMILES CC1=CCC[C@@H](C)C(=O)C[C@@H](C(C)C)C(=O)C1
REMARK SMILES IDX 8 1 9 2 6 3 7 4 5 5 4 6 3 7 2 8 1 9 10 11 11 12 15 13 16 14
REMARK SMILES IDX 17 15 12 17 13 18 14 19
REMARK H PARENT
REMARK Flexibility Score: 70.00
ROOT
ATOM      1  C   UNL     1      16.792  29.112  31.093  1.00  0.00     0.136 C 
ATOM      2  O   UNL     1      17.006  28.124  31.783  1.00  0.00    -0.299 OA
ENDROOT
BRANCH   1   3
ATOM      3  C   UNL     1      16.232  28.888  29.700  1.00  0.00     0.053 C 
ATOM      4  C   UNL     1      14.758  28.454  29.635  1.00  0.00     0.016 C 
BRANCH   3   5
ATOM      5  C   UNL     1      17.198  28.057  28.819  1.00  0.00     0.015 C 
BRANCH   5   6
ATOM      6  C   UNL     1      18.485  28.707  28.251  1.00  0.00     0.028 C 
BRANCH   6   7
ATOM      7  C   UNL     1      19.758  28.652  29.062  1.00  0.00    -0.028 C 
ATOM      8  C   UNL     1      20.512  29.706  29.443  1.00  0.00    -0.070 CG0
ATOM      9  C   UNL     1      21.910  29.423  29.931  1.00  0.00     0.039 C 
ATOM     10  G   UNL     1      20.056  31.143  29.306  1.00  0.00     0.000 G0
ENDBRANCH   6   7
ENDBRANCH   5   6
ENDBRANCH   3   5
ENDBRANCH   1   3
BRANCH   1  11
ATOM     11  C   UNL     1      17.178  30.469  31.637  1.00  0.00     0.087 C 
BRANCH  11  12
ATOM     12  C   UNL     1      17.687  31.452  30.537  1.00  0.00     0.066 C 
BRANCH  12  13
ATOM     13  C   UNL     1      19.214  31.613  30.476  1.00  0.00     0.140 C 
ATOM     14  O   UNL     1      19.767  32.226  31.379  1.00  0.00    -0.299 OA
BRANCH  13  15
ATOM     15  C   UNL     1      20.085  31.148  29.323  1.00  0.00     0.106 CG0
ATOM     16  G   UNL     1      20.511  29.703  29.467  1.00  0.00     0.000 G0
ENDBRANCH  13  15
ENDBRANCH  12  13
BRANCH  12  17
ATOM     17  C   UNL     1      16.968  32.843  30.600  1.00  0.00    -0.006 C 
ATOM     18  C   UNL     1      16.128  33.041  31.870  1.00  0.00     0.008 C 
ATOM     19  C   UNL     1      16.118  33.127  29.350  1.00  0.00     0.008 C 
ENDBRANCH  12  17
ENDBRANCH  11  12
ENDBRANCH   1  11
TORSDOF 1
ENDMDL
MODEL 6
REMARK VINA RESULT:    -3.405      2.155      5.614
REMARK INTER + INTRA:          -5.406
REMARK INTER:                  -5.372
REMARK INTRA:                  -0.033
REMARK UNBOUND:                -0.209
REMARK SMILES CC1=CCC[C@@H](C)C(=O)C[C@@H](C(C)C)C(=O)C1
REMARK SMILES IDX 8 1 9 2 6 3 7 4 5 5 4 6 3 7 2 8 1 9 10 11 11 12 15 13 16 14
REMARK SMILES IDX 17 15 12 17 13 18 14 19
REMARK H PARENT
REMARK Flexibility Score: 70.00
ROOT
ATOM      1  C   UNL     1      18.998  24.491  27.281  1.00  0.00     0.136 C 
ATOM      2  O   UNL     1      18.434  23.548  26.742  1.00  0.00    -0.299 OA
ENDROOT
BRANCH   1   3
ATOM      3  C   UNL     1      20.364  24.888  26.751  1.00  0.00     0.053 C 
ATOM      4  C   UNL     1      21.034  23.876  25.807  1.00  0.00     0.016 C 
BRANCH   3   5
ATOM      5  C   UNL     1      21.278  25.439  27.874  1.00  0.00     0.015 C 
BRANCH   5   6
ATOM      6  C   UNL     1      21.457  26.969  28.049  1.00  0.00     0.028 C 
BRANCH   6   7
ATOM      7  C   UNL     1      21.039  27.614  29.349  1.00  0.00    -0.028 C 
ATOM      8  C   UNL     1      19.951  28.391  29.546  1.00  0.00    -0.070 CG0
ATOM      9  C   UNL     1      19.904  29.220  30.805  1.00  0.00     0.039 C 
ATOM     10  G   UNL     1      18.844  28.539  28.525  1.00  0.00     0.000 G0
ENDBRANCH   6   7
ENDBRANCH   5   6
ENDBRANCH   3   5
ENDBRANCH   1   3
BRANCH   1  11
ATOM     11  C   UNL     1      18.342  25.133  28.483  1.00  0.00     0.087 C 
BRANCH  11  12
ATOM     12  C   UNL     1      17.372  26.296  28.109  1.00  0.00     0.066 C 
BRANCH  12  13
ATOM     13  C   UNL     1      17.656  27.625  28.825  1.00  0.00     0.140 C 
ATOM     14  O   UNL     1      16.838  28.029  29.639  1.00  0.00    -0.299 OA
BRANCH  13  15
ATOM     15  C   UNL     1      18.839  28.529  28.527  1.00  0.00     0.106 CG0
ATOM     16  G   UNL     1      19.940  28.398  29.557  1.00  0.00     0.000 G0
ENDBRANCH  13  15
ENDBRANCH  12  13
BRANCH  12  17
ATOM     17  C   UNL     1      15.866  25.885  28.245  1.00  0.00    -0.006 C 
ATOM     18  C   UNL     1      15.551  25.139  29.549  1.00  0.00     0.008 C 
ATOM     19  C   UNL     1      15.360  25.079  27.036  1.00  0.00     0.008 C 
ENDBRANCH  12  17
ENDBRANCH  11  12
ENDBRANCH   1  11
TORSDOF 1
ENDMDL
MODEL 7
REMARK VINA RESULT:    -3.363      1.834      3.877
REMARK INTER + INTRA:          -5.341
REMARK INTER:                  -5.260
REMARK INTRA:                  -0.081
REMARK UNBOUND:                -0.209
REMARK SMILES CC1=CCC[C@@H](C)C(=O)C[C@@H](C(C)C)C(=O)C1
REMARK SMILES IDX 8 1 9 2 6 3 7 4 5 5 4 6 3 7 2 8 1 9 10 11 11 12 15 13 16 14
REMARK SMILES IDX 17 15 12 17 13 18 14 19
REMARK H PARENT
REMARK Flexibility Score: 70.00
ROOT
ATOM      1  C   UNL     1      20.254  29.799  29.125  1.00  0.00     0.136 C 
ATOM      2  O   UNL     1      20.587  30.975  29.090  1.00  0.00    -0.299 OA
ENDROOT
BRANCH   1   3
ATOM      3  C   UNL     1      21.198  28.821  29.802  1.00  0.00     0.053 C 
ATOM      4  C   UNL     1      22.214  29.440  30.776  1.00  0.00     0.016 C 
BRANCH   3   5
ATOM      5  C   UNL     1      21.792  27.805  28.795  1.00  0.00     0.015 C 
BRANCH   5   6
ATOM      6  C   UNL     1      21.595  26.284  29.018  1.00  0.00     0.028 C 
BRANCH   6   7
ATOM      7  C   UNL     1      21.054  25.439  27.889  1.00  0.00    -0.028 C 
ATOM      8  C   UNL     1      19.782  25.004  27.750  1.00  0.00    -0.070 CG0
ATOM      9  C   UNL     1      19.529  23.894  26.762  1.00  0.00     0.039 C 
ATOM     10  G   UNL     1      18.638  25.507  28.603  1.00  0.00     0.000 G0
ENDBRANCH   6   7
ENDBRANCH   5   6
ENDBRANCH   3   5
ENDBRANCH   1   3
BRANCH   1  11
ATOM     11  C   UNL     1      18.980  29.388  28.420  1.00  0.00     0.087 C 
BRANCH  11  12
ATOM     12  C   UNL     1      18.273  28.168  29.087  1.00  0.00     0.066 C 
BRANCH  12  13
ATOM     13  C   UNL     1      18.179  26.916  28.201  1.00  0.00     0.140 C 
ATOM     14  O   UNL     1      17.628  27.017  27.114  1.00  0.00    -0.299 OA
BRANCH  13  15
ATOM     15  C   UNL     1      18.639  25.530  28.617  1.00  0.00     0.106 CG0
ATOM     16  G   UNL     1      19.756  25.005  27.742  1.00  0.00     0.000 G0
ENDBRANCH  13  15
ENDBRANCH  12  13
BRANCH  12  17
ATOM     17  C   UNL     1      16.877  28.545  29.692  1.00  0.00    -0.006 C 
ATOM     18  C   UNL     1      16.614  30.057  29.730  1.00  0.00     0.008 C 
ATOM     19  C   UNL     1      16.649  27.930  31.085  1.00  0.00     0.008 C 
ENDBRANCH  12  17
ENDBRANCH  11  12
ENDBRANCH   1  11
TORSDOF 1
ENDMDL
MODEL 8
REMARK VINA RESULT:    -3.336      3.410      6.123
REMARK INTER + INTRA:          -5.300
REMARK INTER:                  -5.083
REMARK INTRA:                  -0.217
REMARK UNBOUND:                -0.209
REMARK SMILES CC1=CCC[C@@H](C)C(=O)C[C@@H](C(C)C)C(=O)C1
REMARK SMILES IDX 8 1 9 2 6 3 7 4 5 5 4 6 3 7 2 8 1 9 10 11 11 12 15 13 16 14
REMARK SMILES IDX 17 15 12 17 13 18 14 19
REMARK H PARENT
REMARK Flexibility Score: 70.00
ROOT
ATOM      1  C   UNL     1      17.421  28.496  29.863  1.00  0.00     0.136 C 
ATOM      2  O   UNL     1      16.812  27.469  30.127  1.00  0.00    -0.299 OA
ENDROOT
BRANCH   1   3
ATOM      3  C   UNL     1      18.377  28.463  28.684  1.00  0.00     0.053 C 
ATOM      4  C   UNL     1      17.945  27.583  27.499  1.00  0.00     0.016 C 
BRANCH   3   5
ATOM      5  C   UNL     1      19.845  28.271  29.140  1.00  0.00     0.015 C 
BRANCH   5   6
ATOM      6  C   UNL     1      20.883  29.400  28.914  1.00  0.00     0.028 C 
BRANCH   6   7
ATOM      7  C   UNL     1      21.581  30.008  30.107  1.00  0.00    -0.028 C 
ATOM      8  C   UNL     1      21.370  31.243  30.616  1.00  0.00    -0.070 CG0
ATOM      9  C   UNL     1      22.402  31.789  31.570  1.00  0.00     0.039 C 
ATOM     10  G   UNL     1      20.214  32.125  30.197  1.00  0.00     0.000 G0
ENDBRANCH   6   7
ENDBRANCH   5   6
ENDBRANCH   3   5
ENDBRANCH   1   3
BRANCH   1  11
ATOM     11  C   UNL     1      17.249  29.692  30.773  1.00  0.00     0.087 C 
BRANCH  11  12
ATOM     12  C   UNL     1      17.732  31.029  30.133  1.00  0.00     0.066 C 
BRANCH  12  13
ATOM     13  C   UNL     1      18.898  31.709  30.866  1.00  0.00     0.140 C 
ATOM     14  O   UNL     1      18.745  32.011  32.041  1.00  0.00    -0.299 OA
BRANCH  13  15
ATOM     15  C   UNL     1      20.205  32.121  30.211  1.00  0.00     0.106 CG0
ATOM     16  G   UNL     1      21.361  31.235  30.620  1.00  0.00     0.000 G0
ENDBRANCH  13  15
ENDBRANCH  12  13
BRANCH  12  17
ATOM     17  C   UNL     1      16.553  32.032  29.883  1.00  0.00    -0.006 C 
ATOM     18  C   UNL     1      15.186  31.347  29.746  1.00  0.00     0.008 C 
ATOM     19  C   UNL     1      16.808  32.958  28.681  1.00  0.00     0.008 C 
ENDBRANCH  12  17
ENDBRANCH  11  12
ENDBRANCH   1  11
TORSDOF 1
ENDMDL
MODEL 9
REMARK VINA RESULT:    -3.119      2.664      4.737
REMARK INTER + INTRA:          -4.970
REMARK INTER:                  -4.638
REMARK INTRA:                  -0.332
REMARK UNBOUND:                -0.209
REMARK SMILES CC1=CCC[C@@H](C)C(=O)C[C@@H](C(C)C)C(=O)C1
REMARK SMILES IDX 8 1 9 2 6 3 7 4 5 5 4 6 3 7 2 8 1 9 10 11 11 12 15 13 16 14
REMARK SMILES IDX 17 15 12 17 13 18 14 19
REMARK H PARENT
REMARK Flexibility Score: 70.00
ROOT
ATOM      1  C   UNL     1      18.335  30.332  29.105  1.00  0.00     0.136 C 
ATOM      2  O   UNL     1      18.578  31.526  29.002  1.00  0.00    -0.299 OA
ENDROOT
BRANCH   1   3
ATOM      3  C   UNL     1      17.314  29.910  30.148  1.00  0.00     0.053 C 
ATOM      4  C   UNL     1      15.840  30.083  29.746  1.00  0.00     0.016 C 
BRANCH   3   5
ATOM      5  C   UNL     1      17.676  30.446  31.555  1.00  0.00     0.015 C 
BRANCH   5   6
ATOM      6  C   UNL     1      18.924  29.902  32.296  1.00  0.00     0.028 C 
BRANCH   6   7
ATOM      7  C   UNL     1      20.255  30.588  32.096  1.00  0.00    -0.028 C 
ATOM      8  C   UNL     1      21.405  30.004  31.692  1.00  0.00    -0.070 CG0
ATOM      9  C   UNL     1      22.686  30.772  31.896  1.00  0.00     0.039 C 
ATOM     10  G   UNL     1      21.470  28.594  31.145  1.00  0.00     0.000 G0
ENDBRANCH   6   7
ENDBRANCH   5   6
ENDBRANCH   3   5
ENDBRANCH   1   3
BRANCH   1  11
ATOM     11  C   UNL     1      19.123  29.358  28.258  1.00  0.00     0.087 C 
BRANCH  11  12
ATOM     12  C   UNL     1      19.766  28.202  29.083  1.00  0.00     0.066 C 
BRANCH  12  13
ATOM     13  C   UNL     1      21.155  28.518  29.659  1.00  0.00     0.140 C 
ATOM     14  O   UNL     1      22.088  28.644  28.880  1.00  0.00    -0.299 OA
BRANCH  13  15
ATOM     15  C   UNL     1      21.476  28.594  31.141  1.00  0.00     0.106 CG0
ATOM     16  G   UNL     1      21.403  30.007  31.677  1.00  0.00     0.000 G0
ENDBRANCH  13  15
ENDBRANCH  12  13
BRANCH  12  17
ATOM     17  C   UNL     1      19.767  26.841  28.305  1.00  0.00    -0.006 C 
ATOM     18  C   UNL     1      18.367  26.380  27.877  1.00  0.00     0.008 C 
ATOM     19  C   UNL     1      20.484  25.719  29.076  1.00  0.00     0.008 C 
ENDBRANCH  12  17
ENDBRANCH  11  12
ENDBRANCH   1  11
TORSDOF 1
ENDMDL
