MODEL 1
REMARK VINA RESULT:    -5.426      0.000      0.000
REMARK INTER + INTRA:          -6.354
REMARK INTER:                  -6.219
REMARK INTRA:                  -0.135
REMARK UNBOUND:                -0.135
REMARK SMILES O=C([O-])C=Cc1ccc(O)cc1
REMARK SMILES IDX 6 1 7 2 12 3 8 4 11 5 9 6 5 7 4 8 2 9 1 10 3 11 10 12
REMARK H PARENT 10 13
REMARK Flexibility Score: inf
ROOT
ATOM      1  C   UNL     1      -6.280  -4.837  15.300  1.00  0.00    -0.025 A 
ATOM      2  C   UNL     1      -6.775  -4.253  16.479  1.00  0.00     0.012 A 
ATOM      3  C   UNL     1      -5.738  -6.137  15.361  1.00  0.00     0.012 A 
ATOM      4  C   UNL     1      -6.709  -4.940  17.696  1.00  0.00     0.047 A 
ATOM      5  C   UNL     1      -5.674  -6.820  16.579  1.00  0.00     0.047 A 
ATOM      6  C   UNL     1      -6.157  -6.223  17.750  1.00  0.00     0.115 A 
ENDROOT
BRANCH   1   7
ATOM      7  C   UNL     1      -6.383  -4.072  14.032  1.00  0.00     0.010 C 
ATOM      8  C   UNL     1      -5.506  -3.129  13.658  1.00  0.00     0.025 C 
BRANCH   8   9
ATOM      9  C   UNL     1      -5.654  -2.388  12.396  1.00  0.00     0.064 C 
ATOM     10  O   UNL     1      -4.634  -2.114  11.713  1.00  0.00    -0.545 OA
ATOM     11  O   UNL     1      -6.906  -1.983  11.945  1.00  0.00    -0.545 OA
ENDBRANCH   8   9
ENDBRANCH   1   7
BRANCH   6  12
ATOM     12  O   UNL     1      -6.097  -6.895  18.968  1.00  0.00    -0.508 OA
ATOM     13  H   UNL     1      -5.271  -7.412  19.247  1.00  0.00     0.293 HD
ENDBRANCH   6  12
TORSDOF 3
ENDMDL
MODEL 2
REMARK VINA RESULT:    -5.308      5.819      8.178
REMARK INTER + INTRA:          -6.218
REMARK INTER:                  -6.083
REMARK INTRA:                  -0.135
REMARK UNBOUND:                -0.135
REMARK SMILES O=C([O-])C=Cc1ccc(O)cc1
REMARK SMILES IDX 6 1 7 2 12 3 8 4 11 5 9 6 5 7 4 8 2 9 1 10 3 11 10 12
REMARK H PARENT 10 13
REMARK Flexibility Score: inf
ROOT
ATOM      1  C   UNL     1      -4.796   0.566   9.368  1.00  0.00    -0.025 A 
ATOM      2  C   UNL     1      -6.040   0.974   9.877  1.00  0.00     0.012 A 
ATOM      3  C   UNL     1      -4.219  -0.624   9.856  1.00  0.00     0.012 A 
ATOM      4  C   UNL     1      -6.684   0.226  10.867  1.00  0.00     0.047 A 
ATOM      5  C   UNL     1      -4.866  -1.370  10.846  1.00  0.00     0.047 A 
ATOM      6  C   UNL     1      -6.099  -0.945  11.356  1.00  0.00     0.115 A 
ENDROOT
BRANCH   1   7
ATOM      7  C   UNL     1      -4.158   1.389   8.309  1.00  0.00     0.010 C 
ATOM      8  C   UNL     1      -2.852   1.689   8.286  1.00  0.00     0.025 C 
BRANCH   8   9
ATOM      9  C   UNL     1      -2.264   2.518   7.222  1.00  0.00     0.064 C 
ATOM     10  O   UNL     1      -2.178   3.763   7.381  1.00  0.00    -0.545 OA
ATOM     11  O   UNL     1      -1.800   1.947   6.041  1.00  0.00    -0.545 OA
ENDBRANCH   8   9
ENDBRANCH   1   7
BRANCH   6  12
ATOM     12  O   UNL     1      -6.751  -1.680  12.343  1.00  0.00    -0.508 OA
ATOM     13  H   UNL     1      -7.085  -1.243  13.195  1.00  0.00     0.293 HD
ENDBRANCH   6  12
TORSDOF 3
ENDMDL
MODEL 3
REMARK VINA RESULT:    -5.288      5.751      8.134
REMARK INTER + INTRA:          -6.196
REMARK INTER:                  -6.061
REMARK INTRA:                  -0.135
REMARK UNBOUND:                -0.135
REMARK SMILES O=C([O-])C=Cc1ccc(O)cc1
REMARK SMILES IDX 6 1 7 2 12 3 8 4 11 5 9 6 5 7 4 8 2 9 1 10 3 11 10 12
REMARK H PARENT 10 13
REMARK Flexibility Score: inf
ROOT
ATOM      1  C   UNL     1      -2.238   1.088  11.315  1.00  0.00    -0.025 A 
ATOM      2  C   UNL     1      -1.404   0.823  12.415  1.00  0.00     0.012 A 
ATOM      3  C   UNL     1      -3.478   0.424  11.227  1.00  0.00     0.012 A 
ATOM      4  C   UNL     1      -1.786  -0.101  13.392  1.00  0.00     0.047 A 
ATOM      5  C   UNL     1      -3.857  -0.499  12.207  1.00  0.00     0.047 A 
ATOM      6  C   UNL     1      -3.011  -0.766  13.291  1.00  0.00     0.115 A 
ENDROOT
BRANCH   1   7
ATOM      7  C   UNL     1      -1.792   2.085  10.310  1.00  0.00     0.010 C 
ATOM      8  C   UNL     1      -1.866   1.892   8.986  1.00  0.00     0.025 C 
BRANCH   8   9
ATOM      9  C   UNL     1      -1.401   2.905   8.025  1.00  0.00     0.064 C 
ATOM     10  O   UNL     1      -2.201   3.785   7.615  1.00  0.00    -0.545 OA
ATOM     11  O   UNL     1      -0.089   2.907   7.564  1.00  0.00    -0.545 OA
ENDBRANCH   8   9
ENDBRANCH   1   7
BRANCH   6  12
ATOM     12  O   UNL     1      -3.379  -1.684  14.271  1.00  0.00    -0.508 OA
ATOM     13  H   UNL     1      -2.769  -1.897  15.051  1.00  0.00     0.293 HD
ENDBRANCH   6  12
TORSDOF 3
ENDMDL
MODEL 4
REMARK VINA RESULT:    -5.279     12.430     13.411
REMARK INTER + INTRA:          -6.186
REMARK INTER:                  -6.048
REMARK INTRA:                  -0.138
REMARK UNBOUND:                -0.135
REMARK SMILES O=C([O-])C=Cc1ccc(O)cc1
REMARK SMILES IDX 6 1 7 2 12 3 8 4 11 5 9 6 5 7 4 8 2 9 1 10 3 11 10 12
REMARK H PARENT 10 13
REMARK Flexibility Score: inf
ROOT
ATOM      1  C   UNL     1     -12.316 -11.710  23.149  1.00  0.00    -0.025 A 
ATOM      2  C   UNL     1     -13.237 -11.651  22.089  1.00  0.00     0.012 A 
ATOM      3  C   UNL     1     -12.687 -11.184  24.403  1.00  0.00     0.012 A 
ATOM      4  C   UNL     1     -14.491 -11.059  22.269  1.00  0.00     0.047 A 
ATOM      5  C   UNL     1     -13.942 -10.593  24.579  1.00  0.00     0.047 A 
ATOM      6  C   UNL     1     -14.846 -10.527  23.512  1.00  0.00     0.115 A 
ENDROOT
BRANCH   1   7
ATOM      7  C   UNL     1     -11.001 -12.358  22.910  1.00  0.00     0.010 C 
ATOM      8  C   UNL     1     -10.853 -13.662  22.638  1.00  0.00     0.025 C 
BRANCH   8   9
ATOM      9  C   UNL     1      -9.529 -14.264  22.420  1.00  0.00     0.064 C 
ATOM     10  O   UNL     1      -9.072 -14.353  21.251  1.00  0.00    -0.545 OA
ATOM     11  O   UNL     1      -8.771 -14.738  23.486  1.00  0.00    -0.545 OA
ENDBRANCH   8   9
ENDBRANCH   1   7
BRANCH   6  12
ATOM     12  O   UNL     1     -16.098  -9.939  23.676  1.00  0.00    -0.508 OA
ATOM     13  H   UNL     1     -16.868 -10.151  23.052  1.00  0.00     0.293 HD
ENDBRANCH   6  12
TORSDOF 3
ENDMDL
MODEL 5
REMARK VINA RESULT:    -5.256      5.862      8.175
REMARK INTER + INTRA:          -6.159
REMARK INTER:                  -6.024
REMARK INTRA:                  -0.136
REMARK UNBOUND:                -0.135
REMARK SMILES O=C([O-])C=Cc1ccc(O)cc1
REMARK SMILES IDX 6 1 7 2 12 3 8 4 11 5 9 6 5 7 4 8 2 9 1 10 3 11 10 12
REMARK H PARENT 10 13
REMARK Flexibility Score: inf
ROOT
ATOM      1  C   UNL     1      -2.845  -0.765   9.302  1.00  0.00    -0.025 A 
ATOM      2  C   UNL     1      -3.389  -0.704  10.597  1.00  0.00     0.012 A 
ATOM      3  C   UNL     1      -2.685  -2.025   8.690  1.00  0.00     0.012 A 
ATOM      4  C   UNL     1      -3.744  -1.875  11.275  1.00  0.00     0.047 A 
ATOM      5  C   UNL     1      -3.042  -3.192   9.372  1.00  0.00     0.047 A 
ATOM      6  C   UNL     1      -3.569  -3.121  10.667  1.00  0.00     0.115 A 
ENDROOT
BRANCH   1   7
ATOM      7  C   UNL     1      -2.495   0.506   8.620  1.00  0.00     0.010 C 
ATOM      8  C   UNL     1      -1.400   0.668   7.863  1.00  0.00     0.025 C 
BRANCH   8   9
ATOM      9  C   UNL     1      -1.087   1.950   7.214  1.00  0.00     0.064 C 
ATOM     10  O   UNL     1      -1.484   2.165   6.040  1.00  0.00    -0.545 OA
ATOM     11  O   UNL     1      -0.358   2.931   7.878  1.00  0.00    -0.545 OA
ENDBRANCH   8   9
ENDBRANCH   1   7
BRANCH   6  12
ATOM     12  O   UNL     1      -3.926  -4.278  11.355  1.00  0.00    -0.508 OA
ATOM     13  H   UNL     1      -3.922  -4.314  12.368  1.00  0.00     0.293 HD
ENDBRANCH   6  12
TORSDOF 3
ENDMDL
MODEL 6
REMARK VINA RESULT:    -5.189      7.031      7.529
REMARK INTER + INTRA:          -6.082
REMARK INTER:                  -5.931
REMARK INTRA:                  -0.151
REMARK UNBOUND:                -0.135
REMARK SMILES O=C([O-])C=Cc1ccc(O)cc1
REMARK SMILES IDX 6 1 7 2 12 3 8 4 11 5 9 6 5 7 4 8 2 9 1 10 3 11 10 12
REMARK H PARENT 10 13
REMARK Flexibility Score: inf
ROOT
ATOM      1  C   UNL     1      -5.624   0.194  11.012  1.00  0.00    -0.025 A 
ATOM      2  C   UNL     1      -4.286   0.617  11.092  1.00  0.00     0.012 A 
ATOM      3  C   UNL     1      -6.582   0.811  11.842  1.00  0.00     0.012 A 
ATOM      4  C   UNL     1      -3.907   1.615  11.996  1.00  0.00     0.047 A 
ATOM      5  C   UNL     1      -6.200   1.809  12.744  1.00  0.00     0.047 A 
ATOM      6  C   UNL     1      -4.861   2.212  12.825  1.00  0.00     0.115 A 
ENDROOT
BRANCH   1   7
ATOM      7  C   UNL     1      -5.977  -0.860  10.029  1.00  0.00     0.010 C 
ATOM      8  C   UNL     1      -5.163  -1.263   9.044  1.00  0.00     0.025 C 
BRANCH   8   9
ATOM      9  C   UNL     1      -5.560  -2.305   8.085  1.00  0.00     0.064 C 
ATOM     10  O   UNL     1      -6.357  -2.021   7.153  1.00  0.00    -0.545 OA
ATOM     11  O   UNL     1      -5.068  -3.602   8.190  1.00  0.00    -0.545 OA
ENDBRANCH   8   9
ENDBRANCH   1   7
BRANCH   6  12
ATOM     12  O   UNL     1      -4.470   3.203  13.721  1.00  0.00    -0.508 OA
ATOM     13  H   UNL     1      -3.705   3.834  13.511  1.00  0.00     0.293 HD
ENDBRANCH   6  12
TORSDOF 3
ENDMDL
MODEL 7
REMARK VINA RESULT:    -5.140      6.784      7.580
REMARK INTER + INTRA:          -6.027
REMARK INTER:                  -5.881
REMARK INTRA:                  -0.146
REMARK UNBOUND:                -0.135
REMARK SMILES O=C([O-])C=Cc1ccc(O)cc1
REMARK SMILES IDX 6 1 7 2 12 3 8 4 11 5 9 6 5 7 4 8 2 9 1 10 3 11 10 12
REMARK H PARENT 10 13
REMARK Flexibility Score: inf
ROOT
ATOM      1  C   UNL     1      -2.149  -0.524  12.269  1.00  0.00    -0.025 A 
ATOM      2  C   UNL     1      -2.154  -0.828  10.897  1.00  0.00     0.012 A 
ATOM      3  C   UNL     1      -1.081  -0.988  13.063  1.00  0.00     0.012 A 
ATOM      4  C   UNL     1      -1.131  -1.597  10.334  1.00  0.00     0.047 A 
ATOM      5  C   UNL     1      -0.059  -1.755  12.497  1.00  0.00     0.047 A 
ATOM      6  C   UNL     1      -0.082  -2.064  11.131  1.00  0.00     0.115 A 
ENDROOT
BRANCH   1   7
ATOM      7  C   UNL     1      -3.253   0.304  12.816  1.00  0.00     0.010 C 
ATOM      8  C   UNL     1      -3.818   1.323  12.154  1.00  0.00     0.025 C 
BRANCH   8   9
ATOM      9  C   UNL     1      -4.903   2.125  12.741  1.00  0.00     0.064 C 
ATOM     10  O   UNL     1      -4.648   3.262  13.216  1.00  0.00    -0.545 OA
ATOM     11  O   UNL     1      -6.208   1.647  12.779  1.00  0.00    -0.545 OA
ENDBRANCH   8   9
ENDBRANCH   1   7
BRANCH   6  12
ATOM     12  O   UNL     1       0.930  -2.830  10.558  1.00  0.00    -0.508 OA
ATOM     13  H   UNL     1       1.786  -2.406  10.219  1.00  0.00     0.293 HD
ENDBRANCH   6  12
TORSDOF 3
ENDMDL
MODEL 8
REMARK VINA RESULT:    -5.136      5.591      7.714
REMARK INTER + INTRA:          -6.022
REMARK INTER:                  -5.871
REMARK INTRA:                  -0.151
REMARK UNBOUND:                -0.135
REMARK SMILES O=C([O-])C=Cc1ccc(O)cc1
REMARK SMILES IDX 6 1 7 2 12 3 8 4 11 5 9 6 5 7 4 8 2 9 1 10 3 11 10 12
REMARK H PARENT 10 13
REMARK Flexibility Score: inf
ROOT
ATOM      1  C   UNL     1      -3.666  -0.074  12.026  1.00  0.00    -0.025 A 
ATOM      2  C   UNL     1      -2.448   0.508  11.636  1.00  0.00     0.012 A 
ATOM      3  C   UNL     1      -4.666   0.750  12.580  1.00  0.00     0.012 A 
ATOM      4  C   UNL     1      -2.222   1.876  11.817  1.00  0.00     0.047 A 
ATOM      5  C   UNL     1      -4.437   2.118  12.759  1.00  0.00     0.047 A 
ATOM      6  C   UNL     1      -3.214   2.684  12.380  1.00  0.00     0.115 A 
ENDROOT
BRANCH   1   7
ATOM      7  C   UNL     1      -3.861  -1.529  11.803  1.00  0.00     0.010 C 
ATOM      8  C   UNL     1      -2.887  -2.357  11.398  1.00  0.00     0.025 C 
BRANCH   8   9
ATOM      9  C   UNL     1      -3.129  -3.791  11.179  1.00  0.00     0.064 C 
ATOM     10  O   UNL     1      -2.649  -4.632  11.983  1.00  0.00    -0.545 OA
ATOM     11  O   UNL     1      -3.881  -4.235  10.096  1.00  0.00    -0.545 OA
ENDBRANCH   8   9
ENDBRANCH   1   7
BRANCH   6  12
ATOM     12  O   UNL     1      -2.975   4.045  12.556  1.00  0.00    -0.508 OA
ATOM     13  H   UNL     1      -2.041   4.431  12.486  1.00  0.00     0.293 HD
ENDBRANCH   6  12
TORSDOF 3
ENDMDL
MODEL 9
REMARK VINA RESULT:    -5.122      5.738      7.523
REMARK INTER + INTRA:          -6.005
REMARK INTER:                  -5.857
REMARK INTRA:                  -0.149
REMARK UNBOUND:                -0.135
REMARK SMILES O=C([O-])C=Cc1ccc(O)cc1
REMARK SMILES IDX 6 1 7 2 12 3 8 4 11 5 9 6 5 7 4 8 2 9 1 10 3 11 10 12
REMARK H PARENT 10 13
REMARK Flexibility Score: inf
ROOT
ATOM      1  C   UNL     1      -2.888  -1.934  10.837  1.00  0.00    -0.025 A 
ATOM      2  C   UNL     1      -2.660  -1.713   9.468  1.00  0.00     0.012 A 
ATOM      3  C   UNL     1      -1.781  -2.139  11.686  1.00  0.00     0.012 A 
ATOM      4  C   UNL     1      -1.361  -1.722   8.952  1.00  0.00     0.047 A 
ATOM      5  C   UNL     1      -0.483  -2.146  11.166  1.00  0.00     0.047 A 
ATOM      6  C   UNL     1      -0.270  -1.941   9.798  1.00  0.00     0.115 A 
ENDROOT
BRANCH   1   7
ATOM      7  C   UNL     1      -4.285  -1.904  11.338  1.00  0.00     0.010 C 
ATOM      8  C   UNL     1      -5.280  -1.241  10.731  1.00  0.00     0.025 C 
BRANCH   8   9
ATOM      9  C   UNL     1      -6.648  -1.230  11.270  1.00  0.00     0.064 C 
ATOM     10  O   UNL     1      -7.055  -0.227  11.913  1.00  0.00    -0.545 OA
ATOM     11  O   UNL     1      -7.503  -2.311  11.080  1.00  0.00    -0.545 OA
ENDBRANCH   8   9
ENDBRANCH   1   7
BRANCH   6  12
ATOM     12  O   UNL     1       1.019  -1.947   9.270  1.00  0.00    -0.508 OA
ATOM     13  H   UNL     1       1.261  -1.392   8.458  1.00  0.00     0.293 HD
ENDBRANCH   6  12
TORSDOF 3
ENDMDL
