MODEL 1
REMARK VINA RESULT:    -6.612      0.000      0.000
REMARK INTER + INTRA:         -11.363
REMARK INTER:                 -10.091
REMARK INTRA:                  -1.272
REMARK UNBOUND:                -1.272
REMARK SMILES OC[C@@H]1O[C@H](O[C@@]2(CO)O[C@@H](CO)[C@@H](O)[C@@H]2O)[C@@H](O)[C@H](O)[C@H]1O
REMARK SMILES IDX 6 1 5 2 3 3 22 4 4 5 20 6 18 7 2 8 1 9 23 11 21 13 19 15
REMARK SMILES IDX 7 17 16 18 10 19 14 20 11 21 8 22 9 23 17 25 15 27 12 29
REMARK SMILES IDX 13 30
REMARK H PARENT 1 10 23 12 21 14 19 16 9 24 17 26 15 28 13 31
REMARK Flexibility Score: inf
ROOT
ATOM      1  O   UNL     1     -34.675  -4.791 -17.558  1.00  0.00    -0.313 OA
ENDROOT
BRANCH   1   2
ATOM      2  C   UNL     1     -34.268  -3.741 -18.422  1.00  0.00     0.285 C 
ATOM      3  C   UNL     1     -32.381  -2.784 -19.394  1.00  0.00     0.178 C 
ATOM      4  C   UNL     1     -32.671  -3.226 -20.856  1.00  0.00     0.177 C 
ATOM      5  O   UNL     1     -32.849  -3.761 -18.481  1.00  0.00    -0.341 OA
ATOM      6  C   UNL     1     -33.839  -4.244 -20.916  1.00  0.00     0.179 C 
ATOM      7  C   UNL     1     -34.904  -3.973 -19.830  1.00  0.00     0.202 C 
BRANCH   3   8
ATOM      8  C   UNL     1     -30.885  -2.553 -19.158  1.00  0.00     0.191 C 
BRANCH   8   9
ATOM      9  O   UNL     1     -30.162  -2.761 -20.341  1.00  0.00    -0.394 OA
ATOM     10  H   UNL     1     -29.673  -3.619 -20.245  1.00  0.00     0.210 HD
ENDBRANCH   8   9
ENDBRANCH   3   8
BRANCH   4  11
ATOM     11  O   UNL     1     -32.995  -2.105 -21.640  1.00  0.00    -0.387 OA
ATOM     12  H   UNL     1     -33.979  -1.981 -21.577  1.00  0.00     0.211 HD
ENDBRANCH   4  11
BRANCH   6  13
ATOM     13  O   UNL     1     -33.346  -5.549 -20.735  1.00  0.00    -0.387 OA
ATOM     14  H   UNL     1     -33.334  -5.978 -21.631  1.00  0.00     0.211 HD
ENDBRANCH   6  13
BRANCH   7  15
ATOM     15  O   UNL     1     -35.736  -2.900 -20.191  1.00  0.00    -0.385 OA
ATOM     16  H   UNL     1     -36.381  -3.222 -20.872  1.00  0.00     0.211 HD
ENDBRANCH   7  15
ENDBRANCH   1   2
BRANCH   1  17
ATOM     17  C   UNL     1     -35.799  -4.478 -16.738  1.00  0.00     0.224 C 
ATOM     18  C   UNL     1     -36.508  -5.804 -16.431  1.00  0.00     0.208 C 
ATOM     19  O   UNL     1     -36.739  -3.661 -17.416  1.00  0.00    -0.337 OA
ATOM     20  C   UNL     1     -37.969  -5.438 -16.347  1.00  0.00     0.180 C 
ATOM     21  C   UNL     1     -38.042  -4.079 -17.065  1.00  0.00     0.179 C 
BRANCH  17  22
ATOM     22  C   UNL     1     -35.295  -3.751 -15.465  1.00  0.00     0.225 C 
BRANCH  22  23
ATOM     23  O   UNL     1     -35.672  -2.401 -15.470  1.00  0.00    -0.391 OA
ATOM     24  H   UNL     1     -35.442  -2.039 -16.368  1.00  0.00     0.210 HD
ENDBRANCH  22  23
ENDBRANCH  17  22
BRANCH  18  25
ATOM     25  O   UNL     1     -36.058  -6.402 -15.240  1.00  0.00    -0.385 OA
ATOM     26  H   UNL     1     -36.868  -6.618 -14.709  1.00  0.00     0.211 HD
ENDBRANCH  18  25
BRANCH  20  27
ATOM     27  O   UNL     1     -38.757  -6.424 -16.971  1.00  0.00    -0.387 OA
ATOM     28  H   UNL     1     -38.200  -7.245 -17.011  1.00  0.00     0.211 HD
ENDBRANCH  20  27
BRANCH  21  29
ATOM     29  C   UNL     1     -38.926  -4.053 -18.324  1.00  0.00     0.191 C 
BRANCH  29  30
ATOM     30  O   UNL     1     -38.257  -4.620 -19.418  1.00  0.00    -0.394 OA
ATOM     31  H   UNL     1     -38.132  -3.897 -20.087  1.00  0.00     0.210 HD
ENDBRANCH  29  30
ENDBRANCH  21  29
ENDBRANCH   1  17
TORSDOF 13
ENDMDL
MODEL 2
REMARK VINA RESULT:    -6.586      3.147      5.385
REMARK INTER + INTRA:         -11.324
REMARK INTER:                  -9.763
REMARK INTRA:                  -1.560
REMARK UNBOUND:                -1.272
REMARK SMILES OC[C@@H]1O[C@H](O[C@@]2(CO)O[C@@H](CO)[C@@H](O)[C@@H]2O)[C@@H](O)[C@H](O)[C@H]1O
REMARK SMILES IDX 6 1 5 2 3 3 22 4 4 5 20 6 18 7 2 8 1 9 23 11 21 13 19 15
REMARK SMILES IDX 7 17 16 18 10 19 14 20 11 21 8 22 9 23 17 25 15 27 12 29
REMARK SMILES IDX 13 30
REMARK H PARENT 1 10 23 12 21 14 19 16 9 24 17 26 15 28 13 31
REMARK Flexibility Score: inf
ROOT
ATOM      1  O   UNL     1     -35.995  -6.199 -14.846  1.00  0.00    -0.313 OA
ENDROOT
BRANCH   1   2
ATOM      2  C   UNL     1     -36.682  -5.666 -15.969  1.00  0.00     0.285 C 
ATOM      3  C   UNL     1     -38.201  -4.013 -16.583  1.00  0.00     0.178 C 
ATOM      4  C   UNL     1     -37.205  -3.120 -17.374  1.00  0.00     0.177 C 
ATOM      5  O   UNL     1     -37.544  -4.641 -15.496  1.00  0.00    -0.341 OA
ATOM      6  C   UNL     1     -35.741  -3.580 -17.158  1.00  0.00     0.179 C 
ATOM      7  C   UNL     1     -35.631  -5.111 -16.983  1.00  0.00     0.202 C 
BRANCH   3   8
ATOM      8  C   UNL     1     -39.389  -3.204 -16.050  1.00  0.00     0.191 C 
BRANCH   8   9
ATOM      9  O   UNL     1     -39.717  -3.611 -14.748  1.00  0.00    -0.394 OA
ATOM     10  H   UNL     1     -40.700  -3.744 -14.716  1.00  0.00     0.210 HD
ENDBRANCH   8   9
ENDBRANCH   3   8
BRANCH   4  11
ATOM     11  O   UNL     1     -37.507  -3.166 -18.746  1.00  0.00    -0.387 OA
ATOM     12  H   UNL     1     -38.487  -3.024 -18.833  1.00  0.00     0.211 HD
ENDBRANCH   4  11
BRANCH   6  13
ATOM     13  O   UNL     1     -35.210  -2.965 -16.010  1.00  0.00    -0.387 OA
ATOM     14  H   UNL     1     -35.555  -2.033 -15.997  1.00  0.00     0.211 HD
ENDBRANCH   6  13
BRANCH   7  15
ATOM     15  O   UNL     1     -35.725  -5.772 -18.219  1.00  0.00    -0.385 OA
ATOM     16  H   UNL     1     -35.138  -5.303 -18.867  1.00  0.00     0.211 HD
ENDBRANCH   7  15
ENDBRANCH   1   2
BRANCH   1  17
ATOM     17  C   UNL     1     -36.556  -7.403 -14.328  1.00  0.00     0.224 C 
ATOM     18  C   UNL     1     -37.018  -8.233 -15.535  1.00  0.00     0.208 C 
ATOM     19  O   UNL     1     -37.709  -7.156 -13.540  1.00  0.00    -0.337 OA
ATOM     20  C   UNL     1     -38.240  -8.967 -15.041  1.00  0.00     0.180 C 
ATOM     21  C   UNL     1     -38.661  -8.168 -13.794  1.00  0.00     0.179 C 
BRANCH  17  22
ATOM     22  C   UNL     1     -35.482  -8.124 -13.474  1.00  0.00     0.225 C 
BRANCH  22  23
ATOM     23  O   UNL     1     -34.852  -7.231 -12.595  1.00  0.00    -0.391 OA
ATOM     24  H   UNL     1     -34.574  -6.441 -13.133  1.00  0.00     0.210 HD
ENDBRANCH  22  23
ENDBRANCH  17  22
BRANCH  18  25
ATOM     25  O   UNL     1     -36.032  -9.125 -15.995  1.00  0.00    -0.385 OA
ATOM     26  H   UNL     1     -35.244  -8.573 -16.238  1.00  0.00     0.211 HD
ENDBRANCH  18  25
BRANCH  20  27
ATOM     27  O   UNL     1     -39.236  -8.984 -16.036  1.00  0.00    -0.387 OA
ATOM     28  H   UNL     1     -38.839  -8.553 -16.837  1.00  0.00     0.211 HD
ENDBRANCH  20  27
BRANCH  21  29
ATOM     29  C   UNL     1     -40.057  -7.525 -13.873  1.00  0.00     0.191 C 
BRANCH  29  30
ATOM     30  O   UNL     1     -40.071  -6.468 -14.794  1.00  0.00    -0.394 OA
ATOM     31  H   UNL     1     -40.343  -5.654 -14.296  1.00  0.00     0.210 HD
ENDBRANCH  29  30
ENDBRANCH  21  29
ENDBRANCH   1  17
TORSDOF 13
ENDMDL
MODEL 3
REMARK VINA RESULT:    -6.530      4.088      5.941
REMARK INTER + INTRA:         -11.238
REMARK INTER:                  -9.776
REMARK INTRA:                  -1.462
REMARK UNBOUND:                -1.272
REMARK SMILES OC[C@@H]1O[C@H](O[C@@]2(CO)O[C@@H](CO)[C@@H](O)[C@@H]2O)[C@@H](O)[C@H](O)[C@H]1O
REMARK SMILES IDX 6 1 5 2 3 3 22 4 4 5 20 6 18 7 2 8 1 9 23 11 21 13 19 15
REMARK SMILES IDX 7 17 16 18 10 19 14 20 11 21 8 22 9 23 17 25 15 27 12 29
REMARK SMILES IDX 13 30
REMARK H PARENT 1 10 23 12 21 14 19 16 9 24 17 26 15 28 13 31
REMARK Flexibility Score: inf
ROOT
ATOM      1  O   UNL     1     -36.249  -6.135 -14.870  1.00  0.00    -0.313 OA
ENDROOT
BRANCH   1   2
ATOM      2  C   UNL     1     -37.074  -5.015 -14.586  1.00  0.00     0.285 C 
ATOM      3  C   UNL     1     -37.144  -3.049 -13.344  1.00  0.00     0.178 C 
ATOM      4  C   UNL     1     -37.040  -2.061 -14.539  1.00  0.00     0.177 C 
ATOM      5  O   UNL     1     -36.406  -4.227 -13.612  1.00  0.00    -0.341 OA
ATOM      6  C   UNL     1     -36.689  -2.803 -15.855  1.00  0.00     0.179 C 
ATOM      7  C   UNL     1     -37.309  -4.217 -15.908  1.00  0.00     0.202 C 
BRANCH   3   8
ATOM      8  C   UNL     1     -36.631  -2.421 -12.043  1.00  0.00     0.191 C 
BRANCH   8   9
ATOM      9  O   UNL     1     -36.764  -1.026 -12.084  1.00  0.00    -0.394 OA
ATOM     10  H   UNL     1     -37.636  -0.797 -11.668  1.00  0.00     0.210 HD
ENDBRANCH   8   9
ENDBRANCH   3   8
BRANCH   4  11
ATOM     11  O   UNL     1     -38.257  -1.377 -14.704  1.00  0.00    -0.387 OA
ATOM     12  H   UNL     1     -38.342  -0.749 -13.939  1.00  0.00     0.211 HD
ENDBRANCH   4  11
BRANCH   6  13
ATOM     13  O   UNL     1     -35.293  -2.927 -15.977  1.00  0.00    -0.387 OA
ATOM     14  H   UNL     1     -35.116  -3.842 -16.320  1.00  0.00     0.211 HD
ENDBRANCH   6  13
BRANCH   7  15
ATOM     15  O   UNL     1     -38.676  -4.161 -16.228  1.00  0.00    -0.385 OA
ATOM     16  H   UNL     1     -38.800  -4.554 -17.130  1.00  0.00     0.211 HD
ENDBRANCH   7  15
ENDBRANCH   1   2
BRANCH   1  17
ATOM     17  C   UNL     1     -36.726  -7.369 -14.338  1.00  0.00     0.224 C 
ATOM     18  C   UNL     1     -37.153  -8.233 -15.533  1.00  0.00     0.208 C 
ATOM     19  O   UNL     1     -37.880  -7.189 -13.533  1.00  0.00    -0.337 OA
ATOM     20  C   UNL     1     -38.319  -9.039 -15.017  1.00  0.00     0.180 C 
ATOM     21  C   UNL     1     -38.771  -8.261 -13.769  1.00  0.00     0.179 C 
BRANCH  17  22
ATOM     22  C   UNL     1     -35.596  -8.016 -13.495  1.00  0.00     0.225 C 
BRANCH  22  23
ATOM     23  O   UNL     1     -34.898  -7.049 -12.758  1.00  0.00    -0.391 OA
ATOM     24  H   UNL     1     -35.287  -6.165 -12.997  1.00  0.00     0.210 HD
ENDBRANCH  22  23
ENDBRANCH  17  22
BRANCH  18  25
ATOM     25  O   UNL     1     -36.119  -9.065 -16.003  1.00  0.00    -0.385 OA
ATOM     26  H   UNL     1     -35.789  -9.574 -15.218  1.00  0.00     0.211 HD
ENDBRANCH  18  25
BRANCH  20  27
ATOM     27  O   UNL     1     -39.326  -9.125 -15.997  1.00  0.00    -0.387 OA
ATOM     28  H   UNL     1     -39.553 -10.088 -16.081  1.00  0.00     0.211 HD
ENDBRANCH  20  27
BRANCH  21  29
ATOM     29  C   UNL     1     -40.206  -7.707 -13.830  1.00  0.00     0.191 C 
BRANCH  29  30
ATOM     30  O   UNL     1     -40.263  -6.550 -14.620  1.00  0.00    -0.394 OA
ATOM     31  H   UNL     1     -40.680  -6.810 -15.483  1.00  0.00     0.210 HD
ENDBRANCH  29  30
ENDBRANCH  21  29
ENDBRANCH   1  17
TORSDOF 13
ENDMDL
MODEL 4
REMARK VINA RESULT:    -6.511      2.543      4.414
REMARK INTER + INTRA:         -11.209
REMARK INTER:                  -9.565
REMARK INTRA:                  -1.643
REMARK UNBOUND:                -1.272
REMARK SMILES OC[C@@H]1O[C@H](O[C@@]2(CO)O[C@@H](CO)[C@@H](O)[C@@H]2O)[C@@H](O)[C@H](O)[C@H]1O
REMARK SMILES IDX 6 1 5 2 3 3 22 4 4 5 20 6 18 7 2 8 1 9 23 11 21 13 19 15
REMARK SMILES IDX 7 17 16 18 10 19 14 20 11 21 8 22 9 23 17 25 15 27 12 29
REMARK SMILES IDX 13 30
REMARK H PARENT 1 10 23 12 21 14 19 16 9 24 17 26 15 28 13 31
REMARK Flexibility Score: inf
ROOT
ATOM      1  O   UNL     1     -36.007  -6.395 -15.879  1.00  0.00    -0.313 OA
ENDROOT
BRANCH   1   2
ATOM      2  C   UNL     1     -36.603  -5.328 -16.601  1.00  0.00     0.285 C 
ATOM      3  C   UNL     1     -36.724  -3.005 -16.686  1.00  0.00     0.178 C 
ATOM      4  C   UNL     1     -35.931  -2.818 -18.010  1.00  0.00     0.177 C 
ATOM      5  O   UNL     1     -36.224  -4.116 -15.964  1.00  0.00    -0.341 OA
ATOM      6  C   UNL     1     -35.258  -4.142 -18.455  1.00  0.00     0.179 C 
ATOM      7  C   UNL     1     -36.104  -5.380 -18.080  1.00  0.00     0.202 C 
BRANCH   3   8
ATOM      8  C   UNL     1     -36.649  -1.757 -15.800  1.00  0.00     0.191 C 
BRANCH   8   9
ATOM      9  O   UNL     1     -35.742  -0.829 -16.332  1.00  0.00    -0.394 OA
ATOM     10  H   UNL     1     -35.780  -0.909 -17.321  1.00  0.00     0.210 HD
ENDBRANCH   8   9
ENDBRANCH   3   8
BRANCH   4  11
ATOM     11  O   UNL     1     -36.794  -2.373 -19.027  1.00  0.00    -0.387 OA
ATOM     12  H   UNL     1     -37.371  -3.143 -19.275  1.00  0.00     0.211 HD
ENDBRANCH   4  11
BRANCH   6  13
ATOM     13  O   UNL     1     -33.997  -4.267 -17.846  1.00  0.00    -0.387 OA
ATOM     14  H   UNL     1     -33.329  -3.925 -18.496  1.00  0.00     0.211 HD
ENDBRANCH   6  13
BRANCH   7  15
ATOM     15  O   UNL     1     -37.178  -5.550 -18.969  1.00  0.00    -0.385 OA
ATOM     16  H   UNL     1     -38.021  -5.515 -18.448  1.00  0.00     0.211 HD
ENDBRANCH   7  15
ENDBRANCH   1   2
BRANCH   1  17
ATOM     17  C   UNL     1     -36.875  -7.035 -14.947  1.00  0.00     0.224 C 
ATOM     18  C   UNL     1     -38.260  -7.105 -15.605  1.00  0.00     0.208 C 
ATOM     19  O   UNL     1     -37.028  -6.278 -13.758  1.00  0.00    -0.337 OA
ATOM     20  C   UNL     1     -39.229  -6.969 -14.458  1.00  0.00     0.180 C 
ATOM     21  C   UNL     1     -38.372  -6.366 -13.331  1.00  0.00     0.179 C 
BRANCH  17  22
ATOM     22  C   UNL     1     -36.295  -8.432 -14.608  1.00  0.00     0.225 C 
BRANCH  22  23
ATOM     23  O   UNL     1     -35.929  -9.125 -15.770  1.00  0.00    -0.391 OA
ATOM     24  H   UNL     1     -34.938  -9.212 -15.756  1.00  0.00     0.210 HD
ENDBRANCH  22  23
ENDBRANCH  17  22
BRANCH  18  25
ATOM     25  O   UNL     1     -38.468  -8.301 -16.317  1.00  0.00    -0.385 OA
ATOM     26  H   UNL     1     -38.694  -8.994 -15.643  1.00  0.00     0.211 HD
ENDBRANCH  18  25
BRANCH  20  27
ATOM     27  O   UNL     1     -40.307  -6.140 -14.822  1.00  0.00    -0.387 OA
ATOM     28  H   UNL     1     -39.913  -5.356 -15.288  1.00  0.00     0.211 HD
ENDBRANCH  20  27
BRANCH  21  29
ATOM     29  C   UNL     1     -38.826  -4.981 -12.837  1.00  0.00     0.191 C 
BRANCH  29  30
ATOM     30  O   UNL     1     -38.458  -3.979 -13.746  1.00  0.00    -0.394 OA
ATOM     31  H   UNL     1     -37.465  -3.953 -13.761  1.00  0.00     0.210 HD
ENDBRANCH  29  30
ENDBRANCH  21  29
ENDBRANCH   1  17
TORSDOF 13
ENDMDL
MODEL 5
REMARK VINA RESULT:    -6.261      2.017      3.941
REMARK INTER + INTRA:         -10.828
REMARK INTER:                  -9.396
REMARK INTRA:                  -1.431
REMARK UNBOUND:                -1.272
REMARK SMILES OC[C@@H]1O[C@H](O[C@@]2(CO)O[C@@H](CO)[C@@H](O)[C@@H]2O)[C@@H](O)[C@H](O)[C@H]1O
REMARK SMILES IDX 6 1 5 2 3 3 22 4 4 5 20 6 18 7 2 8 1 9 23 11 21 13 19 15
REMARK SMILES IDX 7 17 16 18 10 19 14 20 11 21 8 22 9 23 17 25 15 27 12 29
REMARK SMILES IDX 13 30
REMARK H PARENT 1 10 23 12 21 14 19 16 9 24 17 26 15 28 13 31
REMARK Flexibility Score: inf
ROOT
ATOM      1  O   UNL     1     -37.160  -5.703 -17.199  1.00  0.00    -0.313 OA
ENDROOT
BRANCH   1   2
ATOM      2  C   UNL     1     -35.866  -5.310 -17.629  1.00  0.00     0.285 C 
ATOM      3  C   UNL     1     -34.574  -5.009 -19.542  1.00  0.00     0.178 C 
ATOM      4  C   UNL     1     -34.500  -3.457 -19.483  1.00  0.00     0.177 C 
ATOM      5  O   UNL     1     -35.819  -5.462 -19.040  1.00  0.00    -0.341 OA
ATOM      6  C   UNL     1     -35.474  -2.886 -18.420  1.00  0.00     0.179 C 
ATOM      7  C   UNL     1     -35.624  -3.827 -17.204  1.00  0.00     0.202 C 
BRANCH   3   8
ATOM      8  C   UNL     1     -34.390  -5.531 -20.971  1.00  0.00     0.191 C 
BRANCH   8   9
ATOM      9  O   UNL     1     -33.295  -4.906 -21.586  1.00  0.00    -0.394 OA
ATOM     10  H   UNL     1     -32.472  -5.257 -21.156  1.00  0.00     0.210 HD
ENDBRANCH   8   9
ENDBRANCH   3   8
BRANCH   4  11
ATOM     11  O   UNL     1     -33.189  -3.052 -19.175  1.00  0.00    -0.387 OA
ATOM     12  H   UNL     1     -32.732  -3.835 -18.768  1.00  0.00     0.211 HD
ENDBRANCH   4  11
BRANCH   6  13
ATOM     13  O   UNL     1     -36.745  -2.694 -18.990  1.00  0.00    -0.387 OA
ATOM     14  H   UNL     1     -36.623  -2.709 -19.976  1.00  0.00     0.211 HD
ENDBRANCH   6  13
BRANCH   7  15
ATOM     15  O   UNL     1     -34.519  -3.723 -16.342  1.00  0.00    -0.385 OA
ATOM     16  H   UNL     1     -34.678  -4.312 -15.560  1.00  0.00     0.211 HD
ENDBRANCH   7  15
ENDBRANCH   1   2
BRANCH   1  17
ATOM     17  C   UNL     1     -37.184  -6.389 -15.949  1.00  0.00     0.224 C 
ATOM     18  C   UNL     1     -38.401  -5.863 -15.176  1.00  0.00     0.208 C 
ATOM     19  O   UNL     1     -36.043  -6.093 -15.161  1.00  0.00    -0.337 OA
ATOM     20  C   UNL     1     -37.975  -5.902 -13.731  1.00  0.00     0.180 C 
ATOM     21  C   UNL     1     -36.439  -5.981 -13.809  1.00  0.00     0.179 C 
BRANCH  17  22
ATOM     22  C   UNL     1     -37.252  -7.913 -16.222  1.00  0.00     0.225 C 
BRANCH  22  23
ATOM     23  O   UNL     1     -36.005  -8.520 -16.017  1.00  0.00    -0.391 OA
ATOM     24  H   UNL     1     -35.536  -8.525 -16.895  1.00  0.00     0.210 HD
ENDBRANCH  22  23
ENDBRANCH  17  22
BRANCH  18  25
ATOM     25  O   UNL     1     -39.560  -6.631 -15.393  1.00  0.00    -0.385 OA
ATOM     26  H   UNL     1     -40.182  -6.060 -15.915  1.00  0.00     0.211 HD
ENDBRANCH  18  25
BRANCH  20  27
ATOM     27  O   UNL     1     -38.424  -4.752 -13.056  1.00  0.00    -0.387 OA
ATOM     28  H   UNL     1     -37.675  -4.101 -13.082  1.00  0.00     0.211 HD
ENDBRANCH  20  27
BRANCH  21  29
ATOM     29  C   UNL     1     -35.692  -4.797 -13.171  1.00  0.00     0.191 C 
BRANCH  29  30
ATOM     30  O   UNL     1     -36.052  -3.588 -13.784  1.00  0.00    -0.394 OA
ATOM     31  H   UNL     1     -35.228  -3.039 -13.846  1.00  0.00     0.210 HD
ENDBRANCH  29  30
ENDBRANCH  21  29
ENDBRANCH   1  17
TORSDOF 13
ENDMDL
MODEL 6
REMARK VINA RESULT:    -6.128      2.446      4.251
REMARK INTER + INTRA:         -10.624
REMARK INTER:                  -9.273
REMARK INTRA:                  -1.351
REMARK UNBOUND:                -1.272
REMARK SMILES OC[C@@H]1O[C@H](O[C@@]2(CO)O[C@@H](CO)[C@@H](O)[C@@H]2O)[C@@H](O)[C@H](O)[C@H]1O
REMARK SMILES IDX 6 1 5 2 3 3 22 4 4 5 20 6 18 7 2 8 1 9 23 11 21 13 19 15
REMARK SMILES IDX 7 17 16 18 10 19 14 20 11 21 8 22 9 23 17 25 15 27 12 29
REMARK SMILES IDX 13 30
REMARK H PARENT 1 10 23 12 21 14 19 16 9 24 17 26 15 28 13 31
REMARK Flexibility Score: inf
ROOT
ATOM      1  O   UNL     1     -36.989  -6.753 -16.625  1.00  0.00    -0.313 OA
ENDROOT
BRANCH   1   2
ATOM      2  C   UNL     1     -36.795  -5.351 -16.734  1.00  0.00     0.285 C 
ATOM      3  C   UNL     1     -35.391  -3.755 -17.681  1.00  0.00     0.178 C 
ATOM      4  C   UNL     1     -36.398  -3.212 -18.734  1.00  0.00     0.177 C 
ATOM      5  O   UNL     1     -35.599  -5.140 -17.469  1.00  0.00    -0.341 OA
ATOM      6  C   UNL     1     -37.659  -4.109 -18.823  1.00  0.00     0.179 C 
ATOM      7  C   UNL     1     -38.032  -4.728 -17.457  1.00  0.00     0.202 C 
BRANCH   3   8
ATOM      8  C   UNL     1     -33.939  -3.528 -18.115  1.00  0.00     0.191 C 
BRANCH   8   9
ATOM      9  O   UNL     1     -33.067  -3.707 -17.031  1.00  0.00    -0.394 OA
ATOM     10  H   UNL     1     -32.525  -2.880 -16.945  1.00  0.00     0.210 HD
ENDBRANCH   8   9
ENDBRANCH   3   8
BRANCH   4  11
ATOM     11  O   UNL     1     -36.784  -1.903 -18.395  1.00  0.00    -0.387 OA
ATOM     12  H   UNL     1     -37.709  -1.958 -18.036  1.00  0.00     0.211 HD
ENDBRANCH   4  11
BRANCH   6  13
ATOM     13  O   UNL     1     -37.438  -5.156 -19.736  1.00  0.00    -0.387 OA
ATOM     14  H   UNL     1     -38.288  -5.667 -19.798  1.00  0.00     0.211 HD
ENDBRANCH   6  13
BRANCH   7  15
ATOM     15  O   UNL     1     -38.678  -3.789 -16.634  1.00  0.00    -0.385 OA
ATOM     16  H   UNL     1     -38.423  -3.974 -15.694  1.00  0.00     0.211 HD
ENDBRANCH   7  15
ENDBRANCH   1   2
BRANCH   1  17
ATOM     17  C   UNL     1     -37.359  -7.198 -15.322  1.00  0.00     0.224 C 
ATOM     18  C   UNL     1     -38.801  -7.717 -15.422  1.00  0.00     0.208 C 
ATOM     19  O   UNL     1     -37.373  -6.136 -14.383  1.00  0.00    -0.337 OA
ATOM     20  C   UNL     1     -39.412  -7.388 -14.083  1.00  0.00     0.180 C 
ATOM     21  C   UNL     1     -38.470  -6.313 -13.510  1.00  0.00     0.179 C 
BRANCH  17  22
ATOM     22  C   UNL     1     -36.355  -8.287 -14.866  1.00  0.00     0.225 C 
BRANCH  22  23
ATOM     23  O   UNL     1     -35.998  -9.125 -15.933  1.00  0.00    -0.391 OA
ATOM     24  H   UNL     1     -35.872 -10.037 -15.556  1.00  0.00     0.210 HD
ENDBRANCH  22  23
ENDBRANCH  17  22
BRANCH  18  25
ATOM     25  O   UNL     1     -38.869  -9.095 -15.695  1.00  0.00    -0.385 OA
ATOM     26  H   UNL     1     -38.841  -9.558 -14.817  1.00  0.00     0.211 HD
ENDBRANCH  18  25
BRANCH  20  27
ATOM     27  O   UNL     1     -40.730  -6.922 -14.247  1.00  0.00    -0.387 OA
ATOM     28  H   UNL     1     -41.316  -7.723 -14.225  1.00  0.00     0.211 HD
ENDBRANCH  20  27
BRANCH  21  29
ATOM     29  C   UNL     1     -39.124  -4.944 -13.252  1.00  0.00     0.191 C 
BRANCH  29  30
ATOM     30  O   UNL     1     -38.309  -3.904 -13.719  1.00  0.00    -0.394 OA
ATOM     31  H   UNL     1     -38.039  -3.369 -12.927  1.00  0.00     0.210 HD
ENDBRANCH  29  30
ENDBRANCH  21  29
ENDBRANCH   1  17
TORSDOF 13
ENDMDL
MODEL 7
REMARK VINA RESULT:    -5.967      2.642      5.950
REMARK INTER + INTRA:         -10.378
REMARK INTER:                  -9.225
REMARK INTRA:                  -1.154
REMARK UNBOUND:                -1.272
REMARK SMILES OC[C@@H]1O[C@H](O[C@@]2(CO)O[C@@H](CO)[C@@H](O)[C@@H]2O)[C@@H](O)[C@H](O)[C@H]1O
REMARK SMILES IDX 6 1 5 2 3 3 22 4 4 5 20 6 18 7 2 8 1 9 23 11 21 13 19 15
REMARK SMILES IDX 7 17 16 18 10 19 14 20 11 21 8 22 9 23 17 25 15 27 12 29
REMARK SMILES IDX 13 30
REMARK H PARENT 1 10 23 12 21 14 19 16 9 24 17 26 15 28 13 31
REMARK Flexibility Score: inf
ROOT
ATOM      1  O   UNL     1     -36.216  -4.420 -16.012  1.00  0.00    -0.313 OA
ENDROOT
BRANCH   1   2
ATOM      2  C   UNL     1     -36.799  -5.692 -16.250  1.00  0.00     0.285 C 
ATOM      3  C   UNL     1     -36.727  -7.910 -15.547  1.00  0.00     0.178 C 
ATOM      4  C   UNL     1     -38.117  -7.938 -14.851  1.00  0.00     0.177 C 
ATOM      5  O   UNL     1     -36.135  -6.630 -15.415  1.00  0.00    -0.341 OA
ATOM      6  C   UNL     1     -38.715  -6.513 -14.729  1.00  0.00     0.179 C 
ATOM      7  C   UNL     1     -38.325  -5.614 -15.924  1.00  0.00     0.202 C 
BRANCH   3   8
ATOM      8  C   UNL     1     -35.779  -8.963 -14.963  1.00  0.00     0.191 C 
BRANCH   8   9
ATOM      9  O   UNL     1     -35.388  -8.606 -13.665  1.00  0.00    -0.394 OA
ATOM     10  H   UNL     1     -36.124  -8.864 -13.051  1.00  0.00     0.210 HD
ENDBRANCH   8   9
ENDBRANCH   3   8
BRANCH   4  11
ATOM     11  O   UNL     1     -39.002  -8.750 -15.582  1.00  0.00    -0.387 OA
ATOM     12  H   UNL     1     -39.193  -9.548 -15.021  1.00  0.00     0.211 HD
ENDBRANCH   4  11
BRANCH   6  13
ATOM     13  O   UNL     1     -38.258  -5.901 -13.548  1.00  0.00    -0.387 OA
ATOM     14  H   UNL     1     -38.897  -5.170 -13.338  1.00  0.00     0.211 HD
ENDBRANCH   6  13
BRANCH   7  15
ATOM     15  O   UNL     1     -39.099  -5.912 -17.058  1.00  0.00    -0.385 OA
ATOM     16  H   UNL     1     -38.521  -6.381 -17.713  1.00  0.00     0.211 HD
ENDBRANCH   7  15
ENDBRANCH   1   2
BRANCH   1  17
ATOM     17  C   UNL     1     -36.199  -3.557 -17.147  1.00  0.00     0.224 C 
ATOM     18  C   UNL     1     -36.661  -2.176 -16.663  1.00  0.00     0.208 C 
ATOM     19  O   UNL     1     -37.123  -3.970 -18.141  1.00  0.00    -0.337 OA
ATOM     20  C   UNL     1     -37.404  -1.594 -17.839  1.00  0.00     0.180 C 
ATOM     21  C   UNL     1     -37.725  -2.824 -18.708  1.00  0.00     0.179 C 
BRANCH  17  22
ATOM     22  C   UNL     1     -34.766  -3.544 -17.738  1.00  0.00     0.225 C 
BRANCH  22  23
ATOM     23  O   UNL     1     -33.804  -3.754 -16.739  1.00  0.00    -0.391 OA
ATOM     24  H   UNL     1     -33.597  -4.727 -16.735  1.00  0.00     0.210 HD
ENDBRANCH  22  23
ENDBRANCH  17  22
BRANCH  18  25
ATOM     25  O   UNL     1     -35.592  -1.349 -16.269  1.00  0.00    -0.385 OA
ATOM     26  H   UNL     1     -35.396  -0.756 -17.040  1.00  0.00     0.211 HD
ENDBRANCH  18  25
BRANCH  20  27
ATOM     27  O   UNL     1     -38.561  -0.921 -17.404  1.00  0.00    -0.387 OA
ATOM     28  H   UNL     1     -38.427  -0.730 -16.438  1.00  0.00     0.211 HD
ENDBRANCH  20  27
BRANCH  21  29
ATOM     29  C   UNL     1     -39.224  -3.102 -18.914  1.00  0.00     0.191 C 
BRANCH  29  30
ATOM     30  O   UNL     1     -39.420  -4.323 -19.576  1.00  0.00    -0.394 OA
ATOM     31  H   UNL     1     -38.762  -4.357 -20.319  1.00  0.00     0.210 HD
ENDBRANCH  29  30
ENDBRANCH  21  29
ENDBRANCH   1  17
TORSDOF 13
ENDMDL
MODEL 8
REMARK VINA RESULT:    -5.868      2.622      6.196
REMARK INTER + INTRA:         -10.228
REMARK INTER:                  -8.796
REMARK INTRA:                  -1.432
REMARK UNBOUND:                -1.272
REMARK SMILES OC[C@@H]1O[C@H](O[C@@]2(CO)O[C@@H](CO)[C@@H](O)[C@@H]2O)[C@@H](O)[C@H](O)[C@H]1O
REMARK SMILES IDX 6 1 5 2 3 3 22 4 4 5 20 6 18 7 2 8 1 9 23 11 21 13 19 15
REMARK SMILES IDX 7 17 16 18 10 19 14 20 11 21 8 22 9 23 17 25 15 27 12 29
REMARK SMILES IDX 13 30
REMARK H PARENT 1 10 23 12 21 14 19 16 9 24 17 26 15 28 13 31
REMARK Flexibility Score: inf
ROOT
ATOM      1  O   UNL     1     -37.420  -3.783 -15.352  1.00  0.00    -0.313 OA
ENDROOT
BRANCH   1   2
ATOM      2  C   UNL     1     -37.161  -5.173 -15.479  1.00  0.00     0.285 C 
ATOM      3  C   UNL     1     -36.271  -6.992 -14.331  1.00  0.00     0.178 C 
ATOM      4  C   UNL     1     -37.609  -7.752 -14.107  1.00  0.00     0.177 C 
ATOM      5  O   UNL     1     -36.488  -5.592 -14.301  1.00  0.00    -0.341 OA
ATOM      6  C   UNL     1     -38.828  -6.870 -14.483  1.00  0.00     0.179 C 
ATOM      7  C   UNL     1     -38.519  -5.922 -15.663  1.00  0.00     0.202 C 
BRANCH   3   8
ATOM      8  C   UNL     1     -35.226  -7.360 -13.273  1.00  0.00     0.191 C 
BRANCH   8   9
ATOM      9  O   UNL     1     -35.263  -8.735 -13.002  1.00  0.00    -0.394 OA
ATOM     10  H   UNL     1     -36.135  -8.930 -12.569  1.00  0.00     0.210 HD
ENDBRANCH   8   9
ENDBRANCH   3   8
BRANCH   4  11
ATOM     11  O   UNL     1     -37.629  -8.924 -14.883  1.00  0.00    -0.387 OA
ATOM     12  H   UNL     1     -36.770  -8.957 -15.381  1.00  0.00     0.211 HD
ENDBRANCH   4  11
BRANCH   6  13
ATOM     13  O   UNL     1     -39.213  -6.090 -13.378  1.00  0.00    -0.387 OA
ATOM     14  H   UNL     1     -38.955  -5.153 -13.585  1.00  0.00     0.211 HD
ENDBRANCH   6  13
BRANCH   7  15
ATOM     15  O   UNL     1     -38.555  -6.608 -16.889  1.00  0.00    -0.385 OA
ATOM     16  H   UNL     1     -38.307  -7.554 -16.722  1.00  0.00     0.211 HD
ENDBRANCH   7  15
ENDBRANCH   1   2
BRANCH   1  17
ATOM     17  C   UNL     1     -36.672  -2.959 -16.243  1.00  0.00     0.224 C 
ATOM     18  C   UNL     1     -37.519  -2.793 -17.512  1.00  0.00     0.208 C 
ATOM     19  O   UNL     1     -35.458  -3.575 -16.642  1.00  0.00    -0.337 OA
ATOM     20  C   UNL     1     -36.510  -2.703 -18.629  1.00  0.00     0.180 C 
ATOM     21  C   UNL     1     -35.230  -3.291 -18.007  1.00  0.00     0.179 C 
BRANCH  17  22
ATOM     22  C   UNL     1     -36.368  -1.613 -15.537  1.00  0.00     0.225 C 
BRANCH  22  23
ATOM     23  O   UNL     1     -37.401  -1.259 -14.657  1.00  0.00    -0.391 OA
ATOM     24  H   UNL     1     -37.059  -0.511 -14.095  1.00  0.00     0.210 HD
ENDBRANCH  22  23
ENDBRANCH  17  22
BRANCH  18  25
ATOM     25  O   UNL     1     -38.346  -1.655 -17.472  1.00  0.00    -0.385 OA
ATOM     26  H   UNL     1     -39.011  -1.815 -16.753  1.00  0.00     0.211 HD
ENDBRANCH  18  25
BRANCH  20  27
ATOM     27  O   UNL     1     -36.953  -3.433 -19.749  1.00  0.00    -0.387 OA
ATOM     28  H   UNL     1     -36.717  -4.382 -19.576  1.00  0.00     0.211 HD
ENDBRANCH  20  27
BRANCH  21  29
ATOM     29  C   UNL     1     -34.694  -4.559 -18.694  1.00  0.00     0.191 C 
BRANCH  29  30
ATOM     30  O   UNL     1     -35.439  -5.685 -18.318  1.00  0.00    -0.394 OA
ATOM     31  H   UNL     1     -34.902  -6.483 -18.565  1.00  0.00     0.210 HD
ENDBRANCH  29  30
ENDBRANCH  21  29
ENDBRANCH   1  17
TORSDOF 13
ENDMDL
MODEL 9
REMARK VINA RESULT:    -5.788      5.070      7.630
REMARK INTER + INTRA:         -10.106
REMARK INTER:                  -8.540
REMARK INTRA:                  -1.566
REMARK UNBOUND:                -1.272
REMARK SMILES OC[C@@H]1O[C@H](O[C@@]2(CO)O[C@@H](CO)[C@@H](O)[C@@H]2O)[C@@H](O)[C@H](O)[C@H]1O
REMARK SMILES IDX 6 1 5 2 3 3 22 4 4 5 20 6 18 7 2 8 1 9 23 11 21 13 19 15
REMARK SMILES IDX 7 17 16 18 10 19 14 20 11 21 8 22 9 23 17 25 15 27 12 29
REMARK SMILES IDX 13 30
REMARK H PARENT 1 10 23 12 21 14 19 16 9 24 17 26 15 28 13 31
REMARK Flexibility Score: inf
ROOT
ATOM      1  O   UNL     1     -38.034  -3.858 -13.634  1.00  0.00    -0.313 OA
ENDROOT
BRANCH   1   2
ATOM      2  C   UNL     1     -37.706  -5.212 -13.359  1.00  0.00     0.285 C 
ATOM      3  C   UNL     1     -38.416  -7.393 -13.750  1.00  0.00     0.178 C 
ATOM      4  C   UNL     1     -37.257  -7.808 -14.698  1.00  0.00     0.177 C 
ATOM      5  O   UNL     1     -38.728  -6.022 -13.921  1.00  0.00    -0.341 OA
ATOM      6  C   UNL     1     -36.403  -6.582 -15.114  1.00  0.00     0.179 C 
ATOM      7  C   UNL     1     -36.311  -5.528 -13.988  1.00  0.00     0.202 C 
BRANCH   3   8
ATOM      8  C   UNL     1     -39.678  -8.228 -13.998  1.00  0.00     0.191 C 
BRANCH   8   9
ATOM      9  O   UNL     1     -39.473  -9.125 -15.057  1.00  0.00    -0.394 OA
ATOM     10  H   UNL     1     -40.096  -9.887 -14.926  1.00  0.00     0.210 HD
ENDBRANCH   8   9
ENDBRANCH   3   8
BRANCH   4  11
ATOM     11  O   UNL     1     -36.432  -8.752 -14.062  1.00  0.00    -0.387 OA
ATOM     12  H   UNL     1     -36.143  -9.400 -14.758  1.00  0.00     0.211 HD
ENDBRANCH   4  11
BRANCH   6  13
ATOM     13  O   UNL     1     -36.965  -5.969 -16.248  1.00  0.00    -0.387 OA
ATOM     14  H   UNL     1     -37.600  -6.623 -16.642  1.00  0.00     0.211 HD
ENDBRANCH   6  13
BRANCH   7  15
ATOM     15  O   UNL     1     -35.390  -5.917 -13.001  1.00  0.00    -0.385 OA
ATOM     16  H   UNL     1     -35.162  -5.120 -12.457  1.00  0.00     0.211 HD
ENDBRANCH   7  15
ENDBRANCH   1   2
BRANCH   1  17
ATOM     17  C   UNL     1     -38.624  -3.160 -12.539  1.00  0.00     0.224 C 
ATOM     18  C   UNL     1     -37.693  -3.354 -11.334  1.00  0.00     0.208 C 
ATOM     19  O   UNL     1     -39.880  -3.710 -12.175  1.00  0.00    -0.337 OA
ATOM     20  C   UNL     1     -38.619  -3.389 -10.145  1.00  0.00     0.180 C 
ATOM     21  C   UNL     1     -39.994  -3.691 -10.767  1.00  0.00     0.179 C 
BRANCH  17  22
ATOM     22  C   UNL     1     -38.799  -1.672 -12.937  1.00  0.00     0.225 C 
BRANCH  22  23
ATOM     23  O   UNL     1     -37.690  -1.207 -13.657  1.00  0.00    -0.391 OA
ATOM     24  H   UNL     1     -38.016  -0.479 -14.253  1.00  0.00     0.210 HD
ENDBRANCH  22  23
ENDBRANCH  17  22
BRANCH  18  25
ATOM     25  O   UNL     1     -36.736  -2.329 -11.213  1.00  0.00    -0.385 OA
ATOM     26  H   UNL     1     -37.219  -1.474 -11.356  1.00  0.00     0.211 HD
ENDBRANCH  18  25
BRANCH  20  27
ATOM     27  O   UNL     1     -38.207  -4.378  -9.232  1.00  0.00    -0.387 OA
ATOM     28  H   UNL     1     -38.905  -4.417  -8.527  1.00  0.00     0.211 HD
ENDBRANCH  20  27
BRANCH  21  29
ATOM     29  C   UNL     1     -40.642  -5.009 -10.305  1.00  0.00     0.191 C 
BRANCH  29  30
ATOM     30  O   UNL     1     -40.124  -6.098 -11.019  1.00  0.00    -0.394 OA
ATOM     31  H   UNL     1     -40.890  -6.695 -11.231  1.00  0.00     0.210 HD
ENDBRANCH  29  30
ENDBRANCH  21  29
ENDBRANCH   1  17
TORSDOF 13
ENDMDL
