MODEL 1
REMARK VINA RESULT:    -4.594      0.000      0.000
REMARK INTER + INTRA:          -4.886
REMARK INTER:                  -4.863
REMARK INTRA:                  -0.024
REMARK UNBOUND:                -0.024
REMARK SMILES O=C([O-])c1cccnc1
REMARK SMILES IDX 4 1 5 2 9 3 6 4 8 5 7 6 2 7 1 8 3 9
REMARK H PARENT
REMARK Flexibility Score: inf
ROOT
ATOM      1  C   UNL     1      26.058  12.698  18.211  1.00  0.00     0.016 A 
ATOM      2  C   UNL     1      25.672  13.975  17.770  1.00  0.00     0.013 A 
ATOM      3  C   UNL     1      25.749  11.590  17.401  1.00  0.00     0.120 A 
ATOM      4  C   UNL     1      25.002  14.125  16.555  1.00  0.00     0.021 A 
ATOM      5  N   UNL     1      25.094  11.765  16.222  1.00  0.00    -0.264 NA
ATOM      6  C   UNL     1      24.717  12.996  15.787  1.00  0.00     0.111 A 
ENDROOT
BRANCH   1   7
ATOM      7  C   UNL     1      26.770  12.517  19.495  1.00  0.00     0.073 C 
ATOM      8  O   UNL     1      26.841  13.462  20.325  1.00  0.00    -0.545 OA
ATOM      9  O   UNL     1      27.370  11.302  19.802  1.00  0.00    -0.545 OA
ENDBRANCH   1   7
TORSDOF 1
ENDMDL
MODEL 2
REMARK VINA RESULT:    -4.451      0.914      1.600
REMARK INTER + INTRA:          -4.735
REMARK INTER:                  -4.711
REMARK INTRA:                  -0.023
REMARK UNBOUND:                -0.024
REMARK SMILES O=C([O-])c1cccnc1
REMARK SMILES IDX 4 1 5 2 9 3 6 4 8 5 7 6 2 7 1 8 3 9
REMARK H PARENT
REMARK Flexibility Score: inf
ROOT
ATOM      1  C   UNL     1      26.071  12.662  18.215  1.00  0.00     0.016 A 
ATOM      2  C   UNL     1      25.779  11.577  17.372  1.00  0.00     0.013 A 
ATOM      3  C   UNL     1      25.675  13.949  17.809  1.00  0.00     0.120 A 
ATOM      4  C   UNL     1      25.109  11.786  16.165  1.00  0.00     0.021 A 
ATOM      5  N   UNL     1      25.024  14.125  16.628  1.00  0.00    -0.264 NA
ATOM      6  C   UNL     1      24.737  13.082  15.806  1.00  0.00     0.111 A 
ENDROOT
BRANCH   1   7
ATOM      7  C   UNL     1      26.779  12.462  19.498  1.00  0.00     0.073 C 
ATOM      8  O   UNL     1      26.838  13.390  20.348  1.00  0.00    -0.545 OA
ATOM      9  O   UNL     1      27.388  11.246  19.784  1.00  0.00    -0.545 OA
ENDBRANCH   1   7
TORSDOF 1
ENDMDL
MODEL 3
REMARK VINA RESULT:    -4.386      2.841      3.609
REMARK INTER + INTRA:          -4.666
REMARK INTER:                  -4.650
REMARK INTRA:                  -0.016
REMARK UNBOUND:                -0.024
REMARK SMILES O=C([O-])c1cccnc1
REMARK SMILES IDX 4 1 5 2 9 3 6 4 8 5 7 6 2 7 1 8 3 9
REMARK H PARENT
REMARK Flexibility Score: inf
ROOT
ATOM      1  C   UNL     1      25.835  12.737  17.490  1.00  0.00     0.016 A 
ATOM      2  C   UNL     1      25.751  13.983  18.135  1.00  0.00     0.013 A 
ATOM      3  C   UNL     1      26.384  11.654  18.199  1.00  0.00     0.120 A 
ATOM      4  C   UNL     1      26.203  14.125  19.448  1.00  0.00     0.021 A 
ATOM      5  N   UNL     1      26.817  11.820  19.478  1.00  0.00    -0.264 NA
ATOM      6  C   UNL     1      26.740  13.020  20.110  1.00  0.00     0.111 A 
ENDROOT
BRANCH   1   7
ATOM      7  C   UNL     1      25.361  12.565  16.100  1.00  0.00     0.073 C 
ATOM      8  O   UNL     1      26.159  12.686  15.132  1.00  0.00    -0.545 OA
ATOM      9  O   UNL     1      24.029  12.265  15.842  1.00  0.00    -0.545 OA
ENDBRANCH   1   7
TORSDOF 1
ENDMDL
MODEL 4
REMARK VINA RESULT:    -3.850     17.235     18.149
REMARK INTER + INTRA:          -4.098
REMARK INTER:                  -4.077
REMARK INTRA:                  -0.021
REMARK UNBOUND:                -0.024
REMARK SMILES O=C([O-])c1cccnc1
REMARK SMILES IDX 4 1 5 2 9 3 6 4 8 5 7 6 2 7 1 8 3 9
REMARK H PARENT
REMARK Flexibility Score: inf
ROOT
ATOM      1  C   UNL     1      19.596  -3.245  13.654  1.00  0.00     0.016 A 
ATOM      2  C   UNL     1      20.462  -3.081  14.747  1.00  0.00     0.013 A 
ATOM      3  C   UNL     1      18.644  -4.278  13.704  1.00  0.00     0.120 A 
ATOM      4  C   UNL     1      20.367  -3.930  15.851  1.00  0.00     0.021 A 
ATOM      5  N   UNL     1      18.573  -5.092  14.792  1.00  0.00    -0.264 NA
ATOM      6  C   UNL     1      19.406  -4.942  15.855  1.00  0.00     0.111 A 
ENDROOT
BRANCH   1   7
ATOM      7  C   UNL     1      19.679  -2.355  12.475  1.00  0.00     0.073 C 
ATOM      8  O   UNL     1      19.991  -1.141  12.610  1.00  0.00    -0.545 OA
ATOM      9  O   UNL     1      19.415  -2.845  11.202  1.00  0.00    -0.545 OA
ENDBRANCH   1   7
TORSDOF 1
ENDMDL
MODEL 5
REMARK VINA RESULT:    -3.764     17.241     18.237
REMARK INTER + INTRA:          -4.008
REMARK INTER:                  -3.986
REMARK INTRA:                  -0.022
REMARK UNBOUND:                -0.024
REMARK SMILES O=C([O-])c1cccnc1
REMARK SMILES IDX 4 1 5 2 9 3 6 4 8 5 7 6 2 7 1 8 3 9
REMARK H PARENT
REMARK Flexibility Score: inf
ROOT
ATOM      1  C   UNL     1      19.354  -3.925  14.321  1.00  0.00     0.016 A 
ATOM      2  C   UNL     1      20.218  -2.842  14.084  1.00  0.00     0.013 A 
ATOM      3  C   UNL     1      18.432  -4.275  13.318  1.00  0.00     0.120 A 
ATOM      4  C   UNL     1      20.151  -2.143  12.877  1.00  0.00     0.021 A 
ATOM      5  N   UNL     1      18.388  -3.576  12.152  1.00  0.00    -0.264 NA
ATOM      6  C   UNL     1      19.219  -2.528  11.914  1.00  0.00     0.111 A 
ENDROOT
BRANCH   1   7
ATOM      7  C   UNL     1      19.408  -4.679  15.591  1.00  0.00     0.073 C 
ATOM      8  O   UNL     1      19.781  -4.115  16.655  1.00  0.00    -0.545 OA
ATOM      9  O   UNL     1      19.049  -6.021  15.630  1.00  0.00    -0.545 OA
ENDBRANCH   1   7
TORSDOF 1
ENDMDL
MODEL 6
REMARK VINA RESULT:    -3.705     17.132     18.199
REMARK INTER + INTRA:          -3.945
REMARK INTER:                  -3.925
REMARK INTRA:                  -0.020
REMARK UNBOUND:                -0.024
REMARK SMILES O=C([O-])c1cccnc1
REMARK SMILES IDX 4 1 5 2 9 3 6 4 8 5 7 6 2 7 1 8 3 9
REMARK H PARENT
REMARK Flexibility Score: inf
ROOT
ATOM      1  C   UNL     1      19.470  -3.895  14.550  1.00  0.00     0.016 A 
ATOM      2  C   UNL     1      18.457  -4.450  13.751  1.00  0.00     0.013 A 
ATOM      3  C   UNL     1      20.215  -2.820  14.033  1.00  0.00     0.120 A 
ATOM      4  C   UNL     1      18.206  -3.936  12.478  1.00  0.00     0.021 A 
ATOM      5  N   UNL     1      19.950  -2.338  12.790  1.00  0.00    -0.264 NA
ATOM      6  C   UNL     1      18.973  -2.868  12.009  1.00  0.00     0.111 A 
ENDROOT
BRANCH   1   7
ATOM      7  C   UNL     1      19.751  -4.425  15.902  1.00  0.00     0.073 C 
ATOM      8  O   UNL     1      19.809  -5.667  16.103  1.00  0.00    -0.545 OA
ATOM      9  O   UNL     1      19.954  -3.559  16.970  1.00  0.00    -0.545 OA
ENDBRANCH   1   7
TORSDOF 1
ENDMDL
MODEL 7
REMARK VINA RESULT:    -3.651      1.542      2.428
REMARK INTER + INTRA:          -3.888
REMARK INTER:                  -3.864
REMARK INTRA:                  -0.024
REMARK UNBOUND:                -0.024
REMARK SMILES O=C([O-])c1cccnc1
REMARK SMILES IDX 4 1 5 2 9 3 6 4 8 5 7 6 2 7 1 8 3 9
REMARK H PARENT
REMARK Flexibility Score: inf
ROOT
ATOM      1  C   UNL     1      25.696  11.748  17.548  1.00  0.00     0.016 A 
ATOM      2  C   UNL     1      25.063  11.617  16.301  1.00  0.00     0.013 A 
ATOM      3  C   UNL     1      25.854  13.038  18.085  1.00  0.00     0.120 A 
ATOM      4  C   UNL     1      24.606  12.750  15.624  1.00  0.00     0.021 A 
ATOM      5  N   UNL     1      25.401  14.124  17.405  1.00  0.00    -0.264 NA
ATOM      6  C   UNL     1      24.787  14.009  16.197  1.00  0.00     0.111 A 
ENDROOT
BRANCH   1   7
ATOM      7  C   UNL     1      26.186  10.561  18.282  1.00  0.00     0.073 C 
ATOM      8  O   UNL     1      25.967   9.401  17.842  1.00  0.00    -0.545 OA
ATOM      9  O   UNL     1      26.896  10.709  19.468  1.00  0.00    -0.545 OA
ENDBRANCH   1   7
TORSDOF 1
ENDMDL
MODEL 8
REMARK VINA RESULT:    -3.480     17.715     18.868
REMARK INTER + INTRA:          -3.707
REMARK INTER:                  -3.686
REMARK INTRA:                  -0.021
REMARK UNBOUND:                -0.024
REMARK SMILES O=C([O-])c1cccnc1
REMARK SMILES IDX 4 1 5 2 9 3 6 4 8 5 7 6 2 7 1 8 3 9
REMARK H PARENT
REMARK Flexibility Score: inf
ROOT
ATOM      1  C   UNL     1      19.010  -3.977  13.694  1.00  0.00     0.016 A 
ATOM      2  C   UNL     1      18.687  -4.954  14.651  1.00  0.00     0.013 A 
ATOM      3  C   UNL     1      20.031  -3.058  13.995  1.00  0.00     0.120 A 
ATOM      4  C   UNL     1      19.374  -5.000  15.865  1.00  0.00     0.021 A 
ATOM      5  N   UNL     1      20.684  -3.125  15.186  1.00  0.00    -0.264 NA
ATOM      6  C   UNL     1      20.380  -4.066  16.118  1.00  0.00     0.111 A 
ENDROOT
BRANCH   1   7
ATOM      7  C   UNL     1      18.295  -3.911  12.401  1.00  0.00     0.073 C 
ATOM      8  O   UNL     1      17.876  -4.962  11.847  1.00  0.00    -0.545 OA
ATOM      9  O   UNL     1      18.075  -2.688  11.779  1.00  0.00    -0.545 OA
ENDBRANCH   1   7
TORSDOF 1
ENDMDL
MODEL 9
REMARK VINA RESULT:    -2.593     17.537     18.626
REMARK INTER + INTRA:          -2.769
REMARK INTER:                  -2.750
REMARK INTRA:                  -0.019
REMARK UNBOUND:                -0.024
REMARK SMILES O=C([O-])c1cccnc1
REMARK SMILES IDX 4 1 5 2 9 3 6 4 8 5 7 6 2 7 1 8 3 9
REMARK H PARENT
REMARK Flexibility Score: inf
ROOT
ATOM      1  C   UNL     1      19.588  -4.210  15.143  1.00  0.00     0.016 A 
ATOM      2  C   UNL     1      19.037  -5.447  15.519  1.00  0.00     0.013 A 
ATOM      3  C   UNL     1      19.252  -3.685  13.882  1.00  0.00     0.120 A 
ATOM      4  C   UNL     1      18.178  -6.124  14.652  1.00  0.00     0.021 A 
ATOM      5  N   UNL     1      18.413  -4.367  13.057  1.00  0.00    -0.264 NA
ATOM      6  C   UNL     1      17.875  -5.563  13.411  1.00  0.00     0.111 A 
ENDROOT
BRANCH   1   7
ATOM      7  C   UNL     1      20.499  -3.475  16.046  1.00  0.00     0.073 C 
ATOM      8  O   UNL     1      21.621  -3.074  15.636  1.00  0.00    -0.545 OA
ATOM      9  O   UNL     1      20.130  -3.217  17.361  1.00  0.00    -0.545 OA
ENDBRANCH   1   7
TORSDOF 1
ENDMDL
