MODEL 1
REMARK VINA RESULT:    -3.038      0.000      0.000
REMARK INTER + INTRA:          -4.003
REMARK INTER:                  -3.748
REMARK INTRA:                  -0.254
REMARK UNBOUND:                -0.254
REMARK SMILES Oc1cc(O)c2cc(O)c(-c3cc(O)c(O)c(O)c3)[o+]c2c1
REMARK SMILES IDX 10 1 20 2 21 3 22 4 2 5 3 6 4 7 6 8 7 9 8 10 11 11 12 12
REMARK SMILES IDX 13 13 19 14 15 15 17 16 14 17 16 19 18 21 9 23 1 25 5 27
REMARK H PARENT 14 18 16 20 18 22 9 24 1 26 5 28
REMARK Flexibility Score: inf
ROOT
ATOM      1  C   UNL     1      12.261  35.078  13.589  1.00  0.00     0.402 A 
ATOM      2  O   UNL     1      13.033  36.155  13.475  1.00  0.00    -0.202 OA
ATOM      3  C   UNL     1      14.086  36.215  12.666  1.00  0.00     0.368 A 
ATOM      4  C   UNL     1      14.836  37.393  12.613  1.00  0.00     0.162 A 
ATOM      5  C   UNL     1      15.945  37.487  11.771  1.00  0.00     0.128 A 
ATOM      6  C   UNL     1      16.308  36.396  10.974  1.00  0.00     0.093 A 
ATOM      7  C   UNL     1      15.572  35.204  11.008  1.00  0.00     0.136 A 
ATOM      8  C   UNL     1      14.446  35.105  11.866  1.00  0.00     0.125 A 
ATOM      9  C   UNL     1      13.658  33.947  11.975  1.00  0.00     0.078 A 
ATOM     10  C   UNL     1      12.565  33.922  12.846  1.00  0.00     0.223 A 
ENDROOT
BRANCH   1  11
ATOM     11  C   UNL     1      11.109  35.137  14.519  1.00  0.00     0.091 A 
ATOM     12  C   UNL     1      11.295  35.200  15.910  1.00  0.00     0.068 A 
ATOM     13  C   UNL     1      10.192  35.232  16.775  1.00  0.00     0.162 A 
ATOM     14  C   UNL     1       9.805  35.073  14.005  1.00  0.00     0.068 A 
ATOM     15  C   UNL     1       8.889  35.191  16.251  1.00  0.00     0.200 A 
ATOM     16  C   UNL     1       8.699  35.107  14.861  1.00  0.00     0.162 A 
BRANCH  13  17
ATOM     17  O   UNL     1      10.388  35.301  18.154  1.00  0.00    -0.504 OA
ATOM     18  H   UNL     1      10.832  36.102  18.588  1.00  0.00     0.293 HD
ENDBRANCH  13  17
BRANCH  15  19
ATOM     19  O   UNL     1       7.779  35.227  17.097  1.00  0.00    -0.502 OA
ATOM     20  H   UNL     1       7.281  34.389  17.370  1.00  0.00     0.293 HD
ENDBRANCH  15  19
BRANCH  16  21
ATOM     21  O   UNL     1       7.418  35.056  14.310  1.00  0.00    -0.504 OA
ATOM     22  H   UNL     1       6.602  35.389  14.811  1.00  0.00     0.293 HD
ENDBRANCH  16  21
ENDBRANCH   1  11
BRANCH  10  23
ATOM     23  O   UNL     1      11.813  32.756  12.993  1.00  0.00    -0.500 OA
ATOM     24  H   UNL     1      12.023  32.075  13.711  1.00  0.00     0.294 HD
ENDBRANCH  10  23
BRANCH   5  25
ATOM     25  O   UNL     1      16.680  38.669  11.733  1.00  0.00    -0.507 OA
ATOM     26  H   UNL     1      16.796  39.249  12.556  1.00  0.00     0.293 HD
ENDBRANCH   5  25
BRANCH   7  27
ATOM     27  O   UNL     1      15.996  34.162  10.179  1.00  0.00    -0.507 OA
ATOM     28  H   UNL     1      15.391  33.442   9.811  1.00  0.00     0.293 HD
ENDBRANCH   7  27
TORSDOF 7
ENDMDL
MODEL 2
REMARK VINA RESULT:    -2.066      5.257      6.940
REMARK INTER + INTRA:          -2.804
REMARK INTER:                  -2.806
REMARK INTRA:                   0.002
REMARK UNBOUND:                -0.254
REMARK SMILES Oc1cc(O)c2cc(O)c(-c3cc(O)c(O)c(O)c3)[o+]c2c1
REMARK SMILES IDX 10 1 20 2 21 3 22 4 2 5 3 6 4 7 6 8 7 9 8 10 11 11 12 12
REMARK SMILES IDX 13 13 19 14 15 15 17 16 14 17 16 19 18 21 9 23 1 25 5 27
REMARK H PARENT 14 18 16 20 18 22 9 24 1 26 5 28
REMARK Flexibility Score: inf
ROOT
ATOM      1  C   UNL     1      16.114  36.929  11.896  1.00  0.00     0.402 A 
ATOM      2  O   UNL     1      16.308  36.457  13.124  1.00  0.00    -0.202 OA
ATOM      3  C   UNL     1      16.509  35.170  13.388  1.00  0.00     0.368 A 
ATOM      4  C   UNL     1      16.707  34.770  14.712  1.00  0.00     0.162 A 
ATOM      5  C   UNL     1      16.923  33.426  15.020  1.00  0.00     0.128 A 
ATOM      6  C   UNL     1      16.942  32.473  13.996  1.00  0.00     0.093 A 
ATOM      7  C   UNL     1      16.747  32.848  12.660  1.00  0.00     0.136 A 
ATOM      8  C   UNL     1      16.524  34.213  12.346  1.00  0.00     0.125 A 
ATOM      9  C   UNL     1      16.306  34.678  11.038  1.00  0.00     0.078 A 
ATOM     10  C   UNL     1      16.089  36.039  10.806  1.00  0.00     0.223 A 
ENDROOT
BRANCH   1  11
ATOM     11  C   UNL     1      15.911  38.387  11.730  1.00  0.00     0.091 A 
ATOM     12  C   UNL     1      15.002  39.095  12.534  1.00  0.00     0.068 A 
ATOM     13  C   UNL     1      14.807  40.471  12.346  1.00  0.00     0.162 A 
ATOM     14  C   UNL     1      16.598  39.066  10.712  1.00  0.00     0.068 A 
ATOM     15  C   UNL     1      15.517  41.148  11.339  1.00  0.00     0.200 A 
ATOM     16  C   UNL     1      16.410  40.439  10.520  1.00  0.00     0.162 A 
BRANCH  13  17
ATOM     17  O   UNL     1      13.908  41.165  13.154  1.00  0.00    -0.504 OA
ATOM     18  H   UNL     1      13.019  40.762  13.429  1.00  0.00     0.293 HD
ENDBRANCH  13  17
BRANCH  15  19
ATOM     19  O   UNL     1      15.338  42.518  11.141  1.00  0.00    -0.502 OA
ATOM     20  H   UNL     1      15.979  43.206  11.520  1.00  0.00     0.293 HD
ENDBRANCH  15  19
BRANCH  16  21
ATOM     21  O   UNL     1      17.123  41.081   9.506  1.00  0.00    -0.504 OA
ATOM     22  H   UNL     1      17.683  41.908   9.682  1.00  0.00     0.293 HD
ENDBRANCH  16  21
ENDBRANCH   1  11
BRANCH  10  23
ATOM     23  O   UNL     1      15.822  36.495   9.514  1.00  0.00    -0.500 OA
ATOM     24  H   UNL     1      15.935  37.468   9.260  1.00  0.00     0.294 HD
ENDBRANCH  10  23
BRANCH   5  25
ATOM     25  O   UNL     1      17.117  33.047  16.346  1.00  0.00    -0.507 OA
ATOM     26  H   UNL     1      16.900  32.111  16.668  1.00  0.00     0.293 HD
ENDBRANCH   5  25
BRANCH   7  27
ATOM     27  O   UNL     1      16.784  31.837  11.696  1.00  0.00    -0.507 OA
ATOM     28  H   UNL     1      16.799  30.849  11.906  1.00  0.00     0.293 HD
ENDBRANCH   7  27
TORSDOF 7
ENDMDL
MODEL 3
REMARK VINA RESULT:    -1.753      5.184      8.621
REMARK INTER + INTRA:          -2.418
REMARK INTER:                  -2.607
REMARK INTRA:                   0.189
REMARK UNBOUND:                -0.254
REMARK SMILES Oc1cc(O)c2cc(O)c(-c3cc(O)c(O)c(O)c3)[o+]c2c1
REMARK SMILES IDX 10 1 20 2 21 3 22 4 2 5 3 6 4 7 6 8 7 9 8 10 11 11 12 12
REMARK SMILES IDX 13 13 19 14 15 15 17 16 14 17 16 19 18 21 9 23 1 25 5 27
REMARK H PARENT 14 18 16 20 18 22 9 24 1 26 5 28
REMARK Flexibility Score: inf
ROOT
ATOM      1  C   UNL     1      16.452  39.740  11.492  1.00  0.00     0.402 A 
ATOM      2  O   UNL     1      16.132  38.790  10.618  1.00  0.00    -0.202 OA
ATOM      3  C   UNL     1      16.028  37.505  10.943  1.00  0.00     0.368 A 
ATOM      4  C   UNL     1      15.684  36.580   9.954  1.00  0.00     0.162 A 
ATOM      5  C   UNL     1      15.565  35.224  10.265  1.00  0.00     0.128 A 
ATOM      6  C   UNL     1      15.790  34.789  11.576  1.00  0.00     0.093 A 
ATOM      7  C   UNL     1      16.136  35.697  12.586  1.00  0.00     0.136 A 
ATOM      8  C   UNL     1      16.261  37.075  12.271  1.00  0.00     0.125 A 
ATOM      9  C   UNL     1      16.616  38.053  13.214  1.00  0.00     0.078 A 
ATOM     10  C   UNL     1      16.723  39.392  12.828  1.00  0.00     0.223 A 
ENDROOT
BRANCH   1  11
ATOM     11  C   UNL     1      16.526  41.139  11.010  1.00  0.00     0.091 A 
ATOM     12  C   UNL     1      16.284  42.223  11.870  1.00  0.00     0.068 A 
ATOM     13  C   UNL     1      16.336  43.539  11.390  1.00  0.00     0.162 A 
ATOM     14  C   UNL     1      16.789  41.387   9.654  1.00  0.00     0.068 A 
ATOM     15  C   UNL     1      16.623  43.779  10.035  1.00  0.00     0.200 A 
ATOM     16  C   UNL     1      16.845  42.698   9.167  1.00  0.00     0.162 A 
BRANCH  13  17
ATOM     17  O   UNL     1      16.100  44.607  12.254  1.00  0.00    -0.504 OA
ATOM     18  H   UNL     1      15.376  44.568  12.963  1.00  0.00     0.293 HD
ENDBRANCH  13  17
BRANCH  15  19
ATOM     19  O   UNL     1      16.684  45.084   9.541  1.00  0.00    -0.502 OA
ATOM     20  H   UNL     1      16.996  45.862  10.109  1.00  0.00     0.293 HD
ENDBRANCH  15  19
BRANCH  16  21
ATOM     21  O   UNL     1      17.124  42.903   7.816  1.00  0.00    -0.504 OA
ATOM     22  H   UNL     1      16.496  43.416   7.208  1.00  0.00     0.293 HD
ENDBRANCH  16  21
ENDBRANCH   1  11
BRANCH  10  23
ATOM     23  O   UNL     1      17.125  40.357  13.753  1.00  0.00    -0.500 OA
ATOM     24  H   UNL     1      17.770  40.140  14.502  1.00  0.00     0.294 HD
ENDBRANCH  10  23
BRANCH   5  25
ATOM     25  O   UNL     1      15.222  34.317   9.266  1.00  0.00    -0.507 OA
ATOM     26  H   UNL     1      15.200  34.588   8.289  1.00  0.00     0.293 HD
ENDBRANCH   5  25
BRANCH   7  27
ATOM     27  O   UNL     1      16.341  35.184  13.869  1.00  0.00    -0.507 OA
ATOM     28  H   UNL     1      16.409  35.747  14.705  1.00  0.00     0.293 HD
ENDBRANCH   7  27
TORSDOF 7
ENDMDL
MODEL 4
REMARK VINA RESULT:    -1.090      9.859     12.351
REMARK INTER + INTRA:          -1.600
REMARK INTER:                  -1.562
REMARK INTRA:                  -0.038
REMARK UNBOUND:                -0.254
REMARK SMILES Oc1cc(O)c2cc(O)c(-c3cc(O)c(O)c(O)c3)[o+]c2c1
REMARK SMILES IDX 10 1 20 2 21 3 22 4 2 5 3 6 4 7 6 8 7 9 8 10 11 11 12 12
REMARK SMILES IDX 13 13 19 14 15 15 17 16 14 17 16 19 18 21 9 23 1 25 5 27
REMARK H PARENT 14 18 16 20 18 22 9 24 1 26 5 28
REMARK Flexibility Score: inf
ROOT
ATOM      1  C   UNL     1      14.868  45.118  11.251  1.00  0.00     0.402 A 
ATOM      2  O   UNL     1      13.588  45.431  11.430  1.00  0.00    -0.202 OA
ATOM      3  C   UNL     1      13.118  45.968  12.551  1.00  0.00     0.368 A 
ATOM      4  C   UNL     1      11.756  46.266  12.644  1.00  0.00     0.162 A 
ATOM      5  C   UNL     1      11.235  46.833  13.808  1.00  0.00     0.128 A 
ATOM      6  C   UNL     1      12.081  47.107  14.888  1.00  0.00     0.093 A 
ATOM      7  C   UNL     1      13.451  46.818  14.820  1.00  0.00     0.136 A 
ATOM      8  C   UNL     1      13.983  46.239  13.639  1.00  0.00     0.125 A 
ATOM      9  C   UNL     1      15.338  45.905  13.486  1.00  0.00     0.078 A 
ATOM     10  C   UNL     1      15.789  45.332  12.293  1.00  0.00     0.223 A 
ENDROOT
BRANCH   1  11
ATOM     11  C   UNL     1      15.271  44.533   9.950  1.00  0.00     0.091 A 
ATOM     12  C   UNL     1      14.896  45.128   8.734  1.00  0.00     0.068 A 
ATOM     13  C   UNL     1      15.267  44.547   7.513  1.00  0.00     0.162 A 
ATOM     14  C   UNL     1      15.993  43.330   9.930  1.00  0.00     0.068 A 
ATOM     15  C   UNL     1      16.011  43.354   7.502  1.00  0.00     0.200 A 
ATOM     16  C   UNL     1      16.368  42.745   8.716  1.00  0.00     0.162 A 
BRANCH  13  17
ATOM     17  O   UNL     1      14.896  45.149   6.312  1.00  0.00    -0.504 OA
ATOM     18  H   UNL     1      15.243  46.063   6.046  1.00  0.00     0.293 HD
ENDBRANCH  13  17
BRANCH  15  19
ATOM     19  O   UNL     1      16.393  42.764   6.296  1.00  0.00    -0.502 OA
ATOM     20  H   UNL     1      16.540  43.306   5.453  1.00  0.00     0.293 HD
ENDBRANCH  15  19
BRANCH  16  21
ATOM     21  O   UNL     1      17.099  41.556   8.739  1.00  0.00    -0.504 OA
ATOM     22  H   UNL     1      18.043  41.511   9.103  1.00  0.00     0.293 HD
ENDBRANCH  16  21
ENDBRANCH   1  11
BRANCH  10  23
ATOM     23  O   UNL     1      17.125  44.954  12.159  1.00  0.00    -0.500 OA
ATOM     24  H   UNL     1      17.794  45.529  11.663  1.00  0.00     0.294 HD
ENDBRANCH  10  23
BRANCH   5  25
ATOM     25  O   UNL     1       9.874  47.121  13.881  1.00  0.00    -0.507 OA
ATOM     26  H   UNL     1       9.176  46.475  13.533  1.00  0.00     0.293 HD
ENDBRANCH   5  25
BRANCH   7  27
ATOM     27  O   UNL     1      14.229  47.125  15.939  1.00  0.00    -0.507 OA
ATOM     28  H   UNL     1      13.890  47.619  16.752  1.00  0.00     0.293 HD
ENDBRANCH   7  27
TORSDOF 7
ENDMDL
MODEL 5
REMARK VINA RESULT:    -0.739      5.086      8.117
REMARK INTER + INTRA:          -1.166
REMARK INTER:                  -1.563
REMARK INTRA:                   0.397
REMARK UNBOUND:                -0.254
REMARK SMILES Oc1cc(O)c2cc(O)c(-c3cc(O)c(O)c(O)c3)[o+]c2c1
REMARK SMILES IDX 10 1 20 2 21 3 22 4 2 5 3 6 4 7 6 8 7 9 8 10 11 11 12 12
REMARK SMILES IDX 13 13 19 14 15 15 17 16 14 17 16 19 18 21 9 23 1 25 5 27
REMARK H PARENT 14 18 16 20 18 22 9 24 1 26 5 28
REMARK Flexibility Score: inf
ROOT
ATOM      1  C   UNL     1      16.293  39.874  11.521  1.00  0.00     0.402 A 
ATOM      2  O   UNL     1      15.923  40.585  10.460  1.00  0.00    -0.202 OA
ATOM      3  C   UNL     1      16.018  41.910  10.399  1.00  0.00     0.368 A 
ATOM      4  C   UNL     1      15.606  42.569   9.238  1.00  0.00     0.162 A 
ATOM      5  C   UNL     1      15.697  43.958   9.144  1.00  0.00     0.128 A 
ATOM      6  C   UNL     1      16.205  44.696  10.219  1.00  0.00     0.093 A 
ATOM      7  C   UNL     1      16.626  44.059  11.394  1.00  0.00     0.136 A 
ATOM      8  C   UNL     1      16.532  42.647  11.493  1.00  0.00     0.125 A 
ATOM      9  C   UNL     1      16.916  41.925  12.635  1.00  0.00     0.078 A 
ATOM     10  C   UNL     1      16.790  40.534  12.660  1.00  0.00     0.223 A 
ENDROOT
BRANCH   1  11
ATOM     11  C   UNL     1      16.146  38.401  11.463  1.00  0.00     0.091 A 
ATOM     12  C   UNL     1      15.950  37.734  10.243  1.00  0.00     0.068 A 
ATOM     13  C   UNL     1      15.790  36.341  10.210  1.00  0.00     0.162 A 
ATOM     14  C   UNL     1      16.147  37.661  12.655  1.00  0.00     0.068 A 
ATOM     15  C   UNL     1      15.816  35.605  11.407  1.00  0.00     0.200 A 
ATOM     16  C   UNL     1      15.991  36.271  12.631  1.00  0.00     0.162 A 
BRANCH  13  17
ATOM     17  O   UNL     1      15.602  35.688   8.993  1.00  0.00    -0.504 OA
ATOM     18  H   UNL     1      14.774  35.133   8.810  1.00  0.00     0.293 HD
ENDBRANCH  13  17
BRANCH  15  19
ATOM     19  O   UNL     1      15.663  34.217  11.393  1.00  0.00    -0.502 OA
ATOM     20  H   UNL     1      16.223  33.607  11.977  1.00  0.00     0.293 HD
ENDBRANCH  15  19
BRANCH  16  21
ATOM     21  O   UNL     1      16.013  35.570  13.838  1.00  0.00    -0.504 OA
ATOM     22  H   UNL     1      16.717  35.739  14.547  1.00  0.00     0.293 HD
ENDBRANCH  16  21
ENDBRANCH   1  11
BRANCH  10  23
ATOM     23  O   UNL     1      17.125  39.821  13.813  1.00  0.00    -0.500 OA
ATOM     24  H   UNL     1      17.249  40.282  14.706  1.00  0.00     0.294 HD
ENDBRANCH  10  23
BRANCH   5  25
ATOM     25  O   UNL     1      15.280  44.597   7.979  1.00  0.00    -0.507 OA
ATOM     26  H   UNL     1      15.430  44.185   7.065  1.00  0.00     0.293 HD
ENDBRANCH   5  25
BRANCH   7  27
ATOM     27  O   UNL     1      17.125  44.866  12.420  1.00  0.00    -0.507 OA
ATOM     28  H   UNL     1      16.617  45.629  12.844  1.00  0.00     0.293 HD
ENDBRANCH   7  27
TORSDOF 7
ENDMDL
MODEL 6
REMARK VINA RESULT:    -0.079      4.677      7.111
REMARK INTER + INTRA:          -0.352
REMARK INTER:                  -0.118
REMARK INTRA:                  -0.234
REMARK UNBOUND:                -0.254
REMARK SMILES Oc1cc(O)c2cc(O)c(-c3cc(O)c(O)c(O)c3)[o+]c2c1
REMARK SMILES IDX 10 1 20 2 21 3 22 4 2 5 3 6 4 7 6 8 7 9 8 10 11 11 12 12
REMARK SMILES IDX 13 13 19 14 15 15 17 16 14 17 16 19 18 21 9 23 1 25 5 27
REMARK H PARENT 14 18 16 20 18 22 9 24 1 26 5 28
REMARK Flexibility Score: inf
ROOT
ATOM      1  C   UNL     1      15.972  39.104  11.120  1.00  0.00     0.402 A 
ATOM      2  O   UNL     1      15.568  40.088  11.918  1.00  0.00    -0.202 OA
ATOM      3  C   UNL     1      15.733  41.376  11.629  1.00  0.00     0.368 A 
ATOM      4  C   UNL     1      15.272  42.339  12.531  1.00  0.00     0.162 A 
ATOM      5  C   UNL     1      15.428  43.697  12.254  1.00  0.00     0.128 A 
ATOM      6  C   UNL     1      16.049  44.098  11.066  1.00  0.00     0.093 A 
ATOM      7  C   UNL     1      16.519  43.152  10.146  1.00  0.00     0.136 A 
ATOM      8  C   UNL     1      16.364  41.770  10.426  1.00  0.00     0.125 A 
ATOM      9  C   UNL     1      16.816  40.753   9.570  1.00  0.00     0.078 A 
ATOM     10  C   UNL     1      16.632  39.412   9.916  1.00  0.00     0.223 A 
ENDROOT
BRANCH   1  11
ATOM     11  C   UNL     1      15.721  37.708  11.548  1.00  0.00     0.091 A 
ATOM     12  C   UNL     1      16.366  37.161  12.670  1.00  0.00     0.068 A 
ATOM     13  C   UNL     1      16.134  35.830  13.046  1.00  0.00     0.162 A 
ATOM     14  C   UNL     1      14.867  36.896  10.786  1.00  0.00     0.068 A 
ATOM     15  C   UNL     1      15.258  35.031  12.291  1.00  0.00     0.200 A 
ATOM     16  C   UNL     1      14.629  35.568  11.156  1.00  0.00     0.162 A 
BRANCH  13  17
ATOM     17  O   UNL     1      16.773  35.299  14.165  1.00  0.00    -0.504 OA
ATOM     18  H   UNL     1      16.251  34.939  14.955  1.00  0.00     0.293 HD
ENDBRANCH  13  17
BRANCH  15  19
ATOM     19  O   UNL     1      15.012  33.706  12.653  1.00  0.00    -0.502 OA
ATOM     20  H   UNL     1      15.714  33.129  13.101  1.00  0.00     0.293 HD
ENDBRANCH  15  19
BRANCH  16  21
ATOM     21  O   UNL     1      13.760  34.799  10.381  1.00  0.00    -0.504 OA
ATOM     22  H   UNL     1      13.329  35.158   9.537  1.00  0.00     0.293 HD
ENDBRANCH  16  21
ENDBRANCH   1  11
BRANCH  10  23
ATOM     23  O   UNL     1      17.125  38.402   9.089  1.00  0.00    -0.500 OA
ATOM     24  H   UNL     1      17.161  38.507   8.083  1.00  0.00     0.294 HD
ENDBRANCH  10  23
BRANCH   5  25
ATOM     25  O   UNL     1      14.962  44.642  13.166  1.00  0.00    -0.507 OA
ATOM     26  H   UNL     1      14.772  44.399  14.131  1.00  0.00     0.293 HD
ENDBRANCH   5  25
BRANCH   7  27
ATOM     27  O   UNL     1      17.125  43.634   8.982  1.00  0.00    -0.507 OA
ATOM     28  H   UNL     1      17.972  43.257   8.581  1.00  0.00     0.293 HD
ENDBRANCH   7  27
TORSDOF 7
ENDMDL
