MODEL 1
REMARK VINA RESULT:    -4.101      0.000      0.000
REMARK INTER + INTRA:          -4.577
REMARK INTER:                  -4.341
REMARK INTRA:                  -0.236
REMARK UNBOUND:                -0.236
REMARK SMILES C=C(C)[C@H]1CC=C(C)CC1
REMARK SMILES IDX 8 1 7 2 6 3 5 4 4 5 10 6 9 7 2 8 1 9 3 10
REMARK H PARENT
REMARK Flexibility Score: inf
ROOT
ATOM      1  C   UNL     1     -10.700   6.322  -1.021  1.00  0.00     0.039 C 
ATOM      2  C   UNL     1      -9.259   6.677  -0.774  1.00  0.00    -0.077 C 
ATOM      3  C   UNL     1      -8.550   5.952   0.116  1.00  0.00    -0.027 C 
ATOM      4  C   UNL     1      -7.093   6.210   0.427  1.00  0.00     0.035 C 
ATOM      5  C   UNL     1      -6.564   7.568  -0.087  1.00  0.00     0.018 C 
ATOM      6  C   UNL     1      -7.151   7.887  -1.470  1.00  0.00     0.013 C 
ATOM      7  C   UNL     1      -8.682   7.908  -1.435  1.00  0.00     0.031 C 
ENDROOT
BRANCH   5   8
ATOM      8  C   UNL     1      -6.750   8.734   0.886  1.00  0.00    -0.077 C 
ATOM      9  C   UNL     1      -6.861   8.474   2.199  1.00  0.00     0.008 C 
ATOM     10  C   UNL     1      -6.771  10.181   0.450  1.00  0.00     0.039 C 
ENDBRANCH   5   8
TORSDOF 1
ENDMDL
MODEL 2
REMARK VINA RESULT:    -3.842      6.818      9.217
REMARK INTER + INTRA:          -4.303
REMARK INTER:                  -4.038
REMARK INTRA:                  -0.265
REMARK UNBOUND:                -0.236
REMARK SMILES C=C(C)[C@H]1CC=C(C)CC1
REMARK SMILES IDX 8 1 7 2 6 3 5 4 4 5 10 6 9 7 2 8 1 9 3 10
REMARK H PARENT
REMARK Flexibility Score: inf
ROOT
ATOM      1  C   UNL     1      -4.556   8.616   4.490  1.00  0.00     0.039 C 
ATOM      2  C   UNL     1      -3.996   8.583   5.885  1.00  0.00    -0.077 C 
ATOM      3  C   UNL     1      -3.909   9.734   6.584  1.00  0.00    -0.027 C 
ATOM      4  C   UNL     1      -3.381   9.812   7.999  1.00  0.00     0.035 C 
ATOM      5  C   UNL     1      -2.630   8.544   8.467  1.00  0.00     0.018 C 
ATOM      6  C   UNL     1      -3.330   7.280   7.948  1.00  0.00     0.013 C 
ATOM      7  C   UNL     1      -3.432   7.286   6.420  1.00  0.00     0.031 C 
ENDROOT
BRANCH   5   8
ATOM      8  C   UNL     1      -1.135   8.533   8.143  1.00  0.00    -0.077 C 
ATOM      9  C   UNL     1      -0.429   7.412   8.369  1.00  0.00     0.008 C 
ATOM     10  C   UNL     1      -0.410   9.711   7.536  1.00  0.00     0.039 C 
ENDBRANCH   5   8
TORSDOF 1
ENDMDL
MODEL 3
REMARK VINA RESULT:    -3.824      6.840      9.785
REMARK INTER + INTRA:          -4.284
REMARK INTER:                  -4.274
REMARK INTRA:                  -0.010
REMARK UNBOUND:                -0.236
REMARK SMILES C=C(C)[C@H]1CC=C(C)CC1
REMARK SMILES IDX 8 1 7 2 6 3 5 4 4 5 10 6 9 7 2 8 1 9 3 10
REMARK H PARENT
REMARK Flexibility Score: inf
ROOT
ATOM      1  C   UNL     1      -3.825   9.005  11.054  1.00  0.00     0.039 C 
ATOM      2  C   UNL     1      -3.526   9.198   9.592  1.00  0.00    -0.077 C 
ATOM      3  C   UNL     1      -4.223  10.120   8.897  1.00  0.00    -0.027 C 
ATOM      4  C   UNL     1      -3.991  10.409   7.431  1.00  0.00     0.035 C 
ATOM      5  C   UNL     1      -3.143   9.343   6.700  1.00  0.00     0.018 C 
ATOM      6  C   UNL     1      -2.003   8.848   7.603  1.00  0.00     0.013 C 
ATOM      7  C   UNL     1      -2.543   8.270   8.915  1.00  0.00     0.031 C 
ENDROOT
BRANCH   5   8
ATOM      8  C   UNL     1      -3.946   8.178   6.118  1.00  0.00    -0.077 C 
ATOM      9  C   UNL     1      -5.043   8.444   5.389  1.00  0.00     0.008 C 
ATOM     10  C   UNL     1      -3.543   6.731   6.283  1.00  0.00     0.039 C 
ENDBRANCH   5   8
TORSDOF 1
ENDMDL
MODEL 4
REMARK VINA RESULT:    -3.793      1.677      3.020
REMARK INTER + INTRA:          -4.251
REMARK INTER:                  -3.976
REMARK INTRA:                  -0.275
REMARK UNBOUND:                -0.236
REMARK SMILES C=C(C)[C@H]1CC=C(C)CC1
REMARK SMILES IDX 8 1 7 2 6 3 5 4 4 5 10 6 9 7 2 8 1 9 3 10
REMARK H PARENT
REMARK Flexibility Score: inf
ROOT
ATOM      1  C   UNL     1      -5.625   3.442  -0.383  1.00  0.00     0.039 C 
ATOM      2  C   UNL     1      -6.122   4.862  -0.403  1.00  0.00    -0.077 C 
ATOM      3  C   UNL     1      -5.516   5.757  -1.209  1.00  0.00    -0.027 C 
ATOM      4  C   UNL     1      -5.947   7.202  -1.321  1.00  0.00     0.035 C 
ATOM      5  C   UNL     1      -6.905   7.669  -0.201  1.00  0.00     0.018 C 
ATOM      6  C   UNL     1      -7.914   6.562   0.141  1.00  0.00     0.013 C 
ATOM      7  C   UNL     1      -7.205   5.274   0.570  1.00  0.00     0.031 C 
ENDROOT
BRANCH   5   8
ATOM      8  C   UNL     1      -6.208   8.202   1.053  1.00  0.00    -0.077 C 
ATOM      9  C   UNL     1      -6.956   8.557   2.111  1.00  0.00     0.008 C 
ATOM     10  C   UNL     1      -4.707   8.312   1.182  1.00  0.00     0.039 C 
ENDBRANCH   5   8
TORSDOF 1
ENDMDL
MODEL 5
REMARK VINA RESULT:    -3.751      1.410      3.185
REMARK INTER + INTRA:          -4.206
REMARK INTER:                  -3.946
REMARK INTRA:                  -0.260
REMARK UNBOUND:                -0.236
REMARK SMILES C=C(C)[C@H]1CC=C(C)CC1
REMARK SMILES IDX 8 1 7 2 6 3 5 4 4 5 10 6 9 7 2 8 1 9 3 10
REMARK H PARENT
REMARK Flexibility Score: inf
ROOT
ATOM      1  C   UNL     1      -8.109  10.347  -1.408  1.00  0.00     0.039 C 
ATOM      2  C   UNL     1      -7.875   9.083  -0.626  1.00  0.00    -0.077 C 
ATOM      3  C   UNL     1      -7.163   9.144   0.519  1.00  0.00    -0.027 C 
ATOM      4  C   UNL     1      -6.884   7.940   1.391  1.00  0.00     0.035 C 
ATOM      5  C   UNL     1      -7.176   6.582   0.712  1.00  0.00     0.018 C 
ATOM      6  C   UNL     1      -8.450   6.668  -0.141  1.00  0.00     0.013 C 
ATOM      7  C   UNL     1      -8.336   7.765  -1.205  1.00  0.00     0.031 C 
ENDROOT
BRANCH   5   8
ATOM      8  C   UNL     1      -6.004   6.002  -0.083  1.00  0.00    -0.077 C 
ATOM      9  C   UNL     1      -6.092   4.743  -0.544  1.00  0.00     0.008 C 
ATOM     10  C   UNL     1      -4.760   6.791  -0.419  1.00  0.00     0.039 C 
ENDBRANCH   5   8
TORSDOF 1
ENDMDL
MODEL 6
REMARK VINA RESULT:    -3.609      1.879      3.451
REMARK INTER + INTRA:          -4.057
REMARK INTER:                  -3.796
REMARK INTRA:                  -0.261
REMARK UNBOUND:                -0.236
REMARK SMILES C=C(C)[C@H]1CC=C(C)CC1
REMARK SMILES IDX 8 1 7 2 6 3 5 4 4 5 10 6 9 7 2 8 1 9 3 10
REMARK H PARENT
REMARK Flexibility Score: inf
ROOT
ATOM      1  C   UNL     1      -4.128   5.855  -0.964  1.00  0.00     0.039 C 
ATOM      2  C   UNL     1      -5.042   6.708  -0.128  1.00  0.00    -0.077 C 
ATOM      3  C   UNL     1      -6.332   6.341   0.015  1.00  0.00    -0.027 C 
ATOM      4  C   UNL     1      -7.331   7.114   0.847  1.00  0.00     0.035 C 
ATOM      5  C   UNL     1      -6.864   8.533   1.244  1.00  0.00     0.018 C 
ATOM      6  C   UNL     1      -5.368   8.530   1.595  1.00  0.00     0.013 C 
ATOM      7  C   UNL     1      -4.522   8.015   0.427  1.00  0.00     0.031 C 
ENDROOT
BRANCH   5   8
ATOM      8  C   UNL     1      -7.200   9.624   0.225  1.00  0.00    -0.077 C 
ATOM      9  C   UNL     1      -6.681  10.852   0.392  1.00  0.00     0.008 C 
ATOM     10  C   UNL     1      -8.059   9.381  -0.994  1.00  0.00     0.039 C 
ENDBRANCH   5   8
TORSDOF 1
ENDMDL
MODEL 7
REMARK VINA RESULT:    -3.553      1.728      2.678
REMARK INTER + INTRA:          -3.997
REMARK INTER:                  -3.735
REMARK INTRA:                  -0.262
REMARK UNBOUND:                -0.236
REMARK SMILES C=C(C)[C@H]1CC=C(C)CC1
REMARK SMILES IDX 8 1 7 2 6 3 5 4 4 5 10 6 9 7 2 8 1 9 3 10
REMARK H PARENT
REMARK Flexibility Score: inf
ROOT
ATOM      1  C   UNL     1      -6.638   5.234  -3.618  1.00  0.00     0.039 C 
ATOM      2  C   UNL     1      -7.147   5.575  -2.244  1.00  0.00    -0.077 C 
ATOM      3  C   UNL     1      -8.399   6.059  -2.111  1.00  0.00    -0.027 C 
ATOM      4  C   UNL     1      -9.017   6.415  -0.777  1.00  0.00     0.035 C 
ATOM      5  C   UNL     1      -8.005   6.511   0.387  1.00  0.00     0.018 C 
ATOM      6  C   UNL     1      -6.944   5.405   0.271  1.00  0.00     0.013 C 
ATOM      7  C   UNL     1      -6.202   5.482  -1.066  1.00  0.00     0.031 C 
ENDROOT
BRANCH   5   8
ATOM      8  C   UNL     1      -7.364   7.889   0.564  1.00  0.00    -0.077 C 
ATOM      9  C   UNL     1      -6.612   8.121   1.653  1.00  0.00     0.008 C 
ATOM     10  C   UNL     1      -7.496   9.000  -0.451  1.00  0.00     0.039 C 
ENDBRANCH   5   8
TORSDOF 1
ENDMDL
MODEL 8
REMARK VINA RESULT:    -3.517      6.831      9.155
REMARK INTER + INTRA:          -3.959
REMARK INTER:                  -3.711
REMARK INTRA:                  -0.248
REMARK UNBOUND:                -0.236
REMARK SMILES C=C(C)[C@H]1CC=C(C)CC1
REMARK SMILES IDX 8 1 7 2 6 3 5 4 4 5 10 6 9 7 2 8 1 9 3 10
REMARK H PARENT
REMARK Flexibility Score: inf
ROOT
ATOM      1  C   UNL     1      -5.193   8.522   4.954  1.00  0.00     0.039 C 
ATOM      2  C   UNL     1      -4.143   8.438   6.029  1.00  0.00    -0.077 C 
ATOM      3  C   UNL     1      -3.695   7.226   6.414  1.00  0.00    -0.027 C 
ATOM      4  C   UNL     1      -2.630   7.028   7.469  1.00  0.00     0.035 C 
ATOM      5  C   UNL     1      -2.334   8.287   8.317  1.00  0.00     0.018 C 
ATOM      6  C   UNL     1      -2.360   9.547   7.440  1.00  0.00     0.013 C 
ATOM      7  C   UNL     1      -3.709   9.706   6.731  1.00  0.00     0.031 C 
ENDROOT
BRANCH   5   8
ATOM      8  C   UNL     1      -3.220   8.444   9.555  1.00  0.00    -0.077 C 
ATOM      9  C   UNL     1      -3.826   7.358  10.064  1.00  0.00     0.008 C 
ATOM     10  C   UNL     1      -3.417   9.760  10.270  1.00  0.00     0.039 C 
ENDBRANCH   5   8
TORSDOF 1
ENDMDL
MODEL 9
REMARK VINA RESULT:    -3.453      8.147     10.410
REMARK INTER + INTRA:          -3.891
REMARK INTER:                  -3.612
REMARK INTRA:                  -0.279
REMARK UNBOUND:                -0.236
REMARK SMILES C=C(C)[C@H]1CC=C(C)CC1
REMARK SMILES IDX 8 1 7 2 6 3 5 4 4 5 10 6 9 7 2 8 1 9 3 10
REMARK H PARENT
REMARK Flexibility Score: inf
ROOT
ATOM      1  C   UNL     1     -16.770  -0.425  -3.263  1.00  0.00     0.039 C 
ATOM      2  C   UNL     1     -16.384   0.215  -1.958  1.00  0.00    -0.077 C 
ATOM      3  C   UNL     1     -17.291   0.268  -0.961  1.00  0.00    -0.027 C 
ATOM      4  C   UNL     1     -17.003   0.870   0.396  1.00  0.00     0.035 C 
ATOM      5  C   UNL     1     -15.715   1.723   0.453  1.00  0.00     0.018 C 
ATOM      6  C   UNL     1     -14.601   1.074  -0.383  1.00  0.00     0.013 C 
ATOM      7  C   UNL     1     -15.034   0.887  -1.840  1.00  0.00     0.031 C 
ENDROOT
BRANCH   5   8
ATOM      8  C   UNL     1     -15.909   3.196   0.085  1.00  0.00    -0.077 C 
ATOM      9  C   UNL     1     -14.836   4.005   0.054  1.00  0.00     0.008 C 
ATOM     10  C   UNL     1     -17.248   3.786  -0.291  1.00  0.00     0.039 C 
ENDBRANCH   5   8
TORSDOF 1
ENDMDL
