MODEL 1
REMARK VINA RESULT:    -5.658      0.000      0.000
REMARK INTER + INTRA:          -5.658
REMARK INTER:                  -5.658
REMARK INTRA:                   0.000
REMARK UNBOUND:                 0.000
REMARK SMILES c1ccc2ccccc2c1
REMARK SMILES IDX 2 1 1 2 10 3 9 4 8 5 7 6 6 7 5 8 4 9 3 10
REMARK H PARENT
REMARK Flexibility Score: inf
ROOT
ATOM      1  C   UNL     1     -17.884  55.619  -3.622  1.00  0.00     0.001 A 
ATOM      2  C   UNL     1     -18.855  56.623  -3.686  1.00  0.00     0.001 A 
ATOM      3  C   UNL     1     -20.133  56.399  -3.167  1.00  0.00     0.009 A 
ATOM      4  C   UNL     1     -20.449  55.164  -2.578  1.00  0.00    -0.018 A 
ATOM      5  C   UNL     1     -21.730  54.927  -2.054  1.00  0.00     0.009 A 
ATOM      6  C   UNL     1     -22.030  53.693  -1.470  1.00  0.00     0.001 A 
ATOM      7  C   UNL     1     -21.059  52.689  -1.406  1.00  0.00     0.001 A 
ATOM      8  C   UNL     1     -19.781  52.912  -1.925  1.00  0.00     0.009 A 
ATOM      9  C   UNL     1     -19.465  54.147  -2.514  1.00  0.00    -0.018 A 
ATOM     10  C   UNL     1     -18.185  54.385  -3.038  1.00  0.00     0.009 A 
ENDROOT
TORSDOF 0
ENDMDL
MODEL 2
REMARK VINA RESULT:    -5.644      0.088      3.437
REMARK INTER + INTRA:          -5.644
REMARK INTER:                  -5.644
REMARK INTRA:                   0.000
REMARK UNBOUND:                 0.000
REMARK SMILES c1ccc2ccccc2c1
REMARK SMILES IDX 2 1 1 2 10 3 9 4 8 5 7 6 6 7 5 8 4 9 3 10
REMARK H PARENT
REMARK Flexibility Score: inf
ROOT
ATOM      1  C   UNL     1     -20.942  52.634  -1.420  1.00  0.00     0.001 A 
ATOM      2  C   UNL     1     -21.927  53.626  -1.437  1.00  0.00     0.001 A 
ATOM      3  C   UNL     1     -21.658  54.876  -2.002  1.00  0.00     0.009 A 
ATOM      4  C   UNL     1     -20.395  55.142  -2.554  1.00  0.00    -0.018 A 
ATOM      5  C   UNL     1     -20.111  56.393  -3.123  1.00  0.00     0.009 A 
ATOM      6  C   UNL     1     -18.849  56.644  -3.671  1.00  0.00     0.001 A 
ATOM      7  C   UNL     1     -17.864  55.653  -3.654  1.00  0.00     0.001 A 
ATOM      8  C   UNL     1     -18.134  54.403  -3.089  1.00  0.00     0.009 A 
ATOM      9  C   UNL     1     -19.396  54.137  -2.537  1.00  0.00    -0.018 A 
ATOM     10  C   UNL     1     -19.680  52.885  -1.968  1.00  0.00     0.009 A 
ENDROOT
TORSDOF 0
ENDMDL
MODEL 3
REMARK VINA RESULT:    -5.634      0.093      2.083
REMARK INTER + INTRA:          -5.634
REMARK INTER:                  -5.634
REMARK INTRA:                   0.000
REMARK UNBOUND:                 0.000
REMARK SMILES c1ccc2ccccc2c1
REMARK SMILES IDX 2 1 1 2 10 3 9 4 8 5 7 6 6 7 5 8 4 9 3 10
REMARK H PARENT
REMARK Flexibility Score: inf
ROOT
ATOM      1  C   UNL     1     -18.832  56.619  -3.647  1.00  0.00     0.001 A 
ATOM      2  C   UNL     1     -17.846  55.629  -3.613  1.00  0.00     0.001 A 
ATOM      3  C   UNL     1     -18.121  54.381  -3.047  1.00  0.00     0.009 A 
ATOM      4  C   UNL     1     -19.391  54.116  -2.508  1.00  0.00    -0.018 A 
ATOM      5  C   UNL     1     -19.680  52.867  -1.936  1.00  0.00     0.009 A 
ATOM      6  C   UNL     1     -20.948  52.617  -1.404  1.00  0.00     0.001 A 
ATOM      7  C   UNL     1     -21.934  53.607  -1.438  1.00  0.00     0.001 A 
ATOM      8  C   UNL     1     -21.659  54.855  -2.004  1.00  0.00     0.009 A 
ATOM      9  C   UNL     1     -20.389  55.120  -2.542  1.00  0.00    -0.018 A 
ATOM     10  C   UNL     1     -20.101  56.369  -3.115  1.00  0.00     0.009 A 
ENDROOT
TORSDOF 0
ENDMDL
MODEL 4
REMARK VINA RESULT:    -5.619      0.117      4.018
REMARK INTER + INTRA:          -5.619
REMARK INTER:                  -5.619
REMARK INTRA:                   0.000
REMARK UNBOUND:                 0.000
REMARK SMILES c1ccc2ccccc2c1
REMARK SMILES IDX 2 1 1 2 10 3 9 4 8 5 7 6 6 7 5 8 4 9 3 10
REMARK H PARENT
REMARK Flexibility Score: inf
ROOT
ATOM      1  C   UNL     1     -21.916  53.609  -1.386  1.00  0.00     0.001 A 
ATOM      2  C   UNL     1     -20.908  52.643  -1.306  1.00  0.00     0.001 A 
ATOM      3  C   UNL     1     -19.642  52.903  -1.836  1.00  0.00     0.009 A 
ATOM      4  C   UNL     1     -19.375  54.135  -2.454  1.00  0.00    -0.018 A 
ATOM      5  C   UNL     1     -18.107  54.408  -2.991  1.00  0.00     0.009 A 
ATOM      6  C   UNL     1     -17.856  55.640  -3.603  1.00  0.00     0.001 A 
ATOM      7  C   UNL     1     -18.863  56.605  -3.683  1.00  0.00     0.001 A 
ATOM      8  C   UNL     1     -20.130  56.346  -3.152  1.00  0.00     0.009 A 
ATOM      9  C   UNL     1     -20.397  55.113  -2.535  1.00  0.00    -0.018 A 
ATOM     10  C   UNL     1     -21.664  54.841  -1.997  1.00  0.00     0.009 A 
ENDROOT
TORSDOF 0
ENDMDL
MODEL 5
REMARK VINA RESULT:    -5.507      0.930      1.632
REMARK INTER + INTRA:          -5.507
REMARK INTER:                  -5.507
REMARK INTRA:                   0.000
REMARK UNBOUND:                 0.000
REMARK SMILES c1ccc2ccccc2c1
REMARK SMILES IDX 2 1 1 2 10 3 9 4 8 5 7 6 6 7 5 8 4 9 3 10
REMARK H PARENT
REMARK Flexibility Score: inf
ROOT
ATOM      1  C   UNL     1     -17.309  54.920  -2.894  1.00  0.00     0.001 A 
ATOM      2  C   UNL     1     -17.490  56.139  -3.553  1.00  0.00     0.001 A 
ATOM      3  C   UNL     1     -18.772  56.678  -3.697  1.00  0.00     0.009 A 
ATOM      4  C   UNL     1     -19.885  55.996  -3.180  1.00  0.00    -0.018 A 
ATOM      5  C   UNL     1     -21.177  56.525  -3.319  1.00  0.00     0.009 A 
ATOM      6  C   UNL     1     -22.277  55.836  -2.799  1.00  0.00     0.001 A 
ATOM      7  C   UNL     1     -22.096  54.617  -2.139  1.00  0.00     0.001 A 
ATOM      8  C   UNL     1     -20.814  54.078  -1.995  1.00  0.00     0.009 A 
ATOM      9  C   UNL     1     -19.701  54.760  -2.512  1.00  0.00    -0.018 A 
ATOM     10  C   UNL     1     -18.409  54.230  -2.373  1.00  0.00     0.009 A 
ENDROOT
TORSDOF 0
ENDMDL
MODEL 6
REMARK VINA RESULT:    -5.320      1.596      2.242
REMARK INTER + INTRA:          -5.320
REMARK INTER:                  -5.320
REMARK INTRA:                   0.000
REMARK UNBOUND:                 0.000
REMARK SMILES c1ccc2ccccc2c1
REMARK SMILES IDX 2 1 1 2 10 3 9 4 8 5 7 6 6 7 5 8 4 9 3 10
REMARK H PARENT
REMARK Flexibility Score: inf
ROOT
ATOM      1  C   UNL     1     -17.619  56.343  -3.615  1.00  0.00     0.001 A 
ATOM      2  C   UNL     1     -17.075  56.622  -2.359  1.00  0.00     0.001 A 
ATOM      3  C   UNL     1     -17.387  55.814  -1.261  1.00  0.00     0.009 A 
ATOM      4  C   UNL     1     -18.250  54.717  -1.417  1.00  0.00    -0.018 A 
ATOM      5  C   UNL     1     -18.572  53.899  -0.323  1.00  0.00     0.009 A 
ATOM      6  C   UNL     1     -19.432  52.809  -0.492  1.00  0.00     0.001 A 
ATOM      7  C   UNL     1     -19.976  52.530  -1.749  1.00  0.00     0.001 A 
ATOM      8  C   UNL     1     -19.664  53.338  -2.846  1.00  0.00     0.009 A 
ATOM      9  C   UNL     1     -18.802  54.435  -2.691  1.00  0.00    -0.018 A 
ATOM     10  C   UNL     1     -18.480  55.253  -3.785  1.00  0.00     0.009 A 
ENDROOT
TORSDOF 0
ENDMDL
MODEL 7
REMARK VINA RESULT:    -5.297      1.548      2.050
REMARK INTER + INTRA:          -5.297
REMARK INTER:                  -5.297
REMARK INTRA:                   0.000
REMARK UNBOUND:                 0.000
REMARK SMILES c1ccc2ccccc2c1
REMARK SMILES IDX 2 1 1 2 10 3 9 4 8 5 7 6 6 7 5 8 4 9 3 10
REMARK H PARENT
REMARK Flexibility Score: inf
ROOT
ATOM      1  C   UNL     1     -17.083  56.674  -2.276  1.00  0.00     0.001 A 
ATOM      2  C   UNL     1     -17.653  56.451  -3.533  1.00  0.00     0.001 A 
ATOM      3  C   UNL     1     -18.525  55.377  -3.729  1.00  0.00     0.009 A 
ATOM      4  C   UNL     1     -18.832  54.515  -2.664  1.00  0.00    -0.018 A 
ATOM      5  C   UNL     1     -19.705  53.431  -2.849  1.00  0.00     0.009 A 
ATOM      6  C   UNL     1     -20.002  52.581  -1.779  1.00  0.00     0.001 A 
ATOM      7  C   UNL     1     -19.432  52.804  -0.523  1.00  0.00     0.001 A 
ATOM      8  C   UNL     1     -18.560  53.879  -0.326  1.00  0.00     0.009 A 
ATOM      9  C   UNL     1     -18.253  54.741  -1.391  1.00  0.00    -0.018 A 
ATOM     10  C   UNL     1     -17.380  55.824  -1.207  1.00  0.00     0.009 A 
ENDROOT
TORSDOF 0
ENDMDL
MODEL 8
REMARK VINA RESULT:    -5.295      1.593      4.057
REMARK INTER + INTRA:          -5.295
REMARK INTER:                  -5.295
REMARK INTRA:                   0.000
REMARK UNBOUND:                 0.000
REMARK SMILES c1ccc2ccccc2c1
REMARK SMILES IDX 2 1 1 2 10 3 9 4 8 5 7 6 6 7 5 8 4 9 3 10
REMARK H PARENT
REMARK Flexibility Score: inf
ROOT
ATOM      1  C   UNL     1     -20.012  52.489  -1.683  1.00  0.00     0.001 A 
ATOM      2  C   UNL     1     -19.465  52.774  -0.429  1.00  0.00     0.001 A 
ATOM      3  C   UNL     1     -18.597  53.858  -0.270  1.00  0.00     0.009 A 
ATOM      4  C   UNL     1     -18.269  54.666  -1.370  1.00  0.00    -0.018 A 
ATOM      5  C   UNL     1     -17.397  55.756  -1.224  1.00  0.00     0.009 A 
ATOM      6  C   UNL     1     -17.080  56.553  -2.328  1.00  0.00     0.001 A 
ATOM      7  C   UNL     1     -17.627  56.268  -3.583  1.00  0.00     0.001 A 
ATOM      8  C   UNL     1     -18.495  55.184  -3.742  1.00  0.00     0.009 A 
ATOM      9  C   UNL     1     -18.823  54.376  -2.641  1.00  0.00    -0.018 A 
ATOM     10  C   UNL     1     -19.695  53.286  -2.788  1.00  0.00     0.009 A 
ENDROOT
TORSDOF 0
ENDMDL
MODEL 9
REMARK VINA RESULT:    -5.112      1.182      3.426
REMARK INTER + INTRA:          -5.112
REMARK INTER:                  -5.112
REMARK INTRA:                   0.000
REMARK UNBOUND:                 0.000
REMARK SMILES c1ccc2ccccc2c1
REMARK SMILES IDX 2 1 1 2 10 3 9 4 8 5 7 6 6 7 5 8 4 9 3 10
REMARK H PARENT
REMARK Flexibility Score: inf
ROOT
ATOM      1  C   UNL     1     -23.408  54.859  -1.553  1.00  0.00     0.001 A 
ATOM      2  C   UNL     1     -23.267  56.163  -2.036  1.00  0.00     0.001 A 
ATOM      3  C   UNL     1     -22.066  56.570  -2.622  1.00  0.00     0.009 A 
ATOM      4  C   UNL     1     -20.993  55.670  -2.728  1.00  0.00    -0.018 A 
ATOM      5  C   UNL     1     -19.781  56.067  -3.314  1.00  0.00     0.009 A 
ATOM      6  C   UNL     1     -18.721  55.161  -3.414  1.00  0.00     0.001 A 
ATOM      7  C   UNL     1     -18.862  53.856  -2.931  1.00  0.00     0.001 A 
ATOM      8  C   UNL     1     -20.064  53.449  -2.345  1.00  0.00     0.009 A 
ATOM      9  C   UNL     1     -21.136  54.349  -2.238  1.00  0.00    -0.018 A 
ATOM     10  C   UNL     1     -22.349  53.952  -1.653  1.00  0.00     0.009 A 
ENDROOT
TORSDOF 0
ENDMDL
