MODEL 1
REMARK VINA RESULT:    -4.146      0.000      0.000
REMARK INTER + INTRA:          -5.346
REMARK INTER:                  -5.116
REMARK INTRA:                  -0.230
REMARK UNBOUND:                -0.230
REMARK SMILES CC(C)=CCC[C@@H](C)c1ccc(C)cc1
REMARK SMILES IDX 6 1 7 2 8 3 9 4 13 5 12 6 11 7 14 8 10 9 15 10 5 11 4 12
REMARK SMILES IDX 2 13 1 14 3 15
REMARK H PARENT
REMARK Flexibility Score: inf
ROOT
ATOM      1  C   UNL     1     112.966 110.953 110.031  1.00  0.00     0.012 C 
ENDROOT
BRANCH   1   2
ATOM      2  C   UNL     1     113.125 111.000 111.568  1.00  0.00     0.016 C 
ATOM      3  C   UNL     1     113.091 112.435 112.114  1.00  0.00     0.013 C 
BRANCH   2   4
ATOM      4  C   UNL     1     112.055 110.153 112.236  1.00  0.00    -0.045 A 
ATOM      5  C   UNL     1     109.042 107.696 114.117  1.00  0.00     0.044 C 
ATOM      6  C   UNL     1     110.085 108.570 113.485  1.00  0.00    -0.051 A 
ATOM      7  C   UNL     1     109.724 109.499 112.499  1.00  0.00     0.004 A 
ATOM      8  C   UNL     1     111.436 108.417 113.825  1.00  0.00     0.004 A 
ATOM      9  C   UNL     1     110.699 110.288 111.883  1.00  0.00     0.004 A 
ATOM     10  C   UNL     1     112.412 109.205 113.210  1.00  0.00     0.004 A 
ENDBRANCH   2   4
ENDBRANCH   1   2
BRANCH   1  11
ATOM     11  C   UNL     1     112.654 109.541 109.512  1.00  0.00     0.028 C 
BRANCH  11  12
ATOM     12  C   UNL     1     113.125 109.382 108.087  1.00  0.00    -0.028 C 
ATOM     13  C   UNL     1     112.516 109.935 107.015  1.00  0.00    -0.080 C 
ATOM     14  C   UNL     1     113.125 109.722 105.654  1.00  0.00     0.039 C 
ATOM     15  C   UNL     1     111.242 110.738 107.143  1.00  0.00     0.039 C 
ENDBRANCH  11  12
ENDBRANCH   1  11
TORSDOF 4
ENDMDL
MODEL 2
REMARK VINA RESULT:    -4.144      1.186      1.633
REMARK INTER + INTRA:          -5.343
REMARK INTER:                  -4.856
REMARK INTRA:                  -0.488
REMARK UNBOUND:                -0.230
REMARK SMILES CC(C)=CCC[C@@H](C)c1ccc(C)cc1
REMARK SMILES IDX 6 1 7 2 8 3 9 4 13 5 12 6 11 7 14 8 10 9 15 10 5 11 4 12
REMARK SMILES IDX 2 13 1 14 3 15
REMARK H PARENT
REMARK Flexibility Score: inf
ROOT
ATOM      1  C   UNL     1     112.183 110.987 109.919  1.00  0.00     0.012 C 
ENDROOT
BRANCH   1   2
ATOM      2  C   UNL     1     112.773 110.590 111.291  1.00  0.00     0.016 C 
ATOM      3  C   UNL     1     113.124 111.813 112.152  1.00  0.00     0.013 C 
BRANCH   2   4
ATOM      4  C   UNL     1     111.812 109.678 112.034  1.00  0.00    -0.045 A 
ATOM      5  C   UNL     1     109.035 107.114 114.125  1.00  0.00     0.044 C 
ATOM      6  C   UNL     1     110.019 107.981 113.397  1.00  0.00    -0.051 A 
ATOM      7  C   UNL     1     110.970 108.723 114.110  1.00  0.00     0.004 A 
ATOM      8  C   UNL     1     109.950 108.111 112.002  1.00  0.00     0.004 A 
ATOM      9  C   UNL     1     111.863 109.560 113.436  1.00  0.00     0.004 A 
ATOM     10  C   UNL     1     110.843 108.947 111.326  1.00  0.00     0.004 A 
ENDBRANCH   2   4
ENDBRANCH   1   2
BRANCH   1  11
ATOM     11  C   UNL     1     113.066 110.540 108.744  1.00  0.00     0.028 C 
BRANCH  11  12
ATOM     12  C   UNL     1     112.546 109.255 108.146  1.00  0.00    -0.028 C 
ATOM     13  C   UNL     1     111.300 109.093 107.651  1.00  0.00    -0.080 C 
ATOM     14  C   UNL     1     110.935 107.763 107.046  1.00  0.00     0.039 C 
ATOM     15  C   UNL     1     110.267 110.195 107.704  1.00  0.00     0.039 C 
ENDBRANCH  11  12
ENDBRANCH   1  11
TORSDOF 4
ENDMDL
MODEL 3
REMARK VINA RESULT:    -3.904      1.628      6.224
REMARK INTER + INTRA:          -5.047
REMARK INTER:                  -4.707
REMARK INTRA:                  -0.340
REMARK UNBOUND:                -0.230
REMARK SMILES CC(C)=CCC[C@@H](C)c1ccc(C)cc1
REMARK SMILES IDX 6 1 7 2 8 3 9 4 13 5 12 6 11 7 14 8 10 9 15 10 5 11 4 12
REMARK SMILES IDX 2 13 1 14 3 15
REMARK H PARENT
REMARK Flexibility Score: inf
ROOT
ATOM      1  C   UNL     1     109.868 110.333 111.987  1.00  0.00     0.012 C 
ENDROOT
BRANCH   1   2
ATOM      2  C   UNL     1     109.737 109.146 111.006  1.00  0.00     0.016 C 
ATOM      3  C   UNL     1     108.282 108.905 110.573  1.00  0.00     0.013 C 
BRANCH   2   4
ATOM      4  C   UNL     1     110.622 109.365 109.791  1.00  0.00    -0.045 A 
ATOM      5  C   UNL     1     113.114 109.939 106.311  1.00  0.00     0.044 C 
ATOM      6  C   UNL     1     112.249 109.770 107.525  1.00  0.00    -0.051 A 
ATOM      7  C   UNL     1     112.830 109.555 108.782  1.00  0.00     0.004 A 
ATOM      8  C   UNL     1     110.853 109.755 107.400  1.00  0.00     0.004 A 
ATOM      9  C   UNL     1     112.025 109.360 109.908  1.00  0.00     0.004 A 
ATOM     10  C   UNL     1     110.046 109.560 108.524  1.00  0.00     0.004 A 
ENDBRANCH   2   4
ENDBRANCH   1   2
BRANCH   1  11
ATOM     11  C   UNL     1     109.463 109.961 113.422  1.00  0.00     0.028 C 
BRANCH  11  12
ATOM     12  C   UNL     1     109.216 108.477 113.538  1.00  0.00    -0.028 C 
ATOM     13  C   UNL     1     110.158 107.570 113.877  1.00  0.00    -0.080 C 
ATOM     14  C   UNL     1     109.753 106.124 113.993  1.00  0.00     0.039 C 
ATOM     15  C   UNL     1     111.597 107.962 114.121  1.00  0.00     0.039 C 
ENDBRANCH  11  12
ENDBRANCH   1  11
TORSDOF 4
ENDMDL
MODEL 4
REMARK VINA RESULT:    -3.832      1.304      1.981
REMARK INTER + INTRA:          -4.959
REMARK INTER:                  -4.575
REMARK INTRA:                  -0.384
REMARK UNBOUND:                -0.230
REMARK SMILES CC(C)=CCC[C@@H](C)c1ccc(C)cc1
REMARK SMILES IDX 6 1 7 2 8 3 9 4 13 5 12 6 11 7 14 8 10 9 15 10 5 11 4 12
REMARK SMILES IDX 2 13 1 14 3 15
REMARK H PARENT
REMARK Flexibility Score: inf
ROOT
ATOM      1  C   UNL     1     112.968 109.460 109.152  1.00  0.00     0.012 C 
ENDROOT
BRANCH   1   2
ATOM      2  C   UNL     1     113.125 110.013 110.586  1.00  0.00     0.016 C 
ATOM      3  C   UNL     1     113.077 111.549 110.627  1.00  0.00     0.013 C 
BRANCH   2   4
ATOM      4  C   UNL     1     112.063 109.425 111.499  1.00  0.00    -0.045 A 
ATOM      5  C   UNL     1     109.086 107.724 114.125  1.00  0.00     0.044 C 
ATOM      6  C   UNL     1     110.103 108.339 113.209  1.00  0.00    -0.051 A 
ATOM      7  C   UNL     1     110.040 108.110 111.828  1.00  0.00     0.004 A 
ATOM      8  C   UNL     1     111.163 109.091 113.735  1.00  0.00     0.004 A 
ATOM      9  C   UNL     1     111.008 108.652 110.978  1.00  0.00     0.004 A 
ATOM     10  C   UNL     1     112.132 109.634 112.887  1.00  0.00     0.004 A 
ENDBRANCH   2   4
ENDBRANCH   1   2
BRANCH   1  11
ATOM     11  C   UNL     1     112.744 110.568 108.112  1.00  0.00     0.028 C 
BRANCH  11  12
ATOM     12  C   UNL     1     111.284 110.947 108.044  1.00  0.00    -0.028 C 
ATOM     13  C   UNL     1     110.284 110.086 107.761  1.00  0.00    -0.080 C 
ATOM     14  C   UNL     1     108.868 110.601 107.768  1.00  0.00     0.039 C 
ATOM     15  C   UNL     1     110.546 108.636 107.421  1.00  0.00     0.039 C 
ENDBRANCH  11  12
ENDBRANCH   1  11
TORSDOF 4
ENDMDL
MODEL 5
REMARK VINA RESULT:    -3.564      1.779      3.308
REMARK INTER + INTRA:          -4.628
REMARK INTER:                  -3.758
REMARK INTRA:                  -0.870
REMARK UNBOUND:                -0.230
REMARK SMILES CC(C)=CCC[C@@H](C)c1ccc(C)cc1
REMARK SMILES IDX 6 1 7 2 8 3 9 4 13 5 12 6 11 7 14 8 10 9 15 10 5 11 4 12
REMARK SMILES IDX 2 13 1 14 3 15
REMARK H PARENT
REMARK Flexibility Score: inf
ROOT
ATOM      1  C   UNL     1     110.205 108.979 107.718  1.00  0.00     0.012 C 
ENDROOT
BRANCH   1   2
ATOM      2  C   UNL     1     109.714 110.024 108.746  1.00  0.00     0.016 C 
ATOM      3  C   UNL     1     108.331 110.589 108.387  1.00  0.00     0.013 C 
BRANCH   2   4
ATOM      4  C   UNL     1     109.696 109.425 110.141  1.00  0.00    -0.045 A 
ATOM      5  C   UNL     1     109.692 107.755 114.124  1.00  0.00     0.044 C 
ATOM      6  C   UNL     1     109.664 108.332 112.740  1.00  0.00    -0.051 A 
ATOM      7  C   UNL     1     109.793 107.495 111.623  1.00  0.00     0.004 A 
ATOM      8  C   UNL     1     109.577 109.719 112.554  1.00  0.00     0.004 A 
ATOM      9  C   UNL     1     109.804 108.034 110.334  1.00  0.00     0.004 A 
ATOM     10  C   UNL     1     109.587 110.261 111.266  1.00  0.00     0.004 A 
ENDBRANCH   2   4
ENDBRANCH   1   2
BRANCH   1  11
ATOM     11  C   UNL     1     111.616 109.283 107.193  1.00  0.00     0.028 C 
BRANCH  11  12
ATOM     12  C   UNL     1     112.038 110.680 107.579  1.00  0.00    -0.028 C 
ATOM     13  C   UNL     1     112.737 110.985 108.694  1.00  0.00    -0.080 C 
ATOM     14  C   UNL     1     113.124 112.422 108.927  1.00  0.00     0.039 C 
ATOM     15  C   UNL     1     113.121 109.936 109.712  1.00  0.00     0.039 C 
ENDBRANCH  11  12
ENDBRANCH   1  11
TORSDOF 4
ENDMDL
MODEL 6
REMARK VINA RESULT:    -3.515      1.485      5.935
REMARK INTER + INTRA:          -4.567
REMARK INTER:                  -4.434
REMARK INTRA:                  -0.133
REMARK UNBOUND:                -0.230
REMARK SMILES CC(C)=CCC[C@@H](C)c1ccc(C)cc1
REMARK SMILES IDX 6 1 7 2 8 3 9 4 13 5 12 6 11 7 14 8 10 9 15 10 5 11 4 12
REMARK SMILES IDX 2 13 1 14 3 15
REMARK H PARENT
REMARK Flexibility Score: inf
ROOT
ATOM      1  C   UNL     1     110.340 108.049 111.932  1.00  0.00     0.012 C 
ENDROOT
BRANCH   1   2
ATOM      2  C   UNL     1     109.644 108.967 110.903  1.00  0.00     0.016 C 
ATOM      3  C   UNL     1     109.189 110.298 111.522  1.00  0.00     0.013 C 
BRANCH   2   4
ATOM      4  C   UNL     1     110.557 109.219 109.716  1.00  0.00    -0.045 A 
ATOM      5  C   UNL     1     113.124 109.897 106.309  1.00  0.00     0.044 C 
ATOM      6  C   UNL     1     112.237 109.690 107.501  1.00  0.00    -0.051 A 
ATOM      7  C   UNL     1     112.775 109.231 108.711  1.00  0.00     0.004 A 
ATOM      8  C   UNL     1     110.853 109.888 107.394  1.00  0.00     0.004 A 
ATOM      9  C   UNL     1     111.945 109.003 109.812  1.00  0.00     0.004 A 
ATOM     10  C   UNL     1     110.021 109.660 108.494  1.00  0.00     0.004 A 
ENDBRANCH   2   4
ENDBRANCH   1   2
BRANCH   1  11
ATOM     11  C   UNL     1     110.167 108.542 113.376  1.00  0.00     0.028 C 
BRANCH  11  12
ATOM     12  C   UNL     1     111.041 109.744 113.637  1.00  0.00    -0.028 C 
ATOM     13  C   UNL     1     112.358 109.682 113.929  1.00  0.00    -0.080 C 
ATOM     14  C   UNL     1     113.112 110.972 114.125  1.00  0.00     0.039 C 
ATOM     15  C   UNL     1     113.085 108.365 114.079  1.00  0.00     0.039 C 
ENDBRANCH  11  12
ENDBRANCH   1  11
TORSDOF 4
ENDMDL
MODEL 7
REMARK VINA RESULT:    -1.739      1.356      5.215
REMARK INTER + INTRA:          -2.376
REMARK INTER:                  -1.259
REMARK INTRA:                  -1.117
REMARK UNBOUND:                -0.230
REMARK SMILES CC(C)=CCC[C@@H](C)c1ccc(C)cc1
REMARK SMILES IDX 6 1 7 2 8 3 9 4 13 5 12 6 11 7 14 8 10 9 15 10 5 11 4 12
REMARK SMILES IDX 2 13 1 14 3 15
REMARK H PARENT
REMARK Flexibility Score: inf
ROOT
ATOM      1  C   UNL     1     113.125 109.973 112.851  1.00  0.00     0.012 C 
ENDROOT
BRANCH   1   2
ATOM      2  C   UNL     1     112.343 110.880 111.875  1.00  0.00     0.016 C 
ATOM      3  C   UNL     1     113.113 112.164 111.527  1.00  0.00     0.013 C 
BRANCH   2   4
ATOM      4  C   UNL     1     111.989 110.116 110.611  1.00  0.00    -0.045 A 
ATOM      5  C   UNL     1     110.996 107.991 106.985  1.00  0.00     0.044 C 
ATOM      6  C   UNL     1     111.350 108.703 108.256  1.00  0.00    -0.051 A 
ATOM      7  C   UNL     1     110.396 108.849 109.273  1.00  0.00     0.004 A 
ATOM      8  C   UNL     1     112.615 109.287 108.410  1.00  0.00     0.004 A 
ATOM      9  C   UNL     1     110.713 109.545 110.443  1.00  0.00     0.004 A 
ATOM     10  C   UNL     1     112.934 109.983 109.579  1.00  0.00     0.004 A 
ENDBRANCH   2   4
ENDBRANCH   1   2
BRANCH   1  11
ATOM     11  C   UNL     1     112.330 109.651 114.125  1.00  0.00     0.028 C 
BRANCH  11  12
ATOM     12  C   UNL     1     111.667 108.299 114.013  1.00  0.00    -0.028 C 
ATOM     13  C   UNL     1     110.336 108.110 113.886  1.00  0.00    -0.080 C 
ATOM     14  C   UNL     1     109.821 106.701 113.743  1.00  0.00     0.039 C 
ATOM     15  C   UNL     1     109.357 109.262 113.902  1.00  0.00     0.039 C 
ENDBRANCH  11  12
ENDBRANCH   1  11
TORSDOF 4
ENDMDL
