MODEL 1
REMARK VINA RESULT:    -3.697      0.000      0.000
REMARK INTER + INTRA:          -9.213
REMARK INTER:                  -6.723
REMARK INTRA:                  -2.490
REMARK UNBOUND:                -2.490
REMARK SMILES CCCCCCCCCCCCCCCC(=O)[O-]
REMARK SMILES IDX 9 1 10 2 11 3 12 4 13 5 14 6 15 7 16 8 17 9 18 10 8 11 7 12
REMARK SMILES IDX 6 13 5 14 4 15 3 16 2 17 1 18
REMARK H PARENT
REMARK Flexibility Score: inf
ROOT
ATOM      1  C   UNL     1      21.732  -0.345  17.657  1.00  0.00     0.000 C 
ENDROOT
BRANCH   1   2
ATOM      2  C   UNL     1      23.159   0.213  17.545  1.00  0.00     0.000 C 
BRANCH   2   3
ATOM      3  C   UNL     1      23.176   1.511  16.723  1.00  0.00     0.000 C 
BRANCH   3   4
ATOM      4  C   UNL     1      24.206   1.478  15.582  1.00  0.00     0.000 C 
BRANCH   4   5
ATOM      5  C   UNL     1      23.893   2.501  14.477  1.00  0.00     0.000 C 
BRANCH   5   6
ATOM      6  C   UNL     1      22.433   2.426  13.993  1.00  0.00     0.006 C 
BRANCH   6   7
ATOM      7  C   UNL     1      22.152   3.200  12.694  1.00  0.00     0.053 C 
BRANCH   7   8
ATOM      8  C   UNL     1      22.049   4.676  12.930  1.00  0.00     0.041 C 
ATOM      9  O   UNL     1      20.991   5.169  13.402  1.00  0.00    -0.550 OA
ATOM     10  O   UNL     1      23.135   5.501  12.663  1.00  0.00    -0.550 OA
ENDBRANCH   7   8
ENDBRANCH   6   7
ENDBRANCH   5   6
ENDBRANCH   4   5
ENDBRANCH   3   4
ENDBRANCH   2   3
ENDBRANCH   1   2
BRANCH   1  11
ATOM     11  C   UNL     1      20.819   0.096  16.498  1.00  0.00     0.000 C 
BRANCH  11  12
ATOM     12  C   UNL     1      20.362  -1.033  15.554  1.00  0.00    -0.000 C 
BRANCH  12  13
ATOM     13  C   UNL     1      20.875  -0.855  14.115  1.00  0.00    -0.000 C 
BRANCH  13  14
ATOM     14  C   UNL     1      22.357  -1.239  13.955  1.00  0.00    -0.000 C 
BRANCH  14  15
ATOM     15  C   UNL     1      22.717  -2.665  14.411  1.00  0.00    -0.000 C 
BRANCH  15  16
ATOM     16  C   UNL     1      23.855  -2.694  15.446  1.00  0.00    -0.000 C 
BRANCH  16  17
ATOM     17  C   UNL     1      23.649  -3.776  16.517  1.00  0.00    -0.003 C 
ATOM     18  C   UNL     1      22.178  -3.968  16.884  1.00  0.00     0.004 C 
ENDBRANCH  16  17
ENDBRANCH  15  16
ENDBRANCH  14  15
ENDBRANCH  13  14
ENDBRANCH  12  13
ENDBRANCH  11  12
ENDBRANCH   1  11
TORSDOF 14
ENDMDL
MODEL 2
REMARK VINA RESULT:    -3.675      3.652      6.719
REMARK INTER + INTRA:          -9.172
REMARK INTER:                  -7.300
REMARK INTRA:                  -1.873
REMARK UNBOUND:                -2.490
REMARK SMILES CCCCCCCCCCCCCCCC(=O)[O-]
REMARK SMILES IDX 9 1 10 2 11 3 12 4 13 5 14 6 15 7 16 8 17 9 18 10 8 11 7 12
REMARK SMILES IDX 6 13 5 14 4 15 3 16 2 17 1 18
REMARK H PARENT
REMARK Flexibility Score: inf
ROOT
ATOM      1  C   UNL     1      21.434   0.254  16.211  1.00  0.00     0.000 C 
ENDROOT
BRANCH   1   2
ATOM      2  C   UNL     1      20.299  -0.731  15.891  1.00  0.00     0.000 C 
BRANCH   2   3
ATOM      3  C   UNL     1      20.340  -1.153  14.415  1.00  0.00     0.000 C 
BRANCH   3   4
ATOM      4  C   UNL     1      21.048  -2.501  14.201  1.00  0.00     0.000 C 
BRANCH   4   5
ATOM      5  C   UNL     1      22.501  -2.335  13.726  1.00  0.00     0.000 C 
BRANCH   5   6
ATOM      6  C   UNL     1      23.502  -3.137  14.580  1.00  0.00     0.006 C 
BRANCH   6   7
ATOM      7  C   UNL     1      23.867  -2.478  15.920  1.00  0.00     0.053 C 
BRANCH   7   8
ATOM      8  C   UNL     1      23.615  -3.388  17.082  1.00  0.00     0.041 C 
ATOM      9  O   UNL     1      22.479  -3.905  17.247  1.00  0.00    -0.550 OA
ATOM     10  O   UNL     1      24.645  -3.693  17.964  1.00  0.00    -0.550 OA
ENDBRANCH   7   8
ENDBRANCH   6   7
ENDBRANCH   5   6
ENDBRANCH   4   5
ENDBRANCH   3   4
ENDBRANCH   2   3
ENDBRANCH   1   2
BRANCH   1  11
ATOM     11  C   UNL     1      21.855   1.105  14.998  1.00  0.00     0.000 C 
BRANCH  11  12
ATOM     12  C   UNL     1      23.358   1.073  14.662  1.00  0.00    -0.000 C 
BRANCH  12  13
ATOM     13  C   UNL     1      24.240   1.579  15.815  1.00  0.00    -0.000 C 
BRANCH  13  14
ATOM     14  C   UNL     1      25.030   2.851  15.454  1.00  0.00    -0.000 C 
BRANCH  14  15
ATOM     15  C   UNL     1      24.181   4.013  14.904  1.00  0.00    -0.000 C 
BRANCH  15  16
ATOM     16  C   UNL     1      24.898   4.807  13.798  1.00  0.00    -0.000 C 
BRANCH  16  17
ATOM     17  C   UNL     1      24.067   4.903  12.509  1.00  0.00    -0.003 C 
ATOM     18  C   UNL     1      22.771   4.097  12.583  1.00  0.00     0.004 C 
ENDBRANCH  16  17
ENDBRANCH  15  16
ENDBRANCH  14  15
ENDBRANCH  13  14
ENDBRANCH  12  13
ENDBRANCH  11  12
ENDBRANCH   1  11
TORSDOF 14
ENDMDL
MODEL 3
REMARK VINA RESULT:    -3.646      1.407      2.427
REMARK INTER + INTRA:          -9.120
REMARK INTER:                  -6.557
REMARK INTRA:                  -2.563
REMARK UNBOUND:                -2.490
REMARK SMILES CCCCCCCCCCCCCCCC(=O)[O-]
REMARK SMILES IDX 9 1 10 2 11 3 12 4 13 5 14 6 15 7 16 8 17 9 18 10 8 11 7 12
REMARK SMILES IDX 6 13 5 14 4 15 3 16 2 17 1 18
REMARK H PARENT
REMARK Flexibility Score: inf
ROOT
ATOM      1  C   UNL     1      20.106  -0.663  16.158  1.00  0.00     0.000 C 
ENDROOT
BRANCH   1   2
ATOM      2  C   UNL     1      20.843  -1.212  17.390  1.00  0.00     0.000 C 
BRANCH   2   3
ATOM      3  C   UNL     1      21.735  -0.132  18.020  1.00  0.00     0.000 C 
BRANCH   3   4
ATOM      4  C   UNL     1      22.066   1.009  17.045  1.00  0.00     0.000 C 
BRANCH   4   5
ATOM      5  C   UNL     1      23.493   0.906  16.479  1.00  0.00     0.000 C 
BRANCH   5   6
ATOM      6  C   UNL     1      23.518   0.824  14.941  1.00  0.00     0.006 C 
BRANCH   6   7
ATOM      7  C   UNL     1      22.399   1.613  14.243  1.00  0.00     0.053 C 
BRANCH   7   8
ATOM      8  C   UNL     1      22.910   2.868  13.604  1.00  0.00     0.041 C 
ATOM      9  O   UNL     1      22.306   3.368  12.618  1.00  0.00    -0.550 OA
ATOM     10  O   UNL     1      24.033   3.504  14.119  1.00  0.00    -0.550 OA
ENDBRANCH   7   8
ENDBRANCH   6   7
ENDBRANCH   5   6
ENDBRANCH   4   5
ENDBRANCH   3   4
ENDBRANCH   2   3
ENDBRANCH   1   2
BRANCH   1  11
ATOM     11  C   UNL     1      20.431  -1.435  14.866  1.00  0.00     0.000 C 
BRANCH  11  12
ATOM     12  C   UNL     1      21.247  -2.727  15.060  1.00  0.00    -0.000 C 
BRANCH  12  13
ATOM     13  C   UNL     1      22.643  -2.656  14.418  1.00  0.00    -0.000 C 
BRANCH  13  14
ATOM     14  C   UNL     1      23.722  -3.379  15.246  1.00  0.00    -0.000 C 
BRANCH  14  15
ATOM     15  C   UNL     1      24.200  -2.624  16.500  1.00  0.00    -0.000 C 
BRANCH  15  16
ATOM     16  C   UNL     1      23.809  -3.330  17.810  1.00  0.00    -0.000 C 
BRANCH  16  17
ATOM     17  C   UNL     1      23.189  -4.715  17.569  1.00  0.00    -0.003 C 
ATOM     18  C   UNL     1      23.938  -5.830  18.298  1.00  0.00     0.004 C 
ENDBRANCH  16  17
ENDBRANCH  15  16
ENDBRANCH  14  15
ENDBRANCH  13  14
ENDBRANCH  12  13
ENDBRANCH  11  12
ENDBRANCH   1  11
TORSDOF 14
ENDMDL
MODEL 4
REMARK VINA RESULT:    -3.620      3.908      7.310
REMARK INTER + INTRA:          -9.073
REMARK INTER:                  -7.844
REMARK INTRA:                  -1.229
REMARK UNBOUND:                -2.490
REMARK SMILES CCCCCCCCCCCCCCCC(=O)[O-]
REMARK SMILES IDX 9 1 10 2 11 3 12 4 13 5 14 6 15 7 16 8 17 9 18 10 8 11 7 12
REMARK SMILES IDX 6 13 5 14 4 15 3 16 2 17 1 18
REMARK H PARENT
REMARK Flexibility Score: inf
ROOT
ATOM      1  C   UNL     1      21.589  -0.285  12.750  1.00  0.00     0.000 C 
ENDROOT
BRANCH   1   2
ATOM      2  C   UNL     1      20.295  -1.104  12.622  1.00  0.00     0.000 C 
BRANCH   2   3
ATOM      3  C   UNL     1      19.778  -1.530  14.005  1.00  0.00     0.000 C 
BRANCH   3   4
ATOM      4  C   UNL     1      20.250  -2.937  14.408  1.00  0.00     0.000 C 
BRANCH   4   5
ATOM      5  C   UNL     1      21.260  -2.910  15.567  1.00  0.00     0.000 C 
BRANCH   5   6
ATOM      6  C   UNL     1      22.722  -2.948  15.083  1.00  0.00     0.006 C 
BRANCH   6   7
ATOM      7  C   UNL     1      23.740  -2.385  16.089  1.00  0.00     0.053 C 
BRANCH   7   8
ATOM      8  C   UNL     1      24.060  -3.367  17.174  1.00  0.00     0.041 C 
ATOM      9  O   UNL     1      24.764  -3.017  18.157  1.00  0.00    -0.550 OA
ATOM     10  O   UNL     1      23.552  -4.659  17.116  1.00  0.00    -0.550 OA
ENDBRANCH   7   8
ENDBRANCH   6   7
ENDBRANCH   5   6
ENDBRANCH   4   5
ENDBRANCH   3   4
ENDBRANCH   2   3
ENDBRANCH   1   2
BRANCH   1  11
ATOM     11  C   UNL     1      21.658   0.535  14.053  1.00  0.00     0.000 C 
BRANCH  11  12
ATOM     12  C   UNL     1      23.076   0.927  14.509  1.00  0.00    -0.000 C 
BRANCH  12  13
ATOM     13  C   UNL     1      23.362   2.429  14.351  1.00  0.00    -0.000 C 
BRANCH  13  14
ATOM     14  C   UNL     1      22.315   3.151  13.482  1.00  0.00    -0.000 C 
BRANCH  14  15
ATOM     15  C   UNL     1      22.889   4.157  12.466  1.00  0.00    -0.000 C 
BRANCH  15  16
ATOM     16  C   UNL     1      23.486   5.408  13.134  1.00  0.00    -0.000 C 
BRANCH  16  17
ATOM     17  C   UNL     1      25.016   5.468  13.010  1.00  0.00    -0.003 C 
ATOM     18  C   UNL     1      25.616   6.686  13.711  1.00  0.00     0.004 C 
ENDBRANCH  16  17
ENDBRANCH  15  16
ENDBRANCH  14  15
ENDBRANCH  13  14
ENDBRANCH  12  13
ENDBRANCH  11  12
ENDBRANCH   1  11
TORSDOF 14
ENDMDL
MODEL 5
REMARK VINA RESULT:    -3.581      1.585      2.191
REMARK INTER + INTRA:          -9.002
REMARK INTER:                  -7.163
REMARK INTRA:                  -1.839
REMARK UNBOUND:                -2.490
REMARK SMILES CCCCCCCCCCCCCCCC(=O)[O-]
REMARK SMILES IDX 9 1 10 2 11 3 12 4 13 5 14 6 15 7 16 8 17 9 18 10 8 11 7 12
REMARK SMILES IDX 6 13 5 14 4 15 3 16 2 17 1 18
REMARK H PARENT
REMARK Flexibility Score: inf
ROOT
ATOM      1  C   UNL     1      23.430   0.502  14.997  1.00  0.00     0.000 C 
ENDROOT
BRANCH   1   2
ATOM      2  C   UNL     1      24.086   1.417  16.043  1.00  0.00     0.000 C 
BRANCH   2   3
ATOM      3  C   UNL     1      24.994   2.456  15.368  1.00  0.00     0.000 C 
BRANCH   3   4
ATOM      4  C   UNL     1      24.376   3.864  15.348  1.00  0.00     0.000 C 
BRANCH   4   5
ATOM      5  C   UNL     1      24.529   4.556  13.984  1.00  0.00     0.000 C 
BRANCH   5   6
ATOM      6  C   UNL     1      23.458   4.115  12.969  1.00  0.00     0.006 C 
BRANCH   6   7
ATOM      7  C   UNL     1      22.015   4.455  13.379  1.00  0.00     0.053 C 
BRANCH   7   8
ATOM      8  C   UNL     1      21.549   5.746  12.778  1.00  0.00     0.041 C 
ATOM      9  O   UNL     1      20.393   6.179  13.026  1.00  0.00    -0.550 OA
ATOM     10  O   UNL     1      22.405   6.488  11.973  1.00  0.00    -0.550 OA
ENDBRANCH   7   8
ENDBRANCH   6   7
ENDBRANCH   5   6
ENDBRANCH   4   5
ENDBRANCH   3   4
ENDBRANCH   2   3
ENDBRANCH   1   2
BRANCH   1  11
ATOM     11  C   UNL     1      21.988   0.918  14.650  1.00  0.00     0.000 C 
BRANCH  11  12
ATOM     12  C   UNL     1      21.623   0.839  13.155  1.00  0.00    -0.000 C 
BRANCH  12  13
ATOM     13  C   UNL     1      21.466  -0.606  12.654  1.00  0.00    -0.000 C 
BRANCH  13  14
ATOM     14  C   UNL     1      20.189  -1.289  13.178  1.00  0.00    -0.000 C 
BRANCH  14  15
ATOM     15  C   UNL     1      20.418  -2.363  14.258  1.00  0.00    -0.000 C 
BRANCH  15  16
ATOM     16  C   UNL     1      21.869  -2.872  14.299  1.00  0.00    -0.000 C 
BRANCH  16  17
ATOM     17  C   UNL     1      22.405  -3.006  15.733  1.00  0.00    -0.003 C 
ATOM     18  C   UNL     1      23.925  -3.160  15.780  1.00  0.00     0.004 C 
ENDBRANCH  16  17
ENDBRANCH  15  16
ENDBRANCH  14  15
ENDBRANCH  13  14
ENDBRANCH  12  13
ENDBRANCH  11  12
ENDBRANCH   1  11
TORSDOF 14
ENDMDL
MODEL 6
REMARK VINA RESULT:    -3.509      1.475      3.318
REMARK INTER + INTRA:          -8.871
REMARK INTER:                  -6.389
REMARK INTRA:                  -2.482
REMARK UNBOUND:                -2.490
REMARK SMILES CCCCCCCCCCCCCCCC(=O)[O-]
REMARK SMILES IDX 9 1 10 2 11 3 12 4 13 5 14 6 15 7 16 8 17 9 18 10 8 11 7 12
REMARK SMILES IDX 6 13 5 14 4 15 3 16 2 17 1 18
REMARK H PARENT
REMARK Flexibility Score: inf
ROOT
ATOM      1  C   UNL     1      22.012  -2.742  18.607  1.00  0.00     0.000 C 
ENDROOT
BRANCH   1   2
ATOM      2  C   UNL     1      21.797  -1.226  18.741  1.00  0.00     0.000 C 
BRANCH   2   3
ATOM      3  C   UNL     1      21.125  -0.656  17.482  1.00  0.00     0.000 C 
BRANCH   3   4
ATOM      4  C   UNL     1      21.815   0.617  16.966  1.00  0.00     0.000 C 
BRANCH   4   5
ATOM      5  C   UNL     1      23.288   0.380  16.593  1.00  0.00     0.000 C 
BRANCH   5   6
ATOM      6  C   UNL     1      23.615   0.821  15.154  1.00  0.00     0.006 C 
BRANCH   6   7
ATOM      7  C   UNL     1      22.434   1.453  14.397  1.00  0.00     0.053 C 
BRANCH   7   8
ATOM      8  C   UNL     1      22.818   2.735  13.724  1.00  0.00     0.041 C 
ATOM      9  O   UNL     1      22.210   3.112  12.688  1.00  0.00    -0.550 OA
ATOM     10  O   UNL     1      23.824   3.529  14.261  1.00  0.00    -0.550 OA
ENDBRANCH   7   8
ENDBRANCH   6   7
ENDBRANCH   5   6
ENDBRANCH   4   5
ENDBRANCH   3   4
ENDBRANCH   2   3
ENDBRANCH   1   2
BRANCH   1  11
ATOM     11  C   UNL     1      23.500  -3.141  18.598  1.00  0.00     0.000 C 
BRANCH  11  12
ATOM     12  C   UNL     1      24.157  -3.201  17.206  1.00  0.00    -0.000 C 
BRANCH  12  13
ATOM     13  C   UNL     1      23.157  -3.534  16.086  1.00  0.00    -0.000 C 
BRANCH  13  14
ATOM     14  C   UNL     1      23.561  -2.941  14.724  1.00  0.00    -0.000 C 
BRANCH  14  15
ATOM     15  C   UNL     1      22.392  -2.444  13.853  1.00  0.00    -0.000 C 
BRANCH  15  16
ATOM     16  C   UNL     1      21.034  -2.523  14.572  1.00  0.00    -0.000 C 
BRANCH  16  17
ATOM     17  C   UNL     1      19.937  -1.729  13.846  1.00  0.00    -0.003 C 
ATOM     18  C   UNL     1      20.477  -0.922  12.667  1.00  0.00     0.004 C 
ENDBRANCH  16  17
ENDBRANCH  15  16
ENDBRANCH  14  15
ENDBRANCH  13  14
ENDBRANCH  12  13
ENDBRANCH  11  12
ENDBRANCH   1  11
TORSDOF 14
ENDMDL
MODEL 7
REMARK VINA RESULT:    -3.446      4.786      6.815
REMARK INTER + INTRA:          -8.757
REMARK INTER:                  -6.703
REMARK INTRA:                  -2.054
REMARK UNBOUND:                -2.490
REMARK SMILES CCCCCCCCCCCCCCCC(=O)[O-]
REMARK SMILES IDX 9 1 10 2 11 3 12 4 13 5 14 6 15 7 16 8 17 9 18 10 8 11 7 12
REMARK SMILES IDX 6 13 5 14 4 15 3 16 2 17 1 18
REMARK H PARENT
REMARK Flexibility Score: inf
ROOT
ATOM      1  C   UNL     1      19.418  -1.893  13.458  1.00  0.00     0.000 C 
ENDROOT
BRANCH   1   2
ATOM      2  C   UNL     1      19.984  -1.161  12.231  1.00  0.00     0.000 C 
BRANCH   2   3
ATOM      3  C   UNL     1      21.377  -0.588  12.530  1.00  0.00     0.000 C 
BRANCH   3   4
ATOM      4  C   UNL     1      21.631  -0.396  14.034  1.00  0.00     0.000 C 
BRANCH   4   5
ATOM      5  C   UNL     1      22.957  -1.026  14.493  1.00  0.00     0.000 C 
BRANCH   5   6
ATOM      6  C   UNL     1      23.036  -2.534  14.188  1.00  0.00     0.006 C 
BRANCH   6   7
ATOM      7  C   UNL     1      23.947  -3.328  15.139  1.00  0.00     0.053 C 
BRANCH   7   8
ATOM      8  C   UNL     1      23.427  -3.332  16.544  1.00  0.00     0.041 C 
ATOM      9  O   UNL     1      22.239  -3.678  16.778  1.00  0.00    -0.550 OA
ATOM     10  O   UNL     1      24.264  -2.987  17.598  1.00  0.00    -0.550 OA
ENDBRANCH   7   8
ENDBRANCH   6   7
ENDBRANCH   5   6
ENDBRANCH   4   5
ENDBRANCH   3   4
ENDBRANCH   2   3
ENDBRANCH   1   2
BRANCH   1  11
ATOM     11  C   UNL     1      19.591  -3.421  13.383  1.00  0.00     0.000 C 
BRANCH  11  12
ATOM     12  C   UNL     1      18.285  -4.235  13.443  1.00  0.00    -0.000 C 
BRANCH  12  13
ATOM     13  C   UNL     1      17.964  -4.951  12.121  1.00  0.00    -0.000 C 
BRANCH  13  14
ATOM     14  C   UNL     1      18.975  -4.631  11.004  1.00  0.00    -0.000 C 
BRANCH  14  15
ATOM     15  C   UNL     1      18.459  -3.679   9.909  1.00  0.00    -0.000 C 
BRANCH  15  16
ATOM     16  C   UNL     1      16.981  -3.296  10.095  1.00  0.00    -0.000 C 
BRANCH  16  17
ATOM     17  C   UNL     1      16.803  -1.831  10.525  1.00  0.00    -0.003 C 
ATOM     18  C   UNL     1      16.011  -1.691  11.824  1.00  0.00     0.004 C 
ENDBRANCH  16  17
ENDBRANCH  15  16
ENDBRANCH  14  15
ENDBRANCH  13  14
ENDBRANCH  12  13
ENDBRANCH  11  12
ENDBRANCH   1  11
TORSDOF 14
ENDMDL
MODEL 8
REMARK VINA RESULT:    -3.429      3.197      6.368
REMARK INTER + INTRA:          -8.726
REMARK INTER:                  -6.699
REMARK INTRA:                  -2.027
REMARK UNBOUND:                -2.490
REMARK SMILES CCCCCCCCCCCCCCCC(=O)[O-]
REMARK SMILES IDX 9 1 10 2 11 3 12 4 13 5 14 6 15 7 16 8 17 9 18 10 8 11 7 12
REMARK SMILES IDX 6 13 5 14 4 15 3 16 2 17 1 18
REMARK H PARENT
REMARK Flexibility Score: inf
ROOT
ATOM      1  C   UNL     1      23.498   3.513  16.495  1.00  0.00     0.000 C 
ENDROOT
BRANCH   1   2
ATOM      2  C   UNL     1      22.610   2.358  16.005  1.00  0.00     0.000 C 
BRANCH   2   3
ATOM      3  C   UNL     1      23.347   1.506  14.961  1.00  0.00     0.000 C 
BRANCH   3   4
ATOM      4  C   UNL     1      23.498   0.038  15.390  1.00  0.00     0.000 C 
BRANCH   4   5
ATOM      5  C   UNL     1      22.863  -0.939  14.386  1.00  0.00     0.000 C 
BRANCH   5   6
ATOM      6  C   UNL     1      21.682  -0.316  13.618  1.00  0.00     0.006 C 
BRANCH   6   7
ATOM      7  C   UNL     1      20.391  -1.151  13.650  1.00  0.00     0.053 C 
BRANCH   7   8
ATOM      8  C   UNL     1      19.900  -1.482  12.274  1.00  0.00     0.041 C 
ATOM      9  O   UNL     1      18.665  -1.504  12.031  1.00  0.00    -0.550 OA
ATOM     10  O   UNL     1      20.808  -1.732  11.252  1.00  0.00    -0.550 OA
ENDBRANCH   7   8
ENDBRANCH   6   7
ENDBRANCH   5   6
ENDBRANCH   4   5
ENDBRANCH   3   4
ENDBRANCH   2   3
ENDBRANCH   1   2
BRANCH   1  11
ATOM     11  C   UNL     1      24.692   3.793  15.564  1.00  0.00     0.000 C 
BRANCH  11  12
ATOM     12  C   UNL     1      24.707   5.190  14.916  1.00  0.00    -0.000 C 
BRANCH  12  13
ATOM     13  C   UNL     1      24.999   5.148  13.407  1.00  0.00    -0.000 C 
BRANCH  13  14
ATOM     14  C   UNL     1      23.741   5.371  12.546  1.00  0.00    -0.000 C 
BRANCH  14  15
ATOM     15  C   UNL     1      22.849   4.130  12.356  1.00  0.00    -0.000 C 
BRANCH  15  16
ATOM     16  C   UNL     1      21.526   4.218  13.137  1.00  0.00    -0.000 C 
BRANCH  16  17
ATOM     17  C   UNL     1      21.223   5.644  13.623  1.00  0.00    -0.003 C 
ATOM     18  C   UNL     1      20.848   5.694  15.104  1.00  0.00     0.004 C 
ENDBRANCH  16  17
ENDBRANCH  15  16
ENDBRANCH  14  15
ENDBRANCH  13  14
ENDBRANCH  12  13
ENDBRANCH  11  12
ENDBRANCH   1  11
TORSDOF 14
ENDMDL
MODEL 9
REMARK VINA RESULT:    -3.413      3.407      5.739
REMARK INTER + INTRA:          -8.696
REMARK INTER:                  -6.633
REMARK INTRA:                  -2.063
REMARK UNBOUND:                -2.490
REMARK SMILES CCCCCCCCCCCCCCCC(=O)[O-]
REMARK SMILES IDX 9 1 10 2 11 3 12 4 13 5 14 6 15 7 16 8 17 9 18 10 8 11 7 12
REMARK SMILES IDX 6 13 5 14 4 15 3 16 2 17 1 18
REMARK H PARENT
REMARK Flexibility Score: inf
ROOT
ATOM      1  C   UNL     1      22.225  -3.127  16.542  1.00  0.00     0.000 C 
ENDROOT
BRANCH   1   2
ATOM      2  C   UNL     1      23.542  -3.134  15.749  1.00  0.00     0.000 C 
BRANCH   2   3
ATOM      3  C   UNL     1      23.287  -2.839  14.263  1.00  0.00     0.000 C 
BRANCH   3   4
ATOM      4  C   UNL     1      21.808  -2.555  13.958  1.00  0.00     0.000 C 
BRANCH   4   5
ATOM      5  C   UNL     1      21.626  -1.559  12.801  1.00  0.00     0.000 C 
BRANCH   5   6
ATOM      6  C   UNL     1      20.162  -1.111  12.626  1.00  0.00     0.006 C 
BRANCH   6   7
ATOM      7  C   UNL     1      19.121  -2.169  13.026  1.00  0.00     0.053 C 
BRANCH   7   8
ATOM      8  C   UNL     1      18.829  -3.122  11.907  1.00  0.00     0.041 C 
ATOM      9  O   UNL     1      19.034  -4.355  12.056  1.00  0.00    -0.550 OA
ATOM     10  O   UNL     1      18.297  -2.651  10.713  1.00  0.00    -0.550 OA
ENDBRANCH   7   8
ENDBRANCH   6   7
ENDBRANCH   5   6
ENDBRANCH   4   5
ENDBRANCH   3   4
ENDBRANCH   2   3
ENDBRANCH   1   2
BRANCH   1  11
ATOM     11  C   UNL     1      22.037  -1.855  17.389  1.00  0.00     0.000 C 
BRANCH  11  12
ATOM     12  C   UNL     1      20.784  -1.023  17.057  1.00  0.00    -0.000 C 
BRANCH  12  13
ATOM     13  C   UNL     1      21.119   0.331  16.410  1.00  0.00    -0.000 C 
BRANCH  13  14
ATOM     14  C   UNL     1      22.633   0.584  16.294  1.00  0.00    -0.000 C 
BRANCH  14  15
ATOM     15  C   UNL     1      23.144   0.860  14.868  1.00  0.00    -0.000 C 
BRANCH  15  16
ATOM     16  C   UNL     1      23.901   2.194  14.751  1.00  0.00    -0.000 C 
BRANCH  16  17
ATOM     17  C   UNL     1      23.135   3.234  13.918  1.00  0.00    -0.003 C 
ATOM     18  C   UNL     1      21.993   2.617  13.112  1.00  0.00     0.004 C 
ENDBRANCH  16  17
ENDBRANCH  15  16
ENDBRANCH  14  15
ENDBRANCH  13  14
ENDBRANCH  12  13
ENDBRANCH  11  12
ENDBRANCH   1  11
TORSDOF 14
ENDMDL
