MODEL 1
REMARK VINA RESULT:    -1.023      0.000      0.000
REMARK INTER + INTRA:          -0.936
REMARK INTER:                  -1.441
REMARK INTRA:                   0.506
REMARK UNBOUND:                 0.506
REMARK SMILES CC1=CCC(=C(C)C)C(=O)CC(C)=CCC1
REMARK SMILES IDX 12 1 14 2 13 3 15 4 16 5 2 6 1 7 3 8 11 10 9 11 10 12 5 13
REMARK SMILES IDX 6 14 7 15 8 16 4 17
REMARK H PARENT
REMARK Flexibility Score: 60.00
ROOT
ATOM      1  C   UNL     1      79.356  32.069  52.235  1.00  0.00    -0.070 C 
ATOM      2  C   UNL     1      80.500  32.714  51.907  1.00  0.00    -0.027 C 
ATOM      3  C   UNL     1      79.356  31.208  53.472  1.00  0.00     0.039 C 
ENDROOT
BRANCH   2   4
ATOM      4  C   UNL     1      80.720  33.491  50.636  1.00  0.00     0.032 C 
BRANCH   4   5
ATOM      5  C   UNL     1      80.579  34.993  50.912  1.00  0.00     0.034 C 
BRANCH   5   6
ATOM      6  C   UNL     1      79.408  35.612  50.175  1.00  0.00    -0.077 C 
ATOM      7  C   UNL     1      79.626  36.118  48.771  1.00  0.00     0.039 C 
ATOM      8  C   UNL     1      78.151  35.670  50.679  1.00  0.00    -0.023 CG0
ATOM      9  G   UNL     1      77.697  35.282  52.075  1.00  0.00     0.000 G0
ENDBRANCH   5   6
ENDBRANCH   4   5
ENDBRANCH   2   4
BRANCH   1  10
ATOM     10  C   UNL     1      78.075  32.186  51.434  1.00  0.00     0.111 C 
BRANCH  10  11
ATOM     11  C   UNL     1      76.958  32.799  52.243  1.00  0.00     0.163 C 
ATOM     12  O   UNL     1      76.330  32.034  53.025  1.00  0.00    -0.294 OA
BRANCH  11  13
ATOM     13  C   UNL     1      76.581  34.250  52.181  1.00  0.00    -0.002 C 
ATOM     14  C   UNL     1      75.282  34.639  52.375  1.00  0.00    -0.069 C 
ATOM     15  C   UNL     1      74.900  36.091  52.550  1.00  0.00     0.039 C 
ATOM     16  C   UNL     1      74.149  33.639  52.373  1.00  0.00     0.039 C 
BRANCH  13  17
ATOM     17  C   UNL     1      77.705  35.274  52.079  1.00  0.00     0.066 CG0
ATOM     18  G   UNL     1      78.153  35.649  50.677  1.00  0.00     0.000 G0
ENDBRANCH  13  17
ENDBRANCH  11  13
ENDBRANCH  10  11
ENDBRANCH   1  10
TORSDOF 0
ENDMDL
MODEL 2
REMARK VINA RESULT:    -0.586     14.067     16.208
REMARK INTER + INTRA:          -0.320
REMARK INTER:                  -0.750
REMARK INTRA:                   0.430
REMARK UNBOUND:                 0.506
REMARK SMILES CC1=CCC(=C(C)C)C(=O)CC(C)=CCC1
REMARK SMILES IDX 12 1 14 2 13 3 15 4 16 5 2 6 1 7 3 8 11 10 9 11 10 12 5 13
REMARK SMILES IDX 6 14 7 15 8 16 4 17
REMARK H PARENT
REMARK Flexibility Score: 60.00
ROOT
ATOM      1  C   UNL     1      84.098  31.262  65.341  1.00  0.00    -0.070 C 
ATOM      2  C   UNL     1      84.696  31.034  66.534  1.00  0.00    -0.027 C 
ATOM      3  C   UNL     1      83.375  30.116  64.680  1.00  0.00     0.039 C 
ENDROOT
BRANCH   2   4
ATOM      4  C   UNL     1      85.579  32.016  67.258  1.00  0.00     0.032 C 
BRANCH   4   5
ATOM      5  C   UNL     1      86.963  31.398  67.491  1.00  0.00     0.034 C 
BRANCH   5   6
ATOM      6  C   UNL     1      87.647  31.003  66.197  1.00  0.00    -0.077 C 
ATOM      7  C   UNL     1      88.100  29.574  66.028  1.00  0.00     0.039 C 
ATOM      8  C   UNL     1      87.811  31.846  65.148  1.00  0.00    -0.023 CG0
ATOM      9  G   UNL     1      87.494  33.330  65.098  1.00  0.00     0.000 G0
ENDBRANCH   5   6
ENDBRANCH   4   5
ENDBRANCH   2   4
BRANCH   1  10
ATOM     10  C   UNL     1      84.103  32.610  64.650  1.00  0.00     0.111 C 
BRANCH  10  11
ATOM     11  C   UNL     1      85.313  32.786  63.766  1.00  0.00     0.163 C 
ATOM     12  O   UNL     1      85.362  32.089  62.716  1.00  0.00    -0.294 OA
BRANCH  11  13
ATOM     13  C   UNL     1      86.428  33.746  64.058  1.00  0.00    -0.002 C 
ATOM     14  C   UNL     1      86.407  35.014  63.541  1.00  0.00    -0.069 C 
ATOM     15  C   UNL     1      87.381  36.079  63.992  1.00  0.00     0.039 C 
ATOM     16  C   UNL     1      85.439  35.405  62.448  1.00  0.00     0.039 C 
BRANCH  13  17
ATOM     17  C   UNL     1      87.476  33.330  65.084  1.00  0.00     0.066 CG0
ATOM     18  G   UNL     1      87.805  31.849  65.152  1.00  0.00     0.000 G0
ENDBRANCH  13  17
ENDBRANCH  11  13
ENDBRANCH  10  11
ENDBRANCH   1  10
TORSDOF 0
ENDMDL
MODEL 3
REMARK VINA RESULT:    -0.507     13.540     15.568
REMARK INTER + INTRA:          -0.209
REMARK INTER:                  -1.269
REMARK INTRA:                   1.060
REMARK UNBOUND:                 0.506
REMARK SMILES CC1=CCC(=C(C)C)C(=O)CC(C)=CCC1
REMARK SMILES IDX 12 1 14 2 13 3 15 4 16 5 2 6 1 7 3 8 11 10 9 11 10 12 5 13
REMARK SMILES IDX 6 14 7 15 8 16 4 17
REMARK H PARENT
REMARK Flexibility Score: 60.00
ROOT
ATOM      1  C   UNL     1      87.805  31.278  65.868  1.00  0.00    -0.070 C 
ATOM      2  C   UNL     1      87.797  32.625  65.734  1.00  0.00    -0.027 C 
ATOM      3  C   UNL     1      88.057  30.702  67.238  1.00  0.00     0.039 C 
ENDROOT
BRANCH   2   4
ATOM      4  C   UNL     1      87.709  33.363  64.424  1.00  0.00     0.032 C 
BRANCH   4   5
ATOM      5  C   UNL     1      86.417  34.187  64.376  1.00  0.00     0.034 C 
BRANCH   5   6
ATOM      6  C   UNL     1      85.387  33.595  63.433  1.00  0.00    -0.077 C 
ATOM      7  C   UNL     1      85.139  34.281  62.113  1.00  0.00     0.039 C 
ATOM      8  C   UNL     1      84.724  32.439  63.678  1.00  0.00    -0.023 CG0
ATOM      9  G   UNL     1      84.759  31.605  64.946  1.00  0.00     0.000 G0
ENDBRANCH   5   6
ENDBRANCH   4   5
ENDBRANCH   2   4
BRANCH   1  10
ATOM     10  C   UNL     1      87.557  30.325  64.716  1.00  0.00     0.111 C 
BRANCH  10  11
ATOM     11  C   UNL     1      86.295  29.521  64.912  1.00  0.00     0.163 C 
ATOM     12  O   UNL     1      86.432  28.310  65.237  1.00  0.00    -0.294 OA
BRANCH  11  13
ATOM     13  C   UNL     1      84.913  30.087  64.763  1.00  0.00    -0.002 C 
ATOM     14  C   UNL     1      83.833  29.256  64.630  1.00  0.00    -0.069 C 
ATOM     15  C   UNL     1      82.413  29.770  64.710  1.00  0.00     0.039 C 
ATOM     16  C   UNL     1      84.001  27.782  64.342  1.00  0.00     0.039 C 
BRANCH  13  17
ATOM     17  C   UNL     1      84.735  31.589  64.949  1.00  0.00     0.066 CG0
ATOM     18  G   UNL     1      84.710  32.428  63.684  1.00  0.00     0.000 G0
ENDBRANCH  13  17
ENDBRANCH  11  13
ENDBRANCH  10  11
ENDBRANCH   1  10
TORSDOF 0
ENDMDL
MODEL 4
REMARK VINA RESULT:    -0.462     14.064     16.049
REMARK INTER + INTRA:          -0.145
REMARK INTER:                  -0.996
REMARK INTRA:                   0.850
REMARK UNBOUND:                 0.506
REMARK SMILES CC1=CCC(=C(C)C)C(=O)CC(C)=CCC1
REMARK SMILES IDX 12 1 14 2 13 3 15 4 16 5 2 6 1 7 3 8 11 10 9 11 10 12 5 13
REMARK SMILES IDX 6 14 7 15 8 16 4 17
REMARK H PARENT
REMARK Flexibility Score: 60.00
ROOT
ATOM      1  C   UNL     1      86.831  31.406  66.843  1.00  0.00    -0.070 C 
ATOM      2  C   UNL     1      85.573  30.979  67.101  1.00  0.00    -0.027 C 
ATOM      3  C   UNL     1      87.958  30.415  66.978  1.00  0.00     0.039 C 
ENDROOT
BRANCH   2   4
ATOM      4  C   UNL     1      84.355  31.864  67.158  1.00  0.00     0.032 C 
BRANCH   4   5
ATOM      5  C   UNL     1      83.482  31.629  65.920  1.00  0.00     0.034 C 
BRANCH   5   6
ATOM      6  C   UNL     1      84.247  30.976  64.786  1.00  0.00    -0.077 C 
ATOM      7  C   UNL     1      84.287  29.470  64.716  1.00  0.00     0.039 C 
ATOM      8  C   UNL     1      84.840  31.670  63.784  1.00  0.00    -0.023 CG0
ATOM      9  G   UNL     1      84.984  33.177  63.664  1.00  0.00     0.000 G0
ENDBRANCH   5   6
ENDBRANCH   4   5
ENDBRANCH   2   4
BRANCH   1  10
ATOM     10  C   UNL     1      87.158  32.820  66.409  1.00  0.00     0.111 C 
BRANCH  10  11
ATOM     11  C   UNL     1      87.234  32.946  64.907  1.00  0.00     0.163 C 
ATOM     12  O   UNL     1      88.124  32.273  64.319  1.00  0.00    -0.294 OA
BRANCH  11  13
ATOM     13  C   UNL     1      86.305  33.797  64.092  1.00  0.00    -0.002 C 
ATOM     14  C   UNL     1      86.713  35.016  63.619  1.00  0.00    -0.069 C 
ATOM     15  C   UNL     1      85.901  35.796  62.611  1.00  0.00     0.039 C 
ATOM     16  C   UNL     1      87.978  35.674  64.120  1.00  0.00     0.039 C 
BRANCH  13  17
ATOM     17  C   UNL     1      84.975  33.188  63.661  1.00  0.00     0.066 CG0
ATOM     18  G   UNL     1      84.856  31.678  63.768  1.00  0.00     0.000 G0
ENDBRANCH  13  17
ENDBRANCH  11  13
ENDBRANCH  10  11
ENDBRANCH   1  10
TORSDOF 0
ENDMDL
MODEL 5
REMARK VINA RESULT:    -0.212     14.834     16.372
REMARK INTER + INTRA:           0.207
REMARK INTER:                  -0.302
REMARK INTRA:                   0.510
REMARK UNBOUND:                 0.506
REMARK SMILES CC1=CCC(=C(C)C)C(=O)CC(C)=CCC1
REMARK SMILES IDX 12 1 14 2 13 3 15 4 16 5 2 6 1 7 3 8 11 10 9 11 10 12 5 13
REMARK SMILES IDX 6 14 7 15 8 16 4 17
REMARK H PARENT
REMARK Flexibility Score: 60.00
ROOT
ATOM      1  C   UNL     1      87.191  27.343  64.323  1.00  0.00    -0.070 C 
ATOM      2  C   UNL     1      85.853  27.172  64.211  1.00  0.00    -0.027 C 
ATOM      3  C   UNL     1      88.093  26.354  63.631  1.00  0.00     0.039 C 
ENDROOT
BRANCH   2   4
ATOM      4  C   UNL     1      84.814  27.973  64.952  1.00  0.00     0.032 C 
BRANCH   4   5
ATOM      5  C   UNL     1      83.969  28.776  63.958  1.00  0.00     0.034 C 
BRANCH   5   6
ATOM      6  C   UNL     1      83.433  30.062  64.558  1.00  0.00    -0.077 C 
ATOM      7  C   UNL     1      82.031  30.070  65.114  1.00  0.00     0.039 C 
ATOM      8  C   UNL     1      84.171  31.191  64.691  1.00  0.00    -0.023 CG0
ATOM      9  G   UNL     1      85.572  31.446  64.164  1.00  0.00     0.000 G0
ENDBRANCH   5   6
ENDBRANCH   4   5
ENDBRANCH   2   4
BRANCH   1  10
ATOM     10  C   UNL     1      87.823  28.486  65.092  1.00  0.00     0.111 C 
BRANCH  10  11
ATOM     11  C   UNL     1      87.582  29.817  64.422  1.00  0.00     0.163 C 
ATOM     12  O   UNL     1      88.125  30.000  63.299  1.00  0.00    -0.294 OA
BRANCH  11  13
ATOM     13  C   UNL     1      86.726  30.902  65.006  1.00  0.00    -0.002 C 
ATOM     14  C   UNL     1      87.065  31.491  66.195  1.00  0.00    -0.069 C 
ATOM     15  C   UNL     1      86.368  32.734  66.700  1.00  0.00     0.039 C 
ATOM     16  C   UNL     1      88.124  30.899  67.096  1.00  0.00     0.039 C 
BRANCH  13  17
ATOM     17  C   UNL     1      85.584  31.445  64.154  1.00  0.00     0.066 CG0
ATOM     18  G   UNL     1      84.179  31.208  64.676  1.00  0.00     0.000 G0
ENDBRANCH  13  17
ENDBRANCH  11  13
ENDBRANCH  10  11
ENDBRANCH   1  10
TORSDOF 0
ENDMDL
MODEL 6
REMARK VINA RESULT:    -0.071     15.373     16.372
REMARK INTER + INTRA:           0.405
REMARK INTER:                  -1.334
REMARK INTRA:                   1.739
REMARK UNBOUND:                 0.506
REMARK SMILES CC1=CCC(=C(C)C)C(=O)CC(C)=CCC1
REMARK SMILES IDX 12 1 14 2 13 3 15 4 16 5 2 6 1 7 3 8 11 10 9 11 10 12 5 13
REMARK SMILES IDX 6 14 7 15 8 16 4 17
REMARK H PARENT
REMARK Flexibility Score: 60.00
ROOT
ATOM      1  C   UNL     1      87.351  33.078  64.510  1.00  0.00    -0.070 C 
ATOM      2  C   UNL     1      88.119  32.092  63.993  1.00  0.00    -0.027 C 
ATOM      3  C   UNL     1      88.019  34.377  64.883  1.00  0.00     0.039 C 
ENDROOT
BRANCH   2   4
ATOM      4  C   UNL     1      87.647  30.690  63.706  1.00  0.00     0.032 C 
BRANCH   4   5
ATOM      5  C   UNL     1      87.307  29.976  65.019  1.00  0.00     0.034 C 
BRANCH   5   6
ATOM      6  C   UNL     1      86.390  28.787  64.812  1.00  0.00    -0.077 C 
ATOM      7  C   UNL     1      86.997  27.408  64.751  1.00  0.00     0.039 C 
ATOM      8  C   UNL     1      85.039  28.885  64.751  1.00  0.00    -0.023 CG0
ATOM      9  G   UNL     1      84.205  30.153  64.731  1.00  0.00     0.000 G0
ENDBRANCH   5   6
ENDBRANCH   4   5
ENDBRANCH   2   4
BRANCH   1  10
ATOM     10  C   UNL     1      85.855  32.949  64.716  1.00  0.00     0.111 C 
BRANCH  10  11
ATOM     11  C   UNL     1      85.522  32.050  65.882  1.00  0.00     0.163 C 
ATOM     12  O   UNL     1      86.278  32.114  66.889  1.00  0.00    -0.294 OA
BRANCH  11  13
ATOM     13  C   UNL     1      84.345  31.120  65.909  1.00  0.00    -0.002 C 
ATOM     14  C   UNL     1      83.382  31.245  66.875  1.00  0.00    -0.069 C 
ATOM     15  C   UNL     1      82.075  30.488  66.805  1.00  0.00     0.039 C 
ATOM     16  C   UNL     1      83.595  32.112  68.095  1.00  0.00     0.039 C 
BRANCH  13  17
ATOM     17  C   UNL     1      84.166  30.163  64.736  1.00  0.00     0.066 CG0
ATOM     18  G   UNL     1      85.038  28.921  64.737  1.00  0.00     0.000 G0
ENDBRANCH  13  17
ENDBRANCH  11  13
ENDBRANCH  10  11
ENDBRANCH   1  10
TORSDOF 0
ENDMDL
MODEL 7
REMARK VINA RESULT:     0.308     15.300     16.971
REMARK INTER + INTRA:           0.939
REMARK INTER:                  -0.866
REMARK INTRA:                   1.806
REMARK UNBOUND:                 0.506
REMARK SMILES CC1=CCC(=C(C)C)C(=O)CC(C)=CCC1
REMARK SMILES IDX 12 1 14 2 13 3 15 4 16 5 2 6 1 7 3 8 11 10 9 11 10 12 5 13
REMARK SMILES IDX 6 14 7 15 8 16 4 17
REMARK H PARENT
REMARK Flexibility Score: 60.00
ROOT
ATOM      1  C   UNL     1      84.364  29.203  64.560  1.00  0.00    -0.070 C 
ATOM      2  C   UNL     1      83.267  29.951  64.824  1.00  0.00    -0.027 C 
ATOM      3  C   UNL     1      84.267  27.711  64.749  1.00  0.00     0.039 C 
ENDROOT
BRANCH   2   4
ATOM      4  C   UNL     1      83.229  31.457  64.831  1.00  0.00     0.032 C 
BRANCH   4   5
ATOM      5  C   UNL     1      84.453  32.005  65.575  1.00  0.00     0.034 C 
BRANCH   5   6
ATOM      6  C   UNL     1      84.435  31.665  67.052  1.00  0.00    -0.077 C 
ATOM      7  C   UNL     1      83.113  31.676  67.779  1.00  0.00     0.039 C 
ATOM      8  C   UNL     1      85.533  31.278  67.746  1.00  0.00    -0.023 CG0
ATOM      9  G   UNL     1      86.970  31.243  67.256  1.00  0.00     0.000 G0
ENDBRANCH   5   6
ENDBRANCH   4   5
ENDBRANCH   2   4
BRANCH   1  10
ATOM     10  C   UNL     1      85.672  29.788  64.067  1.00  0.00     0.111 C 
BRANCH  10  11
ATOM     11  C   UNL     1      86.726  29.800  65.147  1.00  0.00     0.163 C 
ATOM     12  O   UNL     1      87.201  28.685  65.498  1.00  0.00    -0.294 OA
BRANCH  11  13
ATOM     13  C   UNL     1      87.242  31.051  65.796  1.00  0.00    -0.002 C 
ATOM     14  C   UNL     1      87.774  32.059  65.037  1.00  0.00    -0.069 C 
ATOM     15  C   UNL     1      88.090  33.418  65.620  1.00  0.00     0.039 C 
ATOM     16  C   UNL     1      88.123  31.852  63.581  1.00  0.00     0.039 C 
BRANCH  13  17
ATOM     17  C   UNL     1      86.991  31.235  67.289  1.00  0.00     0.066 CG0
ATOM     18  G   UNL     1      85.539  31.256  67.732  1.00  0.00     0.000 G0
ENDBRANCH  13  17
ENDBRANCH  11  13
ENDBRANCH  10  11
ENDBRANCH   1  10
TORSDOF 0
ENDMDL
MODEL 8
REMARK VINA RESULT:     0.960     14.055     15.926
REMARK INTER + INTRA:           1.858
REMARK INTER:                  -0.642
REMARK INTRA:                   2.500
REMARK UNBOUND:                 0.506
REMARK SMILES CC1=CCC(=C(C)C)C(=O)CC(C)=CCC1
REMARK SMILES IDX 12 1 14 2 13 3 15 4 16 5 2 6 1 7 3 8 11 10 9 11 10 12 5 13
REMARK SMILES IDX 6 14 7 15 8 16 4 17
REMARK H PARENT
REMARK Flexibility Score: 60.00
ROOT
ATOM      1  C   UNL     1      87.592  31.028  66.431  1.00  0.00    -0.070 C 
ATOM      2  C   UNL     1      88.108  32.077  65.750  1.00  0.00    -0.027 C 
ATOM      3  C   UNL     1      88.122  29.651  66.122  1.00  0.00     0.039 C 
ENDROOT
BRANCH   2   4
ATOM      4  C   UNL     1      87.596  33.492  65.824  1.00  0.00     0.032 C 
BRANCH   4   5
ATOM      5  C   UNL     1      87.621  34.128  64.430  1.00  0.00     0.034 C 
BRANCH   5   6
ATOM      6  C   UNL     1      86.257  34.132  63.769  1.00  0.00    -0.077 C 
ATOM      7  C   UNL     1      85.799  35.386  63.066  1.00  0.00     0.039 C 
ATOM      8  C   UNL     1      85.450  33.045  63.709  1.00  0.00    -0.023 CG0
ATOM      9  G   UNL     1      85.661  31.700  64.381  1.00  0.00     0.000 G0
ENDBRANCH   5   6
ENDBRANCH   4   5
ENDBRANCH   2   4
BRANCH   1  10
ATOM     10  C   UNL     1      86.524  31.170  67.497  1.00  0.00     0.111 C 
BRANCH  10  11
ATOM     11  C   UNL     1      85.232  31.706  66.932  1.00  0.00     0.163 C 
ATOM     12  O   UNL     1      84.571  32.497  67.660  1.00  0.00    -0.294 OA
BRANCH  11  13
ATOM     13  C   UNL     1      84.715  31.370  65.563  1.00  0.00    -0.002 C 
ATOM     14  C   UNL     1      83.420  30.959  65.390  1.00  0.00    -0.069 C 
ATOM     15  C   UNL     1      82.797  30.835  64.019  1.00  0.00     0.039 C 
ATOM     16  C   UNL     1      82.556  30.558  66.563  1.00  0.00     0.039 C 
BRANCH  13  17
ATOM     17  C   UNL     1      85.614  31.672  64.369  1.00  0.00     0.066 CG0
ATOM     18  G   UNL     1      85.439  33.033  63.719  1.00  0.00     0.000 G0
ENDBRANCH  13  17
ENDBRANCH  11  13
ENDBRANCH  10  11
ENDBRANCH   1  10
TORSDOF 0
ENDMDL
MODEL 9
REMARK VINA RESULT:     1.178     13.841     15.896
REMARK INTER + INTRA:           2.165
REMARK INTER:                   0.957
REMARK INTRA:                   1.208
REMARK UNBOUND:                 0.506
REMARK SMILES CC1=CCC(=C(C)C)C(=O)CC(C)=CCC1
REMARK SMILES IDX 12 1 14 2 13 3 15 4 16 5 2 6 1 7 3 8 11 10 9 11 10 12 5 13
REMARK SMILES IDX 6 14 7 15 8 16 4 17
REMARK H PARENT
REMARK Flexibility Score: 60.00
ROOT
ATOM      1  C   UNL     1      86.792  32.597  64.512  1.00  0.00    -0.070 C 
ATOM      2  C   UNL     1      87.871  31.779  64.493  1.00  0.00    -0.027 C 
ATOM      3  C   UNL     1      86.832  33.802  65.417  1.00  0.00     0.039 C 
ENDROOT
BRANCH   2   4
ATOM      4  C   UNL     1      87.943  30.462  63.766  1.00  0.00     0.032 C 
BRANCH   4   5
ATOM      5  C   UNL     1      88.123  29.320  64.773  1.00  0.00     0.034 C 
BRANCH   5   6
ATOM      6  C   UNL     1      87.029  28.276  64.668  1.00  0.00    -0.077 C 
ATOM      7  C   UNL     1      87.375  26.921  64.105  1.00  0.00     0.039 C 
ATOM      8  C   UNL     1      85.765  28.466  65.122  1.00  0.00    -0.023 CG0
ATOM      9  G   UNL     1      85.164  29.748  65.671  1.00  0.00     0.000 G0
ENDBRANCH   5   6
ENDBRANCH   4   5
ENDBRANCH   2   4
BRANCH   1  10
ATOM     10  C   UNL     1      85.560  32.372  63.659  1.00  0.00     0.111 C 
BRANCH  10  11
ATOM     11  C   UNL     1      84.387  31.893  64.479  1.00  0.00     0.163 C 
ATOM     12  O   UNL     1      83.559  32.765  64.859  1.00  0.00    -0.294 OA
BRANCH  11  13
ATOM     13  C   UNL     1      84.150  30.455  64.836  1.00  0.00    -0.002 C 
ATOM     14  C   UNL     1      83.105  29.764  64.283  1.00  0.00    -0.069 C 
ATOM     15  C   UNL     1      82.967  28.266  64.434  1.00  0.00     0.039 C 
ATOM     16  C   UNL     1      82.000  30.471  63.532  1.00  0.00     0.039 C 
BRANCH  13  17
ATOM     17  C   UNL     1      85.204  29.748  65.681  1.00  0.00     0.066 CG0
ATOM     18  G   UNL     1      85.770  28.457  65.116  1.00  0.00     0.000 G0
ENDBRANCH  13  17
ENDBRANCH  11  13
ENDBRANCH  10  11
ENDBRANCH   1  10
TORSDOF 0
ENDMDL
