MODEL 1
REMARK VINA RESULT:    -7.508      0.000      0.000
REMARK INTER + INTRA:          -9.638
REMARK INTER:                  -9.264
REMARK INTRA:                  -0.374
REMARK UNBOUND:                -0.374
REMARK SMILES Oc1cc(O)c2cc(O)c(-c3cc(O)c(O)c(O)c3)[o+]c2c1.[Cl-]
REMARK SMILES IDX 10 1 20 2 21 3 22 4 2 5 3 6 4 7 6 8 7 9 8 10 11 11 12 12
REMARK SMILES IDX 13 13 19 14 15 15 17 16 14 17 16 19 18 21 9 23 1 25 5 27
REMARK H PARENT 14 18 16 20 18 22 9 24 1 26 5 28
REMARK Flexibility Score: inf
ROOT
ATOM      1  C   UNL     1       9.080  -5.521   9.469  1.00  0.00     0.402 A 
ATOM      2  O   UNL     1       9.725  -4.845   8.523  1.00  0.00    -0.202 OA
ATOM      3  C   UNL     1      10.785  -4.080   8.766  1.00  0.00     0.368 A 
ATOM      4  C   UNL     1      11.393  -3.405   7.704  1.00  0.00     0.162 A 
ATOM      5  C   UNL     1      12.508  -2.592   7.932  1.00  0.00     0.128 A 
ATOM      6  C   UNL     1      13.015  -2.454   9.226  1.00  0.00     0.093 A 
ATOM      7  C   UNL     1      12.423  -3.119  10.307  1.00  0.00     0.136 A 
ATOM      8  C   UNL     1      11.293  -3.948  10.081  1.00  0.00     0.125 A 
ATOM      9  C   UNL     1      10.643  -4.664  11.100  1.00  0.00     0.078 A 
ATOM     10  C   UNL     1       9.537  -5.464  10.799  1.00  0.00     0.223 A 
ENDROOT
BRANCH   1  11
ATOM     11  C   UNL     1       7.905  -6.331   9.074  1.00  0.00     0.091 A 
ATOM     12  C   UNL     1       6.618  -5.791   9.211  1.00  0.00     0.068 A 
ATOM     13  C   UNL     1       5.488  -6.539   8.865  1.00  0.00     0.162 A 
ATOM     14  C   UNL     1       8.046  -7.652   8.617  1.00  0.00     0.068 A 
ATOM     15  C   UNL     1       5.636  -7.853   8.389  1.00  0.00     0.200 A 
ATOM     16  C   UNL     1       6.920  -8.411   8.270  1.00  0.00     0.162 A 
BRANCH  13  17
ATOM     17  O   UNL     1       4.227  -5.960   9.002  1.00  0.00    -0.504 OA
ATOM     18  H   UNL     1       3.593  -5.854   8.218  1.00  0.00     0.293 HD
ENDBRANCH  13  17
BRANCH  15  19
ATOM     19  O   UNL     1       4.503  -8.592   8.043  1.00  0.00    -0.502 OA
ATOM     20  H   UNL     1       4.507  -9.604   8.016  1.00  0.00     0.293 HD
ENDBRANCH  15  19
BRANCH  16  21
ATOM     21  O   UNL     1       7.072  -9.719   7.812  1.00  0.00    -0.504 OA
ATOM     22  H   UNL     1       6.280 -10.344   7.716  1.00  0.00     0.293 HD
ENDBRANCH  16  21
ENDBRANCH   1  11
BRANCH  10  23
ATOM     23  O   UNL     1       8.923  -6.214  11.803  1.00  0.00    -0.500 OA
ATOM     24  H   UNL     1       9.462  -6.712  12.501  1.00  0.00     0.294 HD
ENDBRANCH  10  23
BRANCH   5  25
ATOM     25  O   UNL     1      13.121  -1.917   6.879  1.00  0.00    -0.507 OA
ATOM     26  H   UNL     1      13.099  -0.905   6.815  1.00  0.00     0.293 HD
ENDBRANCH   5  25
BRANCH   7  27
ATOM     27  O   UNL     1      12.989  -2.926  11.571  1.00  0.00    -0.507 OA
ATOM     28  H   UNL     1      13.848  -3.354  11.882  1.00  0.00     0.293 HD
ENDBRANCH   7  27
TORSDOF 7
ENDMDL
MODEL 2
REMARK VINA RESULT:    -7.495      5.101      9.366
REMARK INTER + INTRA:          -9.622
REMARK INTER:                  -9.362
REMARK INTRA:                  -0.260
REMARK UNBOUND:                -0.374
REMARK SMILES Oc1cc(O)c2cc(O)c(-c3cc(O)c(O)c(O)c3)[o+]c2c1.[Cl-]
REMARK SMILES IDX 10 1 20 2 21 3 22 4 2 5 3 6 4 7 6 8 7 9 8 10 11 11 12 12
REMARK SMILES IDX 13 13 19 14 15 15 17 16 14 17 16 19 18 21 9 23 1 25 5 27
REMARK H PARENT 14 18 16 20 18 22 9 24 1 26 5 28
REMARK Flexibility Score: inf
ROOT
ATOM      1  C   UNL     1      11.928  -4.444  14.687  1.00  0.00     0.402 A 
ATOM      2  O   UNL     1      10.964  -3.679  15.190  1.00  0.00    -0.202 OA
ATOM      3  C   UNL     1       9.770  -3.540  14.621  1.00  0.00     0.368 A 
ATOM      4  C   UNL     1       8.823  -2.709  15.224  1.00  0.00     0.162 A 
ATOM      5  C   UNL     1       7.561  -2.543  14.646  1.00  0.00     0.128 A 
ATOM      6  C   UNL     1       7.246  -3.210  13.461  1.00  0.00     0.093 A 
ATOM      7  C   UNL     1       8.179  -4.048  12.836  1.00  0.00     0.136 A 
ATOM      8  C   UNL     1       9.460  -4.222  13.420  1.00  0.00     0.125 A 
ATOM      9  C   UNL     1      10.453  -5.052  12.873  1.00  0.00     0.078 A 
ATOM     10  C   UNL     1      11.692  -5.176  13.508  1.00  0.00     0.223 A 
ENDROOT
BRANCH   1  11
ATOM     11  C   UNL     1      13.220  -4.508  15.408  1.00  0.00     0.091 A 
ATOM     12  C   UNL     1      13.577  -5.687  16.080  1.00  0.00     0.068 A 
ATOM     13  C   UNL     1      14.782  -5.770  16.786  1.00  0.00     0.162 A 
ATOM     14  C   UNL     1      14.074  -3.395  15.481  1.00  0.00     0.068 A 
ATOM     15  C   UNL     1      15.642  -4.660  16.839  1.00  0.00     0.200 A 
ATOM     16  C   UNL     1      15.283  -3.469  16.188  1.00  0.00     0.162 A 
BRANCH  13  17
ATOM     17  O   UNL     1      15.105  -6.964  17.429  1.00  0.00    -0.504 OA
ATOM     18  H   UNL     1      16.039  -7.156  17.774  1.00  0.00     0.293 HD
ENDBRANCH  13  17
BRANCH  15  19
ATOM     19  O   UNL     1      16.843  -4.753  17.544  1.00  0.00    -0.502 OA
ATOM     20  H   UNL     1      17.596  -5.362  17.248  1.00  0.00     0.293 HD
ENDBRANCH  15  19
BRANCH  16  21
ATOM     21  O   UNL     1      16.125  -2.359  16.249  1.00  0.00    -0.504 OA
ATOM     22  H   UNL     1      17.022  -2.346  15.778  1.00  0.00     0.293 HD
ENDBRANCH  16  21
ENDBRANCH   1  11
BRANCH  10  23
ATOM     23  O   UNL     1      12.659  -6.039  12.992  1.00  0.00    -0.500 OA
ATOM     24  H   UNL     1      13.489  -6.285  13.519  1.00  0.00     0.294 HD
ENDBRANCH  10  23
BRANCH   5  25
ATOM     25  O   UNL     1       6.610  -1.718  15.242  1.00  0.00    -0.507 OA
ATOM     26  H   UNL     1       5.703  -1.560  14.816  1.00  0.00     0.293 HD
ENDBRANCH   5  25
BRANCH   7  27
ATOM     27  O   UNL     1       7.787  -4.677  11.650  1.00  0.00    -0.507 OA
ATOM     28  H   UNL     1       6.829  -4.849  11.385  1.00  0.00     0.293 HD
ENDBRANCH   7  27
TORSDOF 7
ENDMDL
MODEL 3
REMARK VINA RESULT:    -7.471      5.068      9.266
REMARK INTER + INTRA:          -9.592
REMARK INTER:                  -9.449
REMARK INTRA:                  -0.144
REMARK UNBOUND:                -0.374
REMARK SMILES Oc1cc(O)c2cc(O)c(-c3cc(O)c(O)c(O)c3)[o+]c2c1.[Cl-]
REMARK SMILES IDX 10 1 20 2 21 3 22 4 2 5 3 6 4 7 6 8 7 9 8 10 11 11 12 12
REMARK SMILES IDX 13 13 19 14 15 15 17 16 14 17 16 19 18 21 9 23 1 25 5 27
REMARK H PARENT 14 18 16 20 18 22 9 24 1 26 5 28
REMARK Flexibility Score: inf
ROOT
ATOM      1  C   UNL     1      11.973  -4.418  14.670  1.00  0.00     0.402 A 
ATOM      2  O   UNL     1      11.026  -3.644  15.193  1.00  0.00    -0.202 OA
ATOM      3  C   UNL     1       9.822  -3.495  14.649  1.00  0.00     0.368 A 
ATOM      4  C   UNL     1       8.894  -2.657  15.272  1.00  0.00     0.162 A 
ATOM      5  C   UNL     1       7.622  -2.480  14.719  1.00  0.00     0.128 A 
ATOM      6  C   UNL     1       7.278  -3.143  13.540  1.00  0.00     0.093 A 
ATOM      7  C   UNL     1       8.190  -3.988  12.896  1.00  0.00     0.136 A 
ATOM      8  C   UNL     1       9.482  -4.173  13.453  1.00  0.00     0.125 A 
ATOM      9  C   UNL     1      10.456  -5.011  12.886  1.00  0.00     0.078 A 
ATOM     10  C   UNL     1      11.706  -5.147  13.496  1.00  0.00     0.223 A 
ENDROOT
BRANCH   1  11
ATOM     11  C   UNL     1      13.279  -4.494  15.364  1.00  0.00     0.091 A 
ATOM     12  C   UNL     1      14.042  -3.328  15.529  1.00  0.00     0.068 A 
ATOM     13  C   UNL     1      15.287  -3.372  16.164  1.00  0.00     0.162 A 
ATOM     14  C   UNL     1      13.798  -5.719  15.815  1.00  0.00     0.068 A 
ATOM     15  C   UNL     1      15.794  -4.598  16.630  1.00  0.00     0.200 A 
ATOM     16  C   UNL     1      15.047  -5.774  16.450  1.00  0.00     0.162 A 
BRANCH  13  17
ATOM     17  O   UNL     1      16.008  -2.189  16.319  1.00  0.00    -0.504 OA
ATOM     18  H   UNL     1      16.384  -1.900  17.215  1.00  0.00     0.293 HD
ENDBRANCH  13  17
BRANCH  15  19
ATOM     19  O   UNL     1      17.036  -4.632  17.265  1.00  0.00    -0.502 OA
ATOM     20  H   UNL     1      17.411  -3.833  17.761  1.00  0.00     0.293 HD
ENDBRANCH  15  19
BRANCH  16  21
ATOM     21  O   UNL     1      15.550  -6.994  16.898  1.00  0.00    -0.504 OA
ATOM     22  H   UNL     1      15.103  -7.873  16.660  1.00  0.00     0.293 HD
ENDBRANCH  16  21
ENDBRANCH   1  11
BRANCH  10  23
ATOM     23  O   UNL     1      12.656  -6.017  12.959  1.00  0.00    -0.500 OA
ATOM     24  H   UNL     1      13.147  -5.805  12.098  1.00  0.00     0.294 HD
ENDBRANCH  10  23
BRANCH   5  25
ATOM     25  O   UNL     1       6.691  -1.647  15.335  1.00  0.00    -0.507 OA
ATOM     26  H   UNL     1       6.797  -0.639  15.330  1.00  0.00     0.293 HD
ENDBRANCH   5  25
BRANCH   7  27
ATOM     27  O   UNL     1       7.770  -4.613  11.718  1.00  0.00    -0.507 OA
ATOM     28  H   UNL     1       8.373  -5.144  11.108  1.00  0.00     0.293 HD
ENDBRANCH   7  27
TORSDOF 7
ENDMDL
MODEL 4
REMARK VINA RESULT:    -7.399      7.561     11.029
REMARK INTER + INTRA:          -9.504
REMARK INTER:                  -9.124
REMARK INTRA:                  -0.380
REMARK UNBOUND:                -0.374
REMARK SMILES Oc1cc(O)c2cc(O)c(-c3cc(O)c(O)c(O)c3)[o+]c2c1.[Cl-]
REMARK SMILES IDX 10 1 20 2 21 3 22 4 2 5 3 6 4 7 6 8 7 9 8 10 11 11 12 12
REMARK SMILES IDX 13 13 19 14 15 15 17 16 14 17 16 19 18 21 9 23 1 25 5 27
REMARK H PARENT 14 18 16 20 18 22 9 24 1 26 5 28
REMARK Flexibility Score: inf
ROOT
ATOM      1  C   UNL     1      13.820  -3.856  16.263  1.00  0.00     0.402 A 
ATOM      2  O   UNL     1      12.764  -4.360  16.895  1.00  0.00    -0.202 OA
ATOM      3  C   UNL     1      11.516  -3.965  16.663  1.00  0.00     0.368 A 
ATOM      4  C   UNL     1      10.471  -4.552  17.381  1.00  0.00     0.162 A 
ATOM      5  C   UNL     1       9.150  -4.153  17.158  1.00  0.00     0.128 A 
ATOM      6  C   UNL     1       8.874  -3.163  16.213  1.00  0.00     0.093 A 
ATOM      7  C   UNL     1       9.902  -2.558  15.481  1.00  0.00     0.136 A 
ATOM      8  C   UNL     1      11.245  -2.961  15.701  1.00  0.00     0.125 A 
ATOM      9  C   UNL     1      12.339  -2.421  15.005  1.00  0.00     0.078 A 
ATOM     10  C   UNL     1      13.634  -2.872  15.274  1.00  0.00     0.223 A 
ENDROOT
BRANCH   1  11
ATOM     11  C   UNL     1      15.161  -4.372  16.619  1.00  0.00     0.091 A 
ATOM     12  C   UNL     1      15.683  -5.474  15.924  1.00  0.00     0.068 A 
ATOM     13  C   UNL     1      16.939  -5.995  16.251  1.00  0.00     0.162 A 
ATOM     14  C   UNL     1      15.903  -3.818  17.676  1.00  0.00     0.068 A 
ATOM     15  C   UNL     1      17.685  -5.424  17.296  1.00  0.00     0.200 A 
ATOM     16  C   UNL     1      17.161  -4.335  18.012  1.00  0.00     0.162 A 
BRANCH  13  17
ATOM     17  O   UNL     1      17.427  -7.082  15.527  1.00  0.00    -0.504 OA
ATOM     18  H   UNL     1      16.871  -7.913  15.359  1.00  0.00     0.293 HD
ENDBRANCH  13  17
BRANCH  15  19
ATOM     19  O   UNL     1      18.939  -5.950  17.614  1.00  0.00    -0.502 OA
ATOM     20  H   UNL     1      19.200  -6.900  17.380  1.00  0.00     0.293 HD
ENDBRANCH  15  19
BRANCH  16  21
ATOM     21  O   UNL     1      17.891  -3.774  19.059  1.00  0.00    -0.504 OA
ATOM     22  H   UNL     1      17.644  -3.942  20.028  1.00  0.00     0.293 HD
ENDBRANCH  16  21
ENDBRANCH   1  11
BRANCH  10  23
ATOM     23  O   UNL     1      14.715  -2.372  14.547  1.00  0.00    -0.500 OA
ATOM     24  H   UNL     1      14.723  -1.423  14.190  1.00  0.00     0.294 HD
ENDBRANCH  10  23
BRANCH   5  25
ATOM     25  O   UNL     1       8.103  -4.735  17.869  1.00  0.00    -0.507 OA
ATOM     26  H   UNL     1       7.676  -4.267  18.660  1.00  0.00     0.293 HD
ENDBRANCH   5  25
BRANCH   7  27
ATOM     27  O   UNL     1       9.542  -1.572  14.557  1.00  0.00    -0.507 OA
ATOM     28  H   UNL     1       9.703  -1.637  13.562  1.00  0.00     0.293 HD
ENDBRANCH   7  27
TORSDOF 7
ENDMDL
MODEL 5
REMARK VINA RESULT:    -7.203      2.251      2.916
REMARK INTER + INTRA:          -9.262
REMARK INTER:                  -8.883
REMARK INTRA:                  -0.380
REMARK UNBOUND:                -0.374
REMARK SMILES Oc1cc(O)c2cc(O)c(-c3cc(O)c(O)c(O)c3)[o+]c2c1.[Cl-]
REMARK SMILES IDX 10 1 20 2 21 3 22 4 2 5 3 6 4 7 6 8 7 9 8 10 11 11 12 12
REMARK SMILES IDX 13 13 19 14 15 15 17 16 14 17 16 19 18 21 9 23 1 25 5 27
REMARK H PARENT 14 18 16 20 18 22 9 24 1 26 5 28
REMARK Flexibility Score: inf
ROOT
ATOM      1  C   UNL     1      10.448  -4.634  11.075  1.00  0.00     0.402 A 
ATOM      2  O   UNL     1      10.660  -3.372  10.712  1.00  0.00    -0.202 OA
ATOM      3  C   UNL     1      11.492  -2.557  11.355  1.00  0.00     0.368 A 
ATOM      4  C   UNL     1      11.644  -1.245  10.900  1.00  0.00     0.162 A 
ATOM      5  C   UNL     1      12.510  -0.367  11.559  1.00  0.00     0.128 A 
ATOM      6  C   UNL     1      13.224  -0.803  12.677  1.00  0.00     0.093 A 
ATOM      7  C   UNL     1      13.088  -2.113  13.153  1.00  0.00     0.136 A 
ATOM      8  C   UNL     1      12.212  -3.009  12.487  1.00  0.00     0.125 A 
ATOM      9  C   UNL     1      12.023  -4.343  12.884  1.00  0.00     0.078 A 
ATOM     10  C   UNL     1      11.146  -5.168  12.174  1.00  0.00     0.223 A 
ENDROOT
BRANCH   1  11
ATOM     11  C   UNL     1       9.489  -5.438  10.284  1.00  0.00     0.091 A 
ATOM     12  C   UNL     1       8.139  -5.470  10.662  1.00  0.00     0.068 A 
ATOM     13  C   UNL     1       7.213  -6.237   9.946  1.00  0.00     0.162 A 
ATOM     14  C   UNL     1       9.912  -6.217   9.193  1.00  0.00     0.068 A 
ATOM     15  C   UNL     1       7.638  -6.998   8.843  1.00  0.00     0.200 A 
ATOM     16  C   UNL     1       8.992  -6.991   8.471  1.00  0.00     0.162 A 
BRANCH  13  17
ATOM     17  O   UNL     1       5.878  -6.229  10.346  1.00  0.00    -0.504 OA
ATOM     18  H   UNL     1       5.408  -5.382  10.641  1.00  0.00     0.293 HD
ENDBRANCH  13  17
BRANCH  15  19
ATOM     19  O   UNL     1       6.707  -7.758   8.133  1.00  0.00    -0.502 OA
ATOM     20  H   UNL     1       6.743  -7.851   7.125  1.00  0.00     0.293 HD
ENDBRANCH  15  19
BRANCH  16  21
ATOM     21  O   UNL     1       9.421  -7.756   7.387  1.00  0.00    -0.504 OA
ATOM     22  H   UNL     1      10.076  -7.390   6.704  1.00  0.00     0.293 HD
ENDBRANCH  16  21
ENDBRANCH   1  11
BRANCH  10  23
ATOM     23  O   UNL     1      10.995  -6.507  12.538  1.00  0.00    -0.500 OA
ATOM     24  H   UNL     1      10.276  -6.805  13.186  1.00  0.00     0.294 HD
ENDBRANCH  10  23
BRANCH   5  25
ATOM     25  O   UNL     1      12.669   0.942  11.111  1.00  0.00    -0.507 OA
ATOM     26  H   UNL     1      12.914   1.147  10.148  1.00  0.00     0.293 HD
ENDBRANCH   5  25
BRANCH   7  27
ATOM     27  O   UNL     1      13.835  -2.470  14.280  1.00  0.00    -0.507 OA
ATOM     28  H   UNL     1      14.665  -1.987  14.590  1.00  0.00     0.293 HD
ENDBRANCH   7  27
TORSDOF 7
ENDMDL
MODEL 6
REMARK VINA RESULT:    -7.196      4.824      7.113
REMARK INTER + INTRA:          -9.253
REMARK INTER:                  -8.869
REMARK INTRA:                  -0.384
REMARK UNBOUND:                -0.374
REMARK SMILES Oc1cc(O)c2cc(O)c(-c3cc(O)c(O)c(O)c3)[o+]c2c1.[Cl-]
REMARK SMILES IDX 10 1 20 2 21 3 22 4 2 5 3 6 4 7 6 8 7 9 8 10 11 11 12 12
REMARK SMILES IDX 13 13 19 14 15 15 17 16 14 17 16 19 18 21 9 23 1 25 5 27
REMARK H PARENT 14 18 16 20 18 22 9 24 1 26 5 28
REMARK Flexibility Score: inf
ROOT
ATOM      1  C   UNL     1      11.779  -4.346  13.899  1.00  0.00     0.402 A 
ATOM      2  O   UNL     1      12.243  -3.100  13.921  1.00  0.00    -0.202 OA
ATOM      3  C   UNL     1      12.497  -2.396  12.823  1.00  0.00     0.368 A 
ATOM      4  C   UNL     1      12.986  -1.093  12.948  1.00  0.00     0.162 A 
ATOM      5  C   UNL     1      13.264  -0.332  11.809  1.00  0.00     0.128 A 
ATOM      6  C   UNL     1      13.052  -0.876  10.541  1.00  0.00     0.093 A 
ATOM      7  C   UNL     1      12.563  -2.179  10.388  1.00  0.00     0.136 A 
ATOM      8  C   UNL     1      12.277  -2.955  11.541  1.00  0.00     0.125 A 
ATOM      9  C   UNL     1      11.771  -4.265  11.485  1.00  0.00     0.078 A 
ATOM     10  C   UNL     1      11.509  -4.966  12.665  1.00  0.00     0.223 A 
ENDROOT
BRANCH   1  11
ATOM     11  C   UNL     1      11.546  -5.030  15.192  1.00  0.00     0.091 A 
ATOM     12  C   UNL     1      10.355  -4.791  15.894  1.00  0.00     0.068 A 
ATOM     13  C   UNL     1      10.116  -5.408  17.126  1.00  0.00     0.162 A 
ATOM     14  C   UNL     1      12.517  -5.873  15.760  1.00  0.00     0.068 A 
ATOM     15  C   UNL     1      11.082  -6.265  17.681  1.00  0.00     0.200 A 
ATOM     16  C   UNL     1      12.287  -6.493  16.996  1.00  0.00     0.162 A 
BRANCH  13  17
ATOM     17  O   UNL     1       8.913  -5.154  17.785  1.00  0.00    -0.504 OA
ATOM     18  H   UNL     1       8.879  -4.689  18.684  1.00  0.00     0.293 HD
ENDBRANCH  13  17
BRANCH  15  19
ATOM     19  O   UNL     1      10.833  -6.878  18.910  1.00  0.00    -0.502 OA
ATOM     20  H   UNL     1      10.095  -6.566  19.529  1.00  0.00     0.293 HD
ENDBRANCH  15  19
BRANCH  16  21
ATOM     21  O   UNL     1      13.255  -7.331  17.548  1.00  0.00    -0.504 OA
ATOM     22  H   UNL     1      13.917  -7.833  16.967  1.00  0.00     0.293 HD
ENDBRANCH  16  21
ENDBRANCH   1  11
BRANCH  10  23
ATOM     23  O   UNL     1      10.960  -6.248  12.610  1.00  0.00    -0.500 OA
ATOM     24  H   UNL     1      10.542  -6.612  11.762  1.00  0.00     0.294 HD
ENDBRANCH  10  23
BRANCH   5  25
ATOM     25  O   UNL     1      13.751   0.968  11.926  1.00  0.00    -0.507 OA
ATOM     26  H   UNL     1      13.704   1.475  12.803  1.00  0.00     0.293 HD
ENDBRANCH   5  25
BRANCH   7  27
ATOM     27  O   UNL     1      12.381  -2.650   9.084  1.00  0.00    -0.507 OA
ATOM     28  H   UNL     1      11.906  -3.510   8.850  1.00  0.00     0.293 HD
ENDBRANCH   7  27
TORSDOF 7
ENDMDL
MODEL 7
REMARK VINA RESULT:    -7.193      3.508      6.068
REMARK INTER + INTRA:          -9.249
REMARK INTER:                  -8.873
REMARK INTRA:                  -0.376
REMARK UNBOUND:                -0.374
REMARK SMILES Oc1cc(O)c2cc(O)c(-c3cc(O)c(O)c(O)c3)[o+]c2c1.[Cl-]
REMARK SMILES IDX 10 1 20 2 21 3 22 4 2 5 3 6 4 7 6 8 7 9 8 10 11 11 12 12
REMARK SMILES IDX 13 13 19 14 15 15 17 16 14 17 16 19 18 21 9 23 1 25 5 27
REMARK H PARENT 14 18 16 20 18 22 9 24 1 26 5 28
REMARK Flexibility Score: inf
ROOT
ATOM      1  C   UNL     1       4.863  -7.200   6.870  1.00  0.00     0.402 A 
ATOM      2  O   UNL     1       5.000  -6.379   7.907  1.00  0.00    -0.202 OA
ATOM      3  C   UNL     1       6.114  -6.290   8.627  1.00  0.00     0.368 A 
ATOM      4  C   UNL     1       6.160  -5.399   9.702  1.00  0.00     0.162 A 
ATOM      5  C   UNL     1       7.318  -5.288  10.477  1.00  0.00     0.128 A 
ATOM      6  C   UNL     1       8.434  -6.071  10.175  1.00  0.00     0.093 A 
ATOM      7  C   UNL     1       8.414  -6.972   9.103  1.00  0.00     0.136 A 
ATOM      8  C   UNL     1       7.241  -7.088   8.312  1.00  0.00     0.125 A 
ATOM      9  C   UNL     1       7.133  -7.953   7.211  1.00  0.00     0.078 A 
ATOM     10  C   UNL     1       5.946  -8.008   6.476  1.00  0.00     0.223 A 
ENDROOT
BRANCH   1  11
ATOM     11  C   UNL     1       3.567  -7.216   6.154  1.00  0.00     0.091 A 
ATOM     12  C   UNL     1       3.378  -6.368   5.052  1.00  0.00     0.068 A 
ATOM     13  C   UNL     1       2.158  -6.347   4.368  1.00  0.00     0.162 A 
ATOM     14  C   UNL     1       2.501  -8.021   6.588  1.00  0.00     0.068 A 
ATOM     15  C   UNL     1       1.101  -7.170   4.794  1.00  0.00     0.200 A 
ATOM     16  C   UNL     1       1.274  -8.005   5.910  1.00  0.00     0.162 A 
BRANCH  13  17
ATOM     17  O   UNL     1       2.016  -5.501   3.269  1.00  0.00    -0.504 OA
ATOM     18  H   UNL     1       2.812  -5.157   2.746  1.00  0.00     0.293 HD
ENDBRANCH  13  17
BRANCH  15  19
ATOM     19  O   UNL     1      -0.112  -7.143   4.104  1.00  0.00    -0.502 OA
ATOM     20  H   UNL     1      -0.707  -7.960   4.027  1.00  0.00     0.293 HD
ENDBRANCH  15  19
BRANCH  16  21
ATOM     21  O   UNL     1       0.224  -8.812   6.346  1.00  0.00    -0.504 OA
ATOM     22  H   UNL     1       0.068  -8.996   7.331  1.00  0.00     0.293 HD
ENDBRANCH  16  21
ENDBRANCH   1  11
BRANCH  10  23
ATOM     23  O   UNL     1       5.857  -8.831   5.353  1.00  0.00    -0.500 OA
ATOM     24  H   UNL     1       6.681  -9.135   4.847  1.00  0.00     0.294 HD
ENDBRANCH  10  23
BRANCH   5  25
ATOM     25  O   UNL     1       7.372  -4.400  11.549  1.00  0.00    -0.507 OA
ATOM     26  H   UNL     1       7.152  -3.417  11.435  1.00  0.00     0.293 HD
ENDBRANCH   5  25
BRANCH   7  27
ATOM     27  O   UNL     1       9.570  -7.722   8.869  1.00  0.00    -0.507 OA
ATOM     28  H   UNL     1      10.454  -7.331   8.577  1.00  0.00     0.293 HD
ENDBRANCH   7  27
TORSDOF 7
ENDMDL
MODEL 8
REMARK VINA RESULT:    -7.142      5.615      9.495
REMARK INTER + INTRA:          -9.186
REMARK INTER:                  -9.096
REMARK INTRA:                  -0.090
REMARK UNBOUND:                -0.374
REMARK SMILES Oc1cc(O)c2cc(O)c(-c3cc(O)c(O)c(O)c3)[o+]c2c1.[Cl-]
REMARK SMILES IDX 10 1 20 2 21 3 22 4 2 5 3 6 4 7 6 8 7 9 8 10 11 11 12 12
REMARK SMILES IDX 13 13 19 14 15 15 17 16 14 17 16 19 18 21 9 23 1 25 5 27
REMARK H PARENT 14 18 16 20 18 22 9 24 1 26 5 28
REMARK Flexibility Score: inf
ROOT
ATOM      1  C   UNL     1      11.567  -3.284  15.877  1.00  0.00     0.402 A 
ATOM      2  O   UNL     1      10.867  -3.793  14.867  1.00  0.00    -0.202 OA
ATOM      3  C   UNL     1       9.628  -3.412  14.571  1.00  0.00     0.368 A 
ATOM      4  C   UNL     1       8.972  -4.010  13.492  1.00  0.00     0.162 A 
ATOM      5  C   UNL     1       7.668  -3.629  13.161  1.00  0.00     0.128 A 
ATOM      6  C   UNL     1       7.019  -2.648  13.912  1.00  0.00     0.093 A 
ATOM      7  C   UNL     1       7.653  -2.034  14.999  1.00  0.00     0.136 A 
ATOM      8  C   UNL     1       8.978  -2.415  15.338  1.00  0.00     0.125 A 
ATOM      9  C   UNL     1       9.698  -1.845  16.401  1.00  0.00     0.078 A 
ATOM     10  C   UNL     1      11.002  -2.269  16.672  1.00  0.00     0.223 A 
ENDROOT
BRANCH   1  11
ATOM     11  C   UNL     1      12.935  -3.799  16.111  1.00  0.00     0.091 A 
ATOM     12  C   UNL     1      14.016  -2.905  16.128  1.00  0.00     0.068 A 
ATOM     13  C   UNL     1      15.321  -3.365  16.329  1.00  0.00     0.162 A 
ATOM     14  C   UNL     1      13.183  -5.174  16.263  1.00  0.00     0.068 A 
ATOM     15  C   UNL     1      15.562  -4.739  16.500  1.00  0.00     0.200 A 
ATOM     16  C   UNL     1      14.489  -5.644  16.462  1.00  0.00     0.162 A 
BRANCH  13  17
ATOM     17  O   UNL     1      16.365  -2.441  16.352  1.00  0.00    -0.504 OA
ATOM     18  H   UNL     1      17.338  -2.726  16.339  1.00  0.00     0.293 HD
ENDBRANCH  13  17
BRANCH  15  19
ATOM     19  O   UNL     1      16.868  -5.189  16.701  1.00  0.00    -0.502 OA
ATOM     20  H   UNL     1      17.171  -6.111  16.412  1.00  0.00     0.293 HD
ENDBRANCH  15  19
BRANCH  16  21
ATOM     21  O   UNL     1      14.723  -7.010  16.616  1.00  0.00    -0.504 OA
ATOM     22  H   UNL     1      15.654  -7.403  16.531  1.00  0.00     0.293 HD
ENDBRANCH  16  21
ENDBRANCH   1  11
BRANCH  10  23
ATOM     23  O   UNL     1      11.734  -1.668  17.696  1.00  0.00    -0.500 OA
ATOM     24  H   UNL     1      11.316  -0.993  18.325  1.00  0.00     0.294 HD
ENDBRANCH  10  23
BRANCH   5  25
ATOM     25  O   UNL     1       7.008  -4.219  12.085  1.00  0.00    -0.507 OA
ATOM     26  H   UNL     1       6.450  -3.671  11.440  1.00  0.00     0.293 HD
ENDBRANCH   5  25
BRANCH   7  27
ATOM     27  O   UNL     1       6.933  -1.064  15.703  1.00  0.00    -0.507 OA
ATOM     28  H   UNL     1       7.151  -0.079  15.699  1.00  0.00     0.293 HD
ENDBRANCH   7  27
TORSDOF 7
ENDMDL
MODEL 9
REMARK VINA RESULT:    -7.137      3.419      8.659
REMARK INTER + INTRA:          -9.180
REMARK INTER:                  -8.886
REMARK INTRA:                  -0.294
REMARK UNBOUND:                -0.374
REMARK SMILES Oc1cc(O)c2cc(O)c(-c3cc(O)c(O)c(O)c3)[o+]c2c1.[Cl-]
REMARK SMILES IDX 10 1 20 2 21 3 22 4 2 5 3 6 4 7 6 8 7 9 8 10 11 11 12 12
REMARK SMILES IDX 13 13 19 14 15 15 17 16 14 17 16 19 18 21 9 23 1 25 5 27
REMARK H PARENT 14 18 16 20 18 22 9 24 1 26 5 28
REMARK Flexibility Score: inf
ROOT
ATOM      1  C   UNL     1       4.818  -7.017   7.789  1.00  0.00     0.402 A 
ATOM      2  O   UNL     1       4.201  -8.191   7.895  1.00  0.00    -0.202 OA
ATOM      3  C   UNL     1       3.070  -8.481   7.260  1.00  0.00     0.368 A 
ATOM      4  C   UNL     1       2.495  -9.742   7.438  1.00  0.00     0.162 A 
ATOM      5  C   UNL     1       1.304 -10.072   6.784  1.00  0.00     0.128 A 
ATOM      6  C   UNL     1       0.686  -9.137   5.951  1.00  0.00     0.093 A 
ATOM      7  C   UNL     1       1.241  -7.867   5.757  1.00  0.00     0.136 A 
ATOM      8  C   UNL     1       2.452  -7.527   6.416  1.00  0.00     0.125 A 
ATOM      9  C   UNL     1       3.088  -6.283   6.271  1.00  0.00     0.078 A 
ATOM     10  C   UNL     1       4.282  -6.023   6.950  1.00  0.00     0.223 A 
ENDROOT
BRANCH   1  11
ATOM     11  C   UNL     1       6.068  -6.811   8.556  1.00  0.00     0.091 A 
ATOM     12  C   UNL     1       6.073  -5.926   9.644  1.00  0.00     0.068 A 
ATOM     13  C   UNL     1       7.243  -5.696  10.374  1.00  0.00     0.162 A 
ATOM     14  C   UNL     1       7.268  -7.441   8.183  1.00  0.00     0.068 A 
ATOM     15  C   UNL     1       8.436  -6.344  10.009  1.00  0.00     0.200 A 
ATOM     16  C   UNL     1       8.447  -7.215   8.907  1.00  0.00     0.162 A 
BRANCH  13  17
ATOM     17  O   UNL     1       7.201  -4.820  11.457  1.00  0.00    -0.504 OA
ATOM     18  H   UNL     1       7.490  -5.098  12.388  1.00  0.00     0.293 HD
ENDBRANCH  13  17
BRANCH  15  19
ATOM     19  O   UNL     1       9.599  -6.111  10.745  1.00  0.00    -0.502 OA
ATOM     20  H   UNL     1      10.413  -5.665  10.340  1.00  0.00     0.293 HD
ENDBRANCH  15  19
BRANCH  16  21
ATOM     21  O   UNL     1       9.630  -7.850   8.532  1.00  0.00    -0.504 OA
ATOM     22  H   UNL     1       9.675  -8.451   7.717  1.00  0.00     0.293 HD
ENDBRANCH  16  21
ENDBRANCH   1  11
BRANCH  10  23
ATOM     23  O   UNL     1       4.940  -4.807   6.766  1.00  0.00    -0.500 OA
ATOM     24  H   UNL     1       4.849  -4.046   7.430  1.00  0.00     0.294 HD
ENDBRANCH  10  23
BRANCH   5  25
ATOM     25  O   UNL     1       0.725 -11.328   6.955  1.00  0.00    -0.507 OA
ATOM     26  H   UNL     1      -0.181 -11.552   6.559  1.00  0.00     0.293 HD
ENDBRANCH   5  25
BRANCH   7  27
ATOM     27  O   UNL     1       0.560  -6.988   4.910  1.00  0.00    -0.507 OA
ATOM     28  H   UNL     1       0.963  -6.152   4.512  1.00  0.00     0.293 HD
ENDBRANCH   7  27
TORSDOF 7
ENDMDL
