MODEL 1
REMARK VINA RESULT:    -4.699      0.000      0.000
REMARK INTER + INTRA:          -4.699
REMARK INTER:                  -4.699
REMARK INTRA:                   0.000
REMARK UNBOUND:                 0.000
REMARK SMILES c1ccc2ccccc2c1
REMARK SMILES IDX 2 1 1 2 10 3 9 4 8 5 7 6 6 7 5 8 4 9 3 10
REMARK H PARENT
REMARK Flexibility Score: inf
ROOT
ATOM      1  C   UNL     1      25.723  41.727  36.210  1.00  0.00     0.001 A 
ATOM      2  C   UNL     1      25.356  41.127  35.003  1.00  0.00     0.001 A 
ATOM      3  C   UNL     1      24.164  40.401  34.912  1.00  0.00     0.009 A 
ATOM      4  C   UNL     1      23.331  40.271  36.034  1.00  0.00    -0.018 A 
ATOM      5  C   UNL     1      22.133  39.545  35.956  1.00  0.00     0.009 A 
ATOM      6  C   UNL     1      21.312  39.422  37.081  1.00  0.00     0.001 A 
ATOM      7  C   UNL     1      21.680  40.023  38.289  1.00  0.00     0.001 A 
ATOM      8  C   UNL     1      22.871  40.749  38.380  1.00  0.00     0.009 A 
ATOM      9  C   UNL     1      23.704  40.879  37.258  1.00  0.00    -0.018 A 
ATOM     10  C   UNL     1      24.902  41.605  37.335  1.00  0.00     0.009 A 
ENDROOT
TORSDOF 0
ENDMDL
MODEL 2
REMARK VINA RESULT:    -4.688      0.096      2.083
REMARK INTER + INTRA:          -4.688
REMARK INTER:                  -4.688
REMARK INTRA:                   0.000
REMARK UNBOUND:                 0.000
REMARK SMILES c1ccc2ccccc2c1
REMARK SMILES IDX 2 1 1 2 10 3 9 4 8 5 7 6 6 7 5 8 4 9 3 10
REMARK H PARENT
REMARK Flexibility Score: inf
ROOT
ATOM      1  C   UNL     1      25.354  41.130  35.015  1.00  0.00     0.001 A 
ATOM      2  C   UNL     1      25.698  41.695  36.246  1.00  0.00     0.001 A 
ATOM      3  C   UNL     1      24.860  41.535  37.353  1.00  0.00     0.009 A 
ATOM      4  C   UNL     1      23.667  40.806  37.233  1.00  0.00    -0.018 A 
ATOM      5  C   UNL     1      22.816  40.637  38.336  1.00  0.00     0.009 A 
ATOM      6  C   UNL     1      21.630  39.909  38.203  1.00  0.00     0.001 A 
ATOM      7  C   UNL     1      21.286  39.344  36.972  1.00  0.00     0.001 A 
ATOM      8  C   UNL     1      22.124  39.504  35.865  1.00  0.00     0.009 A 
ATOM      9  C   UNL     1      23.318  40.233  35.985  1.00  0.00    -0.018 A 
ATOM     10  C   UNL     1      24.168  40.402  34.882  1.00  0.00     0.009 A 
ENDROOT
TORSDOF 0
ENDMDL
MODEL 3
REMARK VINA RESULT:    -4.675      0.113      3.438
REMARK INTER + INTRA:          -4.675
REMARK INTER:                  -4.675
REMARK INTRA:                   0.000
REMARK UNBOUND:                 0.000
REMARK SMILES c1ccc2ccccc2c1
REMARK SMILES IDX 2 1 1 2 10 3 9 4 8 5 7 6 6 7 5 8 4 9 3 10
REMARK H PARENT
REMARK Flexibility Score: inf
ROOT
ATOM      1  C   UNL     1      21.652  39.948  38.174  1.00  0.00     0.001 A 
ATOM      2  C   UNL     1      21.293  39.363  36.957  1.00  0.00     0.001 A 
ATOM      3  C   UNL     1      22.123  39.497  35.839  1.00  0.00     0.009 A 
ATOM      4  C   UNL     1      23.320  40.222  35.935  1.00  0.00    -0.018 A 
ATOM      5  C   UNL     1      24.162  40.365  34.821  1.00  0.00     0.009 A 
ATOM      6  C   UNL     1      25.352  41.090  34.930  1.00  0.00     0.001 A 
ATOM      7  C   UNL     1      25.711  41.676  36.147  1.00  0.00     0.001 A 
ATOM      8  C   UNL     1      24.881  41.542  37.264  1.00  0.00     0.009 A 
ATOM      9  C   UNL     1      23.684  40.816  37.169  1.00  0.00    -0.018 A 
ATOM     10  C   UNL     1      22.842  40.674  38.282  1.00  0.00     0.009 A 
ENDROOT
TORSDOF 0
ENDMDL
MODEL 4
REMARK VINA RESULT:    -4.672      0.145      4.020
REMARK INTER + INTRA:          -4.672
REMARK INTER:                  -4.672
REMARK INTRA:                   0.000
REMARK UNBOUND:                 0.000
REMARK SMILES c1ccc2ccccc2c1
REMARK SMILES IDX 2 1 1 2 10 3 9 4 8 5 7 6 6 7 5 8 4 9 3 10
REMARK H PARENT
REMARK Flexibility Score: inf
ROOT
ATOM      1  C   UNL     1      21.294  39.356  36.968  1.00  0.00     0.001 A 
ATOM      2  C   UNL     1      21.674  39.945  38.177  1.00  0.00     0.001 A 
ATOM      3  C   UNL     1      22.869  40.666  38.263  1.00  0.00     0.009 A 
ATOM      4  C   UNL     1      23.694  40.799  37.136  1.00  0.00    -0.018 A 
ATOM      5  C   UNL     1      24.896  41.519  37.208  1.00  0.00     0.009 A 
ATOM      6  C   UNL     1      25.708  41.644  36.078  1.00  0.00     0.001 A 
ATOM      7  C   UNL     1      25.328  41.055  34.869  1.00  0.00     0.001 A 
ATOM      8  C   UNL     1      24.133  40.334  34.783  1.00  0.00     0.009 A 
ATOM      9  C   UNL     1      23.308  40.201  35.910  1.00  0.00    -0.018 A 
ATOM     10  C   UNL     1      22.106  39.481  35.838  1.00  0.00     0.009 A 
ENDROOT
TORSDOF 0
ENDMDL
MODEL 5
REMARK VINA RESULT:    -4.546      1.276      3.927
REMARK INTER + INTRA:          -4.546
REMARK INTER:                  -4.546
REMARK INTRA:                   0.000
REMARK UNBOUND:                 0.000
REMARK SMILES c1ccc2ccccc2c1
REMARK SMILES IDX 2 1 1 2 10 3 9 4 8 5 7 6 6 7 5 8 4 9 3 10
REMARK H PARENT
REMARK Flexibility Score: inf
ROOT
ATOM      1  C   UNL     1      21.807  39.253  36.256  1.00  0.00     0.001 A 
ATOM      2  C   UNL     1      21.561  39.515  37.606  1.00  0.00     0.001 A 
ATOM      3  C   UNL     1      22.151  40.619  38.228  1.00  0.00     0.009 A 
ATOM      4  C   UNL     1      22.996  41.470  37.498  1.00  0.00    -0.018 A 
ATOM      5  C   UNL     1      23.596  42.581  38.110  1.00  0.00     0.009 A 
ATOM      6  C   UNL     1      24.436  43.420  37.372  1.00  0.00     0.001 A 
ATOM      7  C   UNL     1      24.682  43.158  36.021  1.00  0.00     0.001 A 
ATOM      8  C   UNL     1      24.091  42.054  35.400  1.00  0.00     0.009 A 
ATOM      9  C   UNL     1      23.246  41.203  36.129  1.00  0.00    -0.018 A 
ATOM     10  C   UNL     1      22.647  40.092  35.518  1.00  0.00     0.009 A 
ENDROOT
TORSDOF 0
ENDMDL
MODEL 6
REMARK VINA RESULT:    -4.541      1.255      1.552
REMARK INTER + INTRA:          -4.541
REMARK INTER:                  -4.541
REMARK INTRA:                   0.000
REMARK UNBOUND:                 0.000
REMARK SMILES c1ccc2ccccc2c1
REMARK SMILES IDX 2 1 1 2 10 3 9 4 8 5 7 6 6 7 5 8 4 9 3 10
REMARK H PARENT
REMARK Flexibility Score: inf
ROOT
ATOM      1  C   UNL     1      24.256  43.335  37.440  1.00  0.00     0.001 A 
ATOM      2  C   UNL     1      24.602  43.073  36.112  1.00  0.00     0.001 A 
ATOM      3  C   UNL     1      24.064  41.966  35.449  1.00  0.00     0.009 A 
ATOM      4  C   UNL     1      23.173  41.111  36.116  1.00  0.00    -0.018 A 
ATOM      5  C   UNL     1      22.626  39.996  35.463  1.00  0.00     0.009 A 
ATOM      6  C   UNL     1      21.740  39.152  36.139  1.00  0.00     0.001 A 
ATOM      7  C   UNL     1      21.393  39.414  37.467  1.00  0.00     0.001 A 
ATOM      8  C   UNL     1      21.932  40.521  38.130  1.00  0.00     0.009 A 
ATOM      9  C   UNL     1      22.822  41.376  37.463  1.00  0.00    -0.018 A 
ATOM     10  C   UNL     1      23.370  42.491  38.116  1.00  0.00     0.009 A 
ENDROOT
TORSDOF 0
ENDMDL
MODEL 7
REMARK VINA RESULT:    -4.526      1.156      2.390
REMARK INTER + INTRA:          -4.526
REMARK INTER:                  -4.526
REMARK INTRA:                   0.000
REMARK UNBOUND:                 0.000
REMARK SMILES c1ccc2ccccc2c1
REMARK SMILES IDX 2 1 1 2 10 3 9 4 8 5 7 6 6 7 5 8 4 9 3 10
REMARK H PARENT
REMARK Flexibility Score: inf
ROOT
ATOM      1  C   UNL     1      24.841  42.942  36.041  1.00  0.00     0.001 A 
ATOM      2  C   UNL     1      24.514  43.258  37.363  1.00  0.00     0.001 A 
ATOM      3  C   UNL     1      23.579  42.487  38.060  1.00  0.00     0.009 A 
ATOM      4  C   UNL     1      22.964  41.391  37.436  1.00  0.00    -0.018 A 
ATOM      5  C   UNL     1      22.024  40.609  38.124  1.00  0.00     0.009 A 
ATOM      6  C   UNL     1      21.418  39.521  37.490  1.00  0.00     0.001 A 
ATOM      7  C   UNL     1      21.745  39.204  36.169  1.00  0.00     0.001 A 
ATOM      8  C   UNL     1      22.680  39.976  35.471  1.00  0.00     0.009 A 
ATOM      9  C   UNL     1      23.295  41.071  36.096  1.00  0.00    -0.018 A 
ATOM     10  C   UNL     1      24.235  41.853  35.407  1.00  0.00     0.009 A 
ENDROOT
TORSDOF 0
ENDMDL
MODEL 8
REMARK VINA RESULT:    -4.486      1.498      3.379
REMARK INTER + INTRA:          -4.486
REMARK INTER:                  -4.486
REMARK INTRA:                   0.000
REMARK UNBOUND:                 0.000
REMARK SMILES c1ccc2ccccc2c1
REMARK SMILES IDX 2 1 1 2 10 3 9 4 8 5 7 6 6 7 5 8 4 9 3 10
REMARK H PARENT
REMARK Flexibility Score: inf
ROOT
ATOM      1  C   UNL     1      21.334  37.751  34.274  1.00  0.00     0.001 A 
ATOM      2  C   UNL     1      22.318  38.475  33.595  1.00  0.00     0.001 A 
ATOM      3  C   UNL     1      22.978  39.532  34.230  1.00  0.00     0.009 A 
ATOM      4  C   UNL     1      22.654  39.871  35.553  1.00  0.00    -0.018 A 
ATOM      5  C   UNL     1      23.309  40.929  36.201  1.00  0.00     0.009 A 
ATOM      6  C   UNL     1      22.977  41.256  37.519  1.00  0.00     0.001 A 
ATOM      7  C   UNL     1      21.994  40.532  38.198  1.00  0.00     0.001 A 
ATOM      8  C   UNL     1      21.334  39.475  37.564  1.00  0.00     0.009 A 
ATOM      9  C   UNL     1      21.657  39.136  36.241  1.00  0.00    -0.018 A 
ATOM     10  C   UNL     1      21.003  38.078  35.592  1.00  0.00     0.009 A 
ENDROOT
TORSDOF 0
ENDMDL
MODEL 9
REMARK VINA RESULT:    -4.364     18.137     20.090
REMARK INTER + INTRA:          -4.364
REMARK INTER:                  -4.364
REMARK INTRA:                   0.000
REMARK UNBOUND:                 0.000
REMARK SMILES c1ccc2ccccc2c1
REMARK SMILES IDX 2 1 1 2 10 3 9 4 8 5 7 6 6 7 5 8 4 9 3 10
REMARK H PARENT
REMARK Flexibility Score: inf
ROOT
ATOM      1  C   UNL     1      36.354  50.971  27.311  1.00  0.00     0.001 A 
ATOM      2  C   UNL     1      36.428  49.883  28.184  1.00  0.00     0.001 A 
ATOM      3  C   UNL     1      37.210  48.770  27.857  1.00  0.00     0.009 A 
ATOM      4  C   UNL     1      37.922  48.742  26.648  1.00  0.00    -0.018 A 
ATOM      5  C   UNL     1      38.710  47.632  26.307  1.00  0.00     0.009 A 
ATOM      6  C   UNL     1      39.415  47.616  25.099  1.00  0.00     0.001 A 
ATOM      7  C   UNL     1      39.340  48.704  24.226  1.00  0.00     0.001 A 
ATOM      8  C   UNL     1      38.558  49.817  24.554  1.00  0.00     0.009 A 
ATOM      9  C   UNL     1      37.846  49.845  25.763  1.00  0.00    -0.018 A 
ATOM     10  C   UNL     1      37.058  50.955  26.104  1.00  0.00     0.009 A 
ENDROOT
TORSDOF 0
ENDMDL
