MODEL 1
REMARK VINA RESULT:    -4.724      0.000      0.000
REMARK INTER + INTRA:         -10.600
REMARK INTER:                  -8.315
REMARK INTRA:                  -2.286
REMARK UNBOUND:                -2.286
REMARK SMILES CCCCCCCCCCCCCCC(=O)[O-]
REMARK SMILES IDX 9 1 10 2 11 3 12 4 13 5 14 6 15 7 16 8 17 9 8 10 7 11 6 12
REMARK SMILES IDX 5 13 4 14 3 15 2 16 1 17
REMARK H PARENT
REMARK Flexibility Score: inf
ROOT
ATOM      1  C   UNL     1     120.281 176.206 124.821  1.00  0.00     0.000 C 
ENDROOT
BRANCH   1   2
ATOM      2  C   UNL     1     118.932 176.947 124.791  1.00  0.00     0.000 C 
BRANCH   2   3
ATOM      3  C   UNL     1     119.019 178.453 124.468  1.00  0.00     0.000 C 
BRANCH   3   4
ATOM      4  C   UNL     1     118.676 179.395 125.638  1.00  0.00     0.000 C 
BRANCH   4   5
ATOM      5  C   UNL     1     117.612 178.810 126.583  1.00  0.00     0.006 C 
BRANCH   5   6
ATOM      6  C   UNL     1     116.233 179.451 126.368  1.00  0.00     0.053 C 
BRANCH   6   7
ATOM      7  C   UNL     1     115.250 178.474 125.801  1.00  0.00     0.041 C 
ATOM      8  O   UNL     1     115.380 178.055 124.620  1.00  0.00    -0.550 OA
ATOM      9  O   UNL     1     114.171 178.048 126.567  1.00  0.00    -0.550 OA
ENDBRANCH   6   7
ENDBRANCH   5   6
ENDBRANCH   4   5
ENDBRANCH   3   4
ENDBRANCH   2   3
ENDBRANCH   1   2
BRANCH   1  10
ATOM     10  C   UNL     1     121.522 177.116 124.731  1.00  0.00     0.000 C 
BRANCH  10  11
ATOM     11  C   UNL     1     122.378 177.127 126.017  1.00  0.00    -0.000 C 
BRANCH  11  12
ATOM     12  C   UNL     1     121.996 178.277 126.967  1.00  0.00    -0.000 C 
BRANCH  12  13
ATOM     13  C   UNL     1     121.711 177.792 128.397  1.00  0.00    -0.000 C 
BRANCH  13  14
ATOM     14  C   UNL     1     120.282 178.126 128.859  1.00  0.00    -0.000 C 
BRANCH  14  15
ATOM     15  C   UNL     1     119.467 176.872 129.213  1.00  0.00    -0.000 C 
BRANCH  15  16
ATOM     16  C   UNL     1     119.925 175.628 128.439  1.00  0.00    -0.003 C 
ATOM     17  C   UNL     1     118.732 174.839 127.909  1.00  0.00     0.004 C 
ENDBRANCH  15  16
ENDBRANCH  14  15
ENDBRANCH  13  14
ENDBRANCH  12  13
ENDBRANCH  11  12
ENDBRANCH  10  11
ENDBRANCH   1  10
TORSDOF 13
ENDMDL
MODEL 2
REMARK VINA RESULT:    -4.705      1.353      3.840
REMARK INTER + INTRA:         -10.565
REMARK INTER:                  -8.964
REMARK INTRA:                  -1.601
REMARK UNBOUND:                -2.286
REMARK SMILES CCCCCCCCCCCCCCC(=O)[O-]
REMARK SMILES IDX 9 1 10 2 11 3 12 4 13 5 14 6 15 7 16 8 17 9 8 10 7 11 6 12
REMARK SMILES IDX 5 13 4 14 3 15 2 16 1 17
REMARK H PARENT
REMARK Flexibility Score: inf
ROOT
ATOM      1  C   UNL     1     120.792 177.353 129.201  1.00  0.00     0.000 C 
ENDROOT
BRANCH   1   2
ATOM      2  C   UNL     1     119.369 177.859 129.499  1.00  0.00     0.000 C 
BRANCH   2   3
ATOM      3  C   UNL     1     118.393 177.813 128.305  1.00  0.00     0.000 C 
BRANCH   3   4
ATOM      4  C   UNL     1     118.078 176.404 127.770  1.00  0.00     0.000 C 
BRANCH   4   5
ATOM      5  C   UNL     1     116.569 176.113 127.705  1.00  0.00     0.006 C 
BRANCH   5   6
ATOM      6  C   UNL     1     116.078 175.925 126.263  1.00  0.00     0.053 C 
BRANCH   6   7
ATOM      7  C   UNL     1     115.464 177.178 125.718  1.00  0.00     0.041 C 
ATOM      8  O   UNL     1     115.648 177.504 124.516  1.00  0.00    -0.550 OA
ATOM      9  O   UNL     1     114.711 178.001 126.547  1.00  0.00    -0.550 OA
ENDBRANCH   6   7
ENDBRANCH   5   6
ENDBRANCH   4   5
ENDBRANCH   3   4
ENDBRANCH   2   3
ENDBRANCH   1   2
BRANCH   1  10
ATOM     10  C   UNL     1     121.778 178.436 128.721  1.00  0.00     0.000 C 
BRANCH  10  11
ATOM     11  C   UNL     1     121.915 178.513 127.185  1.00  0.00    -0.000 C 
BRANCH  11  12
ATOM     12  C   UNL     1     121.561 177.183 126.495  1.00  0.00    -0.000 C 
BRANCH  12  13
ATOM     13  C   UNL     1     122.030 177.133 125.032  1.00  0.00    -0.000 C 
BRANCH  13  14
ATOM     14  C   UNL     1     120.909 176.708 124.068  1.00  0.00    -0.000 C 
BRANCH  14  15
ATOM     15  C   UNL     1     119.512 177.098 124.578  1.00  0.00    -0.000 C 
BRANCH  15  16
ATOM     16  C   UNL     1     119.051 178.467 124.058  1.00  0.00    -0.003 C 
ATOM     17  C   UNL     1     119.410 178.646 122.586  1.00  0.00     0.004 C 
ENDBRANCH  15  16
ENDBRANCH  14  15
ENDBRANCH  13  14
ENDBRANCH  12  13
ENDBRANCH  11  12
ENDBRANCH  10  11
ENDBRANCH   1  10
TORSDOF 13
ENDMDL
MODEL 3
REMARK VINA RESULT:    -4.684      3.035      4.878
REMARK INTER + INTRA:         -10.529
REMARK INTER:                  -8.659
REMARK INTRA:                  -1.871
REMARK UNBOUND:                -2.286
REMARK SMILES CCCCCCCCCCCCCCC(=O)[O-]
REMARK SMILES IDX 9 1 10 2 11 3 12 4 13 5 14 6 15 7 16 8 17 9 8 10 7 11 6 12
REMARK SMILES IDX 5 13 4 14 3 15 2 16 1 17
REMARK H PARENT
REMARK Flexibility Score: inf
ROOT
ATOM      1  C   UNL     1     121.303 176.711 123.981  1.00  0.00     0.000 C 
ENDROOT
BRANCH   1   2
ATOM      2  C   UNL     1     122.563 177.026 124.807  1.00  0.00     0.000 C 
BRANCH   2   3
ATOM      3  C   UNL     1     122.338 177.137 126.329  1.00  0.00     0.000 C 
BRANCH   3   4
ATOM      4  C   UNL     1     122.164 178.571 126.864  1.00  0.00     0.000 C 
BRANCH   4   5
ATOM      5  C   UNL     1     121.768 178.612 128.350  1.00  0.00     0.006 C 
BRANCH   5   6
ATOM      6  C   UNL     1     120.883 177.421 128.744  1.00  0.00     0.053 C 
BRANCH   6   7
ATOM      7  C   UNL     1     120.881 177.197 130.225  1.00  0.00     0.041 C 
ATOM      8  O   UNL     1     120.780 176.031 130.690  1.00  0.00    -0.550 OA
ATOM      9  O   UNL     1     120.961 178.279 131.093  1.00  0.00    -0.550 OA
ENDBRANCH   6   7
ENDBRANCH   5   6
ENDBRANCH   4   5
ENDBRANCH   3   4
ENDBRANCH   2   3
ENDBRANCH   1   2
BRANCH   1  10
ATOM     10  C   UNL     1     120.171 176.018 124.764  1.00  0.00     0.000 C 
BRANCH  10  11
ATOM     11  C   UNL     1     118.901 176.884 124.916  1.00  0.00    -0.000 C 
BRANCH  11  12
ATOM     12  C   UNL     1     119.153 178.363 124.570  1.00  0.00    -0.000 C 
BRANCH  12  13
ATOM     13  C   UNL     1     118.656 179.319 125.666  1.00  0.00    -0.000 C 
BRANCH  13  14
ATOM     14  C   UNL     1     117.827 178.600 126.744  1.00  0.00    -0.000 C 
BRANCH  14  15
ATOM     15  C   UNL     1     116.335 178.967 126.685  1.00  0.00    -0.000 C 
BRANCH  15  16
ATOM     16  C   UNL     1     115.420 177.792 127.060  1.00  0.00    -0.003 C 
ATOM     17  C   UNL     1     116.206 176.679 127.744  1.00  0.00     0.004 C 
ENDBRANCH  15  16
ENDBRANCH  14  15
ENDBRANCH  13  14
ENDBRANCH  12  13
ENDBRANCH  11  12
ENDBRANCH  10  11
ENDBRANCH   1  10
TORSDOF 13
ENDMDL
MODEL 4
REMARK VINA RESULT:    -4.633      2.034      4.622
REMARK INTER + INTRA:         -10.439
REMARK INTER:                  -8.530
REMARK INTRA:                  -1.910
REMARK UNBOUND:                -2.286
REMARK SMILES CCCCCCCCCCCCCCC(=O)[O-]
REMARK SMILES IDX 9 1 10 2 11 3 12 4 13 5 14 6 15 7 16 8 17 9 8 10 7 11 6 12
REMARK SMILES IDX 5 13 4 14 3 15 2 16 1 17
REMARK H PARENT
REMARK Flexibility Score: inf
ROOT
ATOM      1  C   UNL     1     121.461 176.838 125.175  1.00  0.00     0.000 C 
ENDROOT
BRANCH   1   2
ATOM      2  C   UNL     1     122.433 177.381 126.237  1.00  0.00     0.000 C 
BRANCH   2   3
ATOM      3  C   UNL     1     121.877 178.523 127.112  1.00  0.00     0.000 C 
BRANCH   3   4
ATOM      4  C   UNL     1     121.797 178.216 128.619  1.00  0.00     0.000 C 
BRANCH   4   5
ATOM      5  C   UNL     1     120.377 177.842 129.077  1.00  0.00     0.006 C 
BRANCH   5   6
ATOM      6  C   UNL     1     120.263 176.357 129.453  1.00  0.00     0.053 C 
BRANCH   6   7
ATOM      7  C   UNL     1     118.838 175.900 129.486  1.00  0.00     0.041 C 
ATOM      8  O   UNL     1     117.955 176.528 128.843  1.00  0.00    -0.550 OA
ATOM      9  O   UNL     1     118.478 174.797 130.251  1.00  0.00    -0.550 OA
ENDBRANCH   6   7
ENDBRANCH   5   6
ENDBRANCH   4   5
ENDBRANCH   3   4
ENDBRANCH   2   3
ENDBRANCH   1   2
BRANCH   1  10
ATOM     10  C   UNL     1     120.134 176.286 125.732  1.00  0.00     0.000 C 
BRANCH  10  11
ATOM     11  C   UNL     1     118.880 176.924 125.095  1.00  0.00    -0.000 C 
BRANCH  11  12
ATOM     12  C   UNL     1     119.142 178.352 124.583  1.00  0.00    -0.000 C 
BRANCH  12  13
ATOM     13  C   UNL     1     118.699 179.430 125.585  1.00  0.00    -0.000 C 
BRANCH  13  14
ATOM     14  C   UNL     1     117.648 178.911 126.582  1.00  0.00    -0.000 C 
BRANCH  14  15
ATOM     15  C   UNL     1     116.276 179.578 126.395  1.00  0.00    -0.000 C 
BRANCH  15  16
ATOM     16  C   UNL     1     115.161 178.568 126.091  1.00  0.00    -0.003 C 
ATOM     17  C   UNL     1     115.230 178.093 124.642  1.00  0.00     0.004 C 
ENDBRANCH  15  16
ENDBRANCH  14  15
ENDBRANCH  13  14
ENDBRANCH  12  13
ENDBRANCH  11  12
ENDBRANCH  10  11
ENDBRANCH   1  10
TORSDOF 13
ENDMDL
MODEL 5
REMARK VINA RESULT:    -4.632      1.261      2.403
REMARK INTER + INTRA:         -10.439
REMARK INTER:                  -8.575
REMARK INTRA:                  -1.864
REMARK UNBOUND:                -2.286
REMARK SMILES CCCCCCCCCCCCCCC(=O)[O-]
REMARK SMILES IDX 9 1 10 2 11 3 12 4 13 5 14 6 15 7 16 8 17 9 8 10 7 11 6 12
REMARK SMILES IDX 5 13 4 14 3 15 2 16 1 17
REMARK H PARENT
REMARK Flexibility Score: inf
ROOT
ATOM      1  C   UNL     1     121.532 177.475 127.021  1.00  0.00     0.000 C 
ENDROOT
BRANCH   1   2
ATOM      2  C   UNL     1     120.139 177.260 126.401  1.00  0.00     0.000 C 
BRANCH   2   3
ATOM      3  C   UNL     1     119.772 178.233 125.262  1.00  0.00     0.000 C 
BRANCH   3   4
ATOM      4  C   UNL     1     118.707 179.287 125.618  1.00  0.00     0.000 C 
BRANCH   4   5
ATOM      5  C   UNL     1     117.774 178.834 126.754  1.00  0.00     0.006 C 
BRANCH   5   6
ATOM      6  C   UNL     1     116.376 179.458 126.637  1.00  0.00     0.053 C 
BRANCH   6   7
ATOM      7  C   UNL     1     115.389 178.504 126.039  1.00  0.00     0.041 C 
ATOM      8  O   UNL     1     115.406 178.266 124.803  1.00  0.00    -0.550 OA
ATOM      9  O   UNL     1     114.431 177.899 126.844  1.00  0.00    -0.550 OA
ENDBRANCH   6   7
ENDBRANCH   5   6
ENDBRANCH   4   5
ENDBRANCH   3   4
ENDBRANCH   2   3
ENDBRANCH   1   2
BRANCH   1  10
ATOM     10  C   UNL     1     121.564 178.436 128.225  1.00  0.00     0.000 C 
BRANCH  10  11
ATOM     11  C   UNL     1     121.303 177.743 129.580  1.00  0.00    -0.000 C 
BRANCH  11  12
ATOM     12  C   UNL     1     119.821 177.797 129.993  1.00  0.00    -0.000 C 
BRANCH  12  13
ATOM     13  C   UNL     1     119.420 176.632 130.912  1.00  0.00    -0.000 C 
BRANCH  13  14
ATOM     14  C   UNL     1     118.169 175.890 130.411  1.00  0.00    -0.000 C 
BRANCH  14  15
ATOM     15  C   UNL     1     118.253 175.528 128.919  1.00  0.00    -0.000 C 
BRANCH  15  16
ATOM     16  C   UNL     1     116.877 175.486 128.239  1.00  0.00    -0.003 C 
ATOM     17  C   UNL     1     117.012 175.223 126.742  1.00  0.00     0.004 C 
ENDBRANCH  15  16
ENDBRANCH  14  15
ENDBRANCH  13  14
ENDBRANCH  12  13
ENDBRANCH  11  12
ENDBRANCH  10  11
ENDBRANCH   1  10
TORSDOF 13
ENDMDL
MODEL 6
REMARK VINA RESULT:    -4.598      1.123      3.033
REMARK INTER + INTRA:         -10.378
REMARK INTER:                  -8.377
REMARK INTRA:                  -2.001
REMARK UNBOUND:                -2.286
REMARK SMILES CCCCCCCCCCCCCCC(=O)[O-]
REMARK SMILES IDX 9 1 10 2 11 3 12 4 13 5 14 6 15 7 16 8 17 9 8 10 7 11 6 12
REMARK SMILES IDX 5 13 4 14 3 15 2 16 1 17
REMARK H PARENT
REMARK Flexibility Score: inf
ROOT
ATOM      1  C   UNL     1     119.855 177.566 129.554  1.00  0.00     0.000 C 
ENDROOT
BRANCH   1   2
ATOM      2  C   UNL     1     118.781 176.580 129.062  1.00  0.00     0.000 C 
BRANCH   2   3
ATOM      3  C   UNL     1     117.801 177.147 128.014  1.00  0.00     0.000 C 
BRANCH   3   4
ATOM      4  C   UNL     1     118.035 178.619 127.626  1.00  0.00     0.000 C 
BRANCH   4   5
ATOM      5  C   UNL     1     117.523 178.953 126.214  1.00  0.00     0.006 C 
BRANCH   5   6
ATOM      6  C   UNL     1     116.075 179.461 126.230  1.00  0.00     0.053 C 
BRANCH   6   7
ATOM      7  C   UNL     1     115.109 178.397 125.808  1.00  0.00     0.041 C 
ATOM      8  O   UNL     1     114.138 178.092 126.549  1.00  0.00    -0.550 OA
ATOM      9  O   UNL     1     115.299 177.720 124.609  1.00  0.00    -0.550 OA
ENDBRANCH   6   7
ENDBRANCH   5   6
ENDBRANCH   4   5
ENDBRANCH   3   4
ENDBRANCH   2   3
ENDBRANCH   1   2
BRANCH   1  10
ATOM     10  C   UNL     1     121.262 177.337 128.970  1.00  0.00     0.000 C 
BRANCH  10  11
ATOM     11  C   UNL     1     121.984 178.639 128.561  1.00  0.00    -0.000 C 
BRANCH  11  12
ATOM     12  C   UNL     1     121.967 178.868 127.038  1.00  0.00    -0.000 C 
BRANCH  12  13
ATOM     13  C   UNL     1     121.954 177.553 126.243  1.00  0.00    -0.000 C 
BRANCH  13  14
ATOM     14  C   UNL     1     120.753 177.455 125.286  1.00  0.00    -0.000 C 
BRANCH  14  15
ATOM     15  C   UNL     1     120.533 176.028 124.758  1.00  0.00    -0.000 C 
BRANCH  15  16
ATOM     16  C   UNL     1     119.819 175.123 125.772  1.00  0.00    -0.003 C 
ATOM     17  C   UNL     1     120.740 174.007 126.257  1.00  0.00     0.004 C 
ENDBRANCH  15  16
ENDBRANCH  14  15
ENDBRANCH  13  14
ENDBRANCH  12  13
ENDBRANCH  11  12
ENDBRANCH  10  11
ENDBRANCH   1  10
TORSDOF 13
ENDMDL
MODEL 7
REMARK VINA RESULT:    -4.581      2.290      4.572
REMARK INTER + INTRA:         -10.348
REMARK INTER:                  -8.349
REMARK INTRA:                  -1.999
REMARK UNBOUND:                -2.286
REMARK SMILES CCCCCCCCCCCCCCC(=O)[O-]
REMARK SMILES IDX 9 1 10 2 11 3 12 4 13 5 14 6 15 7 16 8 17 9 8 10 7 11 6 12
REMARK SMILES IDX 5 13 4 14 3 15 2 16 1 17
REMARK H PARENT
REMARK Flexibility Score: inf
ROOT
ATOM      1  C   UNL     1     122.442 177.236 126.076  1.00  0.00     0.000 C 
ENDROOT
BRANCH   1   2
ATOM      2  C   UNL     1     121.635 178.388 126.701  1.00  0.00     0.000 C 
BRANCH   2   3
ATOM      3  C   UNL     1     122.031 178.758 128.145  1.00  0.00     0.000 C 
BRANCH   3   4
ATOM      4  C   UNL     1     121.382 177.896 129.244  1.00  0.00     0.000 C 
BRANCH   4   5
ATOM      5  C   UNL     1     119.868 177.709 129.041  1.00  0.00     0.006 C 
BRANCH   5   6
ATOM      6  C   UNL     1     119.225 176.916 130.188  1.00  0.00     0.053 C 
BRANCH   6   7
ATOM      7  C   UNL     1     118.347 175.816 129.678  1.00  0.00     0.041 C 
ATOM      8  O   UNL     1     118.785 174.638 129.602  1.00  0.00    -0.550 OA
ATOM      9  O   UNL     1     117.052 176.097 129.258  1.00  0.00    -0.550 OA
ENDBRANCH   6   7
ENDBRANCH   5   6
ENDBRANCH   4   5
ENDBRANCH   3   4
ENDBRANCH   2   3
ENDBRANCH   1   2
BRANCH   1  10
ATOM     10  C   UNL     1     121.807 176.606 124.821  1.00  0.00     0.000 C 
BRANCH  10  11
ATOM     11  C   UNL     1     121.094 175.264 125.093  1.00  0.00    -0.000 C 
BRANCH  11  12
ATOM     12  C   UNL     1     120.161 175.331 126.317  1.00  0.00    -0.000 C 
BRANCH  12  13
ATOM     13  C   UNL     1     118.681 175.463 125.925  1.00  0.00    -0.000 C 
BRANCH  13  14
ATOM     14  C   UNL     1     118.198 176.924 125.931  1.00  0.00    -0.000 C 
BRANCH  14  15
ATOM     15  C   UNL     1     117.994 177.486 124.515  1.00  0.00    -0.000 C 
BRANCH  15  16
ATOM     16  C   UNL     1     118.966 178.628 124.184  1.00  0.00    -0.003 C 
ATOM     17  C   UNL     1     119.326 178.631 122.701  1.00  0.00     0.004 C 
ENDBRANCH  15  16
ENDBRANCH  14  15
ENDBRANCH  13  14
ENDBRANCH  12  13
ENDBRANCH  11  12
ENDBRANCH  10  11
ENDBRANCH   1  10
TORSDOF 13
ENDMDL
MODEL 8
REMARK VINA RESULT:    -4.580      1.407      3.219
REMARK INTER + INTRA:         -10.346
REMARK INTER:                  -8.311
REMARK INTRA:                  -2.035
REMARK UNBOUND:                -2.286
REMARK SMILES CCCCCCCCCCCCCCC(=O)[O-]
REMARK SMILES IDX 9 1 10 2 11 3 12 4 13 5 14 6 15 7 16 8 17 9 8 10 7 11 6 12
REMARK SMILES IDX 5 13 4 14 3 15 2 16 1 17
REMARK H PARENT
REMARK Flexibility Score: inf
ROOT
ATOM      1  C   UNL     1     118.408 175.181 126.269  1.00  0.00     0.000 C 
ENDROOT
BRANCH   1   2
ATOM      2  C   UNL     1     119.271 176.423 125.984  1.00  0.00     0.000 C 
BRANCH   2   3
ATOM      3  C   UNL     1     118.530 177.594 125.306  1.00  0.00     0.000 C 
BRANCH   3   4
ATOM      4  C   UNL     1     118.487 178.902 126.119  1.00  0.00     0.000 C 
BRANCH   4   5
ATOM      5  C   UNL     1     117.252 178.998 127.031  1.00  0.00     0.006 C 
BRANCH   5   6
ATOM      6  C   UNL     1     116.054 179.640 126.317  1.00  0.00     0.053 C 
BRANCH   6   7
ATOM      7  C   UNL     1     115.091 178.610 125.813  1.00  0.00     0.041 C 
ATOM      8  O   UNL     1     115.121 178.249 124.607  1.00  0.00    -0.550 OA
ATOM      9  O   UNL     1     114.139 178.069 126.669  1.00  0.00    -0.550 OA
ENDBRANCH   6   7
ENDBRANCH   5   6
ENDBRANCH   4   5
ENDBRANCH   3   4
ENDBRANCH   2   3
ENDBRANCH   1   2
BRANCH   1  10
ATOM     10  C   UNL     1     116.962 175.482 126.708  1.00  0.00     0.000 C 
BRANCH  10  11
ATOM     11  C   UNL     1     116.775 175.526 128.241  1.00  0.00    -0.000 C 
BRANCH  11  12
ATOM     12  C   UNL     1     117.775 174.618 128.981  1.00  0.00    -0.000 C 
BRANCH  12  13
ATOM     13  C   UNL     1     117.752 174.832 130.503  1.00  0.00    -0.000 C 
BRANCH  13  14
ATOM     14  C   UNL     1     118.608 176.033 130.942  1.00  0.00    -0.000 C 
BRANCH  14  15
ATOM     15  C   UNL     1     119.819 176.263 130.024  1.00  0.00    -0.000 C 
BRANCH  15  16
ATOM     16  C   UNL     1     119.882 177.694 129.471  1.00  0.00    -0.003 C 
ATOM     17  C   UNL     1     121.200 177.945 128.744  1.00  0.00     0.004 C 
ENDBRANCH  15  16
ENDBRANCH  14  15
ENDBRANCH  13  14
ENDBRANCH  12  13
ENDBRANCH  11  12
ENDBRANCH  10  11
ENDBRANCH   1  10
TORSDOF 13
ENDMDL
MODEL 9
REMARK VINA RESULT:    -4.530      1.671      3.727
REMARK INTER + INTRA:         -10.258
REMARK INTER:                  -8.141
REMARK INTRA:                  -2.117
REMARK UNBOUND:                -2.286
REMARK SMILES CCCCCCCCCCCCCCC(=O)[O-]
REMARK SMILES IDX 9 1 10 2 11 3 12 4 13 5 14 6 15 7 16 8 17 9 8 10 7 11 6 12
REMARK SMILES IDX 5 13 4 14 3 15 2 16 1 17
REMARK H PARENT
REMARK Flexibility Score: inf
ROOT
ATOM      1  C   UNL     1     119.406 174.539 128.932  1.00  0.00     0.000 C 
ENDROOT
BRANCH   1   2
ATOM      2  C   UNL     1     118.883 174.579 127.485  1.00  0.00     0.000 C 
BRANCH   2   3
ATOM      3  C   UNL     1     117.349 174.499 127.341  1.00  0.00     0.000 C 
BRANCH   3   4
ATOM      4  C   UNL     1     116.691 175.715 126.663  1.00  0.00     0.000 C 
BRANCH   4   5
ATOM      5  C   UNL     1     116.188 176.762 127.672  1.00  0.00     0.006 C 
BRANCH   5   6
ATOM      6  C   UNL     1     115.045 177.613 127.101  1.00  0.00     0.053 C 
BRANCH   6   7
ATOM      7  C   UNL     1     115.540 178.604 126.094  1.00  0.00     0.041 C 
ATOM      8  O   UNL     1     115.404 178.381 124.863  1.00  0.00    -0.550 OA
ATOM      9  O   UNL     1     116.181 179.764 126.516  1.00  0.00    -0.550 OA
ENDBRANCH   6   7
ENDBRANCH   5   6
ENDBRANCH   4   5
ENDBRANCH   3   4
ENDBRANCH   2   3
ENDBRANCH   1   2
BRANCH   1  10
ATOM     10  C   UNL     1     118.360 174.882 130.010  1.00  0.00     0.000 C 
BRANCH  10  11
ATOM     11  C   UNL     1     118.803 176.005 130.971  1.00  0.00    -0.000 C 
BRANCH  11  12
ATOM     12  C   UNL     1     120.263 176.437 130.738  1.00  0.00    -0.000 C 
BRANCH  12  13
ATOM     13  C   UNL     1     120.377 177.875 130.208  1.00  0.00    -0.000 C 
BRANCH  13  14
ATOM     14  C   UNL     1     121.496 178.032 129.164  1.00  0.00    -0.000 C 
BRANCH  14  15
ATOM     15  C   UNL     1     121.020 177.721 127.736  1.00  0.00    -0.000 C 
BRANCH  15  16
ATOM     16  C   UNL     1     119.584 178.197 127.472  1.00  0.00    -0.003 C 
ATOM     17  C   UNL     1     119.301 178.284 125.975  1.00  0.00     0.004 C 
ENDBRANCH  15  16
ENDBRANCH  14  15
ENDBRANCH  13  14
ENDBRANCH  12  13
ENDBRANCH  11  12
ENDBRANCH  10  11
ENDBRANCH   1  10
TORSDOF 13
ENDMDL
