MODEL 1
REMARK VINA RESULT:    -4.787      0.000      0.000
REMARK INTER + INTRA:          -5.816
REMARK INTER:                  -5.626
REMARK INTRA:                  -0.190
REMARK UNBOUND:                -0.190
REMARK SMILES C=C(C)[C@@H]1CC[C@@]2(CO)CC[C@]3(C)[C@@H](CC[C@@H]4[C@]5(C)CC[C@@H](O)C(C)(C)[C@@H]5CC[C@@]43C)[C@H]12
REMARK SMILES IDX 4 1 5 2 6 3 7 4 32 5 14 6 15 7 16 8 17 9 18 10 20 11 21 12
REMARK SMILES IDX 22 13 24 14 27 15 28 16 29 17 30 18 12 19 11 20 10 21 13 22
REMARK SMILES IDX 31 23 25 24 26 25 19 26 2 27 3 28 1 29 8 30 9 31 23 33
REMARK H PARENT 9 32 23 34
REMARK Flexibility Score: inf
ROOT
ATOM      1  C   UNL     1     -12.545   6.831   0.325  1.00  0.00     0.018 C 
ATOM      2  C   UNL     1     -13.118   5.763   1.280  1.00  0.00     0.009 C 
ATOM      3  C   UNL     1     -11.965   4.794   1.596  1.00  0.00     0.010 C 
ATOM      4  C   UNL     1     -10.680   5.636   1.466  1.00  0.00    -0.003 C 
ATOM      5  C   UNL     1     -11.030   6.500   0.243  1.00  0.00     0.008 C 
ATOM      6  C   UNL     1      -9.918   7.520  -0.149  1.00  0.00    -0.000 C 
ATOM      7  C   UNL     1     -10.402   8.355  -1.337  1.00  0.00     0.005 C 
ATOM      8  C   UNL     1      -9.337   9.229  -1.990  1.00  0.00     0.005 C 
ATOM      9  C   UNL     1      -7.903   8.623  -2.193  1.00  0.00     0.002 C 
ATOM     10  C   UNL     1      -7.223   9.029  -3.605  1.00  0.00    -0.026 C 
ATOM     11  C   UNL     1      -7.595  10.522  -3.988  1.00  0.00     0.010 C 
ATOM     12  C   UNL     1      -7.362  10.886  -5.449  1.00  0.00     0.033 C 
ATOM     13  C   UNL     1      -8.129   9.924  -6.355  1.00  0.00     0.120 C 
ATOM     14  C   UNL     1      -7.581   8.474  -6.246  1.00  0.00    -0.006 C 
ATOM     15  C   UNL     1      -7.601   7.953  -4.735  1.00  0.00     0.003 C 
ATOM     16  C   UNL     1      -8.855   7.115  -4.338  1.00  0.00     0.005 C 
ATOM     17  C   UNL     1      -8.687   6.331  -3.008  1.00  0.00     0.008 C 
ATOM     18  C   UNL     1      -7.892   7.071  -1.870  1.00  0.00    -0.024 C 
ATOM     19  C   UNL     1      -8.508   6.788  -0.387  1.00  0.00    -0.024 C 
ATOM     20  C   UNL     1      -8.621   5.224  -0.118  1.00  0.00     0.008 C 
ATOM     21  C   UNL     1      -9.395   4.800   1.161  1.00  0.00     0.010 C 
ATOM     22  C   UNL     1      -7.522   7.332   0.700  1.00  0.00     0.012 C 
ATOM     23  C   UNL     1      -6.420   6.528  -1.914  1.00  0.00     0.012 C 
ATOM     24  C   UNL     1      -8.435   7.583  -7.191  1.00  0.00     0.014 C 
ATOM     25  C   UNL     1      -6.130   8.394  -6.807  1.00  0.00     0.014 C 
ATOM     26  C   UNL     1      -5.659   9.074  -3.434  1.00  0.00     0.012 C 
ENDROOT
BRANCH   1  27
ATOM     27  C   UNL     1     -12.988   8.258   0.674  1.00  0.00    -0.077 C 
ATOM     28  C   UNL     1     -13.122   9.353  -0.355  1.00  0.00     0.039 C 
ATOM     29  C   UNL     1     -13.113   8.598   1.971  1.00  0.00     0.008 C 
ENDBRANCH   1  27
BRANCH   4  30
ATOM     30  C   UNL     1     -10.502   6.432   2.801  1.00  0.00     0.163 C 
BRANCH  30  31
ATOM     31  O   UNL     1      -9.313   6.056   3.445  1.00  0.00    -0.396 OA
ATOM     32  H   UNL     1      -9.479   5.163   3.845  1.00  0.00     0.210 HD
ENDBRANCH  30  31
ENDBRANCH   4  30
BRANCH  13  33
ATOM     33  O   UNL     1      -8.058  10.382  -7.683  1.00  0.00    -0.393 OA
ATOM     34  H   UNL     1      -8.579   9.744  -8.240  1.00  0.00     0.210 HD
ENDBRANCH  13  33
TORSDOF 4
ENDMDL
MODEL 2
REMARK VINA RESULT:    -3.463      1.797      7.890
REMARK INTER + INTRA:          -4.261
REMARK INTER:                  -4.957
REMARK INTRA:                   0.697
REMARK UNBOUND:                -0.190
REMARK SMILES C=C(C)[C@@H]1CC[C@@]2(CO)CC[C@]3(C)[C@@H](CC[C@@H]4[C@]5(C)CC[C@@H](O)C(C)(C)[C@@H]5CC[C@@]43C)[C@H]12
REMARK SMILES IDX 4 1 5 2 6 3 7 4 32 5 14 6 15 7 16 8 17 9 18 10 20 11 21 12
REMARK SMILES IDX 22 13 24 14 27 15 28 16 29 17 30 18 12 19 11 20 10 21 13 22
REMARK SMILES IDX 31 23 25 24 26 25 19 26 2 27 3 28 1 29 8 30 9 31 23 33
REMARK H PARENT 9 32 23 34
REMARK Flexibility Score: inf
ROOT
ATOM      1  C   UNL     1      -8.145   7.811  -7.107  1.00  0.00     0.018 C 
ATOM      2  C   UNL     1      -8.385   8.837  -8.235  1.00  0.00     0.009 C 
ATOM      3  C   UNL     1      -8.407  10.223  -7.567  1.00  0.00     0.010 C 
ATOM      4  C   UNL     1      -7.510  10.089  -6.321  1.00  0.00    -0.003 C 
ATOM      5  C   UNL     1      -7.899   8.680  -5.842  1.00  0.00     0.008 C 
ATOM      6  C   UNL     1      -7.124   8.206  -4.576  1.00  0.00    -0.000 C 
ATOM      7  C   UNL     1      -7.554   6.778  -4.232  1.00  0.00     0.005 C 
ATOM      8  C   UNL     1      -7.067   6.263  -2.883  1.00  0.00     0.005 C 
ATOM      9  C   UNL     1      -7.109   7.242  -1.656  1.00  0.00     0.002 C 
ATOM     10  C   UNL     1      -7.574   6.532  -0.277  1.00  0.00    -0.026 C 
ATOM     11  C   UNL     1      -6.990   5.060  -0.191  1.00  0.00     0.010 C 
ATOM     12  C   UNL     1      -7.667   4.162   0.837  1.00  0.00     0.033 C 
ATOM     13  C   UNL     1      -9.169   4.097   0.565  1.00  0.00     0.120 C 
ATOM     14  C   UNL     1      -9.851   5.478   0.778  1.00  0.00    -0.006 C 
ATOM     15  C   UNL     1      -9.169   6.612  -0.119  1.00  0.00     0.003 C 
ATOM     16  C   UNL     1      -9.871   6.889  -1.484  1.00  0.00     0.005 C 
ATOM     17  C   UNL     1      -9.419   8.213  -2.161  1.00  0.00     0.008 C 
ATOM     18  C   UNL     1      -7.893   8.571  -2.018  1.00  0.00    -0.024 C 
ATOM     19  C   UNL     1      -7.280   9.252  -3.367  1.00  0.00    -0.024 C 
ATOM     20  C   UNL     1      -8.152  10.508  -3.805  1.00  0.00     0.008 C 
ATOM     21  C   UNL     1      -7.822  11.125  -5.193  1.00  0.00     0.010 C 
ATOM     22  C   UNL     1      -5.852   9.816  -3.063  1.00  0.00     0.012 C 
ATOM     23  C   UNL     1      -7.775   9.599  -0.839  1.00  0.00     0.012 C 
ATOM     24  C   UNL     1     -11.362   5.303   0.464  1.00  0.00     0.014 C 
ATOM     25  C   UNL     1      -9.789   5.892   2.279  1.00  0.00     0.014 C 
ATOM     26  C   UNL     1      -6.895   7.267   0.938  1.00  0.00     0.012 C 
ENDROOT
BRANCH   1  27
ATOM     27  C   UNL     1      -7.131   6.722  -7.482  1.00  0.00    -0.077 C 
ATOM     28  C   UNL     1      -5.975   6.334  -6.594  1.00  0.00     0.039 C 
ATOM     29  C   UNL     1      -7.176   6.195  -8.720  1.00  0.00     0.008 C 
ENDBRANCH   1  27
BRANCH   4  30
ATOM     30  C   UNL     1      -6.025  10.234  -6.791  1.00  0.00     0.163 C 
BRANCH  30  31
ATOM     31  O   UNL     1      -5.320  11.099  -5.939  1.00  0.00    -0.396 OA
ATOM     32  H   UNL     1      -5.916  11.282  -5.167  1.00  0.00     0.210 HD
ENDBRANCH  30  31
ENDBRANCH   4  30
BRANCH  13  33
ATOM     33  O   UNL     1      -9.750   3.125   1.398  1.00  0.00    -0.393 OA
ATOM     34  H   UNL     1      -9.784   3.508   2.315  1.00  0.00     0.210 HD
ENDBRANCH  13  33
TORSDOF 4
ENDMDL
MODEL 3
REMARK VINA RESULT:    -3.345      1.903      3.398
REMARK INTER + INTRA:          -4.122
REMARK INTER:                  -3.669
REMARK INTRA:                  -0.454
REMARK UNBOUND:                -0.190
REMARK SMILES C=C(C)[C@@H]1CC[C@@]2(CO)CC[C@]3(C)[C@@H](CC[C@@H]4[C@]5(C)CC[C@@H](O)C(C)(C)[C@@H]5CC[C@@]43C)[C@H]12
REMARK SMILES IDX 4 1 5 2 6 3 7 4 32 5 14 6 15 7 16 8 17 9 18 10 20 11 21 12
REMARK SMILES IDX 22 13 24 14 27 15 28 16 29 17 30 18 12 19 11 20 10 21 13 22
REMARK SMILES IDX 31 23 25 24 26 25 19 26 2 27 3 28 1 29 8 30 9 31 23 33
REMARK H PARENT 9 32 23 34
REMARK Flexibility Score: inf
ROOT
ATOM      1  C   UNL     1     -10.686   8.698  -1.527  1.00  0.00     0.018 C 
ATOM      2  C   UNL     1     -11.301   7.833  -0.406  1.00  0.00     0.009 C 
ATOM      3  C   UNL     1     -10.589   6.470  -0.466  1.00  0.00     0.010 C 
ATOM      4  C   UNL     1      -9.189   6.767  -1.039  1.00  0.00    -0.003 C 
ATOM      5  C   UNL     1      -9.536   7.825  -2.100  1.00  0.00     0.008 C 
ATOM      6  C   UNL     1      -8.298   8.380  -2.867  1.00  0.00    -0.000 C 
ATOM      7  C   UNL     1      -8.760   9.458  -3.850  1.00  0.00     0.005 C 
ATOM      8  C   UNL     1      -7.703   9.925  -4.843  1.00  0.00     0.005 C 
ATOM      9  C   UNL     1      -6.770   8.844  -5.495  1.00  0.00     0.002 C 
ATOM     10  C   UNL     1      -6.469   9.109  -7.064  1.00  0.00    -0.026 C 
ATOM     11  C   UNL     1      -6.321  10.663  -7.342  1.00  0.00     0.010 C 
ATOM     12  C   UNL     1      -6.438  11.066  -8.807  1.00  0.00     0.033 C 
ATOM     13  C   UNL     1      -7.765  10.572  -9.379  1.00  0.00     0.120 C 
ATOM     14  C   UNL     1      -7.832   9.020  -9.419  1.00  0.00    -0.006 C 
ATOM     15  C   UNL     1      -7.577   8.386  -7.973  1.00  0.00     0.003 C 
ATOM     16  C   UNL     1      -8.865   8.053  -7.158  1.00  0.00     0.005 C 
ATOM     17  C   UNL     1      -8.610   7.126  -5.938  1.00  0.00     0.008 C 
ATOM     18  C   UNL     1      -7.271   7.380  -5.151  1.00  0.00    -0.024 C 
ATOM     19  C   UNL     1      -7.446   7.196  -3.540  1.00  0.00    -0.024 C 
ATOM     20  C   UNL     1      -8.076   5.774  -3.205  1.00  0.00     0.008 C 
ATOM     21  C   UNL     1      -8.507   5.542  -1.731  1.00  0.00     0.010 C 
ATOM     22  C   UNL     1      -6.037   7.202  -2.859  1.00  0.00     0.012 C 
ATOM     23  C   UNL     1      -6.231   6.325  -5.667  1.00  0.00     0.012 C 
ATOM     24  C   UNL     1      -9.219   8.629 -10.000  1.00  0.00     0.014 C 
ATOM     25  C   UNL     1      -6.789   8.454 -10.428  1.00  0.00     0.014 C 
ATOM     26  C   UNL     1      -5.048   8.536  -7.424  1.00  0.00     0.012 C 
ENDROOT
BRANCH   1  27
ATOM     27  C   UNL     1     -10.394  10.139  -1.090  1.00  0.00    -0.077 C 
ATOM     28  C   UNL     1      -9.257  10.504  -0.167  1.00  0.00     0.039 C 
ATOM     29  C   UNL     1     -11.274  11.105  -1.412  1.00  0.00     0.008 C 
ENDBRANCH   1  27
BRANCH   4  30
ATOM     30  C   UNL     1      -8.299   7.287   0.138  1.00  0.00     0.163 C 
BRANCH  30  31
ATOM     31  O   UNL     1      -8.530   6.534   1.300  1.00  0.00    -0.396 OA
ATOM     32  H   UNL     1      -9.148   5.801   1.044  1.00  0.00     0.210 HD
ENDBRANCH  30  31
ENDBRANCH   4  30
BRANCH  13  33
ATOM     33  O   UNL     1      -7.943  11.108 -10.667  1.00  0.00    -0.393 OA
ATOM     34  H   UNL     1      -7.419  10.542 -11.294  1.00  0.00     0.210 HD
ENDBRANCH  13  33
TORSDOF 4
ENDMDL
MODEL 4
REMARK VINA RESULT:    -3.226      2.644      8.969
REMARK INTER + INTRA:          -3.982
REMARK INTER:                  -3.459
REMARK INTRA:                  -0.524
REMARK UNBOUND:                -0.190
REMARK SMILES C=C(C)[C@@H]1CC[C@@]2(CO)CC[C@]3(C)[C@@H](CC[C@@H]4[C@]5(C)CC[C@@H](O)C(C)(C)[C@@H]5CC[C@@]43C)[C@H]12
REMARK SMILES IDX 4 1 5 2 6 3 7 4 32 5 14 6 15 7 16 8 17 9 18 10 20 11 21 12
REMARK SMILES IDX 22 13 24 14 27 15 28 16 29 17 30 18 12 19 11 20 10 21 13 22
REMARK SMILES IDX 31 23 25 24 26 25 19 26 2 27 3 28 1 29 8 30 9 31 23 33
REMARK H PARENT 9 32 23 34
REMARK Flexibility Score: inf
ROOT
ATOM      1  C   UNL     1      -8.085   7.067 -10.014  1.00  0.00     0.018 C 
ATOM      2  C   UNL     1      -8.633   7.698 -11.311  1.00  0.00     0.009 C 
ATOM      3  C   UNL     1      -8.863   9.189 -11.008  1.00  0.00     0.010 C 
ATOM      4  C   UNL     1      -7.839   9.545  -9.913  1.00  0.00    -0.003 C 
ATOM      5  C   UNL     1      -7.892   8.272  -9.052  1.00  0.00     0.008 C 
ATOM      6  C   UNL     1      -6.917   8.290  -7.836  1.00  0.00    -0.000 C 
ATOM      7  C   UNL     1      -7.019   6.956  -7.093  1.00  0.00     0.005 C 
ATOM      8  C   UNL     1      -6.309   6.910  -5.745  1.00  0.00     0.005 C 
ATOM      9  C   UNL     1      -6.423   8.162  -4.804  1.00  0.00     0.002 C 
ATOM     10  C   UNL     1      -6.599   7.781  -3.240  1.00  0.00    -0.026 C 
ATOM     11  C   UNL     1      -5.730   6.504  -2.882  1.00  0.00     0.010 C 
ATOM     12  C   UNL     1      -6.110   5.816  -1.577  1.00  0.00     0.033 C 
ATOM     13  C   UNL     1      -7.589   5.433  -1.600  1.00  0.00     0.120 C 
ATOM     14  C   UNL     1      -8.506   6.687  -1.635  1.00  0.00    -0.006 C 
ATOM     15  C   UNL     1      -8.155   7.635  -2.873  1.00  0.00     0.003 C 
ATOM     16  C   UNL     1      -9.029   7.416  -4.146  1.00  0.00     0.005 C 
ATOM     17  C   UNL     1      -8.918   8.564  -5.186  1.00  0.00     0.008 C 
ATOM     18  C   UNL     1      -7.487   9.196  -5.362  1.00  0.00    -0.024 C 
ATOM     19  C   UNL     1      -7.157   9.581  -6.911  1.00  0.00    -0.024 C 
ATOM     20  C   UNL     1      -8.299  10.512  -7.511  1.00  0.00     0.008 C 
ATOM     21  C   UNL     1      -8.237  10.779  -9.040  1.00  0.00     0.010 C 
ATOM     22  C   UNL     1      -5.846  10.435  -6.968  1.00  0.00     0.012 C 
ATOM     23  C   UNL     1      -7.458  10.507  -4.501  1.00  0.00     0.012 C 
ATOM     24  C   UNL     1      -9.976   6.186  -1.671  1.00  0.00     0.014 C 
ATOM     25  C   UNL     1      -8.380   7.493  -0.308  1.00  0.00     0.014 C 
ATOM     26  C   UNL     1      -5.962   8.917  -2.355  1.00  0.00     0.012 C 
ENDROOT
BRANCH   1  27
ATOM     27  C   UNL     1      -6.918   6.101 -10.255  1.00  0.00    -0.077 C 
ATOM     28  C   UNL     1      -5.533   6.563 -10.639  1.00  0.00     0.039 C 
ATOM     29  C   UNL     1      -7.167   4.778 -10.281  1.00  0.00     0.008 C 
ENDBRANCH   1  27
BRANCH   4  30
ATOM     30  C   UNL     1      -6.466   9.801 -10.618  1.00  0.00     0.163 C 
BRANCH  30  31
ATOM     31  O   UNL     1      -6.033  11.117 -10.389  1.00  0.00    -0.396 OA
ATOM     32  H   UNL     1      -5.337  11.308 -11.069  1.00  0.00     0.210 HD
ENDBRANCH  30  31
ENDBRANCH   4  30
BRANCH  13  33
ATOM     33  O   UNL     1      -7.880   4.637  -0.478  1.00  0.00    -0.393 OA
ATOM     34  H   UNL     1      -8.839   4.781  -0.259  1.00  0.00     0.210 HD
ENDBRANCH  13  33
TORSDOF 4
ENDMDL
MODEL 5
REMARK VINA RESULT:    -3.104      2.927      5.858
REMARK INTER + INTRA:          -3.839
REMARK INTER:                  -3.697
REMARK INTRA:                  -0.142
REMARK UNBOUND:                -0.190
REMARK SMILES C=C(C)[C@@H]1CC[C@@]2(CO)CC[C@]3(C)[C@@H](CC[C@@H]4[C@]5(C)CC[C@@H](O)C(C)(C)[C@@H]5CC[C@@]43C)[C@H]12
REMARK SMILES IDX 4 1 5 2 6 3 7 4 32 5 14 6 15 7 16 8 17 9 18 10 20 11 21 12
REMARK SMILES IDX 22 13 24 14 27 15 28 16 29 17 30 18 12 19 11 20 10 21 13 22
REMARK SMILES IDX 31 23 25 24 26 25 19 26 2 27 3 28 1 29 8 30 9 31 23 33
REMARK H PARENT 9 32 23 34
REMARK Flexibility Score: inf
ROOT
ATOM      1  C   UNL     1      -9.442   7.376   6.188  1.00  0.00     0.018 C 
ATOM      2  C   UNL     1     -10.000   8.076   7.444  1.00  0.00     0.009 C 
ATOM      3  C   UNL     1     -11.325   8.738   7.024  1.00  0.00     0.010 C 
ATOM      4  C   UNL     1     -11.862   7.872   5.867  1.00  0.00    -0.003 C 
ATOM      5  C   UNL     1     -10.556   7.555   5.120  1.00  0.00     0.008 C 
ATOM      6  C   UNL     1     -10.747   6.638   3.874  1.00  0.00    -0.000 C 
ATOM      7  C   UNL     1      -9.380   6.348   3.252  1.00  0.00     0.005 C 
ATOM      8  C   UNL     1      -9.420   5.667   1.889  1.00  0.00     0.005 C 
ATOM      9  C   UNL     1     -10.491   6.152   0.849  1.00  0.00     0.002 C 
ATOM     10  C   UNL     1      -9.934   6.220  -0.670  1.00  0.00    -0.026 C 
ATOM     11  C   UNL     1      -8.940   5.016  -0.947  1.00  0.00     0.010 C 
ATOM     12  C   UNL     1      -8.054   5.187  -2.175  1.00  0.00     0.033 C 
ATOM     13  C   UNL     1      -7.259   6.487  -2.067  1.00  0.00     0.120 C 
ATOM     14  C   UNL     1      -8.187   7.733  -2.108  1.00  0.00    -0.006 C 
ATOM     15  C   UNL     1      -9.306   7.667  -0.969  1.00  0.00     0.003 C 
ATOM     16  C   UNL     1      -8.958   8.427   0.348  1.00  0.00     0.005 C 
ATOM     17  C   UNL     1     -10.180   8.652   1.282  1.00  0.00     0.008 C 
ATOM     18  C   UNL     1     -11.215   7.469   1.353  1.00  0.00    -0.024 C 
ATOM     19  C   UNL     1     -11.821   7.255   2.851  1.00  0.00    -0.024 C 
ATOM     20  C   UNL     1     -12.427   8.616   3.409  1.00  0.00     0.008 C 
ATOM     21  C   UNL     1     -12.840   8.623   4.907  1.00  0.00     0.010 C 
ATOM     22  C   UNL     1     -13.022   6.254   2.790  1.00  0.00     0.012 C 
ATOM     23  C   UNL     1     -12.393   7.835   0.382  1.00  0.00     0.012 C 
ATOM     24  C   UNL     1      -7.283   8.990  -1.979  1.00  0.00     0.014 C 
ATOM     25  C   UNL     1      -8.869   7.860  -3.503  1.00  0.00     0.014 C 
ATOM     26  C   UNL     1     -11.120   5.953  -1.670  1.00  0.00     0.012 C 
ENDROOT
BRANCH   1  27
ATOM     27  C   UNL     1      -8.886   5.974   6.471  1.00  0.00    -0.077 C 
ATOM     28  C   UNL     1      -9.383   5.104   7.599  1.00  0.00     0.039 C 
ATOM     29  C   UNL     1      -7.803   5.557   5.788  1.00  0.00     0.008 C 
ENDBRANCH   1  27
BRANCH   4  30
ATOM     30  C   UNL     1     -12.573   6.631   6.500  1.00  0.00     0.163 C 
BRANCH  30  31
ATOM     31  O   UNL     1     -13.125   6.962   7.748  1.00  0.00    -0.396 OA
ATOM     32  H   UNL     1     -13.615   6.158   8.062  1.00  0.00     0.210 HD
ENDBRANCH  30  31
ENDBRANCH   4  30
BRANCH  13  33
ATOM     33  O   UNL     1      -6.313   6.540  -3.107  1.00  0.00    -0.393 OA
ATOM     34  H   UNL     1      -6.739   7.019  -3.865  1.00  0.00     0.210 HD
ENDBRANCH  13  33
TORSDOF 4
ENDMDL
MODEL 6
REMARK VINA RESULT:    -2.678      2.301      8.102
REMARK INTER + INTRA:          -3.338
REMARK INTER:                  -2.887
REMARK INTRA:                  -0.452
REMARK UNBOUND:                -0.190
REMARK SMILES C=C(C)[C@@H]1CC[C@@]2(CO)CC[C@]3(C)[C@@H](CC[C@@H]4[C@]5(C)CC[C@@H](O)C(C)(C)[C@@H]5CC[C@@]43C)[C@H]12
REMARK SMILES IDX 4 1 5 2 6 3 7 4 32 5 14 6 15 7 16 8 17 9 18 10 20 11 21 12
REMARK SMILES IDX 22 13 24 14 27 15 28 16 29 17 30 18 12 19 11 20 10 21 13 22
REMARK SMILES IDX 31 23 25 24 26 25 19 26 2 27 3 28 1 29 8 30 9 31 23 33
REMARK H PARENT 9 32 23 34
REMARK Flexibility Score: inf
ROOT
ATOM      1  C   UNL     1      -6.940   8.724  -1.667  1.00  0.00     0.018 C 
ATOM      2  C   UNL     1      -6.028   8.169  -2.781  1.00  0.00     0.009 C 
ATOM      3  C   UNL     1      -6.451   6.706  -3.003  1.00  0.00     0.010 C 
ATOM      4  C   UNL     1      -7.942   6.651  -2.618  1.00  0.00    -0.003 C 
ATOM      5  C   UNL     1      -7.952   7.579  -1.391  1.00  0.00     0.008 C 
ATOM      6  C   UNL     1      -9.363   7.774  -0.757  1.00  0.00    -0.000 C 
ATOM      7  C   UNL     1      -9.254   8.755   0.412  1.00  0.00     0.005 C 
ATOM      8  C   UNL     1     -10.500   8.862   1.284  1.00  0.00     0.005 C 
ATOM      9  C   UNL     1     -11.269   7.542   1.644  1.00  0.00     0.002 C 
ATOM     10  C   UNL     1     -11.811   7.504   3.169  1.00  0.00    -0.026 C 
ATOM     11  C   UNL     1     -12.304   8.943   3.616  1.00  0.00     0.010 C 
ATOM     12  C   UNL     1     -12.455   9.130   5.120  1.00  0.00     0.033 C 
ATOM     13  C   UNL     1     -11.137   8.806   5.821  1.00  0.00     0.120 C 
ATOM     14  C   UNL     1     -10.763   7.304   5.674  1.00  0.00    -0.006 C 
ATOM     15  C   UNL     1     -10.702   6.864   4.138  1.00  0.00     0.003 C 
ATOM     16  C   UNL     1      -9.282   6.901   3.493  1.00  0.00     0.005 C 
ATOM     17  C   UNL     1      -9.190   6.141   2.141  1.00  0.00     0.008 C 
ATOM     18  C   UNL     1     -10.443   6.265   1.198  1.00  0.00    -0.024 C 
ATOM     19  C   UNL     1     -10.035   6.365  -0.377  1.00  0.00    -0.024 C 
ATOM     20  C   UNL     1      -9.093   5.151  -0.789  1.00  0.00     0.008 C 
ATOM     21  C   UNL     1      -8.443   5.231  -2.199  1.00  0.00     0.010 C 
ATOM     22  C   UNL     1     -11.319   6.218  -1.260  1.00  0.00     0.012 C 
ATOM     23  C   UNL     1     -11.305   4.971   1.412  1.00  0.00     0.012 C 
ATOM     24  C   UNL     1      -9.410   7.088   6.406  1.00  0.00     0.014 C 
ATOM     25  C   UNL     1     -11.788   6.409   6.433  1.00  0.00     0.014 C 
ATOM     26  C   UNL     1     -13.120   6.632   3.233  1.00  0.00     0.012 C 
ENDROOT
BRANCH   1  27
ATOM     27  C   UNL     1      -7.461  10.138  -1.958  1.00  0.00    -0.077 C 
ATOM     28  C   UNL     1      -8.100  10.525  -3.269  1.00  0.00     0.039 C 
ATOM     29  C   UNL     1      -7.202  11.119  -1.073  1.00  0.00     0.008 C 
ENDBRANCH   1  27
BRANCH   4  30
ATOM     30  C   UNL     1      -8.765   7.174  -3.841  1.00  0.00     0.163 C 
BRANCH  30  31
ATOM     31  O   UNL     1      -8.811   6.204  -4.855  1.00  0.00    -0.396 OA
ATOM     32  H   UNL     1      -8.776   5.321  -4.404  1.00  0.00     0.210 HD
ENDBRANCH  30  31
ENDBRANCH   4  30
BRANCH  13  33
ATOM     33  O   UNL     1     -11.234   9.160   7.179  1.00  0.00    -0.393 OA
ATOM     34  H   UNL     1     -11.984   8.636   7.565  1.00  0.00     0.210 HD
ENDBRANCH  13  33
TORSDOF 4
ENDMDL
MODEL 7
REMARK VINA RESULT:    -2.298      2.707      8.941
REMARK INTER + INTRA:          -2.892
REMARK INTER:                  -2.727
REMARK INTRA:                  -0.165
REMARK UNBOUND:                -0.190
REMARK SMILES C=C(C)[C@@H]1CC[C@@]2(CO)CC[C@]3(C)[C@@H](CC[C@@H]4[C@]5(C)CC[C@@H](O)C(C)(C)[C@@H]5CC[C@@]43C)[C@H]12
REMARK SMILES IDX 4 1 5 2 6 3 7 4 32 5 14 6 15 7 16 8 17 9 18 10 20 11 21 12
REMARK SMILES IDX 22 13 24 14 27 15 28 16 29 17 30 18 12 19 11 20 10 21 13 22
REMARK SMILES IDX 31 23 25 24 26 25 19 26 2 27 3 28 1 29 8 30 9 31 23 33
REMARK H PARENT 9 32 23 34
REMARK Flexibility Score: inf
ROOT
ATOM      1  C   UNL     1      -4.135   8.817  -8.440  1.00  0.00     0.018 C 
ATOM      2  C   UNL     1      -3.707   8.301  -9.829  1.00  0.00     0.009 C 
ATOM      3  C   UNL     1      -4.761   7.262 -10.253  1.00  0.00     0.010 C 
ATOM      4  C   UNL     1      -6.063   7.693  -9.548  1.00  0.00    -0.003 C 
ATOM      5  C   UNL     1      -5.510   8.142  -8.185  1.00  0.00     0.008 C 
ATOM      6  C   UNL     1      -6.599   8.685  -7.209  1.00  0.00    -0.000 C 
ATOM      7  C   UNL     1      -5.925   9.150  -5.917  1.00  0.00     0.005 C 
ATOM      8  C   UNL     1      -6.877   9.481  -4.774  1.00  0.00     0.005 C 
ATOM      9  C   UNL     1      -8.105   8.533  -4.533  1.00  0.00     0.002 C 
ATOM     10  C   UNL     1      -8.419   8.266  -2.968  1.00  0.00    -0.026 C 
ATOM     11  C   UNL     1      -8.161   9.581  -2.121  1.00  0.00     0.010 C 
ATOM     12  C   UNL     1      -8.032   9.361  -0.619  1.00  0.00     0.033 C 
ATOM     13  C   UNL     1      -6.923   8.349  -0.334  1.00  0.00     0.120 C 
ATOM     14  C   UNL     1      -7.279   6.939  -0.882  1.00  0.00    -0.006 C 
ATOM     15  C   UNL     1      -7.605   6.984  -2.447  1.00  0.00     0.003 C 
ATOM     16  C   UNL     1      -6.406   6.642  -3.385  1.00  0.00     0.005 C 
ATOM     17  C   UNL     1      -6.825   6.343  -4.851  1.00  0.00     0.008 C 
ATOM     18  C   UNL     1      -7.995   7.227  -5.424  1.00  0.00    -0.024 C 
ATOM     19  C   UNL     1      -7.777   7.616  -6.992  1.00  0.00    -0.024 C 
ATOM     20  C   UNL     1      -7.532   6.308  -7.864  1.00  0.00     0.008 C 
ATOM     21  C   UNL     1      -7.090   6.534  -9.336  1.00  0.00     0.010 C 
ATOM     22  C   UNL     1      -9.088   8.258  -7.557  1.00  0.00     0.012 C 
ATOM     23  C   UNL     1      -9.311   6.381  -5.294  1.00  0.00     0.012 C 
ATOM     24  C   UNL     1      -6.087   5.998  -0.553  1.00  0.00     0.014 C 
ATOM     25  C   UNL     1      -8.495   6.344  -0.113  1.00  0.00     0.014 C 
ATOM     26  C   UNL     1      -9.961   8.009  -2.785  1.00  0.00     0.012 C 
ENDROOT
BRANCH   1  27
ATOM     27  C   UNL     1      -4.002  10.339  -8.290  1.00  0.00    -0.077 C 
ATOM     28  C   UNL     1      -2.915  10.993  -7.473  1.00  0.00     0.039 C 
ATOM     29  C   UNL     1      -4.980  11.125  -8.777  1.00  0.00     0.008 C 
ENDBRANCH   1  27
BRANCH   4  30
ATOM     30  C   UNL     1      -6.705   8.835 -10.402  1.00  0.00     0.163 C 
BRANCH  30  31
ATOM     31  O   UNL     1      -6.437   8.640 -11.766  1.00  0.00    -0.396 OA
ATOM     32  H   UNL     1      -7.222   8.991 -12.262  1.00  0.00     0.210 HD
ENDBRANCH  30  31
ENDBRANCH   4  30
BRANCH  13  33
ATOM     33  O   UNL     1      -6.688   8.295   1.052  1.00  0.00    -0.393 OA
ATOM     34  H   UNL     1      -7.336   8.913   1.482  1.00  0.00     0.210 HD
ENDBRANCH  13  33
TORSDOF 4
ENDMDL
MODEL 8
REMARK VINA RESULT:    -1.883      3.240      9.177
REMARK INTER + INTRA:          -2.403
REMARK INTER:                  -1.991
REMARK INTRA:                  -0.412
REMARK UNBOUND:                -0.190
REMARK SMILES C=C(C)[C@@H]1CC[C@@]2(CO)CC[C@]3(C)[C@@H](CC[C@@H]4[C@]5(C)CC[C@@H](O)C(C)(C)[C@@H]5CC[C@@]43C)[C@H]12
REMARK SMILES IDX 4 1 5 2 6 3 7 4 32 5 14 6 15 7 16 8 17 9 18 10 20 11 21 12
REMARK SMILES IDX 22 13 24 14 27 15 28 16 29 17 30 18 12 19 11 20 10 21 13 22
REMARK SMILES IDX 31 23 25 24 26 25 19 26 2 27 3 28 1 29 8 30 9 31 23 33
REMARK H PARENT 9 32 23 34
REMARK Flexibility Score: inf
ROOT
ATOM      1  C   UNL     1      -9.462  10.231 -10.603  1.00  0.00     0.018 C 
ATOM      2  C   UNL     1      -8.964  10.788 -11.953  1.00  0.00     0.009 C 
ATOM      3  C   UNL     1      -7.472  10.423 -12.053  1.00  0.00     0.010 C 
ATOM      4  C   UNL     1      -7.313   9.133 -11.224  1.00  0.00    -0.003 C 
ATOM      5  C   UNL     1      -8.249   9.438 -10.043  1.00  0.00     0.008 C 
ATOM      6  C   UNL     1      -8.347   8.284  -9.000  1.00  0.00    -0.000 C 
ATOM      7  C   UNL     1      -9.344   8.680  -7.908  1.00  0.00     0.005 C 
ATOM      8  C   UNL     1      -9.369   7.763  -6.691  1.00  0.00     0.005 C 
ATOM      9  C   UNL     1      -7.999   7.240  -6.129  1.00  0.00     0.002 C 
ATOM     10  C   UNL     1      -7.936   7.203  -4.512  1.00  0.00    -0.026 C 
ATOM     11  C   UNL     1      -9.340   6.771  -3.914  1.00  0.00     0.010 C 
ATOM     12  C   UNL     1      -9.529   7.082  -2.434  1.00  0.00     0.033 C 
ATOM     13  C   UNL     1      -9.307   8.572  -2.181  1.00  0.00     0.120 C 
ATOM     14  C   UNL     1      -7.835   8.988  -2.458  1.00  0.00    -0.006 C 
ATOM     15  C   UNL     1      -7.387   8.600  -3.944  1.00  0.00     0.003 C 
ATOM     16  C   UNL     1      -7.520   9.743  -4.997  1.00  0.00     0.005 C 
ATOM     17  C   UNL     1      -6.757   9.465  -6.321  1.00  0.00     0.008 C 
ATOM     18  C   UNL     1      -6.782   7.975  -6.827  1.00  0.00    -0.024 C 
ATOM     19  C   UNL     1      -6.897   7.866  -8.449  1.00  0.00    -0.024 C 
ATOM     20  C   UNL     1      -5.751   8.718  -9.151  1.00  0.00     0.008 C 
ATOM     21  C   UNL     1      -5.864   8.890 -10.690  1.00  0.00     0.010 C 
ATOM     22  C   UNL     1      -6.650   6.385  -8.891  1.00  0.00     0.012 C 
ATOM     23  C   UNL     1      -5.431   7.318  -6.374  1.00  0.00     0.012 C 
ATOM     24  C   UNL     1      -7.724  10.513  -2.186  1.00  0.00     0.014 C 
ATOM     25  C   UNL     1      -6.875   8.317  -1.432  1.00  0.00     0.014 C 
ATOM     26  C   UNL     1      -6.973   6.044  -4.056  1.00  0.00     0.012 C 
ENDROOT
BRANCH   1  27
ATOM     27  C   UNL     1     -10.831   9.545 -10.698  1.00  0.00    -0.077 C 
ATOM     28  C   UNL     1     -11.046   8.231 -11.408  1.00  0.00     0.039 C 
ATOM     29  C   UNL     1     -11.920  10.211 -10.269  1.00  0.00     0.008 C 
ENDBRANCH   1  27
BRANCH   4  30
ATOM     30  C   UNL     1      -7.765   7.936 -12.125  1.00  0.00     0.163 C 
BRANCH  30  31
ATOM     31  O   UNL     1      -6.852   6.874 -12.027  1.00  0.00    -0.396 OA
ATOM     32  H   UNL     1      -7.367   6.088 -11.706  1.00  0.00     0.210 HD
ENDBRANCH  30  31
ENDBRANCH   4  30
BRANCH  13  33
ATOM     33  O   UNL     1      -9.666   8.877  -0.857  1.00  0.00    -0.393 OA
ATOM     34  H   UNL     1      -9.342   8.130  -0.287  1.00  0.00     0.210 HD
ENDBRANCH  13  33
TORSDOF 4
ENDMDL
