MODEL 1
REMARK VINA RESULT:    -3.758      0.000      0.000
REMARK INTER + INTRA:          -5.067
REMARK INTER:                  -5.297
REMARK INTRA:                   0.230
REMARK UNBOUND:                 0.230
REMARK SMILES CC1=CCC(=C(C)C)C(=O)CC(C)=CCC1
REMARK SMILES IDX 12 1 14 2 13 3 15 4 16 5 2 6 1 7 3 8 11 10 9 11 10 12 5 13
REMARK SMILES IDX 6 14 7 15 8 16 4 17
REMARK H PARENT
REMARK Flexibility Score: 60.00
ROOT
ATOM      1  C   UNL     1      16.172  45.341  20.360  1.00  0.00    -0.070 C 
ATOM      2  C   UNL     1      16.794  44.177  20.041  1.00  0.00    -0.027 C 
ATOM      3  C   UNL     1      14.774  45.547  19.830  1.00  0.00     0.039 C 
ENDROOT
BRANCH   2   4
ATOM      4  C   UNL     1      18.143  43.720  20.542  1.00  0.00     0.032 C 
BRANCH   4   5
ATOM      5  C   UNL     1      19.316  44.461  19.886  1.00  0.00     0.034 C 
BRANCH   5   6
ATOM      6  C   UNL     1      20.276  44.963  20.947  1.00  0.00    -0.077 C 
ATOM      7  C   UNL     1      20.821  43.973  21.944  1.00  0.00     0.039 C 
ATOM      8  C   UNL     1      20.610  46.267  21.094  1.00  0.00    -0.023 CG0
ATOM      9  G   UNL     1      20.177  47.395  20.188  1.00  0.00     0.000 G0
ENDBRANCH   5   6
ENDBRANCH   4   5
ENDBRANCH   2   4
BRANCH   1  10
ATOM     10  C   UNL     1      16.820  46.478  21.145  1.00  0.00     0.111 C 
BRANCH  10  11
ATOM     11  C   UNL     1      17.572  47.464  20.288  1.00  0.00     0.163 C 
ATOM     12  O   UNL     1      17.083  47.750  19.161  1.00  0.00    -0.294 OA
BRANCH  11  13
ATOM     13  C   UNL     1      18.889  48.058  20.698  1.00  0.00    -0.002 C 
ATOM     14  C   UNL     1      18.938  49.132  21.546  1.00  0.00    -0.069 C 
ATOM     15  C   UNL     1      17.685  49.857  21.987  1.00  0.00     0.039 C 
ATOM     16  C   UNL     1      20.253  49.688  22.051  1.00  0.00     0.039 C 
BRANCH  13  17
ATOM     17  C   UNL     1      20.176  47.405  20.197  1.00  0.00     0.066 CG0
ATOM     18  G   UNL     1      20.620  46.265  21.082  1.00  0.00     0.000 G0
ENDBRANCH  13  17
ENDBRANCH  11  13
ENDBRANCH  10  11
ENDBRANCH   1  10
TORSDOF 0
ENDMDL
MODEL 2
REMARK VINA RESULT:    -3.715      2.266      4.802
REMARK INTER + INTRA:          -5.005
REMARK INTER:                  -5.290
REMARK INTRA:                   0.285
REMARK UNBOUND:                 0.230
REMARK SMILES CC1=CCC(=C(C)C)C(=O)CC(C)=CCC1
REMARK SMILES IDX 12 1 14 2 13 3 15 4 16 5 2 6 1 7 3 8 11 10 9 11 10 12 5 13
REMARK SMILES IDX 6 14 7 15 8 16 4 17
REMARK H PARENT
REMARK Flexibility Score: 60.00
ROOT
ATOM      1  C   UNL     1      15.550  44.955  18.786  1.00  0.00    -0.070 C 
ATOM      2  C   UNL     1      15.685  46.198  19.316  1.00  0.00    -0.027 C 
ATOM      3  C   UNL     1      14.149  44.481  18.482  1.00  0.00     0.039 C 
ENDROOT
BRANCH   2   4
ATOM      4  C   UNL     1      16.986  46.910  19.602  1.00  0.00     0.032 C 
BRANCH   4   5
ATOM      5  C   UNL     1      17.585  46.553  20.970  1.00  0.00     0.034 C 
BRANCH   5   6
ATOM      6  C   UNL     1      19.008  46.059  20.805  1.00  0.00    -0.077 C 
ATOM      7  C   UNL     1      20.056  47.037  20.339  1.00  0.00     0.039 C 
ATOM      8  C   UNL     1      19.375  44.767  20.980  1.00  0.00    -0.023 CG0
ATOM      9  G   UNL     1      18.474  43.652  21.456  1.00  0.00     0.000 G0
ENDBRANCH   5   6
ENDBRANCH   4   5
ENDBRANCH   2   4
BRANCH   1  10
ATOM     10  C   UNL     1      16.705  43.986  18.556  1.00  0.00     0.111 C 
BRANCH  10  11
ATOM     11  C   UNL     1      16.822  42.911  19.607  1.00  0.00     0.163 C 
ATOM     12  O   UNL     1      15.789  42.234  19.867  1.00  0.00    -0.294 OA
BRANCH  11  13
ATOM     13  C   UNL     1      18.084  42.666  20.383  1.00  0.00    -0.002 C 
ATOM     14  C   UNL     1      18.901  41.611  20.075  1.00  0.00    -0.069 C 
ATOM     15  C   UNL     1      18.503  40.568  19.053  1.00  0.00     0.039 C 
ATOM     16  C   UNL     1      20.226  41.399  20.776  1.00  0.00     0.039 C 
BRANCH  13  17
ATOM     17  C   UNL     1      18.471  43.651  21.485  1.00  0.00     0.066 CG0
ATOM     18  G   UNL     1      19.374  44.750  20.978  1.00  0.00     0.000 G0
ENDBRANCH  13  17
ENDBRANCH  11  13
ENDBRANCH  10  11
ENDBRANCH   1  10
TORSDOF 0
ENDMDL
MODEL 3
REMARK VINA RESULT:    -3.627     10.526     11.944
REMARK INTER + INTRA:          -4.882
REMARK INTER:                  -5.048
REMARK INTRA:                   0.167
REMARK UNBOUND:                 0.230
REMARK SMILES CC1=CCC(=C(C)C)C(=O)CC(C)=CCC1
REMARK SMILES IDX 12 1 14 2 13 3 15 4 16 5 2 6 1 7 3 8 11 10 9 11 10 12 5 13
REMARK SMILES IDX 6 14 7 15 8 16 4 17
REMARK H PARENT
REMARK Flexibility Score: 60.00
ROOT
ATOM      1  C   UNL     1      14.294  40.910  28.769  1.00  0.00    -0.070 C 
ATOM      2  C   UNL     1      13.316  40.589  27.884  1.00  0.00    -0.027 C 
ATOM      3  C   UNL     1      14.536  42.377  29.031  1.00  0.00     0.039 C 
ENDROOT
BRANCH   2   4
ATOM      4  C   UNL     1      12.837  39.196  27.549  1.00  0.00     0.032 C 
BRANCH   4   5
ATOM      5  C   UNL     1      13.732  38.477  26.530  1.00  0.00     0.034 C 
BRANCH   5   6
ATOM      6  C   UNL     1      14.117  37.106  27.050  1.00  0.00    -0.077 C 
ATOM      7  C   UNL     1      13.020  36.107  27.314  1.00  0.00     0.039 C 
ATOM      8  C   UNL     1      15.388  36.756  27.362  1.00  0.00    -0.023 CG0
ATOM      9  G   UNL     1      16.614  37.613  27.153  1.00  0.00     0.000 G0
ENDBRANCH   5   6
ENDBRANCH   4   5
ENDBRANCH   2   4
BRANCH   1  10
ATOM     10  C   UNL     1      15.209  39.895  29.448  1.00  0.00     0.111 C 
BRANCH  10  11
ATOM     11  C   UNL     1      16.526  39.690  28.743  1.00  0.00     0.163 C 
ATOM     12  O   UNL     1      17.152  40.718  28.366  1.00  0.00    -0.294 OA
BRANCH  11  13
ATOM     13  C   UNL     1      17.075  38.328  28.429  1.00  0.00    -0.002 C 
ATOM     14  C   UNL     1      17.936  37.705  29.292  1.00  0.00    -0.069 C 
ATOM     15  C   UNL     1      18.486  38.407  30.515  1.00  0.00     0.039 C 
ATOM     16  C   UNL     1      18.427  36.294  29.046  1.00  0.00     0.039 C 
BRANCH  13  17
ATOM     17  C   UNL     1      16.611  37.627  27.154  1.00  0.00     0.066 CG0
ATOM     18  G   UNL     1      15.387  36.772  27.386  1.00  0.00     0.000 G0
ENDBRANCH  13  17
ENDBRANCH  11  13
ENDBRANCH  10  11
ENDBRANCH   1  10
TORSDOF 0
ENDMDL
MODEL 4
REMARK VINA RESULT:    -3.600      2.665      5.331
REMARK INTER + INTRA:          -4.843
REMARK INTER:                  -4.986
REMARK INTRA:                   0.143
REMARK UNBOUND:                 0.230
REMARK SMILES CC1=CCC(=C(C)C)C(=O)CC(C)=CCC1
REMARK SMILES IDX 12 1 14 2 13 3 15 4 16 5 2 6 1 7 3 8 11 10 9 11 10 12 5 13
REMARK SMILES IDX 6 14 7 15 8 16 4 17
REMARK H PARENT
REMARK Flexibility Score: 60.00
ROOT
ATOM      1  C   UNL     1      17.231  46.775  20.151  1.00  0.00    -0.070 C 
ATOM      2  C   UNL     1      16.345  46.783  19.122  1.00  0.00    -0.027 C 
ATOM      3  C   UNL     1      18.198  47.930  20.241  1.00  0.00     0.039 C 
ENDROOT
BRANCH   2   4
ATOM      4  C   UNL     1      15.230  45.789  18.897  1.00  0.00     0.032 C 
BRANCH   4   5
ATOM      5  C   UNL     1      15.723  44.432  18.378  1.00  0.00     0.034 C 
BRANCH   5   6
ATOM      6  C   UNL     1      15.166  43.311  19.233  1.00  0.00    -0.077 C 
ATOM      7  C   UNL     1      13.672  43.222  19.411  1.00  0.00     0.039 C 
ATOM      8  C   UNL     1      15.943  42.431  19.910  1.00  0.00    -0.023 CG0
ATOM      9  G   UNL     1      17.450  42.357  19.844  1.00  0.00     0.000 G0
ENDBRANCH   5   6
ENDBRANCH   4   5
ENDBRANCH   2   4
BRANCH   1  10
ATOM     10  C   UNL     1      17.364  45.642  21.165  1.00  0.00     0.111 C 
BRANCH  10  11
ATOM     11  C   UNL     1      18.386  44.600  20.788  1.00  0.00     0.163 C 
ATOM     12  O   UNL     1      19.455  44.998  20.249  1.00  0.00    -0.294 OA
BRANCH  11  13
ATOM     13  C   UNL     1      18.152  43.128  20.974  1.00  0.00    -0.002 C 
ATOM     14  C   UNL     1      18.494  42.507  22.145  1.00  0.00    -0.069 C 
ATOM     15  C   UNL     1      19.252  43.230  23.238  1.00  0.00     0.039 C 
ATOM     16  C   UNL     1      18.180  41.047  22.394  1.00  0.00     0.039 C 
BRANCH  13  17
ATOM     17  C   UNL     1      17.470  42.347  19.852  1.00  0.00     0.066 CG0
ATOM     18  G   UNL     1      15.964  42.448  19.919  1.00  0.00     0.000 G0
ENDBRANCH  13  17
ENDBRANCH  11  13
ENDBRANCH  10  11
ENDBRANCH   1  10
TORSDOF 0
ENDMDL
MODEL 5
REMARK VINA RESULT:    -3.530      3.748      6.856
REMARK INTER + INTRA:          -4.744
REMARK INTER:                  -5.223
REMARK INTRA:                   0.479
REMARK UNBOUND:                 0.230
REMARK SMILES CC1=CCC(=C(C)C)C(=O)CC(C)=CCC1
REMARK SMILES IDX 12 1 14 2 13 3 15 4 16 5 2 6 1 7 3 8 11 10 9 11 10 12 5 13
REMARK SMILES IDX 6 14 7 15 8 16 4 17
REMARK H PARENT
REMARK Flexibility Score: 60.00
ROOT
ATOM      1  C   UNL     1      16.153  45.903  20.496  1.00  0.00    -0.070 C 
ATOM      2  C   UNL     1      14.850  46.272  20.599  1.00  0.00    -0.027 C 
ATOM      3  C   UNL     1      17.139  46.962  20.064  1.00  0.00     0.039 C 
ENDROOT
BRANCH   2   4
ATOM      4  C   UNL     1      13.718  45.411  21.108  1.00  0.00     0.032 C 
BRANCH   4   5
ATOM      5  C   UNL     1      12.551  45.298  20.117  1.00  0.00     0.034 C 
BRANCH   5   6
ATOM      6  C   UNL     1      13.063  44.881  18.752  1.00  0.00    -0.077 C 
ATOM      7  C   UNL     1      12.838  45.812  17.589  1.00  0.00     0.039 C 
ATOM      8  C   UNL     1      13.644  43.682  18.508  1.00  0.00    -0.023 CG0
ATOM      9  G   UNL     1      13.964  42.631  19.543  1.00  0.00     0.000 G0
ENDBRANCH   5   6
ENDBRANCH   4   5
ENDBRANCH   2   4
BRANCH   1  10
ATOM     10  C   UNL     1      16.667  44.482  20.708  1.00  0.00     0.111 C 
BRANCH  10  11
ATOM     11  C   UNL     1      16.412  43.559  19.544  1.00  0.00     0.163 C 
ATOM     12  O   UNL     1      16.965  43.837  18.446  1.00  0.00    -0.294 OA
BRANCH  11  13
ATOM     13  C   UNL     1      15.490  42.376  19.633  1.00  0.00    -0.002 C 
ATOM     14  C   UNL     1      15.985  41.118  19.850  1.00  0.00    -0.069 C 
ATOM     15  C   UNL     1      17.473  40.838  19.863  1.00  0.00     0.039 C 
ATOM     16  C   UNL     1      15.073  39.925  20.040  1.00  0.00     0.039 C 
BRANCH  13  17
ATOM     17  C   UNL     1      13.984  42.611  19.533  1.00  0.00     0.066 CG0
ATOM     18  G   UNL     1      13.639  43.683  18.527  1.00  0.00     0.000 G0
ENDBRANCH  13  17
ENDBRANCH  11  13
ENDBRANCH  10  11
ENDBRANCH   1  10
TORSDOF 0
ENDMDL
MODEL 6
REMARK VINA RESULT:    -3.506      2.264      4.372
REMARK INTER + INTRA:          -4.711
REMARK INTER:                  -5.048
REMARK INTRA:                   0.338
REMARK UNBOUND:                 0.230
REMARK SMILES CC1=CCC(=C(C)C)C(=O)CC(C)=CCC1
REMARK SMILES IDX 12 1 14 2 13 3 15 4 16 5 2 6 1 7 3 8 11 10 9 11 10 12 5 13
REMARK SMILES IDX 6 14 7 15 8 16 4 17
REMARK H PARENT
REMARK Flexibility Score: 60.00
ROOT
ATOM      1  C   UNL     1      16.629  42.393  19.879  1.00  0.00    -0.070 C 
ATOM      2  C   UNL     1      15.284  42.497  19.722  1.00  0.00    -0.027 C 
ATOM      3  C   UNL     1      17.152  41.148  20.553  1.00  0.00     0.039 C 
ENDROOT
BRANCH   2   4
ATOM      4  C   UNL     1      14.554  43.598  18.991  1.00  0.00     0.032 C 
BRANCH   4   5
ATOM      5  C   UNL     1      14.399  44.879  19.824  1.00  0.00     0.034 C 
BRANCH   5   6
ATOM      6  C   UNL     1      15.008  46.056  19.089  1.00  0.00    -0.077 C 
ATOM      7  C   UNL     1      14.429  46.443  17.752  1.00  0.00     0.039 C 
ATOM      8  C   UNL     1      16.095  46.732  19.534  1.00  0.00    -0.023 CG0
ATOM      9  G   UNL     1      16.799  46.500  20.849  1.00  0.00     0.000 G0
ENDBRANCH   5   6
ENDBRANCH   4   5
ENDBRANCH   2   4
BRANCH   1  10
ATOM     10  C   UNL     1      17.628  43.480  19.495  1.00  0.00     0.111 C 
BRANCH  10  11
ATOM     11  C   UNL     1      18.150  44.273  20.666  1.00  0.00     0.163 C 
ATOM     12  O   UNL     1      18.555  43.630  21.673  1.00  0.00    -0.294 OA
BRANCH  11  13
ATOM     13  C   UNL     1      18.147  45.775  20.696  1.00  0.00    -0.002 C 
ATOM     14  C   UNL     1      19.308  46.480  20.527  1.00  0.00    -0.069 C 
ATOM     15  C   UNL     1      20.655  45.792  20.452  1.00  0.00     0.039 C 
ATOM     16  C   UNL     1      19.318  47.992  20.456  1.00  0.00     0.039 C 
BRANCH  13  17
ATOM     17  C   UNL     1      16.814  46.502  20.862  1.00  0.00     0.066 CG0
ATOM     18  G   UNL     1      16.113  46.717  19.542  1.00  0.00     0.000 G0
ENDBRANCH  13  17
ENDBRANCH  11  13
ENDBRANCH  10  11
ENDBRANCH   1  10
TORSDOF 0
ENDMDL
MODEL 7
REMARK VINA RESULT:    -3.437      2.759      4.864
REMARK INTER + INTRA:          -4.613
REMARK INTER:                  -4.947
REMARK INTRA:                   0.334
REMARK UNBOUND:                 0.230
REMARK SMILES CC1=CCC(=C(C)C)C(=O)CC(C)=CCC1
REMARK SMILES IDX 12 1 14 2 13 3 15 4 16 5 2 6 1 7 3 8 11 10 9 11 10 12 5 13
REMARK SMILES IDX 6 14 7 15 8 16 4 17
REMARK H PARENT
REMARK Flexibility Score: 60.00
ROOT
ATOM      1  C   UNL     1      20.285  43.205  21.827  1.00  0.00    -0.070 C 
ATOM      2  C   UNL     1      20.379  41.856  21.704  1.00  0.00    -0.027 C 
ATOM      3  C   UNL     1      21.556  43.963  22.125  1.00  0.00     0.039 C 
ENDROOT
BRANCH   2   4
ATOM      4  C   UNL     1      19.264  40.916  21.310  1.00  0.00     0.032 C 
BRANCH   4   5
ATOM      5  C   UNL     1      18.668  41.228  19.930  1.00  0.00     0.034 C 
BRANCH   5   6
ATOM      6  C   UNL     1      17.161  41.360  20.029  1.00  0.00    -0.077 C 
ATOM      7  C   UNL     1      16.388  40.250  20.694  1.00  0.00     0.039 C 
ATOM      8  C   UNL     1      16.464  42.386  19.485  1.00  0.00    -0.023 CG0
ATOM      9  G   UNL     1      17.063  43.590  18.797  1.00  0.00     0.000 G0
ENDBRANCH   5   6
ENDBRANCH   4   5
ENDBRANCH   2   4
BRANCH   1  10
ATOM     10  C   UNL     1      18.977  43.988  21.763  1.00  0.00     0.111 C 
BRANCH  10  11
ATOM     11  C   UNL     1      18.747  44.691  20.449  1.00  0.00     0.163 C 
ATOM     12  O   UNL     1      19.719  45.316  19.944  1.00  0.00    -0.294 OA
BRANCH  11  13
ATOM     13  C   UNL     1      17.409  44.723  19.768  1.00  0.00    -0.002 C 
ATOM     14  C   UNL     1      16.540  45.759  19.980  1.00  0.00    -0.069 C 
ATOM     15  C   UNL     1      16.818  46.833  21.010  1.00  0.00     0.039 C 
ATOM     16  C   UNL     1      15.229  45.864  19.232  1.00  0.00     0.039 C 
BRANCH  13  17
ATOM     17  C   UNL     1      17.059  43.604  18.788  1.00  0.00     0.066 CG0
ATOM     18  G   UNL     1      16.451  42.408  19.482  1.00  0.00     0.000 G0
ENDBRANCH  13  17
ENDBRANCH  11  13
ENDBRANCH  10  11
ENDBRANCH   1  10
TORSDOF 0
ENDMDL
MODEL 8
REMARK VINA RESULT:    -3.424      3.856      6.315
REMARK INTER + INTRA:          -4.596
REMARK INTER:                  -4.843
REMARK INTRA:                   0.247
REMARK UNBOUND:                 0.230
REMARK SMILES CC1=CCC(=C(C)C)C(=O)CC(C)=CCC1
REMARK SMILES IDX 12 1 14 2 13 3 15 4 16 5 2 6 1 7 3 8 11 10 9 11 10 12 5 13
REMARK SMILES IDX 6 14 7 15 8 16 4 17
REMARK H PARENT
REMARK Flexibility Score: 60.00
ROOT
ATOM      1  C   UNL     1      18.901  44.543  20.602  1.00  0.00    -0.070 C 
ATOM      2  C   UNL     1      18.159  44.173  19.527  1.00  0.00    -0.027 C 
ATOM      3  C   UNL     1      19.790  45.753  20.444  1.00  0.00     0.039 C 
ENDROOT
BRANCH   2   4
ATOM      4  C   UNL     1      17.133  43.065  19.491  1.00  0.00     0.032 C 
BRANCH   4   5
ATOM      5  C   UNL     1      17.738  41.688  19.182  1.00  0.00     0.034 C 
BRANCH   5   6
ATOM      6  C   UNL     1      17.125  40.634  20.082  1.00  0.00    -0.077 C 
ATOM      7  C   UNL     1      15.655  40.335  19.935  1.00  0.00     0.039 C 
ATOM      8  C   UNL     1      17.810  40.000  21.064  1.00  0.00    -0.023 CG0
ATOM      9  G   UNL     1      19.284  40.157  21.351  1.00  0.00     0.000 G0
ENDBRANCH   5   6
ENDBRANCH   4   5
ENDBRANCH   2   4
BRANCH   1  10
ATOM     10  C   UNL     1      18.956  43.775  21.919  1.00  0.00     0.111 C 
BRANCH  10  11
ATOM     11  C   UNL     1      19.926  42.621  21.915  1.00  0.00     0.163 C 
ATOM     12  O   UNL     1      21.076  42.826  21.440  1.00  0.00    -0.294 OA
BRANCH  11  13
ATOM     13  C   UNL     1      19.555  41.246  22.392  1.00  0.00    -0.002 C 
ATOM     14  C   UNL     1      19.408  40.985  23.729  1.00  0.00    -0.069 C 
ATOM     15  C   UNL     1      19.753  42.015  24.784  1.00  0.00     0.039 C 
ATOM     16  C   UNL     1      18.941  39.636  24.230  1.00  0.00     0.039 C 
BRANCH  13  17
ATOM     17  C   UNL     1      19.287  40.157  21.355  1.00  0.00     0.066 CG0
ATOM     18  G   UNL     1      17.813  39.985  21.074  1.00  0.00     0.000 G0
ENDBRANCH  13  17
ENDBRANCH  11  13
ENDBRANCH  10  11
ENDBRANCH   1  10
TORSDOF 0
ENDMDL
MODEL 9
REMARK VINA RESULT:    -3.368      3.510      6.368
REMARK INTER + INTRA:          -4.516
REMARK INTER:                  -4.955
REMARK INTRA:                   0.439
REMARK UNBOUND:                 0.230
REMARK SMILES CC1=CCC(=C(C)C)C(=O)CC(C)=CCC1
REMARK SMILES IDX 12 1 14 2 13 3 15 4 16 5 2 6 1 7 3 8 11 10 9 11 10 12 5 13
REMARK SMILES IDX 6 14 7 15 8 16 4 17
REMARK H PARENT
REMARK Flexibility Score: 60.00
ROOT
ATOM      1  C   UNL     1      19.766  43.640  21.672  1.00  0.00    -0.070 C 
ATOM      2  C   UNL     1      19.206  44.715  21.059  1.00  0.00    -0.027 C 
ATOM      3  C   UNL     1      21.248  43.430  21.480  1.00  0.00     0.039 C 
ENDROOT
BRANCH   2   4
ATOM      4  C   UNL     1      17.773  45.173  21.195  1.00  0.00     0.032 C 
BRANCH   4   5
ATOM      5  C   UNL     1      17.008  45.172  19.864  1.00  0.00     0.034 C 
BRANCH   5   6
ATOM      6  C   UNL     1      15.983  44.055  19.852  1.00  0.00    -0.077 C 
ATOM      7  C   UNL     1      14.570  44.376  20.268  1.00  0.00     0.039 C 
ATOM      8  C   UNL     1      16.285  42.768  19.560  1.00  0.00    -0.023 CG0
ATOM      9  G   UNL     1      17.635  42.260  19.111  1.00  0.00     0.000 G0
ENDBRANCH   5   6
ENDBRANCH   4   5
ENDBRANCH   2   4
BRANCH   1  10
ATOM     10  C   UNL     1      18.986  42.598  22.467  1.00  0.00     0.111 C 
BRANCH  10  11
ATOM     11  C   UNL     1      18.080  41.736  21.624  1.00  0.00     0.163 C 
ATOM     12  O   UNL     1      17.081  41.213  22.188  1.00  0.00    -0.294 OA
BRANCH  11  13
ATOM     13  C   UNL     1      18.358  41.437  20.179  1.00  0.00    -0.002 C 
ATOM     14  C   UNL     1      19.195  40.412  19.824  1.00  0.00    -0.069 C 
ATOM     15  C   UNL     1      19.986  39.637  20.856  1.00  0.00     0.039 C 
ATOM     16  C   UNL     1      19.415  40.028  18.377  1.00  0.00     0.039 C 
BRANCH  13  17
ATOM     17  C   UNL     1      17.645  42.261  19.109  1.00  0.00     0.066 CG0
ATOM     18  G   UNL     1      16.290  42.743  19.569  1.00  0.00     0.000 G0
ENDBRANCH  13  17
ENDBRANCH  11  13
ENDBRANCH  10  11
ENDBRANCH   1  10
TORSDOF 0
ENDMDL
