MODEL 1
REMARK VINA RESULT:    -4.687      0.000      0.000
REMARK INTER + INTRA:         -15.117
REMARK INTER:                 -11.810
REMARK INTRA:                  -3.307
REMARK UNBOUND:                -3.307
REMARK SMILES CCCCCCCCCCCCCCCCCCCCCCCCCCCC(=O)[O-]
REMARK SMILES IDX 15 1 16 2 17 3 18 4 19 5 20 6 21 7 22 8 23 9 24 10 25 11
REMARK SMILES IDX 26 12 27 13 28 14 29 15 30 16 14 17 13 18 12 19 11 20 10 21
REMARK SMILES IDX 9 22 8 23 7 24 6 25 5 26 4 27 3 28 2 29 1 30
REMARK H PARENT
REMARK Flexibility Score: inf
ROOT
ATOM      1  C   UNL     1     191.630   0.195 107.182  1.00  0.00     0.000 C 
ENDROOT
BRANCH   1   2
ATOM      2  C   UNL     1     191.715   1.435 106.268  1.00  0.00     0.000 C 
BRANCH   2   3
ATOM      3  C   UNL     1     192.980   2.295 106.448  1.00  0.00     0.000 C 
BRANCH   3   4
ATOM      4  C   UNL     1     193.730   2.538 105.128  1.00  0.00     0.000 C 
BRANCH   4   5
ATOM      5  C   UNL     1     192.813   2.427 103.899  1.00  0.00     0.000 C 
BRANCH   5   6
ATOM      6  C   UNL     1     193.577   2.554 102.571  1.00  0.00     0.000 C 
BRANCH   6   7
ATOM      7  C   UNL     1     193.491   1.253 101.763  1.00  0.00     0.000 C 
BRANCH   7   8
ATOM      8  C   UNL     1     192.471   1.381 100.623  1.00  0.00     0.000 C 
BRANCH   8   9
ATOM      9  C   UNL     1     192.763   2.572  99.695  1.00  0.00     0.000 C 
BRANCH   9  10
ATOM     10  C   UNL     1     191.626   2.840  98.699  1.00  0.00     0.000 C 
BRANCH  10  11
ATOM     11  C   UNL     1     191.598   4.318  98.281  1.00  0.00     0.000 C 
BRANCH  11  12
ATOM     12  C   UNL     1     190.168   4.867  98.118  1.00  0.00     0.006 C 
BRANCH  12  13
ATOM     13  C   UNL     1     189.063   3.812  98.289  1.00  0.00     0.053 C 
BRANCH  13  14
ATOM     14  C   UNL     1     188.338   3.543  97.007  1.00  0.00     0.041 C 
ATOM     15  O   UNL     1     187.289   2.847  97.006  1.00  0.00    -0.550 OA
ATOM     16  O   UNL     1     188.835   4.042  95.809  1.00  0.00    -0.550 OA
ENDBRANCH  13  14
ENDBRANCH  12  13
ENDBRANCH  11  12
ENDBRANCH  10  11
ENDBRANCH   9  10
ENDBRANCH   8   9
ENDBRANCH   7   8
ENDBRANCH   6   7
ENDBRANCH   5   6
ENDBRANCH   4   5
ENDBRANCH   3   4
ENDBRANCH   2   3
ENDBRANCH   1   2
BRANCH   1  17
ATOM     17  C   UNL     1     192.237  -1.095 106.596  1.00  0.00     0.000 C 
BRANCH  17  18
ATOM     18  C   UNL     1     192.332  -1.135 105.057  1.00  0.00     0.000 C 
BRANCH  18  19
ATOM     19  C   UNL     1     193.763  -1.140 104.490  1.00  0.00     0.000 C 
BRANCH  19  20
ATOM     20  C   UNL     1     194.482  -2.485 104.689  1.00  0.00     0.000 C 
BRANCH  20  21
ATOM     21  C   UNL     1     195.134  -3.019 103.400  1.00  0.00     0.000 C 
BRANCH  21  22
ATOM     22  C   UNL     1     195.061  -2.082 102.180  1.00  0.00    -0.000 C 
BRANCH  22  23
ATOM     23  C   UNL     1     194.265  -2.679 101.006  1.00  0.00    -0.000 C 
BRANCH  23  24
ATOM     24  C   UNL     1     192.777  -2.294 101.046  1.00  0.00    -0.000 C 
BRANCH  24  25
ATOM     25  C   UNL     1     191.882  -3.422 101.581  1.00  0.00    -0.000 C 
BRANCH  25  26
ATOM     26  C   UNL     1     192.521  -4.795 101.323  1.00  0.00    -0.000 C 
BRANCH  26  27
ATOM     27  C   UNL     1     191.592  -5.757 100.562  1.00  0.00    -0.000 C 
BRANCH  27  28
ATOM     28  C   UNL     1     190.145  -5.824 101.091  1.00  0.00    -0.000 C 
BRANCH  28  29
ATOM     29  C   UNL     1     189.982  -6.525 102.451  1.00  0.00    -0.003 C 
ATOM     30  C   UNL     1     188.555  -6.450 102.993  1.00  0.00     0.004 C 
ENDBRANCH  28  29
ENDBRANCH  27  28
ENDBRANCH  26  27
ENDBRANCH  25  26
ENDBRANCH  24  25
ENDBRANCH  23  24
ENDBRANCH  22  23
ENDBRANCH  21  22
ENDBRANCH  20  21
ENDBRANCH  19  20
ENDBRANCH  18  19
ENDBRANCH  17  18
ENDBRANCH   1  17
TORSDOF 26
ENDMDL
MODEL 2
REMARK VINA RESULT:    -4.644      1.672      2.266
REMARK INTER + INTRA:         -15.010
REMARK INTER:                 -11.112
REMARK INTRA:                  -3.898
REMARK UNBOUND:                -3.307
REMARK SMILES CCCCCCCCCCCCCCCCCCCCCCCCCCCC(=O)[O-]
REMARK SMILES IDX 15 1 16 2 17 3 18 4 19 5 20 6 21 7 22 8 23 9 24 10 25 11
REMARK SMILES IDX 26 12 27 13 28 14 29 15 30 16 14 17 13 18 12 19 11 20 10 21
REMARK SMILES IDX 9 22 8 23 7 24 6 25 5 26 4 27 3 28 2 29 1 30
REMARK H PARENT
REMARK Flexibility Score: inf
ROOT
ATOM      1  C   UNL     1     191.610   0.749 106.187  1.00  0.00     0.000 C 
ENDROOT
BRANCH   1   2
ATOM      2  C   UNL     1     191.804   1.987 105.288  1.00  0.00     0.000 C 
BRANCH   2   3
ATOM      3  C   UNL     1     193.154   2.055 104.550  1.00  0.00     0.000 C 
BRANCH   3   4
ATOM      4  C   UNL     1     193.021   1.812 103.037  1.00  0.00     0.000 C 
BRANCH   4   5
ATOM      5  C   UNL     1     191.653   1.226 102.651  1.00  0.00     0.000 C 
BRANCH   5   6
ATOM      6  C   UNL     1     191.725   0.298 101.428  1.00  0.00     0.000 C 
BRANCH   6   7
ATOM      7  C   UNL     1     192.657   0.876 100.356  1.00  0.00     0.000 C 
BRANCH   7   8
ATOM      8  C   UNL     1     191.960   1.991  99.565  1.00  0.00     0.000 C 
BRANCH   8   9
ATOM      9  C   UNL     1     192.780   3.291  99.523  1.00  0.00     0.000 C 
BRANCH   9  10
ATOM     10  C   UNL     1     192.132   4.373  98.647  1.00  0.00     0.000 C 
BRANCH  10  11
ATOM     11  C   UNL     1     190.655   4.050  98.376  1.00  0.00     0.000 C 
BRANCH  11  12
ATOM     12  C   UNL     1     190.254   4.272  96.906  1.00  0.00     0.006 C 
BRANCH  12  13
ATOM     13  C   UNL     1     190.860   3.255  95.925  1.00  0.00     0.053 C 
BRANCH  13  14
ATOM     14  C   UNL     1     191.176   3.873  94.597  1.00  0.00     0.041 C 
ATOM     15  O   UNL     1     191.994   4.826  94.521  1.00  0.00    -0.550 OA
ATOM     16  O   UNL     1     190.546   3.410  93.448  1.00  0.00    -0.550 OA
ENDBRANCH  13  14
ENDBRANCH  12  13
ENDBRANCH  11  12
ENDBRANCH  10  11
ENDBRANCH   9  10
ENDBRANCH   8   9
ENDBRANCH   7   8
ENDBRANCH   6   7
ENDBRANCH   5   6
ENDBRANCH   4   5
ENDBRANCH   3   4
ENDBRANCH   2   3
ENDBRANCH   1   2
BRANCH   1  17
ATOM     17  C   UNL     1     192.699  -0.334 106.056  1.00  0.00     0.000 C 
BRANCH  17  18
ATOM     18  C   UNL     1     192.205  -1.703 105.544  1.00  0.00     0.000 C 
BRANCH  18  19
ATOM     19  C   UNL     1     192.863  -2.190 104.241  1.00  0.00     0.000 C 
BRANCH  19  20
ATOM     20  C   UNL     1     194.265  -1.596 104.019  1.00  0.00     0.000 C 
BRANCH  20  21
ATOM     21  C   UNL     1     194.629  -1.447 102.529  1.00  0.00     0.000 C 
BRANCH  21  22
ATOM     22  C   UNL     1     196.060  -1.871 102.150  1.00  0.00    -0.000 C 
BRANCH  22  23
ATOM     23  C   UNL     1     196.125  -3.260 101.491  1.00  0.00    -0.000 C 
BRANCH  23  24
ATOM     24  C   UNL     1     194.730  -3.849 101.221  1.00  0.00    -0.000 C 
BRANCH  24  25
ATOM     25  C   UNL     1     194.326  -3.775  99.741  1.00  0.00    -0.000 C 
BRANCH  25  26
ATOM     26  C   UNL     1     192.823  -4.046  99.572  1.00  0.00    -0.000 C 
BRANCH  26  27
ATOM     27  C   UNL     1     191.999  -3.659 100.813  1.00  0.00    -0.000 C 
BRANCH  27  28
ATOM     28  C   UNL     1     190.972  -4.714 101.271  1.00  0.00    -0.000 C 
BRANCH  28  29
ATOM     29  C   UNL     1     191.239  -5.322 102.659  1.00  0.00    -0.003 C 
ATOM     30  C   UNL     1     191.820  -6.734 102.589  1.00  0.00     0.004 C 
ENDBRANCH  28  29
ENDBRANCH  27  28
ENDBRANCH  26  27
ENDBRANCH  25  26
ENDBRANCH  24  25
ENDBRANCH  23  24
ENDBRANCH  22  23
ENDBRANCH  21  22
ENDBRANCH  20  21
ENDBRANCH  19  20
ENDBRANCH  18  19
ENDBRANCH  17  18
ENDBRANCH   1  17
TORSDOF 26
ENDMDL
MODEL 3
REMARK VINA RESULT:    -4.638      1.632      2.191
REMARK INTER + INTRA:         -14.993
REMARK INTER:                 -11.535
REMARK INTRA:                  -3.458
REMARK UNBOUND:                -3.307
REMARK SMILES CCCCCCCCCCCCCCCCCCCCCCCCCCCC(=O)[O-]
REMARK SMILES IDX 15 1 16 2 17 3 18 4 19 5 20 6 21 7 22 8 23 9 24 10 25 11
REMARK SMILES IDX 26 12 27 13 28 14 29 15 30 16 14 17 13 18 12 19 11 20 10 21
REMARK SMILES IDX 9 22 8 23 7 24 6 25 5 26 4 27 3 28 2 29 1 30
REMARK H PARENT
REMARK Flexibility Score: inf
ROOT
ATOM      1  C   UNL     1     192.078  -2.406 104.717  1.00  0.00     0.000 C 
ENDROOT
BRANCH   1   2
ATOM      2  C   UNL     1     192.059  -0.943 104.227  1.00  0.00     0.000 C 
BRANCH   2   3
ATOM      3  C   UNL     1     192.400   0.110 105.298  1.00  0.00     0.000 C 
BRANCH   3   4
ATOM      4  C   UNL     1     193.359   1.197 104.783  1.00  0.00     0.000 C 
BRANCH   4   5
ATOM      5  C   UNL     1     192.769   1.997 103.611  1.00  0.00     0.000 C 
BRANCH   5   6
ATOM      6  C   UNL     1     193.727   2.095 102.413  1.00  0.00     0.000 C 
BRANCH   6   7
ATOM      7  C   UNL     1     193.437   0.991 101.388  1.00  0.00     0.000 C 
BRANCH   7   8
ATOM      8  C   UNL     1     192.097   1.237 100.681  1.00  0.00     0.000 C 
BRANCH   8   9
ATOM      9  C   UNL     1     192.264   1.930  99.318  1.00  0.00     0.000 C 
BRANCH   9  10
ATOM     10  C   UNL     1     192.553   3.433  99.449  1.00  0.00     0.000 C 
BRANCH  10  11
ATOM     11  C   UNL     1     191.920   4.217  98.290  1.00  0.00     0.000 C 
BRANCH  11  12
ATOM     12  C   UNL     1     190.939   3.369  97.459  1.00  0.00     0.006 C 
BRANCH  12  13
ATOM     13  C   UNL     1     190.702   3.891  96.033  1.00  0.00     0.053 C 
BRANCH  13  14
ATOM     14  C   UNL     1     191.308   2.996  94.997  1.00  0.00     0.041 C 
ATOM     15  O   UNL     1     192.186   2.155  95.322  1.00  0.00    -0.550 OA
ATOM     16  O   UNL     1     190.920   3.109  93.667  1.00  0.00    -0.550 OA
ENDBRANCH  13  14
ENDBRANCH  12  13
ENDBRANCH  11  12
ENDBRANCH  10  11
ENDBRANCH   9  10
ENDBRANCH   8   9
ENDBRANCH   7   8
ENDBRANCH   6   7
ENDBRANCH   5   6
ENDBRANCH   4   5
ENDBRANCH   3   4
ENDBRANCH   2   3
ENDBRANCH   1   2
BRANCH   1  17
ATOM     17  C   UNL     1     193.342  -3.205 104.345  1.00  0.00     0.000 C 
BRANCH  17  18
ATOM     18  C   UNL     1     194.636  -2.757 105.055  1.00  0.00     0.000 C 
BRANCH  18  19
ATOM     19  C   UNL     1     195.789  -2.353 104.120  1.00  0.00     0.000 C 
BRANCH  19  20
ATOM     20  C   UNL     1     195.305  -1.643 102.844  1.00  0.00     0.000 C 
BRANCH  20  21
ATOM     21  C   UNL     1     195.792  -2.324 101.551  1.00  0.00     0.000 C 
BRANCH  21  22
ATOM     22  C   UNL     1     195.095  -3.650 101.194  1.00  0.00    -0.000 C 
BRANCH  22  23
ATOM     23  C   UNL     1     194.065  -3.506 100.060  1.00  0.00    -0.000 C 
BRANCH  23  24
ATOM     24  C   UNL     1     192.887  -2.596 100.447  1.00  0.00    -0.000 C 
BRANCH  24  25
ATOM     25  C   UNL     1     191.749  -3.356 101.146  1.00  0.00    -0.000 C 
BRANCH  25  26
ATOM     26  C   UNL     1     191.876  -4.868 100.909  1.00  0.00    -0.000 C 
BRANCH  26  27
ATOM     27  C   UNL     1     190.584  -5.638 101.235  1.00  0.00    -0.000 C 
BRANCH  27  28
ATOM     28  C   UNL     1     190.164  -5.613 102.719  1.00  0.00    -0.000 C 
BRANCH  28  29
ATOM     29  C   UNL     1     188.810  -6.277 103.022  1.00  0.00    -0.003 C 
ATOM     30  C   UNL     1     188.115  -6.813 101.771  1.00  0.00     0.004 C 
ENDBRANCH  28  29
ENDBRANCH  27  28
ENDBRANCH  26  27
ENDBRANCH  25  26
ENDBRANCH  24  25
ENDBRANCH  23  24
ENDBRANCH  22  23
ENDBRANCH  21  22
ENDBRANCH  20  21
ENDBRANCH  19  20
ENDBRANCH  18  19
ENDBRANCH  17  18
ENDBRANCH   1  17
TORSDOF 26
ENDMDL
MODEL 4
REMARK VINA RESULT:    -4.522      3.668      7.270
REMARK INTER + INTRA:         -14.702
REMARK INTER:                  -9.170
REMARK INTRA:                  -5.532
REMARK UNBOUND:                -3.307
REMARK SMILES CCCCCCCCCCCCCCCCCCCCCCCCCCCC(=O)[O-]
REMARK SMILES IDX 15 1 16 2 17 3 18 4 19 5 20 6 21 7 22 8 23 9 24 10 25 11
REMARK SMILES IDX 26 12 27 13 28 14 29 15 30 16 14 17 13 18 12 19 11 20 10 21
REMARK SMILES IDX 9 22 8 23 7 24 6 25 5 26 4 27 3 28 2 29 1 30
REMARK H PARENT
REMARK Flexibility Score: inf
ROOT
ATOM      1  C   UNL     1     193.931  -5.731 102.275  1.00  0.00     0.000 C 
ENDROOT
BRANCH   1   2
ATOM      2  C   UNL     1     195.378  -5.600 101.756  1.00  0.00     0.000 C 
BRANCH   2   3
ATOM      3  C   UNL     1     195.697  -6.418 100.491  1.00  0.00     0.000 C 
BRANCH   3   4
ATOM      4  C   UNL     1     195.617  -5.583  99.203  1.00  0.00     0.000 C 
BRANCH   4   5
ATOM      5  C   UNL     1     194.299  -5.798  98.440  1.00  0.00     0.000 C 
BRANCH   5   6
ATOM      6  C   UNL     1     193.336  -4.607  98.564  1.00  0.00     0.000 C 
BRANCH   6   7
ATOM      7  C   UNL     1     194.077  -3.350  99.036  1.00  0.00     0.000 C 
BRANCH   7   8
ATOM      8  C   UNL     1     193.347  -2.692 100.215  1.00  0.00     0.000 C 
BRANCH   8   9
ATOM      9  C   UNL     1     194.310  -2.041 101.222  1.00  0.00     0.000 C 
BRANCH   9  10
ATOM     10  C   UNL     1     194.019  -0.549 101.441  1.00  0.00     0.000 C 
BRANCH  10  11
ATOM     11  C   UNL     1     192.531  -0.240 101.216  1.00  0.00     0.000 C 
BRANCH  11  12
ATOM     12  C   UNL     1     192.013   0.896 102.118  1.00  0.00     0.006 C 
BRANCH  12  13
ATOM     13  C   UNL     1     193.100   1.877 102.587  1.00  0.00     0.053 C 
BRANCH  13  14
ATOM     14  C   UNL     1     193.137   2.005 104.079  1.00  0.00     0.041 C 
ATOM     15  O   UNL     1     192.076   1.911 104.749  1.00  0.00    -0.550 OA
ATOM     16  O   UNL     1     194.342   2.252 104.725  1.00  0.00    -0.550 OA
ENDBRANCH  13  14
ENDBRANCH  12  13
ENDBRANCH  11  12
ENDBRANCH  10  11
ENDBRANCH   9  10
ENDBRANCH   8   9
ENDBRANCH   7   8
ENDBRANCH   6   7
ENDBRANCH   5   6
ENDBRANCH   4   5
ENDBRANCH   3   4
ENDBRANCH   2   3
ENDBRANCH   1   2
BRANCH   1  17
ATOM     17  C   UNL     1     193.493  -7.161 102.645  1.00  0.00     0.000 C 
BRANCH  17  18
ATOM     18  C   UNL     1     192.089  -7.566 102.154  1.00  0.00     0.000 C 
BRANCH  18  19
ATOM     19  C   UNL     1     191.677  -6.978 100.792  1.00  0.00     0.000 C 
BRANCH  19  20
ATOM     20  C   UNL     1     190.335  -6.228 100.845  1.00  0.00     0.000 C 
BRANCH  20  21
ATOM     21  C   UNL     1     189.153  -7.132 101.246  1.00  0.00     0.000 C 
BRANCH  21  22
ATOM     22  C   UNL     1     188.263  -6.597 102.384  1.00  0.00    -0.000 C 
BRANCH  22  23
ATOM     23  C   UNL     1     188.650  -7.151 103.766  1.00  0.00    -0.000 C 
BRANCH  23  24
ATOM     24  C   UNL     1     189.088  -6.047 104.742  1.00  0.00    -0.000 C 
BRANCH  24  25
ATOM     25  C   UNL     1     190.509  -6.259 105.287  1.00  0.00    -0.000 C 
BRANCH  25  26
ATOM     26  C   UNL     1     191.396  -5.043 104.984  1.00  0.00    -0.000 C 
BRANCH  26  27
ATOM     27  C   UNL     1     190.884  -4.205 103.800  1.00  0.00    -0.000 C 
BRANCH  27  28
ATOM     28  C   UNL     1     191.664  -2.901 103.535  1.00  0.00    -0.000 C 
BRANCH  28  29
ATOM     29  C   UNL     1     192.030  -2.095 104.793  1.00  0.00    -0.003 C 
ATOM     30  C   UNL     1     193.529  -1.827 104.914  1.00  0.00     0.004 C 
ENDBRANCH  28  29
ENDBRANCH  27  28
ENDBRANCH  26  27
ENDBRANCH  25  26
ENDBRANCH  24  25
ENDBRANCH  23  24
ENDBRANCH  22  23
ENDBRANCH  21  22
ENDBRANCH  20  21
ENDBRANCH  19  20
ENDBRANCH  18  19
ENDBRANCH  17  18
ENDBRANCH   1  17
TORSDOF 26
ENDMDL
MODEL 5
REMARK VINA RESULT:    -4.505      1.700      4.006
REMARK INTER + INTRA:         -14.660
REMARK INTER:                 -11.617
REMARK INTRA:                  -3.043
REMARK UNBOUND:                -3.307
REMARK SMILES CCCCCCCCCCCCCCCCCCCCCCCCCCCC(=O)[O-]
REMARK SMILES IDX 15 1 16 2 17 3 18 4 19 5 20 6 21 7 22 8 23 9 24 10 25 11
REMARK SMILES IDX 26 12 27 13 28 14 29 15 30 16 14 17 13 18 12 19 11 20 10 21
REMARK SMILES IDX 9 22 8 23 7 24 6 25 5 26 4 27 3 28 2 29 1 30
REMARK H PARENT
REMARK Flexibility Score: inf
ROOT
ATOM      1  C   UNL     1     193.822   0.602 103.381  1.00  0.00     0.000 C 
ENDROOT
BRANCH   1   2
ATOM      2  C   UNL     1     193.755   0.311 101.867  1.00  0.00     0.000 C 
BRANCH   2   3
ATOM      3  C   UNL     1     192.349  -0.002 101.322  1.00  0.00     0.000 C 
BRANCH   3   4
ATOM      4  C   UNL     1     191.631   1.241 100.771  1.00  0.00     0.000 C 
BRANCH   4   5
ATOM      5  C   UNL     1     192.576   2.171  99.991  1.00  0.00     0.000 C 
BRANCH   5   6
ATOM      6  C   UNL     1     191.967   2.669  98.671  1.00  0.00     0.000 C 
BRANCH   6   7
ATOM      7  C   UNL     1     191.965   4.201  98.612  1.00  0.00     0.000 C 
BRANCH   7   8
ATOM      8  C   UNL     1     190.580   4.734  98.218  1.00  0.00     0.000 C 
BRANCH   8   9
ATOM      9  C   UNL     1     189.579   3.610  97.904  1.00  0.00     0.000 C 
BRANCH   9  10
ATOM     10  C   UNL     1     188.197   4.144  97.497  1.00  0.00     0.000 C 
BRANCH  10  11
ATOM     11  C   UNL     1     187.891   3.814  96.029  1.00  0.00     0.000 C 
BRANCH  11  12
ATOM     12  C   UNL     1     188.705   4.672  95.041  1.00  0.00     0.006 C 
BRANCH  12  13
ATOM     13  C   UNL     1     189.458   3.863  93.973  1.00  0.00     0.053 C 
BRANCH  13  14
ATOM     14  C   UNL     1     190.887   3.621  94.354  1.00  0.00     0.041 C 
ATOM     15  O   UNL     1     191.390   2.475  94.231  1.00  0.00    -0.550 OA
ATOM     16  O   UNL     1     191.655   4.660  94.867  1.00  0.00    -0.550 OA
ENDBRANCH  13  14
ENDBRANCH  12  13
ENDBRANCH  11  12
ENDBRANCH  10  11
ENDBRANCH   9  10
ENDBRANCH   8   9
ENDBRANCH   7   8
ENDBRANCH   6   7
ENDBRANCH   5   6
ENDBRANCH   4   5
ENDBRANCH   3   4
ENDBRANCH   2   3
ENDBRANCH   1   2
BRANCH   1  17
ATOM     17  C   UNL     1     193.723   2.091 103.767  1.00  0.00     0.000 C 
BRANCH  17  18
ATOM     18  C   UNL     1     192.404   2.507 104.450  1.00  0.00     0.000 C 
BRANCH  18  19
ATOM     19  C   UNL     1     191.469   1.344 104.828  1.00  0.00     0.000 C 
BRANCH  19  20
ATOM     20  C   UNL     1     191.212   1.250 106.342  1.00  0.00     0.000 C 
BRANCH  20  21
ATOM     21  C   UNL     1     191.348  -0.183 106.891  1.00  0.00     0.000 C 
BRANCH  21  22
ATOM     22  C   UNL     1     192.543  -0.991 106.352  1.00  0.00    -0.000 C 
BRANCH  22  23
ATOM     23  C   UNL     1     192.130  -2.331 105.719  1.00  0.00    -0.000 C 
BRANCH  23  24
ATOM     24  C   UNL     1     192.538  -2.435 104.240  1.00  0.00    -0.000 C 
BRANCH  24  25
ATOM     25  C   UNL     1     191.516  -3.203 103.389  1.00  0.00    -0.000 C 
BRANCH  25  26
ATOM     26  C   UNL     1     192.133  -3.632 102.050  1.00  0.00    -0.000 C 
BRANCH  26  27
ATOM     27  C   UNL     1     191.251  -4.625 101.272  1.00  0.00    -0.000 C 
BRANCH  27  28
ATOM     28  C   UNL     1     190.944  -5.944 102.010  1.00  0.00    -0.000 C 
BRANCH  28  29
ATOM     29  C   UNL     1     189.572  -6.563 101.691  1.00  0.00    -0.003 C 
ATOM     30  C   UNL     1     188.542  -6.331 102.795  1.00  0.00     0.004 C 
ENDBRANCH  28  29
ENDBRANCH  27  28
ENDBRANCH  26  27
ENDBRANCH  25  26
ENDBRANCH  24  25
ENDBRANCH  23  24
ENDBRANCH  22  23
ENDBRANCH  21  22
ENDBRANCH  20  21
ENDBRANCH  19  20
ENDBRANCH  18  19
ENDBRANCH  17  18
ENDBRANCH   1  17
TORSDOF 26
ENDMDL
MODEL 6
REMARK VINA RESULT:    -4.463      3.830      6.275
REMARK INTER + INTRA:         -14.554
REMARK INTER:                 -10.192
REMARK INTRA:                  -4.362
REMARK UNBOUND:                -3.307
REMARK SMILES CCCCCCCCCCCCCCCCCCCCCCCCCCCC(=O)[O-]
REMARK SMILES IDX 15 1 16 2 17 3 18 4 19 5 20 6 21 7 22 8 23 9 24 10 25 11
REMARK SMILES IDX 26 12 27 13 28 14 29 15 30 16 14 17 13 18 12 19 11 20 10 21
REMARK SMILES IDX 9 22 8 23 7 24 6 25 5 26 4 27 3 28 2 29 1 30
REMARK H PARENT
REMARK Flexibility Score: inf
ROOT
ATOM      1  C   UNL     1     190.763  -4.296 106.125  1.00  0.00     0.000 C 
ENDROOT
BRANCH   1   2
ATOM      2  C   UNL     1     191.248  -3.607 104.832  1.00  0.00     0.000 C 
BRANCH   2   3
ATOM      3  C   UNL     1     192.377  -2.577 105.024  1.00  0.00     0.000 C 
BRANCH   3   4
ATOM      4  C   UNL     1     192.822  -1.925 103.704  1.00  0.00     0.000 C 
BRANCH   4   5
ATOM      5  C   UNL     1     191.647  -1.666 102.748  1.00  0.00     0.000 C 
BRANCH   5   6
ATOM      6  C   UNL     1     192.087  -1.031 101.419  1.00  0.00     0.000 C 
BRANCH   6   7
ATOM      7  C   UNL     1     191.845   0.483 101.428  1.00  0.00     0.000 C 
BRANCH   7   8
ATOM      8  C   UNL     1     193.109   1.244 101.004  1.00  0.00     0.000 C 
BRANCH   8   9
ATOM      9  C   UNL     1     193.591   2.238 102.074  1.00  0.00     0.000 C 
BRANCH   9  10
ATOM     10  C   UNL     1     193.358   1.728 103.504  1.00  0.00     0.000 C 
BRANCH  10  11
ATOM     11  C   UNL     1     192.411   2.662 104.273  1.00  0.00     0.000 C 
BRANCH  11  12
ATOM     12  C   UNL     1     191.124   1.955 104.738  1.00  0.00     0.006 C 
BRANCH  12  13
ATOM     13  C   UNL     1     191.343   0.900 105.834  1.00  0.00     0.053 C 
BRANCH  13  14
ATOM     14  C   UNL     1     190.663   1.270 107.116  1.00  0.00     0.041 C 
ATOM     15  O   UNL     1     189.419   1.122 107.239  1.00  0.00    -0.550 OA
ATOM     16  O   UNL     1     191.401   1.801 108.167  1.00  0.00    -0.550 OA
ENDBRANCH  13  14
ENDBRANCH  12  13
ENDBRANCH  11  12
ENDBRANCH  10  11
ENDBRANCH   9  10
ENDBRANCH   8   9
ENDBRANCH   7   8
ENDBRANCH   6   7
ENDBRANCH   5   6
ENDBRANCH   4   5
ENDBRANCH   3   4
ENDBRANCH   2   3
ENDBRANCH   1   2
BRANCH   1  17
ATOM     17  C   UNL     1     189.374  -3.850 106.623  1.00  0.00     0.000 C 
BRANCH  17  18
ATOM     18  C   UNL     1     188.574  -4.925 107.386  1.00  0.00     0.000 C 
BRANCH  18  19
ATOM     19  C   UNL     1     189.364  -6.195 107.749  1.00  0.00     0.000 C 
BRANCH  19  20
ATOM     20  C   UNL     1     188.828  -7.455 107.048  1.00  0.00     0.000 C 
BRANCH  20  21
ATOM     21  C   UNL     1     188.220  -7.163 105.662  1.00  0.00     0.000 C 
BRANCH  21  22
ATOM     22  C   UNL     1     189.170  -7.361 104.465  1.00  0.00    -0.000 C 
BRANCH  22  23
ATOM     23  C   UNL     1     188.613  -6.786 103.151  1.00  0.00    -0.000 C 
BRANCH  23  24
ATOM     24  C   UNL     1     189.253  -7.430 101.909  1.00  0.00    -0.000 C 
BRANCH  24  25
ATOM     25  C   UNL     1     189.759  -6.395 100.893  1.00  0.00    -0.000 C 
BRANCH  25  26
ATOM     26  C   UNL     1     190.516  -5.261 101.600  1.00  0.00    -0.000 C 
BRANCH  26  27
ATOM     27  C   UNL     1     191.891  -4.972 100.971  1.00  0.00    -0.000 C 
BRANCH  27  28
ATOM     28  C   UNL     1     193.104  -5.353 101.844  1.00  0.00    -0.000 C 
BRANCH  28  29
ATOM     29  C   UNL     1     192.804  -6.357 102.970  1.00  0.00    -0.003 C 
ATOM     30  C   UNL     1     192.972  -7.812 102.533  1.00  0.00     0.004 C 
ENDBRANCH  28  29
ENDBRANCH  27  28
ENDBRANCH  26  27
ENDBRANCH  25  26
ENDBRANCH  24  25
ENDBRANCH  23  24
ENDBRANCH  22  23
ENDBRANCH  21  22
ENDBRANCH  20  21
ENDBRANCH  19  20
ENDBRANCH  18  19
ENDBRANCH  17  18
ENDBRANCH   1  17
TORSDOF 26
ENDMDL
MODEL 7
REMARK VINA RESULT:    -4.459      3.721      6.438
REMARK INTER + INTRA:         -14.544
REMARK INTER:                  -9.159
REMARK INTRA:                  -5.385
REMARK UNBOUND:                -3.307
REMARK SMILES CCCCCCCCCCCCCCCCCCCCCCCCCCCC(=O)[O-]
REMARK SMILES IDX 15 1 16 2 17 3 18 4 19 5 20 6 21 7 22 8 23 9 24 10 25 11
REMARK SMILES IDX 26 12 27 13 28 14 29 15 30 16 14 17 13 18 12 19 11 20 10 21
REMARK SMILES IDX 9 22 8 23 7 24 6 25 5 26 4 27 3 28 2 29 1 30
REMARK H PARENT
REMARK Flexibility Score: inf
ROOT
ATOM      1  C   UNL     1     190.950  -2.244 107.214  1.00  0.00     0.000 C 
ENDROOT
BRANCH   1   2
ATOM      2  C   UNL     1     192.479  -2.449 107.172  1.00  0.00     0.000 C 
BRANCH   2   3
ATOM      3  C   UNL     1     192.961  -3.857 107.570  1.00  0.00     0.000 C 
BRANCH   3   4
ATOM      4  C   UNL     1     193.595  -4.625 106.399  1.00  0.00     0.000 C 
BRANCH   4   5
ATOM      5  C   UNL     1     192.564  -5.440 105.601  1.00  0.00     0.000 C 
BRANCH   5   6
ATOM      6  C   UNL     1     192.405  -4.948 104.154  1.00  0.00     0.000 C 
BRANCH   6   7
ATOM      7  C   UNL     1     191.195  -4.016 104.021  1.00  0.00     0.000 C 
BRANCH   7   8
ATOM      8  C   UNL     1     191.610  -2.655 103.443  1.00  0.00     0.000 C 
BRANCH   8   9
ATOM      9  C   UNL     1     193.137  -2.481 103.373  1.00  0.00     0.000 C 
BRANCH   9  10
ATOM     10  C   UNL     1     193.560  -1.328 102.451  1.00  0.00     0.000 C 
BRANCH  10  11
ATOM     11  C   UNL     1     192.342  -0.708 101.751  1.00  0.00     0.000 C 
BRANCH  11  12
ATOM     12  C   UNL     1     192.143   0.779 102.101  1.00  0.00     0.006 C 
BRANCH  12  13
ATOM     13  C   UNL     1     191.378   1.023 103.412  1.00  0.00     0.053 C 
BRANCH  13  14
ATOM     14  C   UNL     1     192.281   1.490 104.512  1.00  0.00     0.041 C 
ATOM     15  O   UNL     1     192.505   2.718 104.669  1.00  0.00    -0.550 OA
ATOM     16  O   UNL     1     192.894   0.564 105.348  1.00  0.00    -0.550 OA
ENDBRANCH  13  14
ENDBRANCH  12  13
ENDBRANCH  11  12
ENDBRANCH  10  11
ENDBRANCH   9  10
ENDBRANCH   8   9
ENDBRANCH   7   8
ENDBRANCH   6   7
ENDBRANCH   5   6
ENDBRANCH   4   5
ENDBRANCH   3   4
ENDBRANCH   2   3
ENDBRANCH   1   2
BRANCH   1  17
ATOM     17  C   UNL     1     190.143  -3.437 107.761  1.00  0.00     0.000 C 
BRANCH  17  18
ATOM     18  C   UNL     1     189.012  -3.942 106.841  1.00  0.00     0.000 C 
BRANCH  18  19
ATOM     19  C   UNL     1     188.181  -5.108 107.406  1.00  0.00     0.000 C 
BRANCH  19  20
ATOM     20  C   UNL     1     187.963  -6.238 106.385  1.00  0.00     0.000 C 
BRANCH  20  21
ATOM     21  C   UNL     1     189.280  -6.810 105.826  1.00  0.00     0.000 C 
BRANCH  21  22
ATOM     22  C   UNL     1     189.154  -7.609 104.515  1.00  0.00    -0.000 C 
BRANCH  22  23
ATOM     23  C   UNL     1     188.692  -6.749 103.325  1.00  0.00    -0.000 C 
BRANCH  23  24
ATOM     24  C   UNL     1     188.483  -7.577 102.047  1.00  0.00    -0.000 C 
BRANCH  24  25
ATOM     25  C   UNL     1     189.464  -7.205 100.925  1.00  0.00    -0.000 C 
BRANCH  25  26
ATOM     26  C   UNL     1     190.158  -5.869 101.229  1.00  0.00    -0.000 C 
BRANCH  26  27
ATOM     27  C   UNL     1     191.561  -5.764 100.604  1.00  0.00    -0.000 C 
BRANCH  27  28
ATOM     28  C   UNL     1     191.999  -4.338 100.214  1.00  0.00    -0.000 C 
BRANCH  28  29
ATOM     29  C   UNL     1     193.519  -4.132 100.101  1.00  0.00    -0.003 C 
ATOM     30  C   UNL     1     194.317  -5.097 100.977  1.00  0.00     0.004 C 
ENDBRANCH  28  29
ENDBRANCH  27  28
ENDBRANCH  26  27
ENDBRANCH  25  26
ENDBRANCH  24  25
ENDBRANCH  23  24
ENDBRANCH  22  23
ENDBRANCH  21  22
ENDBRANCH  20  21
ENDBRANCH  19  20
ENDBRANCH  18  19
ENDBRANCH  17  18
ENDBRANCH   1  17
TORSDOF 26
ENDMDL
MODEL 8
REMARK VINA RESULT:    -4.444      3.629      7.470
REMARK INTER + INTRA:         -14.505
REMARK INTER:                  -9.368
REMARK INTRA:                  -5.137
REMARK UNBOUND:                -3.307
REMARK SMILES CCCCCCCCCCCCCCCCCCCCCCCCCCCC(=O)[O-]
REMARK SMILES IDX 15 1 16 2 17 3 18 4 19 5 20 6 21 7 22 8 23 9 24 10 25 11
REMARK SMILES IDX 26 12 27 13 28 14 29 15 30 16 14 17 13 18 12 19 11 20 10 21
REMARK SMILES IDX 9 22 8 23 7 24 6 25 5 26 4 27 3 28 2 29 1 30
REMARK H PARENT
REMARK Flexibility Score: inf
ROOT
ATOM      1  C   UNL     1     191.949  -1.571 107.092  1.00  0.00     0.000 C 
ENDROOT
BRANCH   1   2
ATOM      2  C   UNL     1     190.612  -2.319 107.271  1.00  0.00     0.000 C 
BRANCH   2   3
ATOM      3  C   UNL     1     190.723  -3.716 107.909  1.00  0.00     0.000 C 
BRANCH   3   4
ATOM      4  C   UNL     1     190.139  -4.828 107.022  1.00  0.00     0.000 C 
BRANCH   4   5
ATOM      5  C   UNL     1     189.874  -4.356 105.583  1.00  0.00     0.000 C 
BRANCH   5   6
ATOM      6  C   UNL     1     190.232  -5.417 104.531  1.00  0.00     0.000 C 
BRANCH   6   7
ATOM      7  C   UNL     1     191.738  -5.708 104.537  1.00  0.00     0.000 C 
BRANCH   7   8
ATOM      8  C   UNL     1     192.237  -6.053 103.126  1.00  0.00     0.000 C 
BRANCH   8   9
ATOM      9  C   UNL     1     191.293  -5.547 102.023  1.00  0.00     0.000 C 
BRANCH   9  10
ATOM     10  C   UNL     1     191.473  -6.301 100.697  1.00  0.00     0.000 C 
BRANCH  10  11
ATOM     11  C   UNL     1     192.001  -5.366  99.599  1.00  0.00     0.000 C 
BRANCH  11  12
ATOM     12  C   UNL     1     192.310  -3.949 100.119  1.00  0.00     0.006 C 
BRANCH  12  13
ATOM     13  C   UNL     1     193.587  -3.325  99.534  1.00  0.00     0.053 C 
BRANCH  13  14
ATOM     14  C   UNL     1     194.749  -3.436 100.472  1.00  0.00     0.041 C 
ATOM     15  O   UNL     1     194.830  -4.407 101.268  1.00  0.00    -0.550 OA
ATOM     16  O   UNL     1     195.729  -2.451 100.484  1.00  0.00    -0.550 OA
ENDBRANCH  13  14
ENDBRANCH  12  13
ENDBRANCH  11  12
ENDBRANCH  10  11
ENDBRANCH   9  10
ENDBRANCH   8   9
ENDBRANCH   7   8
ENDBRANCH   6   7
ENDBRANCH   5   6
ENDBRANCH   4   5
ENDBRANCH   3   4
ENDBRANCH   2   3
ENDBRANCH   1   2
BRANCH   1  17
ATOM     17  C   UNL     1     193.028  -2.337 106.302  1.00  0.00     0.000 C 
BRANCH  17  18
ATOM     18  C   UNL     1     193.502  -1.652 105.004  1.00  0.00     0.000 C 
BRANCH  18  19
ATOM     19  C   UNL     1     193.174  -2.413 103.706  1.00  0.00     0.000 C 
BRANCH  19  20
ATOM     20  C   UNL     1     191.755  -2.127 103.187  1.00  0.00     0.000 C 
BRANCH  20  21
ATOM     21  C   UNL     1     191.563  -0.670 102.723  1.00  0.00     0.000 C 
BRANCH  21  22
ATOM     22  C   UNL     1     192.137  -0.334 101.334  1.00  0.00    -0.000 C 
BRANCH  22  23
ATOM     23  C   UNL     1     192.515   1.150 101.178  1.00  0.00    -0.000 C 
BRANCH  23  24
ATOM     24  C   UNL     1     193.666   1.565 102.109  1.00  0.00    -0.000 C 
BRANCH  24  25
ATOM     25  C   UNL     1     193.206   2.468 103.263  1.00  0.00    -0.000 C 
BRANCH  25  26
ATOM     26  C   UNL     1     193.782   1.979 104.601  1.00  0.00    -0.000 C 
BRANCH  26  27
ATOM     27  C   UNL     1     192.749   1.994 105.741  1.00  0.00    -0.000 C 
BRANCH  27  28
ATOM     28  C   UNL     1     191.323   1.564 105.340  1.00  0.00    -0.000 C 
BRANCH  28  29
ATOM     29  C   UNL     1     190.229   1.901 106.367  1.00  0.00    -0.003 C 
ATOM     30  C   UNL     1     190.750   1.939 107.803  1.00  0.00     0.004 C 
ENDBRANCH  28  29
ENDBRANCH  27  28
ENDBRANCH  26  27
ENDBRANCH  25  26
ENDBRANCH  24  25
ENDBRANCH  23  24
ENDBRANCH  22  23
ENDBRANCH  21  22
ENDBRANCH  20  21
ENDBRANCH  19  20
ENDBRANCH  18  19
ENDBRANCH  17  18
ENDBRANCH   1  17
TORSDOF 26
ENDMDL
MODEL 9
REMARK VINA RESULT:    -4.422      3.993      7.325
REMARK INTER + INTRA:         -14.449
REMARK INTER:                  -9.120
REMARK INTRA:                  -5.330
REMARK UNBOUND:                -3.307
REMARK SMILES CCCCCCCCCCCCCCCCCCCCCCCCCCCC(=O)[O-]
REMARK SMILES IDX 15 1 16 2 17 3 18 4 19 5 20 6 21 7 22 8 23 9 24 10 25 11
REMARK SMILES IDX 26 12 27 13 28 14 29 15 30 16 14 17 13 18 12 19 11 20 10 21
REMARK SMILES IDX 9 22 8 23 7 24 6 25 5 26 4 27 3 28 2 29 1 30
REMARK H PARENT
REMARK Flexibility Score: inf
ROOT
ATOM      1  C   UNL     1     189.549  -3.842 107.083  1.00  0.00     0.000 C 
ENDROOT
BRANCH   1   2
ATOM      2  C   UNL     1     190.839  -4.126 107.880  1.00  0.00     0.000 C 
BRANCH   2   3
ATOM      3  C   UNL     1     191.217  -5.614 108.006  1.00  0.00     0.000 C 
BRANCH   3   4
ATOM      4  C   UNL     1     192.338  -6.029 107.039  1.00  0.00     0.000 C 
BRANCH   4   5
ATOM      5  C   UNL     1     191.914  -7.168 106.098  1.00  0.00     0.000 C 
BRANCH   5   6
ATOM      6  C   UNL     1     191.724  -6.703 104.645  1.00  0.00     0.000 C 
BRANCH   6   7
ATOM      7  C   UNL     1     192.404  -5.349 104.410  1.00  0.00     0.000 C 
BRANCH   7   8
ATOM      8  C   UNL     1     191.404  -4.319 103.867  1.00  0.00     0.000 C 
BRANCH   8   9
ATOM      9  C   UNL     1     191.703  -2.890 104.350  1.00  0.00     0.000 C 
BRANCH   9  10
ATOM     10  C   UNL     1     193.079  -2.766 105.021  1.00  0.00     0.000 C 
BRANCH  10  11
ATOM     11  C   UNL     1     193.092  -1.617 106.041  1.00  0.00     0.000 C 
BRANCH  11  12
ATOM     12  C   UNL     1     191.984  -0.579 105.785  1.00  0.00     0.006 C 
BRANCH  12  13
ATOM     13  C   UNL     1     192.486   0.750 105.197  1.00  0.00     0.053 C 
BRANCH  13  14
ATOM     14  C   UNL     1     191.425   1.453 104.407  1.00  0.00     0.041 C 
ATOM     15  O   UNL     1     190.678   2.299 104.963  1.00  0.00    -0.550 OA
ATOM     16  O   UNL     1     191.247   1.153 103.062  1.00  0.00    -0.550 OA
ENDBRANCH  13  14
ENDBRANCH  12  13
ENDBRANCH  11  12
ENDBRANCH  10  11
ENDBRANCH   9  10
ENDBRANCH   8   9
ENDBRANCH   7   8
ENDBRANCH   6   7
ENDBRANCH   5   6
ENDBRANCH   4   5
ENDBRANCH   3   4
ENDBRANCH   2   3
ENDBRANCH   1   2
BRANCH   1  17
ATOM     17  C   UNL     1     188.508  -4.979 107.094  1.00  0.00     0.000 C 
BRANCH  17  18
ATOM     18  C   UNL     1     188.241  -5.639 105.726  1.00  0.00     0.000 C 
BRANCH  18  19
ATOM     19  C   UNL     1     188.245  -7.178 105.731  1.00  0.00     0.000 C 
BRANCH  19  20
ATOM     20  C   UNL     1     188.244  -7.782 104.316  1.00  0.00     0.000 C 
BRANCH  20  21
ATOM     21  C   UNL     1     188.403  -6.723 103.208  1.00  0.00     0.000 C 
BRANCH  21  22
ATOM     22  C   UNL     1     187.805  -7.099 101.839  1.00  0.00    -0.000 C 
BRANCH  22  23
ATOM     23  C   UNL     1     188.868  -7.263 100.739  1.00  0.00    -0.000 C 
BRANCH  23  24
ATOM     24  C   UNL     1     190.089  -6.355 100.959  1.00  0.00    -0.000 C 
BRANCH  24  25
ATOM     25  C   UNL     1     191.420  -7.119 100.903  1.00  0.00    -0.000 C 
BRANCH  25  26
ATOM     26  C   UNL     1     192.596  -6.152 100.699  1.00  0.00    -0.000 C 
BRANCH  26  27
ATOM     27  C   UNL     1     192.157  -4.775 100.169  1.00  0.00    -0.000 C 
BRANCH  27  28
ATOM     28  C   UNL     1     193.139  -4.109  99.184  1.00  0.00    -0.000 C 
BRANCH  28  29
ATOM     29  C   UNL     1     193.832  -2.842  99.713  1.00  0.00    -0.003 C 
ATOM     30  C   UNL     1     193.586  -2.606 101.203  1.00  0.00     0.004 C 
ENDBRANCH  28  29
ENDBRANCH  27  28
ENDBRANCH  26  27
ENDBRANCH  25  26
ENDBRANCH  24  25
ENDBRANCH  23  24
ENDBRANCH  22  23
ENDBRANCH  21  22
ENDBRANCH  20  21
ENDBRANCH  19  20
ENDBRANCH  18  19
ENDBRANCH  17  18
ENDBRANCH   1  17
TORSDOF 26
ENDMDL
