MODEL 1
REMARK VINA RESULT:    -5.202      0.000      0.000
REMARK INTER + INTRA:          -9.969
REMARK INTER:                  -7.940
REMARK INTRA:                  -2.029
REMARK UNBOUND:                -2.029
REMARK SMILES OC[C@H]1O[C@@H](O[C@]2(CO)O[C@H](CO)[C@H](O)[C@@H]2O)[C@H](O)[C@H](O)[C@H]1O
REMARK SMILES IDX 6 1 5 2 3 3 22 4 4 5 20 6 18 7 2 8 1 9 23 11 21 13 19 15
REMARK SMILES IDX 7 17 16 18 10 19 14 20 11 21 8 22 9 23 17 25 15 27 12 29
REMARK SMILES IDX 13 30
REMARK H PARENT 1 10 23 12 21 14 19 16 9 24 17 26 15 28 13 31
REMARK Flexibility Score: inf
ROOT
ATOM      1  O   UNL     1      33.983 -48.978   2.517  1.00  0.00    -0.313 OA
ENDROOT
BRANCH   1   2
ATOM      2  C   UNL     1      35.285 -49.408   2.890  1.00  0.00     0.285 C 
ATOM      3  C   UNL     1      36.527 -51.151   3.830  1.00  0.00     0.178 C 
ATOM      4  C   UNL     1      37.150 -50.252   4.922  1.00  0.00     0.177 C 
ATOM      5  O   UNL     1      35.230 -50.687   3.503  1.00  0.00    -0.341 OA
ATOM      6  C   UNL     1      37.230 -48.805   4.406  1.00  0.00     0.179 C 
ATOM      7  C   UNL     1      35.857 -48.361   3.870  1.00  0.00     0.202 C 
BRANCH   3   8
ATOM      8  C   UNL     1      36.427 -52.606   4.311  1.00  0.00     0.191 C 
BRANCH   8   9
ATOM      9  O   UNL     1      35.128 -52.895   4.762  1.00  0.00    -0.394 OA
ATOM     10  H   UNL     1      34.922 -52.255   5.497  1.00  0.00     0.210 HD
ENDBRANCH   8   9
ENDBRANCH   3   8
BRANCH   4  11
ATOM     11  O   UNL     1      36.349 -50.289   6.083  1.00  0.00    -0.387 OA
ATOM     12  H   UNL     1      36.820 -50.846   6.753  1.00  0.00     0.211 HD
ENDBRANCH   4  11
BRANCH   6  13
ATOM     13  O   UNL     1      38.193 -48.708   3.383  1.00  0.00    -0.387 OA
ATOM     14  H   UNL     1      38.335 -47.740   3.213  1.00  0.00     0.211 HD
ENDBRANCH   6  13
BRANCH   7  15
ATOM     15  O   UNL     1      35.996 -47.123   3.216  1.00  0.00    -0.385 OA
ATOM     16  H   UNL     1      35.244 -46.542   3.504  1.00  0.00     0.211 HD
ENDBRANCH   7  15
ENDBRANCH   1   2
BRANCH   1  17
ATOM     17  C   UNL     1      33.692 -48.993   1.115  1.00  0.00     0.224 C 
ATOM     18  C   UNL     1      33.253 -47.600   0.618  1.00  0.00     0.208 C 
ATOM     19  O   UNL     1      34.902 -49.294   0.450  1.00  0.00    -0.337 OA
ATOM     20  C   UNL     1      33.831 -47.525  -0.783  1.00  0.00     0.180 C 
ATOM     21  C   UNL     1      34.960 -48.568  -0.761  1.00  0.00     0.179 C 
BRANCH  17  22
ATOM     22  C   UNL     1      32.664 -50.088   0.708  1.00  0.00     0.225 C 
BRANCH  22  23
ATOM     23  O   UNL     1      32.543 -51.032   1.739  1.00  0.00    -0.391 OA
ATOM     24  H   UNL     1      32.931 -51.880   1.387  1.00  0.00     0.210 HD
ENDBRANCH  22  23
ENDBRANCH  17  22
BRANCH  18  25
ATOM     25  O   UNL     1      33.752 -46.572   1.447  1.00  0.00    -0.385 OA
ATOM     26  H   UNL     1      34.608 -46.874   1.839  1.00  0.00     0.211 HD
ENDBRANCH  18  25
BRANCH  20  27
ATOM     27  O   UNL     1      34.277 -46.229  -1.108  1.00  0.00    -0.387 OA
ATOM     28  H   UNL     1      35.002 -46.343  -1.777  1.00  0.00     0.211 HD
ENDBRANCH  20  27
BRANCH  21  29
ATOM     29  C   UNL     1      36.372 -47.971  -0.923  1.00  0.00     0.191 C 
BRANCH  29  30
ATOM     30  O   UNL     1      36.723 -47.217   0.207  1.00  0.00    -0.394 OA
ATOM     31  H   UNL     1      36.077 -46.467   0.260  1.00  0.00     0.210 HD
ENDBRANCH  29  30
ENDBRANCH  21  29
ENDBRANCH   1  17
TORSDOF 13
ENDMDL
MODEL 2
REMARK VINA RESULT:    -4.827      5.420      8.156
REMARK INTER + INTRA:          -9.395
REMARK INTER:                  -7.574
REMARK INTRA:                  -1.822
REMARK UNBOUND:                -2.029
REMARK SMILES OC[C@H]1O[C@@H](O[C@]2(CO)O[C@H](CO)[C@H](O)[C@@H]2O)[C@H](O)[C@H](O)[C@H]1O
REMARK SMILES IDX 6 1 5 2 3 3 22 4 4 5 20 6 18 7 2 8 1 9 23 11 21 13 19 15
REMARK SMILES IDX 7 17 16 18 10 19 14 20 11 21 8 22 9 23 17 25 15 27 12 29
REMARK SMILES IDX 13 30
REMARK H PARENT 1 10 23 12 21 14 19 16 9 24 17 26 15 28 13 31
REMARK Flexibility Score: inf
ROOT
ATOM      1  O   UNL     1      30.374 -45.084  -2.870  1.00  0.00    -0.313 OA
ENDROOT
BRANCH   1   2
ATOM      2  C   UNL     1      31.662 -45.650  -3.076  1.00  0.00     0.285 C 
ATOM      3  C   UNL     1      32.859 -47.646  -3.297  1.00  0.00     0.178 C 
ATOM      4  C   UNL     1      33.841 -47.299  -2.154  1.00  0.00     0.177 C 
ATOM      5  O   UNL     1      31.593 -47.068  -3.038  1.00  0.00    -0.341 OA
ATOM      6  C   UNL     1      33.979 -45.770  -2.048  1.00  0.00     0.179 C 
ATOM      7  C   UNL     1      32.586 -45.121  -1.959  1.00  0.00     0.202 C 
BRANCH   3   8
ATOM      8  C   UNL     1      32.692 -49.166  -3.431  1.00  0.00     0.191 C 
BRANCH   8   9
ATOM      9  O   UNL     1      31.449 -49.484  -4.004  1.00  0.00    -0.394 OA
ATOM     10  H   UNL     1      31.098 -48.653  -4.427  1.00  0.00     0.210 HD
ENDBRANCH   8   9
ENDBRANCH   3   8
BRANCH   4  11
ATOM     11  O   UNL     1      33.351 -47.808  -0.934  1.00  0.00    -0.387 OA
ATOM     12  H   UNL     1      32.681 -48.505  -1.148  1.00  0.00     0.211 HD
ENDBRANCH   4  11
BRANCH   6  13
ATOM     13  O   UNL     1      34.667 -45.266  -3.169  1.00  0.00    -0.387 OA
ATOM     14  H   UNL     1      34.268 -45.699  -3.969  1.00  0.00     0.211 HD
ENDBRANCH   6  13
BRANCH   7  15
ATOM     15  O   UNL     1      32.720 -43.726  -2.073  1.00  0.00    -0.385 OA
ATOM     16  H   UNL     1      32.493 -43.327  -1.192  1.00  0.00     0.211 HD
ENDBRANCH   7  15
ENDBRANCH   1   2
BRANCH   1  17
ATOM     17  C   UNL     1      29.804 -44.394  -3.988  1.00  0.00     0.224 C 
ATOM     18  C   UNL     1      29.413 -42.949  -3.615  1.00  0.00     0.208 C 
ATOM     19  O   UNL     1      30.816 -44.297  -4.969  1.00  0.00    -0.337 OA
ATOM     20  C   UNL     1      29.698 -42.166  -4.883  1.00  0.00     0.180 C 
ATOM     21  C   UNL     1      30.699 -43.057  -5.637  1.00  0.00     0.179 C 
BRANCH  17  22
ATOM     22  C   UNL     1      28.611 -45.151  -4.638  1.00  0.00     0.225 C 
BRANCH  22  23
ATOM     23  O   UNL     1      27.868 -45.810  -3.647  1.00  0.00    -0.391 OA
ATOM     24  H   UNL     1      28.146 -45.409  -2.778  1.00  0.00     0.210 HD
ENDBRANCH  22  23
ENDBRANCH  17  22
BRANCH  18  25
ATOM     25  O   UNL     1      30.172 -42.471  -2.524  1.00  0.00    -0.385 OA
ATOM     26  H   UNL     1      31.041 -42.149  -2.863  1.00  0.00     0.211 HD
ENDBRANCH  18  25
BRANCH  20  27
ATOM     27  O   UNL     1      30.196 -40.875  -4.614  1.00  0.00    -0.387 OA
ATOM     28  H   UNL     1      30.934 -40.992  -3.960  1.00  0.00     0.211 HD
ENDBRANCH  20  27
BRANCH  21  29
ATOM     29  C   UNL     1      32.100 -42.435  -5.797  1.00  0.00     0.191 C 
BRANCH  29  30
ATOM     30  O   UNL     1      32.737 -42.325  -4.552  1.00  0.00    -0.394 OA
ATOM     31  H   UNL     1      33.658 -42.003  -4.732  1.00  0.00     0.210 HD
ENDBRANCH  29  30
ENDBRANCH  21  29
ENDBRANCH   1  17
TORSDOF 13
ENDMDL
MODEL 3
REMARK VINA RESULT:    -4.786      4.723      7.626
REMARK INTER + INTRA:          -9.333
REMARK INTER:                  -7.755
REMARK INTRA:                  -1.578
REMARK UNBOUND:                -2.029
REMARK SMILES OC[C@H]1O[C@@H](O[C@]2(CO)O[C@H](CO)[C@H](O)[C@@H]2O)[C@H](O)[C@H](O)[C@H]1O
REMARK SMILES IDX 6 1 5 2 3 3 22 4 4 5 20 6 18 7 2 8 1 9 23 11 21 13 19 15
REMARK SMILES IDX 7 17 16 18 10 19 14 20 11 21 8 22 9 23 17 25 15 27 12 29
REMARK SMILES IDX 13 30
REMARK H PARENT 1 10 23 12 21 14 19 16 9 24 17 26 15 28 13 31
REMARK Flexibility Score: inf
ROOT
ATOM      1  O   UNL     1      31.369 -46.302  -2.594  1.00  0.00    -0.313 OA
ENDROOT
BRANCH   1   2
ATOM      2  C   UNL     1      32.768 -46.534  -2.504  1.00  0.00     0.285 C 
ATOM      3  C   UNL     1      34.562 -47.758  -3.370  1.00  0.00     0.178 C 
ATOM      4  C   UNL     1      34.974 -48.321  -1.990  1.00  0.00     0.177 C 
ATOM      5  O   UNL     1      33.162 -47.554  -3.410  1.00  0.00    -0.341 OA
ATOM      6  C   UNL     1      34.562 -47.326  -0.892  1.00  0.00     0.179 C 
ATOM      7  C   UNL     1      33.077 -46.953  -1.051  1.00  0.00     0.202 C 
BRANCH   3   8
ATOM      8  C   UNL     1      34.955 -48.727  -4.495  1.00  0.00     0.191 C 
BRANCH   8   9
ATOM      9  O   UNL     1      33.930 -49.659  -4.733  1.00  0.00    -0.394 OA
ATOM     10  H   UNL     1      34.275 -50.552  -4.459  1.00  0.00     0.210 HD
ENDBRANCH   8   9
ENDBRANCH   3   8
BRANCH   4  11
ATOM     11  O   UNL     1      34.330 -49.555  -1.767  1.00  0.00    -0.387 OA
ATOM     12  H   UNL     1      34.504 -50.130  -2.555  1.00  0.00     0.211 HD
ENDBRANCH   4  11
BRANCH   6  13
ATOM     13  O   UNL     1      35.354 -46.164  -0.966  1.00  0.00    -0.387 OA
ATOM     14  H   UNL     1      35.822 -46.191  -1.842  1.00  0.00     0.211 HD
ENDBRANCH   6  13
BRANCH   7  15
ATOM     15  O   UNL     1      32.772 -45.894  -0.176  1.00  0.00    -0.385 OA
ATOM     16  H   UNL     1      31.883 -45.534  -0.434  1.00  0.00     0.211 HD
ENDBRANCH   7  15
ENDBRANCH   1   2
BRANCH   1  17
ATOM     17  C   UNL     1      30.975 -45.044  -3.154  1.00  0.00     0.224 C 
ATOM     18  C   UNL     1      30.601 -45.187  -4.644  1.00  0.00     0.208 C 
ATOM     19  O   UNL     1      29.799 -44.646  -2.480  1.00  0.00    -0.337 OA
ATOM     20  C   UNL     1      29.468 -44.193  -4.822  1.00  0.00     0.180 C 
ATOM     21  C   UNL     1      28.938 -43.994  -3.393  1.00  0.00     0.179 C 
BRANCH  17  22
ATOM     22  C   UNL     1      32.025 -43.916  -2.941  1.00  0.00     0.225 C 
BRANCH  22  23
ATOM     23  O   UNL     1      31.897 -43.384  -1.650  1.00  0.00    -0.391 OA
ATOM     24  H   UNL     1      32.431 -42.543  -1.640  1.00  0.00     0.210 HD
ENDBRANCH  22  23
ENDBRANCH  17  22
BRANCH  18  25
ATOM     25  O   UNL     1      30.197 -46.504  -4.953  1.00  0.00    -0.385 OA
ATOM     26  H   UNL     1      29.209 -46.541  -4.935  1.00  0.00     0.211 HD
ENDBRANCH  18  25
BRANCH  20  27
ATOM     27  O   UNL     1      28.487 -44.658  -5.720  1.00  0.00    -0.387 OA
ATOM     28  H   UNL     1      28.975 -45.095  -6.466  1.00  0.00     0.211 HD
ENDBRANCH  20  27
BRANCH  21  29
ATOM     29  C   UNL     1      27.499 -44.502  -3.179  1.00  0.00     0.191 C 
BRANCH  29  30
ATOM     30  O   UNL     1      27.454 -45.903  -3.238  1.00  0.00    -0.394 OA
ATOM     31  H   UNL     1      26.878 -46.136  -4.011  1.00  0.00     0.210 HD
ENDBRANCH  29  30
ENDBRANCH  21  29
ENDBRANCH   1  17
TORSDOF 13
ENDMDL
MODEL 4
REMARK VINA RESULT:    -4.729      6.125      9.538
REMARK INTER + INTRA:          -9.247
REMARK INTER:                  -7.423
REMARK INTRA:                  -1.823
REMARK UNBOUND:                -2.029
REMARK SMILES OC[C@H]1O[C@@H](O[C@]2(CO)O[C@H](CO)[C@H](O)[C@@H]2O)[C@H](O)[C@H](O)[C@H]1O
REMARK SMILES IDX 6 1 5 2 3 3 22 4 4 5 20 6 18 7 2 8 1 9 23 11 21 13 19 15
REMARK SMILES IDX 7 17 16 18 10 19 14 20 11 21 8 22 9 23 17 25 15 27 12 29
REMARK SMILES IDX 13 30
REMARK H PARENT 1 10 23 12 21 14 19 16 9 24 17 26 15 28 13 31
REMARK Flexibility Score: inf
ROOT
ATOM      1  O   UNL     1      32.024 -45.572  -4.267  1.00  0.00    -0.313 OA
ENDROOT
BRANCH   1   2
ATOM      2  C   UNL     1      30.900 -44.750  -3.980  1.00  0.00     0.285 C 
ATOM      3  C   UNL     1      28.568 -44.608  -4.050  1.00  0.00     0.178 C 
ATOM      4  C   UNL     1      28.572 -43.302  -4.877  1.00  0.00     0.177 C 
ATOM      5  O   UNL     1      29.699 -45.393  -4.379  1.00  0.00    -0.341 OA
ATOM      6  C   UNL     1      29.858 -42.514  -4.576  1.00  0.00     0.179 C 
ATOM      7  C   UNL     1      31.087 -43.425  -4.749  1.00  0.00     0.202 C 
BRANCH   3   8
ATOM      8  C   UNL     1      27.299 -45.427  -4.327  1.00  0.00     0.191 C 
BRANCH   8   9
ATOM      9  O   UNL     1      26.918 -46.160  -3.190  1.00  0.00    -0.394 OA
ATOM     10  H   UNL     1      25.941 -46.338  -3.267  1.00  0.00     0.210 HD
ENDBRANCH   8   9
ENDBRANCH   3   8
BRANCH   4  11
ATOM     11  O   UNL     1      28.526 -43.609  -6.253  1.00  0.00    -0.387 OA
ATOM     12  H   UNL     1      27.826 -44.299  -6.381  1.00  0.00     0.211 HD
ENDBRANCH   4  11
BRANCH   6  13
ATOM     13  O   UNL     1      29.822 -42.010  -3.261  1.00  0.00    -0.387 OA
ATOM     14  H   UNL     1      30.441 -42.569  -2.722  1.00  0.00     0.211 HD
ENDBRANCH   6  13
BRANCH   7  15
ATOM     15  O   UNL     1      32.228 -42.754  -4.271  1.00  0.00    -0.385 OA
ATOM     16  H   UNL     1      33.024 -43.292  -4.525  1.00  0.00     0.211 HD
ENDBRANCH   7  15
ENDBRANCH   1   2
BRANCH   1  17
ATOM     17  C   UNL     1      32.663 -46.180  -3.138  1.00  0.00     0.224 C 
ATOM     18  C   UNL     1      34.147 -45.770  -3.046  1.00  0.00     0.208 C 
ATOM     19  O   UNL     1      32.030 -45.666  -1.984  1.00  0.00    -0.337 OA
ATOM     20  C   UNL     1      34.399 -45.685  -1.552  1.00  0.00     0.180 C 
ATOM     21  C   UNL     1      32.992 -45.503  -0.960  1.00  0.00     0.179 C 
BRANCH  17  22
ATOM     22  C   UNL     1      32.501 -47.727  -3.095  1.00  0.00     0.225 C 
BRANCH  22  23
ATOM     23  O   UNL     1      31.399 -48.111  -3.873  1.00  0.00    -0.391 OA
ATOM     24  H   UNL     1      30.769 -47.338  -3.866  1.00  0.00     0.210 HD
ENDBRANCH  22  23
ENDBRANCH  17  22
BRANCH  18  25
ATOM     25  O   UNL     1      34.385 -44.535  -3.688  1.00  0.00    -0.385 OA
ATOM     26  H   UNL     1      34.106 -43.807  -3.081  1.00  0.00     0.211 HD
ENDBRANCH  18  25
BRANCH  20  27
ATOM     27  O   UNL     1      35.282 -44.639  -1.217  1.00  0.00    -0.387 OA
ATOM     28  H   UNL     1      35.869 -44.507  -2.007  1.00  0.00     0.211 HD
ENDBRANCH  20  27
BRANCH  21  29
ATOM     29  C   UNL     1      32.769 -44.142  -0.272  1.00  0.00     0.191 C 
BRANCH  29  30
ATOM     30  O   UNL     1      32.785 -43.103  -1.213  1.00  0.00    -0.394 OA
ATOM     31  H   UNL     1      32.150 -43.360  -1.930  1.00  0.00     0.210 HD
ENDBRANCH  29  30
ENDBRANCH  21  29
ENDBRANCH   1  17
TORSDOF 13
ENDMDL
MODEL 5
REMARK VINA RESULT:    -4.671      2.859      6.600
REMARK INTER + INTRA:          -9.157
REMARK INTER:                  -7.082
REMARK INTRA:                  -2.075
REMARK UNBOUND:                -2.029
REMARK SMILES OC[C@H]1O[C@@H](O[C@]2(CO)O[C@H](CO)[C@H](O)[C@@H]2O)[C@H](O)[C@H](O)[C@H]1O
REMARK SMILES IDX 6 1 5 2 3 3 22 4 4 5 20 6 18 7 2 8 1 9 23 11 21 13 19 15
REMARK SMILES IDX 7 17 16 18 10 19 14 20 11 21 8 22 9 23 17 25 15 27 12 29
REMARK SMILES IDX 13 30
REMARK H PARENT 1 10 23 12 21 14 19 16 9 24 17 26 15 28 13 31
REMARK Flexibility Score: inf
ROOT
ATOM      1  O   UNL     1      33.050 -47.168   0.434  1.00  0.00    -0.313 OA
ENDROOT
BRANCH   1   2
ATOM      2  C   UNL     1      33.465 -47.237  -0.924  1.00  0.00     0.285 C 
ATOM      3  C   UNL     1      33.019 -46.505  -3.099  1.00  0.00     0.178 C 
ATOM      4  C   UNL     1      32.921 -47.939  -3.668  1.00  0.00     0.177 C 
ATOM      5  O   UNL     1      32.586 -46.489  -1.752  1.00  0.00    -0.341 OA
ATOM      6  C   UNL     1      33.800 -48.881  -2.828  1.00  0.00     0.179 C 
ATOM      7  C   UNL     1      33.462 -48.725  -1.334  1.00  0.00     0.202 C 
BRANCH   3   8
ATOM      8  C   UNL     1      32.150 -45.533  -3.911  1.00  0.00     0.191 C 
BRANCH   8   9
ATOM      9  O   UNL     1      32.015 -45.972  -5.239  1.00  0.00    -0.394 OA
ATOM     10  H   UNL     1      32.930 -46.005  -5.632  1.00  0.00     0.210 HD
ENDBRANCH   8   9
ENDBRANCH   3   8
BRANCH   4  11
ATOM     11  O   UNL     1      31.583 -48.381  -3.617  1.00  0.00    -0.387 OA
ATOM     12  H   UNL     1      31.073 -47.729  -3.072  1.00  0.00     0.211 HD
ENDBRANCH   4  11
BRANCH   6  13
ATOM     13  O   UNL     1      35.162 -48.590  -3.040  1.00  0.00    -0.387 OA
ATOM     14  H   UNL     1      35.200 -47.874  -3.726  1.00  0.00     0.211 HD
ENDBRANCH   6  13
BRANCH   7  15
ATOM     15  O   UNL     1      34.409 -49.431  -0.572  1.00  0.00    -0.385 OA
ATOM     16  H   UNL     1      34.035 -50.332  -0.382  1.00  0.00     0.211 HD
ENDBRANCH   7  15
ENDBRANCH   1   2
BRANCH   1  17
ATOM     17  C   UNL     1      33.878 -46.388   1.305  1.00  0.00     0.224 C 
ATOM     18  C   UNL     1      34.376 -47.225   2.502  1.00  0.00     0.208 C 
ATOM     19  O   UNL     1      35.024 -46.024   0.564  1.00  0.00    -0.337 OA
ATOM     20  C   UNL     1      35.772 -46.686   2.756  1.00  0.00     0.180 C 
ATOM     21  C   UNL     1      36.152 -46.032   1.417  1.00  0.00     0.179 C 
BRANCH  17  22
ATOM     22  C   UNL     1      33.205 -45.068   1.781  1.00  0.00     0.225 C 
BRANCH  22  23
ATOM     23  O   UNL     1      32.135 -44.748   0.931  1.00  0.00    -0.391 OA
ATOM     24  H   UNL     1      31.895 -43.801   1.131  1.00  0.00     0.210 HD
ENDBRANCH  22  23
ENDBRANCH  17  22
BRANCH  18  25
ATOM     25  O   UNL     1      34.394 -48.604   2.199  1.00  0.00    -0.385 OA
ATOM     26  H   UNL     1      34.761 -48.720   1.289  1.00  0.00     0.211 HD
ENDBRANCH  18  25
BRANCH  20  27
ATOM     27  O   UNL     1      36.669 -47.695   3.156  1.00  0.00    -0.387 OA
ATOM     28  H   UNL     1      37.564 -47.420   2.824  1.00  0.00     0.211 HD
ENDBRANCH  20  27
BRANCH  21  29
ATOM     29  C   UNL     1      37.327 -46.716   0.693  1.00  0.00     0.191 C 
BRANCH  29  30
ATOM     30  O   UNL     1      36.965 -48.004   0.270  1.00  0.00    -0.394 OA
ATOM     31  H   UNL     1      36.819 -47.951  -0.710  1.00  0.00     0.210 HD
ENDBRANCH  29  30
ENDBRANCH  21  29
ENDBRANCH   1  17
TORSDOF 13
ENDMDL
MODEL 6
REMARK VINA RESULT:    -4.659      5.950      9.708
REMARK INTER + INTRA:          -9.139
REMARK INTER:                  -7.692
REMARK INTRA:                  -1.448
REMARK UNBOUND:                -2.029
REMARK SMILES OC[C@H]1O[C@@H](O[C@]2(CO)O[C@H](CO)[C@H](O)[C@@H]2O)[C@H](O)[C@H](O)[C@H]1O
REMARK SMILES IDX 6 1 5 2 3 3 22 4 4 5 20 6 18 7 2 8 1 9 23 11 21 13 19 15
REMARK SMILES IDX 7 17 16 18 10 19 14 20 11 21 8 22 9 23 17 25 15 27 12 29
REMARK SMILES IDX 13 30
REMARK H PARENT 1 10 23 12 21 14 19 16 9 24 17 26 15 28 13 31
REMARK Flexibility Score: inf
ROOT
ATOM      1  O   UNL     1      32.179 -45.329  -4.402  1.00  0.00    -0.313 OA
ENDROOT
BRANCH   1   2
ATOM      2  C   UNL     1      31.034 -44.524  -4.155  1.00  0.00     0.285 C 
ATOM      3  C   UNL     1      28.697 -44.459  -4.198  1.00  0.00     0.178 C 
ATOM      4  C   UNL     1      28.649 -43.214  -5.113  1.00  0.00     0.177 C 
ATOM      5  O   UNL     1      29.848 -45.230  -4.491  1.00  0.00    -0.341 OA
ATOM      6  C   UNL     1      29.914 -42.367  -4.886  1.00  0.00     0.179 C 
ATOM      7  C   UNL     1      31.168 -43.250  -5.015  1.00  0.00     0.202 C 
BRANCH   3   8
ATOM      8  C   UNL     1      27.451 -45.334  -4.399  1.00  0.00     0.191 C 
BRANCH   8   9
ATOM      9  O   UNL     1      27.117 -46.009  -3.212  1.00  0.00    -0.394 OA
ATOM     10  H   UNL     1      27.960 -46.385  -2.840  1.00  0.00     0.210 HD
ENDBRANCH   8   9
ENDBRANCH   3   8
BRANCH   4  11
ATOM     11  O   UNL     1      28.594 -43.616  -6.463  1.00  0.00    -0.387 OA
ATOM     12  H   UNL     1      28.806 -44.584  -6.496  1.00  0.00     0.211 HD
ENDBRANCH   4  11
BRANCH   6  13
ATOM     13  O   UNL     1      29.878 -41.775  -3.608  1.00  0.00    -0.387 OA
ATOM     14  H   UNL     1      30.113 -40.818  -3.729  1.00  0.00     0.211 HD
ENDBRANCH   6  13
BRANCH   7  15
ATOM     15  O   UNL     1      32.293 -42.513  -4.603  1.00  0.00    -0.385 OA
ATOM     16  H   UNL     1      32.058 -42.050  -3.755  1.00  0.00     0.211 HD
ENDBRANCH   7  15
ENDBRANCH   1   2
BRANCH   1  17
ATOM     17  C   UNL     1      32.817 -45.887  -3.247  1.00  0.00     0.224 C 
ATOM     18  C   UNL     1      32.109 -47.178  -2.786  1.00  0.00     0.208 C 
ATOM     19  O   UNL     1      34.121 -46.262  -3.641  1.00  0.00    -0.337 OA
ATOM     20  C   UNL     1      33.246 -48.044  -2.277  1.00  0.00     0.180 C 
ATOM     21  C   UNL     1      34.484 -47.453  -2.971  1.00  0.00     0.179 C 
BRANCH  17  22
ATOM     22  C   UNL     1      32.968 -44.876  -2.074  1.00  0.00     0.225 C 
BRANCH  22  23
ATOM     23  O   UNL     1      33.892 -43.880  -2.422  1.00  0.00    -0.391 OA
ATOM     24  H   UNL     1      34.021 -43.322  -1.606  1.00  0.00     0.210 HD
ENDBRANCH  22  23
ENDBRANCH  17  22
BRANCH  18  25
ATOM     25  O   UNL     1      31.414 -47.797  -3.847  1.00  0.00    -0.385 OA
ATOM     26  H   UNL     1      30.496 -48.003  -3.544  1.00  0.00     0.211 HD
ENDBRANCH  18  25
BRANCH  20  27
ATOM     27  O   UNL     1      33.047 -49.409  -2.563  1.00  0.00    -0.387 OA
ATOM     28  H   UNL     1      33.902 -49.867  -2.347  1.00  0.00     0.211 HD
ENDBRANCH  20  27
BRANCH  21  29
ATOM     29  C   UNL     1      35.161 -48.408  -3.973  1.00  0.00     0.191 C 
BRANCH  29  30
ATOM     30  O   UNL     1      34.279 -48.743  -5.010  1.00  0.00    -0.394 OA
ATOM     31  H   UNL     1      34.174 -47.930  -5.568  1.00  0.00     0.210 HD
ENDBRANCH  29  30
ENDBRANCH  21  29
ENDBRANCH   1  17
TORSDOF 13
ENDMDL
MODEL 7
REMARK VINA RESULT:    -4.653      5.626      9.264
REMARK INTER + INTRA:          -9.131
REMARK INTER:                  -7.145
REMARK INTRA:                  -1.986
REMARK UNBOUND:                -2.029
REMARK SMILES OC[C@H]1O[C@@H](O[C@]2(CO)O[C@H](CO)[C@H](O)[C@@H]2O)[C@H](O)[C@H](O)[C@H]1O
REMARK SMILES IDX 6 1 5 2 3 3 22 4 4 5 20 6 18 7 2 8 1 9 23 11 21 13 19 15
REMARK SMILES IDX 7 17 16 18 10 19 14 20 11 21 8 22 9 23 17 25 15 27 12 29
REMARK SMILES IDX 13 30
REMARK H PARENT 1 10 23 12 21 14 19 16 9 24 17 26 15 28 13 31
REMARK Flexibility Score: inf
ROOT
ATOM      1  O   UNL     1      31.271 -46.211  -2.379  1.00  0.00    -0.313 OA
ENDROOT
BRANCH   1   2
ATOM      2  C   UNL     1      30.846 -45.025  -3.038  1.00  0.00     0.285 C 
ATOM      3  C   UNL     1      29.777 -42.964  -2.764  1.00  0.00     0.178 C 
ATOM      4  C   UNL     1      28.727 -43.250  -3.862  1.00  0.00     0.177 C 
ATOM      5  O   UNL     1      30.158 -44.173  -2.134  1.00  0.00    -0.341 OA
ATOM      6  C   UNL     1      29.328 -44.212  -4.902  1.00  0.00     0.179 C 
ATOM      7  C   UNL     1      29.918 -45.446  -4.198  1.00  0.00     0.202 C 
BRANCH   3   8
ATOM      8  C   UNL     1      29.212 -42.009  -1.703  1.00  0.00     0.191 C 
BRANCH   8   9
ATOM      9  O   UNL     1      28.572 -42.723  -0.676  1.00  0.00    -0.394 OA
ATOM     10  H   UNL     1      29.240 -43.355  -0.295  1.00  0.00     0.210 HD
ENDBRANCH   8   9
ENDBRANCH   3   8
BRANCH   4  11
ATOM     11  O   UNL     1      27.584 -43.841  -3.286  1.00  0.00    -0.387 OA
ATOM     12  H   UNL     1      26.814 -43.245  -3.469  1.00  0.00     0.211 HD
ENDBRANCH   4  11
BRANCH   6  13
ATOM     13  O   UNL     1      30.334 -43.560  -5.642  1.00  0.00    -0.387 OA
ATOM     14  H   UNL     1      29.969 -43.410  -6.553  1.00  0.00     0.211 HD
ENDBRANCH   6  13
BRANCH   7  15
ATOM     15  O   UNL     1      30.641 -46.208  -5.133  1.00  0.00    -0.385 OA
ATOM     16  H   UNL     1      31.157 -45.578  -5.703  1.00  0.00     0.211 HD
ENDBRANCH   7  15
ENDBRANCH   1   2
BRANCH   1  17
ATOM     17  C   UNL     1      32.672 -46.502  -2.450  1.00  0.00     0.224 C 
ATOM     18  C   UNL     1      32.921 -47.929  -2.981  1.00  0.00     0.208 C 
ATOM     19  O   UNL     1      33.226 -45.616  -3.402  1.00  0.00    -0.337 OA
ATOM     20  C   UNL     1      34.192 -47.787  -3.798  1.00  0.00     0.180 C 
ATOM     21  C   UNL     1      34.243 -46.284  -4.121  1.00  0.00     0.179 C 
BRANCH  17  22
ATOM     22  C   UNL     1      33.423 -46.258  -1.110  1.00  0.00     0.225 C 
BRANCH  22  23
ATOM     23  O   UNL     1      32.497 -46.096  -0.069  1.00  0.00    -0.391 OA
ATOM     24  H   UNL     1      32.809 -46.680   0.676  1.00  0.00     0.210 HD
ENDBRANCH  22  23
ENDBRANCH  17  22
BRANCH  18  25
ATOM     25  O   UNL     1      31.842 -48.387  -3.767  1.00  0.00    -0.385 OA
ATOM     26  H   UNL     1      32.127 -49.202  -4.247  1.00  0.00     0.211 HD
ENDBRANCH  18  25
BRANCH  20  27
ATOM     27  O   UNL     1      34.182 -48.602  -4.947  1.00  0.00    -0.387 OA
ATOM     28  H   UNL     1      33.374 -49.175  -4.876  1.00  0.00     0.211 HD
ENDBRANCH  20  27
BRANCH  21  29
ATOM     29  C   UNL     1      34.098 -45.957  -5.620  1.00  0.00     0.191 C 
BRANCH  29  30
ATOM     30  O   UNL     1      33.064 -45.031  -5.827  1.00  0.00    -0.394 OA
ATOM     31  H   UNL     1      32.586 -44.942  -4.963  1.00  0.00     0.210 HD
ENDBRANCH  29  30
ENDBRANCH  21  29
ENDBRANCH   1  17
TORSDOF 13
ENDMDL
MODEL 8
REMARK VINA RESULT:    -4.591      5.158      8.407
REMARK INTER + INTRA:          -9.036
REMARK INTER:                  -7.047
REMARK INTRA:                  -1.988
REMARK UNBOUND:                -2.029
REMARK SMILES OC[C@H]1O[C@@H](O[C@]2(CO)O[C@H](CO)[C@H](O)[C@@H]2O)[C@H](O)[C@H](O)[C@H]1O
REMARK SMILES IDX 6 1 5 2 3 3 22 4 4 5 20 6 18 7 2 8 1 9 23 11 21 13 19 15
REMARK SMILES IDX 7 17 16 18 10 19 14 20 11 21 8 22 9 23 17 25 15 27 12 29
REMARK SMILES IDX 13 30
REMARK H PARENT 1 10 23 12 21 14 19 16 9 24 17 26 15 28 13 31
REMARK Flexibility Score: inf
ROOT
ATOM      1  O   UNL     1      31.445 -43.922  -2.762  1.00  0.00    -0.313 OA
ENDROOT
BRANCH   1   2
ATOM      2  C   UNL     1      31.696 -45.310  -2.588  1.00  0.00     0.285 C 
ATOM      3  C   UNL     1      32.788 -46.906  -1.274  1.00  0.00     0.178 C 
ATOM      4  C   UNL     1      33.552 -47.516  -2.472  1.00  0.00     0.177 C 
ATOM      5  O   UNL     1      32.573 -45.524  -1.491  1.00  0.00    -0.341 OA
ATOM      6  C   UNL     1      32.728 -47.314  -3.756  1.00  0.00     0.179 C 
ATOM      7  C   UNL     1      32.327 -45.834  -3.896  1.00  0.00     0.202 C 
BRANCH   3   8
ATOM      8  C   UNL     1      33.582 -47.085   0.029  1.00  0.00     0.191 C 
BRANCH   8   9
ATOM      9  O   UNL     1      34.380 -48.240  -0.026  1.00  0.00    -0.394 OA
ATOM     10  H   UNL     1      34.693 -48.427   0.900  1.00  0.00     0.210 HD
ENDBRANCH   8   9
ENDBRANCH   3   8
BRANCH   4  11
ATOM     11  O   UNL     1      34.802 -46.879  -2.615  1.00  0.00    -0.387 OA
ATOM     12  H   UNL     1      34.630 -45.935  -2.862  1.00  0.00     0.211 HD
ENDBRANCH   4  11
BRANCH   6  13
ATOM     13  O   UNL     1      31.573 -48.118  -3.723  1.00  0.00    -0.387 OA
ATOM     14  H   UNL     1      31.032 -47.813  -2.949  1.00  0.00     0.211 HD
ENDBRANCH   6  13
BRANCH   7  15
ATOM     15  O   UNL     1      31.408 -45.705  -4.953  1.00  0.00    -0.385 OA
ATOM     16  H   UNL     1      31.565 -46.456  -5.584  1.00  0.00     0.211 HD
ENDBRANCH   7  15
ENDBRANCH   1   2
BRANCH   1  17
ATOM     17  C   UNL     1      30.089 -43.501  -2.577  1.00  0.00     0.224 C 
ATOM     18  C   UNL     1      29.653 -42.516  -3.682  1.00  0.00     0.208 C 
ATOM     19  O   UNL     1      29.280 -44.650  -2.721  1.00  0.00    -0.337 OA
ATOM     20  C   UNL     1      28.191 -42.859  -3.906  1.00  0.00     0.180 C 
ATOM     21  C   UNL     1      28.072 -44.292  -3.363  1.00  0.00     0.179 C 
BRANCH  17  22
ATOM     22  C   UNL     1      29.809 -42.921  -1.161  1.00  0.00     0.225 C 
BRANCH  22  23
ATOM     23  O   UNL     1      30.701 -43.479  -0.234  1.00  0.00    -0.391 OA
ATOM     24  H   UNL     1      30.235 -44.265   0.164  1.00  0.00     0.210 HD
ENDBRANCH  22  23
ENDBRANCH  17  22
BRANCH  18  25
ATOM     25  O   UNL     1      30.416 -42.683  -4.857  1.00  0.00    -0.385 OA
ATOM     26  H   UNL     1      31.025 -43.451  -4.730  1.00  0.00     0.211 HD
ENDBRANCH  18  25
BRANCH  20  27
ATOM     27  O   UNL     1      27.817 -42.745  -5.259  1.00  0.00    -0.387 OA
ATOM     28  H   UNL     1      26.841 -42.564  -5.265  1.00  0.00     0.211 HD
ENDBRANCH  20  27
BRANCH  21  29
ATOM     29  C   UNL     1      27.740 -45.347  -4.436  1.00  0.00     0.191 C 
BRANCH  29  30
ATOM     30  O   UNL     1      28.752 -45.401  -5.406  1.00  0.00    -0.394 OA
ATOM     31  H   UNL     1      28.953 -46.361  -5.554  1.00  0.00     0.210 HD
ENDBRANCH  29  30
ENDBRANCH  21  29
ENDBRANCH   1  17
TORSDOF 13
ENDMDL
MODEL 9
REMARK VINA RESULT:    -4.587      8.449     10.915
REMARK INTER + INTRA:          -9.030
REMARK INTER:                  -6.981
REMARK INTRA:                  -2.049
REMARK UNBOUND:                -2.029
REMARK SMILES OC[C@H]1O[C@@H](O[C@]2(CO)O[C@H](CO)[C@H](O)[C@@H]2O)[C@H](O)[C@H](O)[C@H]1O
REMARK SMILES IDX 6 1 5 2 3 3 22 4 4 5 20 6 18 7 2 8 1 9 23 11 21 13 19 15
REMARK SMILES IDX 7 17 16 18 10 19 14 20 11 21 8 22 9 23 17 25 15 27 12 29
REMARK SMILES IDX 13 30
REMARK H PARENT 1 10 23 12 21 14 19 16 9 24 17 26 15 28 13 31
REMARK Flexibility Score: inf
ROOT
ATOM      1  O   UNL     1      29.366 -43.504  -4.533  1.00  0.00    -0.313 OA
ENDROOT
BRANCH   1   2
ATOM      2  C   UNL     1      30.718 -43.110  -4.336  1.00  0.00     0.285 C 
ATOM      3  C   UNL     1      32.574 -42.087  -5.323  1.00  0.00     0.178 C 
ATOM      4  C   UNL     1      33.503 -43.295  -5.062  1.00  0.00     0.177 C 
ATOM      5  O   UNL     1      31.246 -42.533  -5.522  1.00  0.00    -0.341 OA
ATOM      6  C   UNL     1      33.016 -44.051  -3.814  1.00  0.00     0.179 C 
ATOM      7  C   UNL     1      31.516 -44.371  -3.945  1.00  0.00     0.202 C 
BRANCH   3   8
ATOM      8  C   UNL     1      33.026 -41.307  -6.565  1.00  0.00     0.191 C 
BRANCH   8   9
ATOM      9  O   UNL     1      34.352 -41.628  -6.903  1.00  0.00    -0.394 OA
ATOM     10  H   UNL     1      34.401 -42.618  -6.997  1.00  0.00     0.210 HD
ENDBRANCH   8   9
ENDBRANCH   3   8
BRANCH   4  11
ATOM     11  O   UNL     1      33.478 -44.163  -6.173  1.00  0.00    -0.387 OA
ATOM     12  H   UNL     1      32.638 -44.685  -6.125  1.00  0.00     0.211 HD
ENDBRANCH   4  11
BRANCH   6  13
ATOM     13  O   UNL     1      33.237 -43.275  -2.659  1.00  0.00    -0.387 OA
ATOM     14  H   UNL     1      32.453 -42.674  -2.562  1.00  0.00     0.211 HD
ENDBRANCH   6  13
BRANCH   7  15
ATOM     15  O   UNL     1      31.044 -44.872  -2.718  1.00  0.00    -0.385 OA
ATOM     16  H   UNL     1      31.386 -44.280  -1.997  1.00  0.00     0.211 HD
ENDBRANCH   7  15
ENDBRANCH   1   2
BRANCH   1  17
ATOM     17  C   UNL     1      28.387 -42.799  -3.761  1.00  0.00     0.224 C 
ATOM     18  C   UNL     1      27.472 -43.774  -2.992  1.00  0.00     0.208 C 
ATOM     19  O   UNL     1      29.091 -42.055  -2.788  1.00  0.00    -0.337 OA
ATOM     20  C   UNL     1      27.188 -43.044  -1.692  1.00  0.00     0.180 C 
ATOM     21  C   UNL     1      28.345 -42.037  -1.587  1.00  0.00     0.179 C 
BRANCH  17  22
ATOM     22  C   UNL     1      27.554 -41.784  -4.596  1.00  0.00     0.225 C 
BRANCH  22  23
ATOM     23  O   UNL     1      28.387 -41.127  -5.514  1.00  0.00    -0.391 OA
ATOM     24  H   UNL     1      27.945 -41.213  -6.403  1.00  0.00     0.210 HD
ENDBRANCH  22  23
ENDBRANCH  17  22
BRANCH  18  25
ATOM     25  O   UNL     1      28.108 -45.015  -2.767  1.00  0.00    -0.385 OA
ATOM     26  H   UNL     1      27.824 -45.645  -3.473  1.00  0.00     0.211 HD
ENDBRANCH  18  25
BRANCH  20  27
ATOM     27  O   UNL     1      27.112 -43.921  -0.592  1.00  0.00    -0.387 OA
ATOM     28  H   UNL     1      26.149 -43.997  -0.361  1.00  0.00     0.211 HD
ENDBRANCH  20  27
BRANCH  21  29
ATOM     29  C   UNL     1      29.294 -42.291  -0.400  1.00  0.00     0.191 C 
BRANCH  29  30
ATOM     30  O   UNL     1      29.932 -43.533  -0.533  1.00  0.00    -0.394 OA
ATOM     31  H   UNL     1      29.713 -44.053   0.282  1.00  0.00     0.210 HD
ENDBRANCH  29  30
ENDBRANCH  21  29
ENDBRANCH   1  17
TORSDOF 13
ENDMDL
