MODEL 1
REMARK VINA RESULT:    -3.248      0.000      0.000
REMARK INTER + INTRA:          -8.093
REMARK INTER:                  -5.906
REMARK INTRA:                  -2.187
REMARK UNBOUND:                -2.187
REMARK SMILES CCCCCCCCCCCCCCCC(=O)[O-]
REMARK SMILES IDX 9 1 10 2 11 3 12 4 13 5 14 6 15 7 16 8 17 9 18 10 8 11 7 12
REMARK SMILES IDX 6 13 5 14 4 15 3 16 2 17 1 18
REMARK H PARENT
REMARK Flexibility Score: inf
ROOT
ATOM      1  C   UNL     1      61.680  31.154  58.267  1.00  0.00     0.000 C 
ENDROOT
BRANCH   1   2
ATOM      2  C   UNL     1      60.770  31.027  59.504  1.00  0.00     0.000 C 
BRANCH   2   3
ATOM      3  C   UNL     1      61.442  31.462  60.823  1.00  0.00     0.000 C 
BRANCH   3   4
ATOM      4  C   UNL     1      61.392  30.386  61.925  1.00  0.00     0.000 C 
BRANCH   4   5
ATOM      5  C   UNL     1      62.495  29.326  61.755  1.00  0.00     0.000 C 
BRANCH   5   6
ATOM      6  C   UNL     1      63.864  29.942  61.427  1.00  0.00     0.006 C 
BRANCH   6   7
ATOM      7  C   UNL     1      64.424  29.465  60.081  1.00  0.00     0.053 C 
BRANCH   7   8
ATOM      8  C   UNL     1      65.892  29.196  60.190  1.00  0.00     0.041 C 
ATOM      9  O   UNL     1      66.690  29.670  59.339  1.00  0.00    -0.550 OA
ATOM     10  O   UNL     1      66.381  28.428  61.239  1.00  0.00    -0.550 OA
ENDBRANCH   7   8
ENDBRANCH   6   7
ENDBRANCH   5   6
ENDBRANCH   4   5
ENDBRANCH   3   4
ENDBRANCH   2   3
ENDBRANCH   1   2
BRANCH   1  11
ATOM     11  C   UNL     1      62.781  32.216  58.446  1.00  0.00     0.000 C 
BRANCH  11  12
ATOM     12  C   UNL     1      62.553  33.459  57.563  1.00  0.00    -0.000 C 
BRANCH  12  13
ATOM     13  C   UNL     1      62.458  34.785  58.347  1.00  0.00    -0.000 C 
BRANCH  13  14
ATOM     14  C   UNL     1      61.387  34.794  59.455  1.00  0.00    -0.000 C 
BRANCH  14  15
ATOM     15  C   UNL     1      61.968  35.138  60.838  1.00  0.00    -0.000 C 
BRANCH  15  16
ATOM     16  C   UNL     1      63.346  35.814  60.749  1.00  0.00    -0.000 C 
BRANCH  16  17
ATOM     17  C   UNL     1      64.410  35.107  61.602  1.00  0.00    -0.003 C 
ATOM     18  C   UNL     1      64.504  33.626  61.245  1.00  0.00     0.004 C 
ENDBRANCH  16  17
ENDBRANCH  15  16
ENDBRANCH  14  15
ENDBRANCH  13  14
ENDBRANCH  12  13
ENDBRANCH  11  12
ENDBRANCH   1  11
TORSDOF 14
ENDMDL
MODEL 2
REMARK VINA RESULT:    -3.232     11.189     13.384
REMARK INTER + INTRA:          -8.063
REMARK INTER:                  -6.044
REMARK INTRA:                  -2.019
REMARK UNBOUND:                -2.187
REMARK SMILES CCCCCCCCCCCCCCCC(=O)[O-]
REMARK SMILES IDX 9 1 10 2 11 3 12 4 13 5 14 6 15 7 16 8 17 9 18 10 8 11 7 12
REMARK SMILES IDX 6 13 5 14 4 15 3 16 2 17 1 18
REMARK H PARENT
REMARK Flexibility Score: inf
ROOT
ATOM      1  C   UNL     1      56.394  26.886  52.853  1.00  0.00     0.000 C 
ENDROOT
BRANCH   1   2
ATOM      2  C   UNL     1      56.462  28.361  52.414  1.00  0.00     0.000 C 
BRANCH   2   3
ATOM      3  C   UNL     1      57.072  28.571  51.012  1.00  0.00     0.000 C 
BRANCH   3   4
ATOM      4  C   UNL     1      58.605  28.729  51.023  1.00  0.00     0.000 C 
BRANCH   4   5
ATOM      5  C   UNL     1      59.220  28.545  49.624  1.00  0.00     0.000 C 
BRANCH   5   6
ATOM      6  C   UNL     1      60.090  27.282  49.520  1.00  0.00     0.006 C 
BRANCH   6   7
ATOM      7  C   UNL     1      60.021  26.407  50.779  1.00  0.00     0.053 C 
BRANCH   7   8
ATOM      8  C   UNL     1      59.243  25.159  50.507  1.00  0.00     0.041 C 
ATOM      9  O   UNL     1      59.787  24.029  50.637  1.00  0.00    -0.550 OA
ATOM     10  O   UNL     1      57.912  25.240  50.119  1.00  0.00    -0.550 OA
ENDBRANCH   7   8
ENDBRANCH   6   7
ENDBRANCH   5   6
ENDBRANCH   4   5
ENDBRANCH   3   4
ENDBRANCH   2   3
ENDBRANCH   1   2
BRANCH   1  11
ATOM     11  C   UNL     1      55.215  26.603  53.801  1.00  0.00     0.000 C 
BRANCH  11  12
ATOM     12  C   UNL     1      54.335  25.433  53.317  1.00  0.00    -0.000 C 
BRANCH  12  13
ATOM     13  C   UNL     1      54.924  24.645  52.128  1.00  0.00    -0.000 C 
BRANCH  13  14
ATOM     14  C   UNL     1      53.889  24.230  51.065  1.00  0.00    -0.000 C 
BRANCH  14  15
ATOM     15  C   UNL     1      54.136  24.904  49.703  1.00  0.00    -0.000 C 
BRANCH  15  16
ATOM     16  C   UNL     1      54.375  26.418  49.827  1.00  0.00    -0.000 C 
BRANCH  16  17
ATOM     17  C   UNL     1      53.068  27.216  49.948  1.00  0.00    -0.003 C 
ATOM     18  C   UNL     1      53.335  28.631  50.453  1.00  0.00     0.004 C 
ENDBRANCH  16  17
ENDBRANCH  15  16
ENDBRANCH  14  15
ENDBRANCH  13  14
ENDBRANCH  12  13
ENDBRANCH  11  12
ENDBRANCH   1  11
TORSDOF 14
ENDMDL
MODEL 3
REMARK VINA RESULT:    -3.197     10.549     12.979
REMARK INTER + INTRA:          -8.000
REMARK INTER:                  -5.802
REMARK INTRA:                  -2.198
REMARK UNBOUND:                -2.187
REMARK SMILES CCCCCCCCCCCCCCCC(=O)[O-]
REMARK SMILES IDX 9 1 10 2 11 3 12 4 13 5 14 6 15 7 16 8 17 9 18 10 8 11 7 12
REMARK SMILES IDX 6 13 5 14 4 15 3 16 2 17 1 18
REMARK H PARENT
REMARK Flexibility Score: inf
ROOT
ATOM      1  C   UNL     1      57.324  28.233  51.894  1.00  0.00     0.000 C 
ENDROOT
BRANCH   1   2
ATOM      2  C   UNL     1      58.589  28.897  51.316  1.00  0.00     0.000 C 
BRANCH   2   3
ATOM      3  C   UNL     1      58.976  28.391  49.911  1.00  0.00     0.000 C 
BRANCH   3   4
ATOM      4  C   UNL     1      60.166  27.411  49.914  1.00  0.00     0.000 C 
BRANCH   4   5
ATOM      5  C   UNL     1      59.733  25.967  49.605  1.00  0.00     0.000 C 
BRANCH   5   6
ATOM      6  C   UNL     1      60.122  24.981  50.719  1.00  0.00     0.006 C 
BRANCH   6   7
ATOM      7  C   UNL     1      58.923  24.545  51.572  1.00  0.00     0.053 C 
BRANCH   7   8
ATOM      8  C   UNL     1      59.008  25.146  52.939  1.00  0.00     0.041 C 
ATOM      9  O   UNL     1      58.205  24.789  53.842  1.00  0.00    -0.550 OA
ATOM     10  O   UNL     1      59.983  26.095  53.221  1.00  0.00    -0.550 OA
ENDBRANCH   7   8
ENDBRANCH   6   7
ENDBRANCH   5   6
ENDBRANCH   4   5
ENDBRANCH   3   4
ENDBRANCH   2   3
ENDBRANCH   1   2
BRANCH   1  11
ATOM     11  C   UNL     1      56.557  27.406  50.846  1.00  0.00     0.000 C 
BRANCH  11  12
ATOM     12  C   UNL     1      55.114  27.908  50.639  1.00  0.00    -0.000 C 
BRANCH  12  13
ATOM     13  C   UNL     1      54.171  26.874  49.987  1.00  0.00    -0.000 C 
BRANCH  13  14
ATOM     14  C   UNL     1      54.836  25.522  49.663  1.00  0.00    -0.000 C 
BRANCH  14  15
ATOM     15  C   UNL     1      53.981  24.321  50.104  1.00  0.00    -0.000 C 
BRANCH  15  16
ATOM     16  C   UNL     1      53.552  24.410  51.578  1.00  0.00    -0.000 C 
BRANCH  16  17
ATOM     17  C   UNL     1      54.740  24.324  52.548  1.00  0.00    -0.003 C 
ATOM     18  C   UNL     1      54.744  25.503  53.516  1.00  0.00     0.004 C 
ENDBRANCH  16  17
ENDBRANCH  15  16
ENDBRANCH  14  15
ENDBRANCH  13  14
ENDBRANCH  12  13
ENDBRANCH  11  12
ENDBRANCH   1  11
TORSDOF 14
ENDMDL
MODEL 4
REMARK VINA RESULT:    -3.197     11.450     13.168
REMARK INTER + INTRA:          -8.000
REMARK INTER:                  -6.217
REMARK INTRA:                  -1.782
REMARK UNBOUND:                -2.187
REMARK SMILES CCCCCCCCCCCCCCCC(=O)[O-]
REMARK SMILES IDX 9 1 10 2 11 3 12 4 13 5 14 6 15 7 16 8 17 9 18 10 8 11 7 12
REMARK SMILES IDX 6 13 5 14 4 15 3 16 2 17 1 18
REMARK H PARENT
REMARK Flexibility Score: inf
ROOT
ATOM      1  C   UNL     1      57.053  28.071  50.634  1.00  0.00     0.000 C 
ENDROOT
BRANCH   1   2
ATOM      2  C   UNL     1      58.471  28.667  50.728  1.00  0.00     0.000 C 
BRANCH   2   3
ATOM      3  C   UNL     1      59.436  28.164  49.634  1.00  0.00     0.000 C 
BRANCH   3   4
ATOM      4  C   UNL     1      60.877  27.945  50.136  1.00  0.00     0.000 C 
BRANCH   4   5
ATOM      5  C   UNL     1      61.358  26.500  49.914  1.00  0.00     0.000 C 
BRANCH   5   6
ATOM      6  C   UNL     1      60.207  25.481  49.941  1.00  0.00     0.006 C 
BRANCH   6   7
ATOM      7  C   UNL     1      60.152  24.679  51.248  1.00  0.00     0.053 C 
BRANCH   7   8
ATOM      8  C   UNL     1      60.519  23.250  51.001  1.00  0.00     0.041 C 
ATOM      9  O   UNL     1      61.190  22.933  49.982  1.00  0.00    -0.550 OA
ATOM     10  O   UNL     1      60.128  22.267  51.901  1.00  0.00    -0.550 OA
ENDBRANCH   7   8
ENDBRANCH   6   7
ENDBRANCH   5   6
ENDBRANCH   4   5
ENDBRANCH   3   4
ENDBRANCH   2   3
ENDBRANCH   1   2
BRANCH   1  11
ATOM     11  C   UNL     1      56.974  26.637  51.188  1.00  0.00     0.000 C 
BRANCH  11  12
ATOM     12  C   UNL     1      56.140  25.701  50.291  1.00  0.00    -0.000 C 
BRANCH  12  13
ATOM     13  C   UNL     1      55.025  24.936  51.037  1.00  0.00    -0.000 C 
BRANCH  13  14
ATOM     14  C   UNL     1      53.600  25.442  50.739  1.00  0.00    -0.000 C 
BRANCH  14  15
ATOM     15  C   UNL     1      53.571  26.517  49.638  1.00  0.00    -0.000 C 
BRANCH  15  16
ATOM     16  C   UNL     1      52.936  27.834  50.113  1.00  0.00    -0.000 C 
BRANCH  16  17
ATOM     17  C   UNL     1      53.411  28.250  51.513  1.00  0.00    -0.003 C 
ATOM     18  C   UNL     1      53.922  29.688  51.514  1.00  0.00     0.004 C 
ENDBRANCH  16  17
ENDBRANCH  15  16
ENDBRANCH  14  15
ENDBRANCH  13  14
ENDBRANCH  12  13
ENDBRANCH  11  12
ENDBRANCH   1  11
TORSDOF 14
ENDMDL
MODEL 5
REMARK VINA RESULT:    -3.180     11.070     13.385
REMARK INTER + INTRA:          -7.969
REMARK INTER:                  -5.775
REMARK INTRA:                  -2.194
REMARK UNBOUND:                -2.187
REMARK SMILES CCCCCCCCCCCCCCCC(=O)[O-]
REMARK SMILES IDX 9 1 10 2 11 3 12 4 13 5 14 6 15 7 16 8 17 9 18 10 8 11 7 12
REMARK SMILES IDX 6 13 5 14 4 15 3 16 2 17 1 18
REMARK H PARENT
REMARK Flexibility Score: inf
ROOT
ATOM      1  C   UNL     1      59.234  28.670  51.360  1.00  0.00     0.000 C 
ENDROOT
BRANCH   1   2
ATOM      2  C   UNL     1      57.762  28.658  51.816  1.00  0.00     0.000 C 
BRANCH   2   3
ATOM      3  C   UNL     1      56.782  28.110  50.757  1.00  0.00     0.000 C 
BRANCH   3   4
ATOM      4  C   UNL     1      56.015  26.855  51.217  1.00  0.00     0.000 C 
BRANCH   4   5
ATOM      5  C   UNL     1      55.945  25.779  50.118  1.00  0.00     0.000 C 
BRANCH   5   6
ATOM      6  C   UNL     1      54.514  25.551  49.604  1.00  0.00     0.006 C 
BRANCH   6   7
ATOM      7  C   UNL     1      53.955  24.176  49.993  1.00  0.00     0.053 C 
BRANCH   7   8
ATOM      8  C   UNL     1      53.456  24.194  51.403  1.00  0.00     0.041 C 
ATOM      9  O   UNL     1      52.896  25.224  51.867  1.00  0.00    -0.550 OA
ATOM     10  O   UNL     1      53.601  23.070  52.206  1.00  0.00    -0.550 OA
ENDBRANCH   7   8
ENDBRANCH   6   7
ENDBRANCH   5   6
ENDBRANCH   4   5
ENDBRANCH   3   4
ENDBRANCH   2   3
ENDBRANCH   1   2
BRANCH   1  11
ATOM     11  C   UNL     1      59.392  28.370  49.858  1.00  0.00     0.000 C 
BRANCH  11  12
ATOM     12  C   UNL     1      60.287  27.144  49.591  1.00  0.00    -0.000 C 
BRANCH  12  13
ATOM     13  C   UNL     1      59.598  25.787  49.849  1.00  0.00    -0.000 C 
BRANCH  13  14
ATOM     14  C   UNL     1      60.552  24.666  50.303  1.00  0.00    -0.000 C 
BRANCH  14  15
ATOM     15  C   UNL     1      60.130  24.035  51.643  1.00  0.00    -0.000 C 
BRANCH  15  16
ATOM     16  C   UNL     1      58.846  24.661  52.211  1.00  0.00    -0.000 C 
BRANCH  16  17
ATOM     17  C   UNL     1      59.105  25.514  53.462  1.00  0.00    -0.003 C 
ATOM     18  C   UNL     1      57.815  25.751  54.242  1.00  0.00     0.004 C 
ENDBRANCH  16  17
ENDBRANCH  15  16
ENDBRANCH  14  15
ENDBRANCH  13  14
ENDBRANCH  12  13
ENDBRANCH  11  12
ENDBRANCH   1  11
TORSDOF 14
ENDMDL
MODEL 6
REMARK VINA RESULT:    -3.160     11.298     13.283
REMARK INTER + INTRA:          -7.934
REMARK INTER:                  -5.749
REMARK INTRA:                  -2.185
REMARK UNBOUND:                -2.187
REMARK SMILES CCCCCCCCCCCCCCCC(=O)[O-]
REMARK SMILES IDX 9 1 10 2 11 3 12 4 13 5 14 6 15 7 16 8 17 9 18 10 8 11 7 12
REMARK SMILES IDX 6 13 5 14 4 15 3 16 2 17 1 18
REMARK H PARENT
REMARK Flexibility Score: inf
ROOT
ATOM      1  C   UNL     1      55.584  25.969  49.975  1.00  0.00     0.000 C 
ENDROOT
BRANCH   1   2
ATOM      2  C   UNL     1      55.066  27.364  50.374  1.00  0.00     0.000 C 
BRANCH   2   3
ATOM      3  C   UNL     1      56.068  28.191  51.207  1.00  0.00     0.000 C 
BRANCH   3   4
ATOM      4  C   UNL     1      57.520  27.683  51.106  1.00  0.00     0.000 C 
BRANCH   4   5
ATOM      5  C   UNL     1      58.426  28.656  50.331  1.00  0.00     0.000 C 
BRANCH   5   6
ATOM      6  C   UNL     1      59.547  27.937  49.562  1.00  0.00     0.006 C 
BRANCH   6   7
ATOM      7  C   UNL     1      59.577  26.426  49.828  1.00  0.00     0.053 C 
BRANCH   7   8
ATOM      8  C   UNL     1      60.904  26.020  50.387  1.00  0.00     0.041 C 
ATOM      9  O   UNL     1      61.315  24.837  50.252  1.00  0.00    -0.550 OA
ATOM     10  O   UNL     1      61.692  26.951  51.051  1.00  0.00    -0.550 OA
ENDBRANCH   7   8
ENDBRANCH   6   7
ENDBRANCH   5   6
ENDBRANCH   4   5
ENDBRANCH   3   4
ENDBRANCH   2   3
ENDBRANCH   1   2
BRANCH   1  11
ATOM     11  C   UNL     1      54.448  24.996  49.611  1.00  0.00     0.000 C 
BRANCH  11  12
ATOM     12  C   UNL     1      53.097  25.407  50.228  1.00  0.00    -0.000 C 
BRANCH  12  13
ATOM     13  C   UNL     1      52.877  24.899  51.669  1.00  0.00    -0.000 C 
BRANCH  13  14
ATOM     14  C   UNL     1      53.543  23.543  51.974  1.00  0.00    -0.000 C 
BRANCH  14  15
ATOM     15  C   UNL     1      54.586  23.636  53.103  1.00  0.00    -0.000 C 
BRANCH  15  16
ATOM     16  C   UNL     1      54.882  25.087  53.516  1.00  0.00    -0.000 C 
BRANCH  16  17
ATOM     17  C   UNL     1      56.376  25.337  53.772  1.00  0.00    -0.003 C 
ATOM     18  C   UNL     1      57.241  24.471  52.861  1.00  0.00     0.004 C 
ENDBRANCH  16  17
ENDBRANCH  15  16
ENDBRANCH  14  15
ENDBRANCH  13  14
ENDBRANCH  12  13
ENDBRANCH  11  12
ENDBRANCH   1  11
TORSDOF 14
ENDMDL
MODEL 7
REMARK VINA RESULT:    -3.155     11.343     13.088
REMARK INTER + INTRA:          -7.924
REMARK INTER:                  -5.744
REMARK INTRA:                  -2.180
REMARK UNBOUND:                -2.187
REMARK SMILES CCCCCCCCCCCCCCCC(=O)[O-]
REMARK SMILES IDX 9 1 10 2 11 3 12 4 13 5 14 6 15 7 16 8 17 9 18 10 8 11 7 12
REMARK SMILES IDX 6 13 5 14 4 15 3 16 2 17 1 18
REMARK H PARENT
REMARK Flexibility Score: inf
ROOT
ATOM      1  C   UNL     1      56.812  25.746  50.470  1.00  0.00     0.000 C 
ENDROOT
BRANCH   1   2
ATOM      2  C   UNL     1      55.394  25.142  50.520  1.00  0.00     0.000 C 
BRANCH   2   3
ATOM      3  C   UNL     1      54.362  25.896  49.656  1.00  0.00     0.000 C 
BRANCH   3   4
ATOM      4  C   UNL     1      54.075  27.329  50.147  1.00  0.00     0.000 C 
BRANCH   4   5
ATOM      5  C   UNL     1      53.448  27.349  51.552  1.00  0.00     0.000 C 
BRANCH   5   6
ATOM      6  C   UNL     1      54.271  28.172  52.557  1.00  0.00     0.006 C 
BRANCH   6   7
ATOM      7  C   UNL     1      54.791  29.488  51.964  1.00  0.00     0.053 C 
BRANCH   7   8
ATOM      8  C   UNL     1      54.126  30.656  52.620  1.00  0.00     0.041 C 
ATOM      9  O   UNL     1      52.879  30.814  52.525  1.00  0.00    -0.550 OA
ATOM     10  O   UNL     1      54.881  31.568  53.347  1.00  0.00    -0.550 OA
ENDBRANCH   7   8
ENDBRANCH   6   7
ENDBRANCH   5   6
ENDBRANCH   4   5
ENDBRANCH   3   4
ENDBRANCH   2   3
ENDBRANCH   1   2
BRANCH   1  11
ATOM     11  C   UNL     1      57.313  26.196  51.854  1.00  0.00     0.000 C 
BRANCH  11  12
ATOM     12  C   UNL     1      58.038  27.556  51.807  1.00  0.00    -0.000 C 
BRANCH  12  13
ATOM     13  C   UNL     1      57.882  28.312  50.470  1.00  0.00    -0.000 C 
BRANCH  13  14
ATOM     14  C   UNL     1      59.203  28.537  49.709  1.00  0.00    -0.000 C 
BRANCH  14  15
ATOM     15  C   UNL     1      60.435  28.084  50.515  1.00  0.00    -0.000 C 
BRANCH  15  16
ATOM     16  C   UNL     1      61.399  27.221  49.685  1.00  0.00    -0.000 C 
BRANCH  16  17
ATOM     17  C   UNL     1      61.672  25.852  50.325  1.00  0.00    -0.003 C 
ATOM     18  C   UNL     1      60.458  24.937  50.201  1.00  0.00     0.004 C 
ENDBRANCH  16  17
ENDBRANCH  15  16
ENDBRANCH  14  15
ENDBRANCH  13  14
ENDBRANCH  12  13
ENDBRANCH  11  12
ENDBRANCH   1  11
TORSDOF 14
ENDMDL
MODEL 8
REMARK VINA RESULT:    -3.085      9.844     11.949
REMARK INTER + INTRA:          -7.796
REMARK INTER:                  -5.890
REMARK INTRA:                  -1.906
REMARK UNBOUND:                -2.187
REMARK SMILES CCCCCCCCCCCCCCCC(=O)[O-]
REMARK SMILES IDX 9 1 10 2 11 3 12 4 13 5 14 6 15 7 16 8 17 9 18 10 8 11 7 12
REMARK SMILES IDX 6 13 5 14 4 15 3 16 2 17 1 18
REMARK H PARENT
REMARK Flexibility Score: inf
ROOT
ATOM      1  C   UNL     1      53.550  26.008  49.560  1.00  0.00     0.000 C 
ENDROOT
BRANCH   1   2
ATOM      2  C   UNL     1      54.899  25.264  49.585  1.00  0.00     0.000 C 
BRANCH   2   3
ATOM      3  C   UNL     1      55.818  25.671  50.755  1.00  0.00     0.000 C 
BRANCH   3   4
ATOM      4  C   UNL     1      57.245  26.052  50.314  1.00  0.00     0.000 C 
BRANCH   4   5
ATOM      5  C   UNL     1      57.876  27.112  51.236  1.00  0.00     0.000 C 
BRANCH   5   6
ATOM      6  C   UNL     1      58.101  28.456  50.525  1.00  0.00     0.006 C 
BRANCH   6   7
ATOM      7  C   UNL     1      59.330  28.445  49.606  1.00  0.00     0.053 C 
BRANCH   7   8
ATOM      8  C   UNL     1      60.581  28.638  50.404  1.00  0.00     0.041 C 
ATOM      9  O   UNL     1      60.580  29.386  51.417  1.00  0.00    -0.550 OA
ATOM     10  O   UNL     1      61.749  27.983  50.033  1.00  0.00    -0.550 OA
ENDBRANCH   7   8
ENDBRANCH   6   7
ENDBRANCH   5   6
ENDBRANCH   4   5
ENDBRANCH   3   4
ENDBRANCH   2   3
ENDBRANCH   1   2
BRANCH   1  11
ATOM     11  C   UNL     1      53.392  26.989  50.736  1.00  0.00     0.000 C 
BRANCH  11  12
ATOM     12  C   UNL     1      53.345  28.460  50.277  1.00  0.00    -0.000 C 
BRANCH  12  13
ATOM     13  C   UNL     1      54.450  29.350  50.886  1.00  0.00    -0.000 C 
BRANCH  13  14
ATOM     14  C   UNL     1      54.910  28.919  52.293  1.00  0.00    -0.000 C 
BRANCH  14  15
ATOM     15  C   UNL     1      55.651  30.041  53.043  1.00  0.00    -0.000 C 
BRANCH  15  16
ATOM     16  C   UNL     1      56.707  29.501  54.021  1.00  0.00    -0.000 C 
BRANCH  16  17
ATOM     17  C   UNL     1      58.074  30.182  53.854  1.00  0.00    -0.003 C 
ATOM     18  C   UNL     1      57.921  31.695  53.731  1.00  0.00     0.004 C 
ENDBRANCH  16  17
ENDBRANCH  15  16
ENDBRANCH  14  15
ENDBRANCH  13  14
ENDBRANCH  12  13
ENDBRANCH  11  12
ENDBRANCH   1  11
TORSDOF 14
ENDMDL
MODEL 9
REMARK VINA RESULT:    -3.047     10.196     12.287
REMARK INTER + INTRA:          -7.728
REMARK INTER:                  -5.395
REMARK INTRA:                  -2.333
REMARK UNBOUND:                -2.187
REMARK SMILES CCCCCCCCCCCCCCCC(=O)[O-]
REMARK SMILES IDX 9 1 10 2 11 3 12 4 13 5 14 6 15 7 16 8 17 9 18 10 8 11 7 12
REMARK SMILES IDX 6 13 5 14 4 15 3 16 2 17 1 18
REMARK H PARENT
REMARK Flexibility Score: inf
ROOT
ATOM      1  C   UNL     1      57.710  28.071  52.986  1.00  0.00     0.000 C 
ENDROOT
BRANCH   1   2
ATOM      2  C   UNL     1      58.039  29.006  51.806  1.00  0.00     0.000 C 
BRANCH   2   3
ATOM      3  C   UNL     1      59.449  28.797  51.215  1.00  0.00     0.000 C 
BRANCH   3   4
ATOM      4  C   UNL     1      59.438  28.321  49.748  1.00  0.00     0.000 C 
BRANCH   4   5
ATOM      5  C   UNL     1      60.093  26.939  49.579  1.00  0.00     0.000 C 
BRANCH   5   6
ATOM      6  C   UNL     1      59.126  25.783  49.887  1.00  0.00     0.006 C 
BRANCH   6   7
ATOM      7  C   UNL     1      59.817  24.596  50.571  1.00  0.00     0.053 C 
BRANCH   7   8
ATOM      8  C   UNL     1      59.480  24.564  52.028  1.00  0.00     0.041 C 
ATOM      9  O   UNL     1      58.643  23.732  52.469  1.00  0.00    -0.550 OA
ATOM     10  O   UNL     1      60.098  25.447  52.904  1.00  0.00    -0.550 OA
ENDBRANCH   7   8
ENDBRANCH   6   7
ENDBRANCH   5   6
ENDBRANCH   4   5
ENDBRANCH   3   4
ENDBRANCH   2   3
ENDBRANCH   1   2
BRANCH   1  11
ATOM     11  C   UNL     1      56.427  28.483  53.730  1.00  0.00     0.000 C 
BRANCH  11  12
ATOM     12  C   UNL     1      55.600  29.525  52.949  1.00  0.00    -0.000 C 
BRANCH  12  13
ATOM     13  C   UNL     1      54.325  28.957  52.289  1.00  0.00    -0.000 C 
BRANCH  13  14
ATOM     14  C   UNL     1      54.395  28.858  50.753  1.00  0.00    -0.000 C 
BRANCH  14  15
ATOM     15  C   UNL     1      54.297  27.407  50.248  1.00  0.00    -0.000 C 
BRANCH  15  16
ATOM     16  C   UNL     1      55.656  26.689  50.241  1.00  0.00    -0.000 C 
BRANCH  16  17
ATOM     17  C   UNL     1      55.562  25.234  50.722  1.00  0.00    -0.003 C 
ATOM     18  C   UNL     1      55.410  25.165  52.239  1.00  0.00     0.004 C 
ENDBRANCH  16  17
ENDBRANCH  15  16
ENDBRANCH  14  15
ENDBRANCH  13  14
ENDBRANCH  12  13
ENDBRANCH  11  12
ENDBRANCH   1  11
TORSDOF 14
ENDMDL
