MODEL 1
REMARK VINA RESULT:    -3.508      0.000      0.000
REMARK INTER + INTRA:          -5.400
REMARK INTER:                  -4.943
REMARK INTRA:                  -0.457
REMARK UNBOUND:                -0.457
REMARK SMILES CCCCCCCCC(=O)[O-]
REMARK SMILES IDX 6 1 7 2 8 3 9 4 10 5 11 6 5 7 4 8 3 9 2 10 1 11
REMARK H PARENT
REMARK Flexibility Score: inf
ROOT
ATOM      1  C   UNL     1      17.038  15.066  27.247  1.00  0.00     0.000 C 
ENDROOT
BRANCH   1   2
ATOM      2  C   UNL     1      17.431  15.745  25.924  1.00  0.00     0.006 C 
BRANCH   2   3
ATOM      3  C   UNL     1      16.215  16.248  25.136  1.00  0.00     0.053 C 
BRANCH   3   4
ATOM      4  C   UNL     1      15.696  15.173  24.235  1.00  0.00     0.041 C 
ATOM      5  O   UNL     1      14.717  14.465  24.591  1.00  0.00    -0.550 OA
ATOM      6  O   UNL     1      16.261  14.983  22.981  1.00  0.00    -0.550 OA
ENDBRANCH   3   4
ENDBRANCH   2   3
ENDBRANCH   1   2
BRANCH   1   7
ATOM      7  C   UNL     1      15.830  15.734  27.919  1.00  0.00     0.000 C 
BRANCH   7   8
ATOM      8  C   UNL     1      15.741  15.346  29.400  1.00  0.00    -0.000 C 
BRANCH   8   9
ATOM      9  C   UNL     1      17.000  15.779  30.161  1.00  0.00    -0.000 C 
BRANCH   9  10
ATOM     10  C   UNL     1      17.396  14.734  31.210  1.00  0.00    -0.003 C 
ATOM     11  C   UNL     1      16.438  13.546  31.196  1.00  0.00     0.004 C 
ENDBRANCH   9  10
ENDBRANCH   8   9
ENDBRANCH   7   8
ENDBRANCH   1   7
TORSDOF 7
ENDMDL
MODEL 2
REMARK VINA RESULT:    -3.507      1.661      2.677
REMARK INTER + INTRA:          -5.399
REMARK INTER:                  -4.974
REMARK INTRA:                  -0.424
REMARK UNBOUND:                -0.457
REMARK SMILES CCCCCCCCC(=O)[O-]
REMARK SMILES IDX 6 1 7 2 8 3 9 4 10 5 11 6 5 7 4 8 3 9 2 10 1 11
REMARK H PARENT
REMARK Flexibility Score: inf
ROOT
ATOM      1  C   UNL     1      15.511  15.216  29.227  1.00  0.00     0.000 C 
ENDROOT
BRANCH   1   2
ATOM      2  C   UNL     1      15.620  15.365  27.700  1.00  0.00     0.006 C 
BRANCH   2   3
ATOM      3  C   UNL     1      16.978  14.901  27.158  1.00  0.00     0.053 C 
BRANCH   3   4
ATOM      4  C   UNL     1      17.427  15.794  26.044  1.00  0.00     0.041 C 
ATOM      5  O   UNL     1      18.650  15.888  25.760  1.00  0.00    -0.550 OA
ATOM      6  O   UNL     1      16.490  16.486  25.287  1.00  0.00    -0.550 OA
ENDBRANCH   3   4
ENDBRANCH   2   3
ENDBRANCH   1   2
BRANCH   1   7
ATOM      7  C   UNL     1      16.558  16.051  29.979  1.00  0.00     0.000 C 
BRANCH   7   8
ATOM      8  C   UNL     1      17.390  15.171  30.919  1.00  0.00    -0.000 C 
BRANCH   8   9
ATOM      9  C   UNL     1      16.670  13.853  31.223  1.00  0.00    -0.000 C 
BRANCH   9  10
ATOM     10  C   UNL     1      17.431  13.040  32.277  1.00  0.00    -0.003 C 
ATOM     11  C   UNL     1      18.744  13.719  32.656  1.00  0.00     0.004 C 
ENDBRANCH   9  10
ENDBRANCH   8   9
ENDBRANCH   7   8
ENDBRANCH   1   7
TORSDOF 7
ENDMDL
MODEL 3
REMARK VINA RESULT:    -3.496      4.208      6.242
REMARK INTER + INTRA:          -5.384
REMARK INTER:                  -4.790
REMARK INTRA:                  -0.593
REMARK UNBOUND:                -0.457
REMARK SMILES CCCCCCCCC(=O)[O-]
REMARK SMILES IDX 6 1 7 2 8 3 9 4 10 5 11 6 5 7 4 8 3 9 2 10 1 11
REMARK H PARENT
REMARK Flexibility Score: inf
ROOT
ATOM      1  C   UNL     1      16.682  13.613  31.234  1.00  0.00     0.000 C 
ENDROOT
BRANCH   1   2
ATOM      2  C   UNL     1      17.851  14.530  31.627  1.00  0.00     0.006 C 
BRANCH   2   3
ATOM      3  C   UNL     1      18.831  13.855  32.596  1.00  0.00     0.053 C 
BRANCH   3   4
ATOM      4  C   UNL     1      20.172  13.695  31.953  1.00  0.00     0.041 C 
ATOM      5  O   UNL     1      21.043  12.954  32.480  1.00  0.00    -0.550 OA
ATOM      6  O   UNL     1      20.444  14.326  30.746  1.00  0.00    -0.550 OA
ENDBRANCH   3   4
ENDBRANCH   2   3
ENDBRANCH   1   2
BRANCH   1   7
ATOM      7  C   UNL     1      15.614  14.339  30.404  1.00  0.00     0.000 C 
BRANCH   7   8
ATOM      8  C   UNL     1      16.185  15.610  29.763  1.00  0.00    -0.000 C 
BRANCH   8   9
ATOM      9  C   UNL     1      15.952  15.617  28.248  1.00  0.00    -0.000 C 
BRANCH   9  10
ATOM     10  C   UNL     1      16.894  14.636  27.541  1.00  0.00    -0.003 C 
ATOM     11  C   UNL     1      18.351  14.912  27.902  1.00  0.00     0.004 C 
ENDBRANCH   9  10
ENDBRANCH   8   9
ENDBRANCH   7   8
ENDBRANCH   1   7
TORSDOF 7
ENDMDL
MODEL 4
REMARK VINA RESULT:    -3.448      4.163      5.200
REMARK INTER + INTRA:          -5.316
REMARK INTER:                  -4.828
REMARK INTRA:                  -0.488
REMARK UNBOUND:                -0.457
REMARK SMILES CCCCCCCCC(=O)[O-]
REMARK SMILES IDX 6 1 7 2 8 3 9 4 10 5 11 6 5 7 4 8 3 9 2 10 1 11
REMARK H PARENT
REMARK Flexibility Score: inf
ROOT
ATOM      1  C   UNL     1      15.029  14.402  28.800  1.00  0.00     0.000 C 
ENDROOT
BRANCH   1   2
ATOM      2  C   UNL     1      14.168  14.373  30.073  1.00  0.00     0.006 C 
BRANCH   2   3
ATOM      3  C   UNL     1      12.708  13.995  29.790  1.00  0.00     0.053 C 
BRANCH   3   4
ATOM      4  C   UNL     1      11.825  14.458  30.905  1.00  0.00     0.041 C 
ATOM      5  O   UNL     1      10.971  15.362  30.704  1.00  0.00    -0.550 OA
ATOM      6  O   UNL     1      11.909  13.857  32.155  1.00  0.00    -0.550 OA
ENDBRANCH   3   4
ENDBRANCH   2   3
ENDBRANCH   1   2
BRANCH   1   7
ATOM      7  C   UNL     1      15.931  15.642  28.723  1.00  0.00     0.000 C 
BRANCH   7   8
ATOM      8  C   UNL     1      16.624  15.901  30.066  1.00  0.00    -0.000 C 
BRANCH   8   9
ATOM      9  C   UNL     1      17.761  14.901  30.303  1.00  0.00    -0.000 C 
BRANCH   9  10
ATOM     10  C   UNL     1      17.790  14.434  31.762  1.00  0.00    -0.003 C 
ATOM     11  C   UNL     1      17.076  13.096  31.929  1.00  0.00     0.004 C 
ENDBRANCH   9  10
ENDBRANCH   8   9
ENDBRANCH   7   8
ENDBRANCH   1   7
TORSDOF 7
ENDMDL
MODEL 5
REMARK VINA RESULT:    -3.446      2.308      2.752
REMARK INTER + INTRA:          -5.314
REMARK INTER:                  -4.750
REMARK INTRA:                  -0.563
REMARK UNBOUND:                -0.457
REMARK SMILES CCCCCCCCC(=O)[O-]
REMARK SMILES IDX 6 1 7 2 8 3 9 4 10 5 11 6 5 7 4 8 3 9 2 10 1 11
REMARK H PARENT
REMARK Flexibility Score: inf
ROOT
ATOM      1  C   UNL     1      15.354  14.762  27.550  1.00  0.00     0.000 C 
ENDROOT
BRANCH   1   2
ATOM      2  C   UNL     1      16.185  15.883  26.905  1.00  0.00     0.006 C 
BRANCH   2   3
ATOM      3  C   UNL     1      17.191  15.355  25.875  1.00  0.00     0.053 C 
BRANCH   3   4
ATOM      4  C   UNL     1      18.578  15.393  26.434  1.00  0.00     0.041 C 
ATOM      5  O   UNL     1      19.445  16.155  25.929  1.00  0.00    -0.550 OA
ATOM      6  O   UNL     1      18.901  14.624  27.545  1.00  0.00    -0.550 OA
ENDBRANCH   3   4
ENDBRANCH   2   3
ENDBRANCH   1   2
BRANCH   1   7
ATOM      7  C   UNL     1      15.384  14.810  29.084  1.00  0.00     0.000 C 
BRANCH   7   8
ATOM      8  C   UNL     1      16.197  16.012  29.580  1.00  0.00    -0.000 C 
BRANCH   8   9
ATOM      9  C   UNL     1      17.266  15.577  30.589  1.00  0.00    -0.000 C 
BRANCH   9  10
ATOM     10  C   UNL     1      16.910  14.227  31.221  1.00  0.00    -0.003 C 
ATOM     11  C   UNL     1      17.994  13.768  32.192  1.00  0.00     0.004 C 
ENDBRANCH   9  10
ENDBRANCH   8   9
ENDBRANCH   7   8
ENDBRANCH   1   7
TORSDOF 7
ENDMDL
MODEL 6
REMARK VINA RESULT:    -3.442      3.294      5.812
REMARK INTER + INTRA:          -5.307
REMARK INTER:                  -4.813
REMARK INTRA:                  -0.494
REMARK UNBOUND:                -0.457
REMARK SMILES CCCCCCCCC(=O)[O-]
REMARK SMILES IDX 6 1 7 2 8 3 9 4 10 5 11 6 5 7 4 8 3 9 2 10 1 11
REMARK H PARENT
REMARK Flexibility Score: inf
ROOT
ATOM      1  C   UNL     1      15.844  15.577  27.934  1.00  0.00     0.000 C 
ENDROOT
BRANCH   1   2
ATOM      2  C   UNL     1      15.745  15.636  29.467  1.00  0.00     0.006 C 
BRANCH   2   3
ATOM      3  C   UNL     1      17.118  15.584  30.149  1.00  0.00     0.053 C 
BRANCH   3   4
ATOM      4  C   UNL     1      17.141  14.511  31.192  1.00  0.00     0.041 C 
ATOM      5  O   UNL     1      16.223  13.651  31.236  1.00  0.00    -0.550 OA
ATOM      6  O   UNL     1      18.203  14.431  32.084  1.00  0.00    -0.550 OA
ENDBRANCH   3   4
ENDBRANCH   2   3
ENDBRANCH   1   2
BRANCH   1   7
ATOM      7  C   UNL     1      17.221  15.105  27.447  1.00  0.00     0.000 C 
BRANCH   7   8
ATOM      8  C   UNL     1      17.501  15.602  26.024  1.00  0.00    -0.000 C 
BRANCH   8   9
ATOM      9  C   UNL     1      16.312  16.397  25.472  1.00  0.00    -0.000 C 
BRANCH   9  10
ATOM     10  C   UNL     1      15.811  15.796  24.154  1.00  0.00    -0.003 C 
ATOM     11  C   UNL     1      14.969  14.548  24.401  1.00  0.00     0.004 C 
ENDBRANCH   9  10
ENDBRANCH   8   9
ENDBRANCH   7   8
ENDBRANCH   1   7
TORSDOF 7
ENDMDL
MODEL 7
REMARK VINA RESULT:    -3.424      2.549      4.273
REMARK INTER + INTRA:          -5.282
REMARK INTER:                  -4.643
REMARK INTRA:                  -0.639
REMARK UNBOUND:                -0.457
REMARK SMILES CCCCCCCCC(=O)[O-]
REMARK SMILES IDX 6 1 7 2 8 3 9 4 10 5 11 6 5 7 4 8 3 9 2 10 1 11
REMARK H PARENT
REMARK Flexibility Score: inf
ROOT
ATOM      1  C   UNL     1      16.574  13.890  30.864  1.00  0.00     0.000 C 
ENDROOT
BRANCH   1   2
ATOM      2  C   UNL     1      16.999  15.336  30.563  1.00  0.00     0.006 C 
BRANCH   2   3
ATOM      3  C   UNL     1      16.045  16.041  29.589  1.00  0.00     0.053 C 
BRANCH   3   4
ATOM      4  C   UNL     1      16.048  15.347  28.263  1.00  0.00     0.041 C 
ATOM      5  O   UNL     1      17.105  15.287  27.582  1.00  0.00    -0.550 OA
ATOM      6  O   UNL     1      14.896  14.723  27.803  1.00  0.00    -0.550 OA
ENDBRANCH   3   4
ENDBRANCH   2   3
ENDBRANCH   1   2
BRANCH   1   7
ATOM      7  C   UNL     1      17.320  13.292  32.065  1.00  0.00     0.000 C 
BRANCH   7   8
ATOM      8  C   UNL     1      18.605  14.074  32.359  1.00  0.00    -0.000 C 
BRANCH   8   9
ATOM      9  C   UNL     1      19.833  13.351  31.792  1.00  0.00    -0.000 C 
BRANCH   9  10
ATOM     10  C   UNL     1      20.457  14.147  30.640  1.00  0.00    -0.003 C 
ATOM     11  C   UNL     1      20.083  13.546  29.288  1.00  0.00     0.004 C 
ENDBRANCH   9  10
ENDBRANCH   8   9
ENDBRANCH   7   8
ENDBRANCH   1   7
TORSDOF 7
ENDMDL
MODEL 8
REMARK VINA RESULT:    -3.407      4.153      6.311
REMARK INTER + INTRA:          -5.258
REMARK INTER:                  -4.946
REMARK INTRA:                  -0.312
REMARK UNBOUND:                -0.457
REMARK SMILES CCCCCCCCC(=O)[O-]
REMARK SMILES IDX 6 1 7 2 8 3 9 4 10 5 11 6 5 7 4 8 3 9 2 10 1 11
REMARK H PARENT
REMARK Flexibility Score: inf
ROOT
ATOM      1  C   UNL     1      15.300  14.669  29.957  1.00  0.00     0.000 C 
ENDROOT
BRANCH   1   2
ATOM      2  C   UNL     1      16.206  13.825  30.867  1.00  0.00     0.006 C 
BRANCH   2   3
ATOM      3  C   UNL     1      17.469  14.577  31.305  1.00  0.00     0.053 C 
BRANCH   3   4
ATOM      4  C   UNL     1      18.179  13.821  32.383  1.00  0.00     0.041 C 
ATOM      5  O   UNL     1      17.642  12.808  32.905  1.00  0.00    -0.550 OA
ATOM      6  O   UNL     1      19.454  14.205  32.778  1.00  0.00    -0.550 OA
ENDBRANCH   3   4
ENDBRANCH   2   3
ENDBRANCH   1   2
BRANCH   1   7
ATOM      7  C   UNL     1      16.073  15.755  29.194  1.00  0.00     0.000 C 
BRANCH   7   8
ATOM      8  C   UNL     1      15.843  15.635  27.683  1.00  0.00    -0.000 C 
BRANCH   8   9
ATOM      9  C   UNL     1      17.107  15.146  26.968  1.00  0.00    -0.000 C 
BRANCH   9  10
ATOM     10  C   UNL     1      17.368  15.958  25.694  1.00  0.00    -0.003 C 
ATOM     11  C   UNL     1      16.098  16.104  24.862  1.00  0.00     0.004 C 
ENDBRANCH   9  10
ENDBRANCH   8   9
ENDBRANCH   7   8
ENDBRANCH   1   7
TORSDOF 7
ENDMDL
MODEL 9
REMARK VINA RESULT:    -3.364      2.019      2.877
REMARK INTER + INTRA:          -5.198
REMARK INTER:                  -4.495
REMARK INTRA:                  -0.702
REMARK UNBOUND:                -0.457
REMARK SMILES CCCCCCCCC(=O)[O-]
REMARK SMILES IDX 6 1 7 2 8 3 9 4 10 5 11 6 5 7 4 8 3 9 2 10 1 11
REMARK H PARENT
REMARK Flexibility Score: inf
ROOT
ATOM      1  C   UNL     1      15.720  15.218  29.147  1.00  0.00     0.000 C 
ENDROOT
BRANCH   1   2
ATOM      2  C   UNL     1      15.867  15.721  27.702  1.00  0.00     0.006 C 
BRANCH   2   3
ATOM      3  C   UNL     1      16.888  14.910  26.895  1.00  0.00     0.053 C 
BRANCH   3   4
ATOM      4  C   UNL     1      17.574  15.784  25.894  1.00  0.00     0.041 C 
ATOM      5  O   UNL     1      16.899  16.528  25.133  1.00  0.00    -0.550 OA
ATOM      6  O   UNL     1      18.961  15.816  25.833  1.00  0.00    -0.550 OA
ENDBRANCH   3   4
ENDBRANCH   2   3
ENDBRANCH   1   2
BRANCH   1   7
ATOM      7  C   UNL     1      16.745  15.849  30.101  1.00  0.00     0.000 C 
BRANCH   7   8
ATOM      8  C   UNL     1      17.291  14.810  31.087  1.00  0.00    -0.000 C 
BRANCH   8   9
ATOM      9  C   UNL     1      18.281  13.862  30.399  1.00  0.00    -0.000 C 
BRANCH   9  10
ATOM     10  C   UNL     1      19.376  14.646  29.668  1.00  0.00    -0.003 C 
ATOM     11  C   UNL     1      20.033  13.796  28.584  1.00  0.00     0.004 C 
ENDBRANCH   9  10
ENDBRANCH   8   9
ENDBRANCH   7   8
ENDBRANCH   1   7
TORSDOF 7
ENDMDL
