MODEL 1
REMARK VINA RESULT:    -4.044      0.000      0.000
REMARK INTER + INTRA:         -16.096
REMARK INTER:                 -10.544
REMARK INTRA:                  -5.552
REMARK UNBOUND:                -5.552
REMARK SMILES CCCCCCCCCCCCCCCCCCCCCCCCCCCCCO
REMARK SMILES IDX 16 1 15 2 14 3 13 4 12 5 11 6 10 7 9 8 8 9 7 10 6 11 5 12
REMARK SMILES IDX 4 13 3 14 2 15 1 16 17 17 18 18 19 19 20 20 21 21 22 22
REMARK SMILES IDX 23 23 24 24 25 25 26 26 27 27 28 28 29 29 30 30
REMARK H PARENT 30 31
REMARK Flexibility Score: inf
ROOT
ATOM      1  C   UNL     1     134.627 140.140 129.787  1.00  0.00     0.000 C 
ENDROOT
BRANCH   1   2
ATOM      2  C   UNL     1     135.393 140.795 128.615  1.00  0.00     0.000 C 
BRANCH   2   3
ATOM      3  C   UNL     1     136.898 140.992 128.881  1.00  0.00     0.000 C 
BRANCH   3   4
ATOM      4  C   UNL     1     137.810 140.233 127.892  1.00  0.00     0.000 C 
BRANCH   4   5
ATOM      5  C   UNL     1     138.215 138.834 128.396  1.00  0.00     0.000 C 
BRANCH   5   6
ATOM      6  C   UNL     1     139.593 138.786 129.088  1.00  0.00     0.000 C 
BRANCH   6   7
ATOM      7  C   UNL     1     140.252 140.159 129.323  1.00  0.00     0.000 C 
BRANCH   7   8
ATOM      8  C   UNL     1     140.357 140.528 130.811  1.00  0.00    -0.000 C 
BRANCH   8   9
ATOM      9  C   UNL     1     139.892 139.362 131.697  1.00  0.00    -0.000 C 
BRANCH   9  10
ATOM     10  C   UNL     1     139.927 139.699 133.197  1.00  0.00    -0.000 C 
BRANCH  10  11
ATOM     11  C   UNL     1     139.766 138.457 134.088  1.00  0.00    -0.000 C 
BRANCH  11  12
ATOM     12  C   UNL     1     138.318 138.253 134.567  1.00  0.00    -0.000 C 
BRANCH  12  13
ATOM     13  C   UNL     1     137.461 139.536 134.509  1.00  0.00    -0.000 C 
BRANCH  13  14
ATOM     14  C   UNL     1     136.334 139.433 133.468  1.00  0.00    -0.000 C 
BRANCH  14  15
ATOM     15  C   UNL     1     135.079 140.221 133.875  1.00  0.00    -0.003 C 
ATOM     16  C   UNL     1     134.955 141.554 133.138  1.00  0.00     0.004 C 
ENDBRANCH  14  15
ENDBRANCH  13  14
ENDBRANCH  12  13
ENDBRANCH  11  12
ENDBRANCH  10  11
ENDBRANCH   9  10
ENDBRANCH   8   9
ENDBRANCH   7   8
ENDBRANCH   6   7
ENDBRANCH   5   6
ENDBRANCH   4   5
ENDBRANCH   3   4
ENDBRANCH   2   3
ENDBRANCH   1   2
BRANCH   1  17
ATOM     17  C   UNL     1     134.996 138.672 130.074  1.00  0.00     0.000 C 
BRANCH  17  18
ATOM     18  C   UNL     1     134.674 137.678 128.941  1.00  0.00     0.000 C 
BRANCH  18  19
ATOM     19  C   UNL     1     134.312 136.260 129.437  1.00  0.00     0.000 C 
BRANCH  19  20
ATOM     20  C   UNL     1     135.192 135.157 128.824  1.00  0.00     0.000 C 
BRANCH  20  21
ATOM     21  C   UNL     1     136.364 135.733 128.012  1.00  0.00     0.000 C 
BRANCH  21  22
ATOM     22  C   UNL     1     137.644 134.887 128.129  1.00  0.00     0.000 C 
BRANCH  22  23
ATOM     23  C   UNL     1     137.990 134.481 129.578  1.00  0.00     0.000 C 
BRANCH  23  24
ATOM     24  C   UNL     1     138.996 135.446 130.230  1.00  0.00     0.000 C 
BRANCH  24  25
ATOM     25  C   UNL     1     138.542 135.906 131.633  1.00  0.00     0.000 C 
BRANCH  25  26
ATOM     26  C   UNL     1     137.028 136.172 131.737  1.00  0.00     0.000 C 
BRANCH  26  27
ATOM     27  C   UNL     1     136.333 135.512 132.943  1.00  0.00     0.002 C 
BRANCH  27  28
ATOM     28  C   UNL     1     134.885 135.976 133.189  1.00  0.00     0.028 C 
BRANCH  28  29
ATOM     29  C   UNL     1     133.898 134.809 133.320  1.00  0.00     0.156 C 
BRANCH  29  30
ATOM     30  O   UNL     1     133.904 134.039 132.149  1.00  0.00    -0.396 OA
ATOM     31  H   UNL     1     134.602 133.343 132.267  1.00  0.00     0.210 HD
ENDBRANCH  29  30
ENDBRANCH  28  29
ENDBRANCH  27  28
ENDBRANCH  26  27
ENDBRANCH  25  26
ENDBRANCH  24  25
ENDBRANCH  23  24
ENDBRANCH  22  23
ENDBRANCH  21  22
ENDBRANCH  20  21
ENDBRANCH  19  20
ENDBRANCH  18  19
ENDBRANCH  17  18
ENDBRANCH   1  17
TORSDOF 28
ENDMDL
MODEL 2
REMARK VINA RESULT:    -4.017      1.825      4.942
REMARK INTER + INTRA:         -16.027
REMARK INTER:                 -10.308
REMARK INTRA:                  -5.719
REMARK UNBOUND:                -5.552
REMARK SMILES CCCCCCCCCCCCCCCCCCCCCCCCCCCCCO
REMARK SMILES IDX 16 1 15 2 14 3 13 4 12 5 11 6 10 7 9 8 8 9 7 10 6 11 5 12
REMARK SMILES IDX 4 13 3 14 2 15 1 16 17 17 18 18 19 19 20 20 21 21 22 22
REMARK SMILES IDX 23 23 24 24 25 25 26 26 27 27 28 28 29 29 30 30
REMARK H PARENT 30 31
REMARK Flexibility Score: inf
ROOT
ATOM      1  C   UNL     1     136.617 134.661 129.122  1.00  0.00     0.000 C 
ENDROOT
BRANCH   1   2
ATOM      2  C   UNL     1     135.219 134.733 129.776  1.00  0.00     0.000 C 
BRANCH   2   3
ATOM      3  C   UNL     1     134.565 136.125 129.707  1.00  0.00     0.000 C 
BRANCH   3   4
ATOM      4  C   UNL     1     134.595 136.760 128.299  1.00  0.00     0.000 C 
BRANCH   4   5
ATOM      5  C   UNL     1     135.352 138.101 128.257  1.00  0.00     0.000 C 
BRANCH   5   6
ATOM      6  C   UNL     1     135.651 138.701 129.646  1.00  0.00     0.000 C 
BRANCH   6   7
ATOM      7  C   UNL     1     134.966 140.051 129.935  1.00  0.00     0.000 C 
BRANCH   7   8
ATOM      8  C   UNL     1     135.670 140.858 131.037  1.00  0.00    -0.000 C 
BRANCH   8   9
ATOM      9  C   UNL     1     134.932 140.711 132.377  1.00  0.00    -0.000 C 
BRANCH   9  10
ATOM     10  C   UNL     1     135.850 140.238 133.517  1.00  0.00    -0.000 C 
BRANCH  10  11
ATOM     11  C   UNL     1     135.172 139.208 134.434  1.00  0.00    -0.000 C 
BRANCH  11  12
ATOM     12  C   UNL     1     135.884 137.844 134.424  1.00  0.00    -0.000 C 
BRANCH  12  13
ATOM     13  C   UNL     1     135.842 137.135 133.054  1.00  0.00    -0.000 C 
BRANCH  13  14
ATOM     14  C   UNL     1     136.012 135.611 133.184  1.00  0.00    -0.000 C 
BRANCH  14  15
ATOM     15  C   UNL     1     134.841 134.946 133.924  1.00  0.00    -0.003 C 
ATOM     16  C   UNL     1     133.546 134.961 133.113  1.00  0.00     0.004 C 
ENDBRANCH  14  15
ENDBRANCH  13  14
ENDBRANCH  12  13
ENDBRANCH  11  12
ENDBRANCH  10  11
ENDBRANCH   9  10
ENDBRANCH   8   9
ENDBRANCH   7   8
ENDBRANCH   6   7
ENDBRANCH   5   6
ENDBRANCH   4   5
ENDBRANCH   3   4
ENDBRANCH   2   3
ENDBRANCH   1   2
BRANCH   1  17
ATOM     17  C   UNL     1     137.785 135.132 130.010  1.00  0.00     0.000 C 
BRANCH  17  18
ATOM     18  C   UNL     1     138.400 136.491 129.624  1.00  0.00     0.000 C 
BRANCH  18  19
ATOM     19  C   UNL     1     139.900 136.419 129.265  1.00  0.00     0.000 C 
BRANCH  19  20
ATOM     20  C   UNL     1     140.542 137.801 129.045  1.00  0.00     0.000 C 
BRANCH  20  21
ATOM     21  C   UNL     1     139.501 138.933 129.057  1.00  0.00     0.000 C 
BRANCH  21  22
ATOM     22  C   UNL     1     139.993 140.189 129.798  1.00  0.00     0.000 C 
BRANCH  22  23
ATOM     23  C   UNL     1     140.210 139.972 131.311  1.00  0.00     0.000 C 
BRANCH  23  24
ATOM     24  C   UNL     1     138.949 139.437 132.011  1.00  0.00     0.000 C 
BRANCH  24  25
ATOM     25  C   UNL     1     139.287 138.515 133.204  1.00  0.00     0.000 C 
BRANCH  25  26
ATOM     26  C   UNL     1     139.696 137.089 132.787  1.00  0.00     0.000 C 
BRANCH  26  27
ATOM     27  C   UNL     1     139.846 136.090 133.949  1.00  0.00     0.002 C 
BRANCH  27  28
ATOM     28  C   UNL     1     139.438 134.643 133.616  1.00  0.00     0.028 C 
BRANCH  28  29
ATOM     29  C   UNL     1     140.541 133.863 132.890  1.00  0.00     0.156 C 
BRANCH  29  30
ATOM     30  O   UNL     1     140.309 132.485 133.000  1.00  0.00    -0.396 OA
ATOM     31  H   UNL     1     139.373 132.328 132.705  1.00  0.00     0.210 HD
ENDBRANCH  29  30
ENDBRANCH  28  29
ENDBRANCH  27  28
ENDBRANCH  26  27
ENDBRANCH  25  26
ENDBRANCH  24  25
ENDBRANCH  23  24
ENDBRANCH  22  23
ENDBRANCH  21  22
ENDBRANCH  20  21
ENDBRANCH  19  20
ENDBRANCH  18  19
ENDBRANCH  17  18
ENDBRANCH   1  17
TORSDOF 28
ENDMDL
MODEL 3
REMARK VINA RESULT:    -3.922      2.040      4.958
REMARK INTER + INTRA:         -15.779
REMARK INTER:                  -9.900
REMARK INTRA:                  -5.879
REMARK UNBOUND:                -5.552
REMARK SMILES CCCCCCCCCCCCCCCCCCCCCCCCCCCCCO
REMARK SMILES IDX 16 1 15 2 14 3 13 4 12 5 11 6 10 7 9 8 8 9 7 10 6 11 5 12
REMARK SMILES IDX 4 13 3 14 2 15 1 16 17 17 18 18 19 19 20 20 21 21 22 22
REMARK SMILES IDX 23 23 24 24 25 25 26 26 27 27 28 28 29 29 30 30
REMARK H PARENT 30 31
REMARK Flexibility Score: inf
ROOT
ATOM      1  C   UNL     1     135.102 136.863 133.515  1.00  0.00     0.000 C 
ENDROOT
BRANCH   1   2
ATOM      2  C   UNL     1     136.328 137.712 133.918  1.00  0.00     0.000 C 
BRANCH   2   3
ATOM      3  C   UNL     1     135.995 138.894 134.848  1.00  0.00     0.000 C 
BRANCH   3   4
ATOM      4  C   UNL     1     136.222 140.279 134.203  1.00  0.00     0.000 C 
BRANCH   4   5
ATOM      5  C   UNL     1     134.911 140.973 133.786  1.00  0.00     0.000 C 
BRANCH   5   6
ATOM      6  C   UNL     1     134.640 140.952 132.268  1.00  0.00     0.000 C 
BRANCH   6   7
ATOM      7  C   UNL     1     135.817 140.460 131.403  1.00  0.00     0.000 C 
BRANCH   7   8
ATOM      8  C   UNL     1     135.427 139.316 130.453  1.00  0.00    -0.000 C 
BRANCH   8   9
ATOM      9  C   UNL     1     135.231 139.838 129.021  1.00  0.00    -0.000 C 
BRANCH   9  10
ATOM     10  C   UNL     1     136.369 140.765 128.563  1.00  0.00    -0.000 C 
BRANCH  10  11
ATOM     11  C   UNL     1     137.622 139.992 128.119  1.00  0.00    -0.000 C 
BRANCH  11  12
ATOM     12  C   UNL     1     138.838 140.265 129.020  1.00  0.00    -0.000 C 
BRANCH  12  13
ATOM     13  C   UNL     1     139.899 139.144 128.983  1.00  0.00    -0.000 C 
BRANCH  13  14
ATOM     14  C   UNL     1     140.249 138.631 130.391  1.00  0.00    -0.000 C 
BRANCH  14  15
ATOM     15  C   UNL     1     139.064 138.719 131.365  1.00  0.00    -0.003 C 
ATOM     16  C   UNL     1     139.397 139.512 132.628  1.00  0.00     0.004 C 
ENDBRANCH  14  15
ENDBRANCH  13  14
ENDBRANCH  12  13
ENDBRANCH  11  12
ENDBRANCH  10  11
ENDBRANCH   9  10
ENDBRANCH   8   9
ENDBRANCH   7   8
ENDBRANCH   6   7
ENDBRANCH   5   6
ENDBRANCH   4   5
ENDBRANCH   3   4
ENDBRANCH   2   3
ENDBRANCH   1   2
BRANCH   1  17
ATOM     17  C   UNL     1     135.411 135.404 133.127  1.00  0.00     0.000 C 
BRANCH  17  18
ATOM     18  C   UNL     1     134.632 134.867 131.910  1.00  0.00     0.000 C 
BRANCH  18  19
ATOM     19  C   UNL     1     134.702 135.783 130.668  1.00  0.00     0.000 C 
BRANCH  19  20
ATOM     20  C   UNL     1     135.081 135.033 129.379  1.00  0.00     0.000 C 
BRANCH  20  21
ATOM     21  C   UNL     1     135.853 135.927 128.393  1.00  0.00     0.000 C 
BRANCH  21  22
ATOM     22  C   UNL     1     137.218 136.379 128.941  1.00  0.00     0.000 C 
BRANCH  22  23
ATOM     23  C   UNL     1     138.409 135.991 128.039  1.00  0.00     0.000 C 
BRANCH  23  24
ATOM     24  C   UNL     1     139.417 135.081 128.762  1.00  0.00     0.000 C 
BRANCH  24  25
ATOM     25  C   UNL     1     138.875 134.561 130.112  1.00  0.00     0.000 C 
BRANCH  25  26
ATOM     26  C   UNL     1     139.744 134.958 131.322  1.00  0.00     0.000 C 
BRANCH  26  27
ATOM     27  C   UNL     1     138.961 135.272 132.610  1.00  0.00     0.002 C 
BRANCH  27  28
ATOM     28  C   UNL     1     139.812 135.829 133.765  1.00  0.00     0.028 C 
BRANCH  28  29
ATOM     29  C   UNL     1     140.343 134.734 134.699  1.00  0.00     0.156 C 
BRANCH  29  30
ATOM     30  O   UNL     1     141.067 135.308 135.752  1.00  0.00    -0.396 OA
ATOM     31  H   UNL     1     140.605 136.154 135.990  1.00  0.00     0.210 HD
ENDBRANCH  29  30
ENDBRANCH  28  29
ENDBRANCH  27  28
ENDBRANCH  26  27
ENDBRANCH  25  26
ENDBRANCH  24  25
ENDBRANCH  23  24
ENDBRANCH  22  23
ENDBRANCH  21  22
ENDBRANCH  20  21
ENDBRANCH  19  20
ENDBRANCH  18  19
ENDBRANCH  17  18
ENDBRANCH   1  17
TORSDOF 28
ENDMDL
MODEL 4
REMARK VINA RESULT:    -3.904      1.173      3.674
REMARK INTER + INTRA:         -15.732
REMARK INTER:                  -9.579
REMARK INTRA:                  -6.153
REMARK UNBOUND:                -5.552
REMARK SMILES CCCCCCCCCCCCCCCCCCCCCCCCCCCCCO
REMARK SMILES IDX 16 1 15 2 14 3 13 4 12 5 11 6 10 7 9 8 8 9 7 10 6 11 5 12
REMARK SMILES IDX 4 13 3 14 2 15 1 16 17 17 18 18 19 19 20 20 21 21 22 22
REMARK SMILES IDX 23 23 24 24 25 25 26 26 27 27 28 28 29 29 30 30
REMARK H PARENT 30 31
REMARK Flexibility Score: inf
ROOT
ATOM      1  C   UNL     1     134.768 136.106 128.184  1.00  0.00     0.000 C 
ENDROOT
BRANCH   1   2
ATOM      2  C   UNL     1     134.642 137.587 128.608  1.00  0.00     0.000 C 
BRANCH   2   3
ATOM      3  C   UNL     1     135.737 138.501 128.027  1.00  0.00     0.000 C 
BRANCH   3   4
ATOM      4  C   UNL     1     136.294 139.527 129.038  1.00  0.00     0.000 C 
BRANCH   4   5
ATOM      5  C   UNL     1     135.997 139.154 130.504  1.00  0.00     0.000 C 
BRANCH   5   6
ATOM      6  C   UNL     1     135.144 140.192 131.260  1.00  0.00     0.000 C 
BRANCH   6   7
ATOM      7  C   UNL     1     135.706 140.627 132.627  1.00  0.00     0.000 C 
BRANCH   7   8
ATOM      8  C   UNL     1     135.172 139.781 133.794  1.00  0.00    -0.000 C 
BRANCH   8   9
ATOM      9  C   UNL     1     136.274 139.533 134.836  1.00  0.00    -0.000 C 
BRANCH   9  10
ATOM     10  C   UNL     1     137.591 140.249 134.496  1.00  0.00    -0.000 C 
BRANCH  10  11
ATOM     11  C   UNL     1     138.830 139.416 134.864  1.00  0.00    -0.000 C 
BRANCH  11  12
ATOM     12  C   UNL     1     139.836 139.303 133.706  1.00  0.00    -0.000 C 
BRANCH  12  13
ATOM     13  C   UNL     1     139.243 139.684 132.332  1.00  0.00    -0.000 C 
BRANCH  13  14
ATOM     14  C   UNL     1     140.261 139.507 131.192  1.00  0.00    -0.000 C 
BRANCH  14  15
ATOM     15  C   UNL     1     139.861 140.269 129.919  1.00  0.00    -0.003 C 
ATOM     16  C   UNL     1     140.205 139.503 128.642  1.00  0.00     0.004 C 
ENDBRANCH  14  15
ENDBRANCH  13  14
ENDBRANCH  12  13
ENDBRANCH  11  12
ENDBRANCH  10  11
ENDBRANCH   9  10
ENDBRANCH   8   9
ENDBRANCH   7   8
ENDBRANCH   6   7
ENDBRANCH   5   6
ENDBRANCH   4   5
ENDBRANCH   3   4
ENDBRANCH   2   3
ENDBRANCH   1   2
BRANCH   1  17
ATOM     17  C   UNL     1     135.110 135.123 129.320  1.00  0.00     0.000 C 
BRANCH  17  18
ATOM     18  C   UNL     1     136.582 134.668 129.376  1.00  0.00     0.000 C 
BRANCH  18  19
ATOM     19  C   UNL     1     137.409 135.074 128.136  1.00  0.00     0.000 C 
BRANCH  19  20
ATOM     20  C   UNL     1     138.546 136.060 128.458  1.00  0.00     0.000 C 
BRANCH  20  21
ATOM     21  C   UNL     1     138.618 136.393 129.957  1.00  0.00     0.000 C 
BRANCH  21  22
ATOM     22  C   UNL     1     139.856 135.789 130.643  1.00  0.00     0.000 C 
BRANCH  22  23
ATOM     23  C   UNL     1     139.873 135.980 132.175  1.00  0.00     0.000 C 
BRANCH  23  24
ATOM     24  C   UNL     1     139.281 134.771 132.921  1.00  0.00     0.000 C 
BRANCH  24  25
ATOM     25  C   UNL     1     138.038 135.149 133.756  1.00  0.00     0.000 C 
BRANCH  25  26
ATOM     26  C   UNL     1     137.380 136.473 133.323  1.00  0.00     0.000 C 
BRANCH  26  27
ATOM     27  C   UNL     1     135.919 136.350 132.851  1.00  0.00     0.002 C 
BRANCH  27  28
ATOM     28  C   UNL     1     135.138 135.175 133.465  1.00  0.00     0.028 C 
BRANCH  28  29
ATOM     29  C   UNL     1     133.808 134.902 132.749  1.00  0.00     0.156 C 
BRANCH  29  30
ATOM     30  O   UNL     1     133.875 133.685 132.057  1.00  0.00    -0.396 OA
ATOM     31  H   UNL     1     132.939 133.401 131.887  1.00  0.00     0.210 HD
ENDBRANCH  29  30
ENDBRANCH  28  29
ENDBRANCH  27  28
ENDBRANCH  26  27
ENDBRANCH  25  26
ENDBRANCH  24  25
ENDBRANCH  23  24
ENDBRANCH  22  23
ENDBRANCH  21  22
ENDBRANCH  20  21
ENDBRANCH  19  20
ENDBRANCH  18  19
ENDBRANCH  17  18
ENDBRANCH   1  17
TORSDOF 28
ENDMDL
MODEL 5
REMARK VINA RESULT:    -3.896      1.452      4.800
REMARK INTER + INTRA:         -15.710
REMARK INTER:                  -9.743
REMARK INTRA:                  -5.967
REMARK UNBOUND:                -5.552
REMARK SMILES CCCCCCCCCCCCCCCCCCCCCCCCCCCCCO
REMARK SMILES IDX 16 1 15 2 14 3 13 4 12 5 11 6 10 7 9 8 8 9 7 10 6 11 5 12
REMARK SMILES IDX 4 13 3 14 2 15 1 16 17 17 18 18 19 19 20 20 21 21 22 22
REMARK SMILES IDX 23 23 24 24 25 25 26 26 27 27 28 28 29 29 30 30
REMARK H PARENT 30 31
REMARK Flexibility Score: inf
ROOT
ATOM      1  C   UNL     1     136.052 137.214 128.861  1.00  0.00     0.000 C 
ENDROOT
BRANCH   1   2
ATOM      2  C   UNL     1     135.939 135.678 128.986  1.00  0.00     0.000 C 
BRANCH   2   3
ATOM      3  C   UNL     1     137.206 134.998 129.539  1.00  0.00     0.000 C 
BRANCH   3   4
ATOM      4  C   UNL     1     138.131 134.418 128.445  1.00  0.00     0.000 C 
BRANCH   4   5
ATOM      5  C   UNL     1     139.546 135.028 128.465  1.00  0.00     0.000 C 
BRANCH   5   6
ATOM      6  C   UNL     1     139.577 136.559 128.279  1.00  0.00     0.000 C 
BRANCH   6   7
ATOM      7  C   UNL     1     140.718 137.283 129.020  1.00  0.00     0.000 C 
BRANCH   7   8
ATOM      8  C   UNL     1     140.610 138.814 128.939  1.00  0.00    -0.000 C 
BRANCH   8   9
ATOM      9  C   UNL     1     139.174 139.243 128.600  1.00  0.00    -0.000 C 
BRANCH   9  10
ATOM     10  C   UNL     1     138.490 140.000 129.751  1.00  0.00    -0.000 C 
BRANCH  10  11
ATOM     11  C   UNL     1     139.269 139.900 131.072  1.00  0.00    -0.000 C 
BRANCH  11  12
ATOM     12  C   UNL     1     138.506 139.117 132.154  1.00  0.00    -0.000 C 
BRANCH  12  13
ATOM     13  C   UNL     1     138.394 137.606 131.860  1.00  0.00    -0.000 C 
BRANCH  13  14
ATOM     14  C   UNL     1     139.517 136.799 132.534  1.00  0.00    -0.000 C 
BRANCH  14  15
ATOM     15  C   UNL     1     139.208 135.295 132.601  1.00  0.00    -0.003 C 
ATOM     16  C   UNL     1     140.323 134.437 132.006  1.00  0.00     0.004 C 
ENDBRANCH  14  15
ENDBRANCH  13  14
ENDBRANCH  12  13
ENDBRANCH  11  12
ENDBRANCH  10  11
ENDBRANCH   9  10
ENDBRANCH   8   9
ENDBRANCH   7   8
ENDBRANCH   6   7
ENDBRANCH   5   6
ENDBRANCH   4   5
ENDBRANCH   3   4
ENDBRANCH   2   3
ENDBRANCH   1   2
BRANCH   1  17
ATOM     17  C   UNL     1     135.186 138.020 129.848  1.00  0.00     0.000 C 
BRANCH  17  18
ATOM     18  C   UNL     1     134.819 139.445 129.392  1.00  0.00     0.000 C 
BRANCH  18  19
ATOM     19  C   UNL     1     134.604 140.438 130.555  1.00  0.00     0.000 C 
BRANCH  19  20
ATOM     20  C   UNL     1     135.166 139.937 131.897  1.00  0.00     0.000 C 
BRANCH  20  21
ATOM     21  C   UNL     1     134.878 140.914 133.049  1.00  0.00     0.000 C 
BRANCH  21  22
ATOM     22  C   UNL     1     135.879 140.779 134.210  1.00  0.00     0.000 C 
BRANCH  22  23
ATOM     23  C   UNL     1     135.279 140.127 135.474  1.00  0.00     0.000 C 
BRANCH  23  24
ATOM     24  C   UNL     1     136.189 139.028 136.052  1.00  0.00     0.000 C 
BRANCH  24  25
ATOM     25  C   UNL     1     136.489 137.915 135.024  1.00  0.00     0.000 C 
BRANCH  25  26
ATOM     26  C   UNL     1     135.234 137.155 134.550  1.00  0.00     0.000 C 
BRANCH  26  27
ATOM     27  C   UNL     1     135.473 135.685 134.161  1.00  0.00     0.002 C 
BRANCH  27  28
ATOM     28  C   UNL     1     135.515 135.415 132.646  1.00  0.00     0.028 C 
BRANCH  28  29
ATOM     29  C   UNL     1     134.135 135.100 132.056  1.00  0.00     0.156 C 
BRANCH  29  30
ATOM     30  O   UNL     1     133.587 133.975 132.687  1.00  0.00    -0.396 OA
ATOM     31  H   UNL     1     132.805 134.294 133.211  1.00  0.00     0.210 HD
ENDBRANCH  29  30
ENDBRANCH  28  29
ENDBRANCH  27  28
ENDBRANCH  26  27
ENDBRANCH  25  26
ENDBRANCH  24  25
ENDBRANCH  23  24
ENDBRANCH  22  23
ENDBRANCH  21  22
ENDBRANCH  20  21
ENDBRANCH  19  20
ENDBRANCH  18  19
ENDBRANCH  17  18
ENDBRANCH   1  17
TORSDOF 28
ENDMDL
MODEL 6
REMARK VINA RESULT:    -3.836      2.169      5.425
REMARK INTER + INTRA:         -15.555
REMARK INTER:                 -10.349
REMARK INTRA:                  -5.205
REMARK UNBOUND:                -5.552
REMARK SMILES CCCCCCCCCCCCCCCCCCCCCCCCCCCCCO
REMARK SMILES IDX 16 1 15 2 14 3 13 4 12 5 11 6 10 7 9 8 8 9 7 10 6 11 5 12
REMARK SMILES IDX 4 13 3 14 2 15 1 16 17 17 18 18 19 19 20 20 21 21 22 22
REMARK SMILES IDX 23 23 24 24 25 25 26 26 27 27 28 28 29 29 30 30
REMARK H PARENT 30 31
REMARK Flexibility Score: inf
ROOT
ATOM      1  C   UNL     1     138.280 139.133 128.701  1.00  0.00     0.000 C 
ENDROOT
BRANCH   1   2
ATOM      2  C   UNL     1     138.131 140.575 129.236  1.00  0.00     0.000 C 
BRANCH   2   3
ATOM      3  C   UNL     1     136.707 141.148 129.110  1.00  0.00     0.000 C 
BRANCH   3   4
ATOM      4  C   UNL     1     135.596 140.076 129.172  1.00  0.00     0.000 C 
BRANCH   4   5
ATOM      5  C   UNL     1     134.667 140.240 130.390  1.00  0.00     0.000 C 
BRANCH   5   6
ATOM      6  C   UNL     1     135.360 140.823 131.639  1.00  0.00     0.000 C 
BRANCH   6   7
ATOM      7  C   UNL     1     135.378 139.894 132.868  1.00  0.00     0.000 C 
BRANCH   7   8
ATOM      8  C   UNL     1     135.381 138.403 132.495  1.00  0.00    -0.000 C 
BRANCH   8   9
ATOM      9  C   UNL     1     135.376 137.525 133.756  1.00  0.00    -0.000 C 
BRANCH   9  10
ATOM     10  C   UNL     1     135.713 136.054 133.462  1.00  0.00    -0.000 C 
BRANCH  10  11
ATOM     11  C   UNL     1     134.482 135.237 133.036  1.00  0.00    -0.000 C 
BRANCH  11  12
ATOM     12  C   UNL     1     134.623 134.642 131.625  1.00  0.00    -0.000 C 
BRANCH  12  13
ATOM     13  C   UNL     1     135.811 135.220 130.826  1.00  0.00    -0.000 C 
BRANCH  13  14
ATOM     14  C   UNL     1     135.568 135.169 129.308  1.00  0.00    -0.000 C 
BRANCH  14  15
ATOM     15  C   UNL     1     135.124 136.525 128.734  1.00  0.00    -0.003 C 
ATOM     16  C   UNL     1     133.706 136.489 128.167  1.00  0.00     0.004 C 
ENDBRANCH  14  15
ENDBRANCH  13  14
ENDBRANCH  12  13
ENDBRANCH  11  12
ENDBRANCH  10  11
ENDBRANCH   9  10
ENDBRANCH   8   9
ENDBRANCH   7   8
ENDBRANCH   6   7
ENDBRANCH   5   6
ENDBRANCH   4   5
ENDBRANCH   3   4
ENDBRANCH   2   3
ENDBRANCH   1   2
BRANCH   1  17
ATOM     17  C   UNL     1     139.716 138.576 128.702  1.00  0.00     0.000 C 
BRANCH  17  18
ATOM     18  C   UNL     1     139.921 137.282 127.891  1.00  0.00     0.000 C 
BRANCH  18  19
ATOM     19  C   UNL     1     138.916 136.160 128.238  1.00  0.00     0.000 C 
BRANCH  19  20
ATOM     20  C   UNL     1     139.582 134.910 128.839  1.00  0.00     0.000 C 
BRANCH  20  21
ATOM     21  C   UNL     1     140.316 135.218 130.154  1.00  0.00     0.000 C 
BRANCH  21  22
ATOM     22  C   UNL     1     139.606 134.628 131.386  1.00  0.00     0.000 C 
BRANCH  22  23
ATOM     23  C   UNL     1     139.154 135.691 132.411  1.00  0.00     0.000 C 
BRANCH  23  24
ATOM     24  C   UNL     1     139.766 137.074 132.127  1.00  0.00     0.000 C 
BRANCH  24  25
ATOM     25  C   UNL     1     138.697 138.187 132.065  1.00  0.00     0.000 C 
BRANCH  25  26
ATOM     26  C   UNL     1     139.128 139.497 132.754  1.00  0.00     0.000 C 
BRANCH  26  27
ATOM     27  C   UNL     1     140.386 140.160 132.163  1.00  0.00     0.002 C 
BRANCH  27  28
ATOM     28  C   UNL     1     141.587 140.240 133.122  1.00  0.00     0.028 C 
BRANCH  28  29
ATOM     29  C   UNL     1     141.187 140.078 134.594  1.00  0.00     0.156 C 
BRANCH  29  30
ATOM     30  O   UNL     1     141.387 138.752 135.004  1.00  0.00    -0.396 OA
ATOM     31  H   UNL     1     141.043 138.172 134.274  1.00  0.00     0.210 HD
ENDBRANCH  29  30
ENDBRANCH  28  29
ENDBRANCH  27  28
ENDBRANCH  26  27
ENDBRANCH  25  26
ENDBRANCH  24  25
ENDBRANCH  23  24
ENDBRANCH  22  23
ENDBRANCH  21  22
ENDBRANCH  20  21
ENDBRANCH  19  20
ENDBRANCH  18  19
ENDBRANCH  17  18
ENDBRANCH   1  17
TORSDOF 28
ENDMDL
MODEL 7
REMARK VINA RESULT:    -3.799      2.079      5.508
REMARK INTER + INTRA:         -15.458
REMARK INTER:                 -10.187
REMARK INTRA:                  -5.271
REMARK UNBOUND:                -5.552
REMARK SMILES CCCCCCCCCCCCCCCCCCCCCCCCCCCCCO
REMARK SMILES IDX 16 1 15 2 14 3 13 4 12 5 11 6 10 7 9 8 8 9 7 10 6 11 5 12
REMARK SMILES IDX 4 13 3 14 2 15 1 16 17 17 18 18 19 19 20 20 21 21 22 22
REMARK SMILES IDX 23 23 24 24 25 25 26 26 27 27 28 28 29 29 30 30
REMARK H PARENT 30 31
REMARK Flexibility Score: inf
ROOT
ATOM      1  C   UNL     1     138.053 134.504 128.746  1.00  0.00     0.000 C 
ENDROOT
BRANCH   1   2
ATOM      2  C   UNL     1     136.742 135.314 128.869  1.00  0.00     0.000 C 
BRANCH   2   3
ATOM      3  C   UNL     1     136.330 135.623 130.320  1.00  0.00     0.000 C 
BRANCH   3   4
ATOM      4  C   UNL     1     135.010 134.945 130.752  1.00  0.00     0.000 C 
BRANCH   4   5
ATOM      5  C   UNL     1     134.774 134.997 132.274  1.00  0.00     0.000 C 
BRANCH   5   6
ATOM      6  C   UNL     1     135.300 136.279 132.951  1.00  0.00     0.000 C 
BRANCH   6   7
ATOM      7  C   UNL     1     135.637 136.135 134.447  1.00  0.00     0.000 C 
BRANCH   7   8
ATOM      8  C   UNL     1     136.208 137.423 135.062  1.00  0.00    -0.000 C 
BRANCH   8   9
ATOM      9  C   UNL     1     135.249 138.603 134.844  1.00  0.00    -0.000 C 
BRANCH   9  10
ATOM     10  C   UNL     1     135.868 139.728 133.998  1.00  0.00    -0.000 C 
BRANCH  10  11
ATOM     11  C   UNL     1     134.822 140.735 133.492  1.00  0.00    -0.000 C 
BRANCH  11  12
ATOM     12  C   UNL     1     134.906 140.968 131.974  1.00  0.00    -0.000 C 
BRANCH  12  13
ATOM     13  C   UNL     1     135.848 139.984 131.249  1.00  0.00    -0.000 C 
BRANCH  13  14
ATOM     14  C   UNL     1     135.076 138.972 130.385  1.00  0.00    -0.000 C 
BRANCH  14  15
ATOM     15  C   UNL     1     135.449 139.058 128.897  1.00  0.00    -0.003 C 
ATOM     16  C   UNL     1     135.713 140.492 128.437  1.00  0.00     0.004 C 
ENDBRANCH  14  15
ENDBRANCH  13  14
ENDBRANCH  12  13
ENDBRANCH  11  12
ENDBRANCH  10  11
ENDBRANCH   9  10
ENDBRANCH   8   9
ENDBRANCH   7   8
ENDBRANCH   6   7
ENDBRANCH   5   6
ENDBRANCH   4   5
ENDBRANCH   3   4
ENDBRANCH   2   3
ENDBRANCH   1   2
BRANCH   1  17
ATOM     17  C   UNL     1     139.062 134.707 129.892  1.00  0.00     0.000 C 
BRANCH  17  18
ATOM     18  C   UNL     1     140.269 135.604 129.556  1.00  0.00     0.000 C 
BRANCH  18  19
ATOM     19  C   UNL     1     140.013 136.588 128.394  1.00  0.00     0.000 C 
BRANCH  19  20
ATOM     20  C   UNL     1     140.350 138.048 128.746  1.00  0.00     0.000 C 
BRANCH  20  21
ATOM     21  C   UNL     1     139.097 138.938 128.799  1.00  0.00     0.000 C 
BRANCH  21  22
ATOM     22  C   UNL     1     139.223 140.086 129.815  1.00  0.00     0.000 C 
BRANCH  22  23
ATOM     23  C   UNL     1     140.135 139.756 131.016  1.00  0.00     0.000 C 
BRANCH  23  24
ATOM     24  C   UNL     1     139.332 139.380 132.274  1.00  0.00     0.000 C 
BRANCH  24  25
ATOM     25  C   UNL     1     138.773 137.942 132.204  1.00  0.00     0.000 C 
BRANCH  25  26
ATOM     26  C   UNL     1     139.176 137.062 133.404  1.00  0.00     0.000 C 
BRANCH  26  27
ATOM     27  C   UNL     1     139.808 135.708 133.034  1.00  0.00     0.002 C 
BRANCH  27  28
ATOM     28  C   UNL     1     139.546 134.574 134.042  1.00  0.00     0.028 C 
BRANCH  28  29
ATOM     29  C   UNL     1     140.283 133.276 133.687  1.00  0.00     0.156 C 
BRANCH  29  30
ATOM     30  O   UNL     1     141.236 133.522 132.689  1.00  0.00    -0.396 OA
ATOM     31  H   UNL     1     140.752 133.930 131.924  1.00  0.00     0.210 HD
ENDBRANCH  29  30
ENDBRANCH  28  29
ENDBRANCH  27  28
ENDBRANCH  26  27
ENDBRANCH  25  26
ENDBRANCH  24  25
ENDBRANCH  23  24
ENDBRANCH  22  23
ENDBRANCH  21  22
ENDBRANCH  20  21
ENDBRANCH  19  20
ENDBRANCH  18  19
ENDBRANCH  17  18
ENDBRANCH   1  17
TORSDOF 28
ENDMDL
MODEL 8
REMARK VINA RESULT:    -3.798      2.065      4.637
REMARK INTER + INTRA:         -15.456
REMARK INTER:                  -9.610
REMARK INTRA:                  -5.846
REMARK UNBOUND:                -5.552
REMARK SMILES CCCCCCCCCCCCCCCCCCCCCCCCCCCCCO
REMARK SMILES IDX 16 1 15 2 14 3 13 4 12 5 11 6 10 7 9 8 8 9 7 10 6 11 5 12
REMARK SMILES IDX 4 13 3 14 2 15 1 16 17 17 18 18 19 19 20 20 21 21 22 22
REMARK SMILES IDX 23 23 24 24 25 25 26 26 27 27 28 28 29 29 30 30
REMARK H PARENT 30 31
REMARK Flexibility Score: inf
ROOT
ATOM      1  C   UNL     1     136.213 137.095 128.440  1.00  0.00     0.000 C 
ENDROOT
BRANCH   1   2
ATOM      2  C   UNL     1     135.480 138.454 128.382  1.00  0.00     0.000 C 
BRANCH   2   3
ATOM      3  C   UNL     1     135.195 139.072 129.764  1.00  0.00     0.000 C 
BRANCH   3   4
ATOM      4  C   UNL     1     136.164 140.212 130.150  1.00  0.00     0.000 C 
BRANCH   4   5
ATOM      5  C   UNL     1     137.102 140.622 128.998  1.00  0.00     0.000 C 
BRANCH   5   6
ATOM      6  C   UNL     1     138.584 140.266 129.235  1.00  0.00     0.000 C 
BRANCH   6   7
ATOM      7  C   UNL     1     139.194 139.296 128.205  1.00  0.00     0.000 C 
BRANCH   7   8
ATOM      8  C   UNL     1     140.251 138.359 128.813  1.00  0.00    -0.000 C 
BRANCH   8   9
ATOM      9  C   UNL     1     139.935 136.893 128.481  1.00  0.00    -0.000 C 
BRANCH   9  10
ATOM     10  C   UNL     1     140.249 135.936 129.643  1.00  0.00    -0.000 C 
BRANCH  10  11
ATOM     11  C   UNL     1     138.984 135.328 130.269  1.00  0.00    -0.000 C 
BRANCH  11  12
ATOM     12  C   UNL     1     138.663 135.918 131.653  1.00  0.00    -0.000 C 
BRANCH  12  13
ATOM     13  C   UNL     1     138.010 137.315 131.593  1.00  0.00    -0.000 C 
BRANCH  13  14
ATOM     14  C   UNL     1     138.834 138.373 132.347  1.00  0.00    -0.000 C 
BRANCH  14  15
ATOM     15  C   UNL     1     139.632 137.778 133.518  1.00  0.00    -0.003 C 
ATOM     16  C   UNL     1     139.538 138.626 134.786  1.00  0.00     0.004 C 
ENDBRANCH  14  15
ENDBRANCH  13  14
ENDBRANCH  12  13
ENDBRANCH  11  12
ENDBRANCH  10  11
ENDBRANCH   9  10
ENDBRANCH   8   9
ENDBRANCH   7   8
ENDBRANCH   6   7
ENDBRANCH   5   6
ENDBRANCH   4   5
ENDBRANCH   3   4
ENDBRANCH   2   3
ENDBRANCH   1   2
BRANCH   1  17
ATOM     17  C   UNL     1     135.415 135.893 127.899  1.00  0.00     0.000 C 
BRANCH  17  18
ATOM     18  C   UNL     1     134.611 135.108 128.952  1.00  0.00     0.000 C 
BRANCH  18  19
ATOM     19  C   UNL     1     135.321 134.986 130.319  1.00  0.00     0.000 C 
BRANCH  19  20
ATOM     20  C   UNL     1     134.602 135.741 131.450  1.00  0.00     0.000 C 
BRANCH  20  21
ATOM     21  C   UNL     1     134.619 134.958 132.773  1.00  0.00     0.000 C 
BRANCH  21  22
ATOM     22  C   UNL     1     135.640 135.512 133.782  1.00  0.00     0.000 C 
BRANCH  22  23
ATOM     23  C   UNL     1     135.061 136.588 134.726  1.00  0.00     0.000 C 
BRANCH  23  24
ATOM     24  C   UNL     1     135.899 137.879 134.724  1.00  0.00     0.000 C 
BRANCH  24  25
ATOM     25  C   UNL     1     135.324 138.950 133.771  1.00  0.00     0.000 C 
BRANCH  25  26
ATOM     26  C   UNL     1     136.164 140.241 133.714  1.00  0.00     0.000 C 
BRANCH  26  27
ATOM     27  C   UNL     1     135.349 141.548 133.733  1.00  0.00     0.002 C 
BRANCH  27  28
ATOM     28  C   UNL     1     134.902 142.011 135.132  1.00  0.00     0.028 C 
BRANCH  28  29
ATOM     29  C   UNL     1     133.403 142.328 135.205  1.00  0.00     0.156 C 
BRANCH  29  30
ATOM     30  O   UNL     1     132.872 142.444 133.913  1.00  0.00    -0.396 OA
ATOM     31  H   UNL     1     132.472 143.351 133.849  1.00  0.00     0.210 HD
ENDBRANCH  29  30
ENDBRANCH  28  29
ENDBRANCH  27  28
ENDBRANCH  26  27
ENDBRANCH  25  26
ENDBRANCH  24  25
ENDBRANCH  23  24
ENDBRANCH  22  23
ENDBRANCH  21  22
ENDBRANCH  20  21
ENDBRANCH  19  20
ENDBRANCH  18  19
ENDBRANCH  17  18
ENDBRANCH   1  17
TORSDOF 28
ENDMDL
MODEL 9
REMARK VINA RESULT:    -3.785      1.900      4.577
REMARK INTER + INTRA:         -15.423
REMARK INTER:                  -9.359
REMARK INTRA:                  -6.063
REMARK UNBOUND:                -5.552
REMARK SMILES CCCCCCCCCCCCCCCCCCCCCCCCCCCCCO
REMARK SMILES IDX 16 1 15 2 14 3 13 4 12 5 11 6 10 7 9 8 8 9 7 10 6 11 5 12
REMARK SMILES IDX 4 13 3 14 2 15 1 16 17 17 18 18 19 19 20 20 21 21 22 22
REMARK SMILES IDX 23 23 24 24 25 25 26 26 27 27 28 28 29 29 30 30
REMARK H PARENT 30 31
REMARK Flexibility Score: inf
ROOT
ATOM      1  C   UNL     1     138.710 139.304 132.013  1.00  0.00     0.000 C 
ENDROOT
BRANCH   1   2
ATOM      2  C   UNL     1     137.563 138.580 131.271  1.00  0.00     0.000 C 
BRANCH   2   3
ATOM      3  C   UNL     1     136.384 139.496 130.895  1.00  0.00     0.000 C 
BRANCH   3   4
ATOM      4  C   UNL     1     136.335 139.867 129.396  1.00  0.00     0.000 C 
BRANCH   4   5
ATOM      5  C   UNL     1     135.583 138.830 128.541  1.00  0.00     0.000 C 
BRANCH   5   6
ATOM      6  C   UNL     1     134.644 137.909 129.347  1.00  0.00     0.000 C 
BRANCH   6   7
ATOM      7  C   UNL     1     134.216 136.618 128.622  1.00  0.00     0.000 C 
BRANCH   7   8
ATOM      8  C   UNL     1     135.061 135.397 129.018  1.00  0.00    -0.000 C 
BRANCH   8   9
ATOM      9  C   UNL     1     135.541 135.515 130.473  1.00  0.00    -0.000 C 
BRANCH   9  10
ATOM     10  C   UNL     1     134.696 134.682 131.451  1.00  0.00    -0.000 C 
BRANCH  10  11
ATOM     11  C   UNL     1     134.827 135.162 132.905  1.00  0.00    -0.000 C 
BRANCH  11  12
ATOM     12  C   UNL     1     135.052 136.680 133.012  1.00  0.00    -0.000 C 
BRANCH  12  13
ATOM     13  C   UNL     1     135.843 137.101 134.269  1.00  0.00    -0.000 C 
BRANCH  13  14
ATOM     14  C   UNL     1     135.241 138.347 134.942  1.00  0.00    -0.000 C 
BRANCH  14  15
ATOM     15  C   UNL     1     135.901 139.652 134.470  1.00  0.00    -0.003 C 
ATOM     16  C   UNL     1     134.889 140.770 134.226  1.00  0.00     0.004 C 
ENDBRANCH  14  15
ENDBRANCH  13  14
ENDBRANCH  12  13
ENDBRANCH  11  12
ENDBRANCH  10  11
ENDBRANCH   9  10
ENDBRANCH   8   9
ENDBRANCH   7   8
ENDBRANCH   6   7
ENDBRANCH   5   6
ENDBRANCH   4   5
ENDBRANCH   3   4
ENDBRANCH   2   3
ENDBRANCH   1   2
BRANCH   1  17
ATOM     17  C   UNL     1     140.070 139.297 131.289  1.00  0.00     0.000 C 
BRANCH  17  18
ATOM     18  C   UNL     1     140.249 140.385 130.213  1.00  0.00     0.000 C 
BRANCH  18  19
ATOM     19  C   UNL     1     140.063 139.872 128.767  1.00  0.00     0.000 C 
BRANCH  19  20
ATOM     20  C   UNL     1     140.313 138.361 128.620  1.00  0.00     0.000 C 
BRANCH  20  21
ATOM     21  C   UNL     1     139.075 137.616 128.094  1.00  0.00     0.000 C 
BRANCH  21  22
ATOM     22  C   UNL     1     138.900 136.226 128.730  1.00  0.00     0.000 C 
BRANCH  22  23
ATOM     23  C   UNL     1     140.234 135.525 129.069  1.00  0.00     0.000 C 
BRANCH  23  24
ATOM     24  C   UNL     1     140.312 135.102 130.546  1.00  0.00     0.000 C 
BRANCH  24  25
ATOM     25  C   UNL     1     138.935 134.694 131.114  1.00  0.00     0.000 C 
BRANCH  25  26
ATOM     26  C   UNL     1     138.597 135.366 132.459  1.00  0.00     0.000 C 
BRANCH  26  27
ATOM     27  C   UNL     1     139.813 135.872 133.257  1.00  0.00     0.002 C 
BRANCH  27  28
ATOM     28  C   UNL     1     139.678 135.755 134.786  1.00  0.00     0.028 C 
BRANCH  28  29
ATOM     29  C   UNL     1     138.577 134.777 135.216  1.00  0.00     0.156 C 
BRANCH  29  30
ATOM     30  O   UNL     1     139.087 133.473 135.275  1.00  0.00    -0.396 OA
ATOM     31  H   UNL     1     138.999 133.174 136.218  1.00  0.00     0.210 HD
ENDBRANCH  29  30
ENDBRANCH  28  29
ENDBRANCH  27  28
ENDBRANCH  26  27
ENDBRANCH  25  26
ENDBRANCH  24  25
ENDBRANCH  23  24
ENDBRANCH  22  23
ENDBRANCH  21  22
ENDBRANCH  20  21
ENDBRANCH  19  20
ENDBRANCH  18  19
ENDBRANCH  17  18
ENDBRANCH   1  17
TORSDOF 28
ENDMDL
