MODEL 1
REMARK VINA RESULT:    -3.347      0.000      0.000
REMARK INTER + INTRA:          -3.640
REMARK INTER:                  -3.640
REMARK INTRA:                   0.000
REMARK UNBOUND:                 0.000
REMARK SMILES [NH3+]CC(=O)[O-]
REMARK SMILES IDX 2 1 1 2 3 6 4 7 5 8
REMARK H PARENT 1 3 1 4 1 5
REMARK Flexibility Score: inf
ROOT
ATOM      1  C   UNL     1     -17.334  63.982  11.209  1.00  0.00     0.312 C 
ENDROOT
BRANCH   1   2
ATOM      2  N   UNL     1     -15.923  64.300  11.425  1.00  0.00    -0.353 N 
ATOM      3  H   UNL     1     -15.751  64.502  12.436  1.00  0.00     0.344 HD
ATOM      4  H   UNL     1     -15.324  63.500  11.117  1.00  0.00     0.344 HD
ATOM      5  H   UNL     1     -15.674  65.146  10.863  1.00  0.00     0.344 HD
ENDBRANCH   1   2
BRANCH   1   6
ATOM      6  C   UNL     1     -17.508  62.524  10.922  1.00  0.00     0.096 C 
ATOM      7  O   UNL     1     -17.348  61.674  11.837  1.00  0.00    -0.544 OA
ATOM      8  O   UNL     1     -17.899  62.106   9.656  1.00  0.00    -0.544 OA
ENDBRANCH   1   6
TORSDOF 2
ENDMDL
MODEL 2
REMARK VINA RESULT:    -3.283      2.395      2.560
REMARK INTER + INTRA:          -3.571
REMARK INTER:                  -3.571
REMARK INTRA:                   0.000
REMARK UNBOUND:                 0.000
REMARK SMILES [NH3+]CC(=O)[O-]
REMARK SMILES IDX 2 1 1 2 3 6 4 7 5 8
REMARK H PARENT 1 3 1 4 1 5
REMARK Flexibility Score: inf
ROOT
ATOM      1  C   UNL     1     -17.669  62.233  10.555  1.00  0.00     0.312 C 
ENDROOT
BRANCH   1   2
ATOM      2  N   UNL     1     -18.943  61.640  10.960  1.00  0.00    -0.353 N 
ATOM      3  H   UNL     1     -19.670  61.814  10.228  1.00  0.00     0.344 HD
ATOM      4  H   UNL     1     -18.829  60.611  11.108  1.00  0.00     0.344 HD
ATOM      5  H   UNL     1     -19.254  62.079  11.857  1.00  0.00     0.344 HD
ENDBRANCH   1   2
BRANCH   1   6
ATOM      6  C   UNL     1     -17.353  63.430  11.396  1.00  0.00     0.096 C 
ATOM      7  O   UNL     1     -16.990  63.285  12.592  1.00  0.00    -0.544 OA
ATOM      8  O   UNL     1     -17.410  64.703  10.843  1.00  0.00    -0.544 OA
ENDBRANCH   1   6
TORSDOF 2
ENDMDL
MODEL 3
REMARK VINA RESULT:    -3.005     12.456     12.889
REMARK INTER + INTRA:          -3.269
REMARK INTER:                  -3.269
REMARK INTRA:                   0.000
REMARK UNBOUND:                 0.000
REMARK SMILES [NH3+]CC(=O)[O-]
REMARK SMILES IDX 2 1 1 2 3 6 4 7 5 8
REMARK H PARENT 1 3 1 4 1 5
REMARK Flexibility Score: inf
ROOT
ATOM      1  C   UNL     1     -19.417  68.542  -1.297  1.00  0.00     0.312 C 
ENDROOT
BRANCH   1   2
ATOM      2  N   UNL     1     -18.228  69.272  -0.860  1.00  0.00    -0.353 N 
ATOM      3  H   UNL     1     -17.684  69.603  -1.689  1.00  0.00     0.344 HD
ATOM      4  H   UNL     1     -18.507  70.091  -0.270  1.00  0.00     0.344 HD
ATOM      5  H   UNL     1     -17.626  68.635  -0.291  1.00  0.00     0.344 HD
ENDBRANCH   1   2
BRANCH   1   6
ATOM      6  C   UNL     1     -19.399  67.141  -0.771  1.00  0.00     0.096 C 
ATOM      7  O   UNL     1     -19.146  66.924   0.444  1.00  0.00    -0.544 OA
ATOM      8  O   UNL     1     -19.712  66.078  -1.609  1.00  0.00    -0.544 OA
ENDBRANCH   1   6
TORSDOF 2
ENDMDL
MODEL 4
REMARK VINA RESULT:    -2.943     12.711     13.163
REMARK INTER + INTRA:          -3.201
REMARK INTER:                  -3.201
REMARK INTRA:                   0.000
REMARK UNBOUND:                 0.000
REMARK SMILES [NH3+]CC(=O)[O-]
REMARK SMILES IDX 2 1 1 2 3 6 4 7 5 8
REMARK H PARENT 1 3 1 4 1 5
REMARK Flexibility Score: inf
ROOT
ATOM      1  C   UNL     1     -21.843  68.539  -0.476  1.00  0.00     0.312 C 
ENDROOT
BRANCH   1   2
ATOM      2  N   UNL     1     -23.154  67.892  -0.458  1.00  0.00    -0.353 N 
ATOM      3  H   UNL     1     -23.278  67.354   0.430  1.00  0.00     0.344 HD
ATOM      4  H   UNL     1     -23.910  68.610  -0.545  1.00  0.00     0.344 HD
ATOM      5  H   UNL     1     -23.220  67.232  -1.267  1.00  0.00     0.344 HD
ENDBRANCH   1   2
BRANCH   1   6
ATOM      6  C   UNL     1     -21.543  69.161   0.852  1.00  0.00     0.096 C 
ATOM      7  O   UNL     1     -21.235  68.438   1.836  1.00  0.00    -0.544 OA
ATOM      8  O   UNL     1     -21.554  70.543   0.991  1.00  0.00    -0.544 OA
ENDBRANCH   1   6
TORSDOF 2
ENDMDL
MODEL 5
REMARK VINA RESULT:    -2.895     12.338     12.611
REMARK INTER + INTRA:          -3.149
REMARK INTER:                  -3.149
REMARK INTRA:                   0.000
REMARK UNBOUND:                 0.000
REMARK SMILES [NH3+]CC(=O)[O-]
REMARK SMILES IDX 2 1 1 2 3 6 4 7 5 8
REMARK H PARENT 1 3 1 4 1 5
REMARK Flexibility Score: inf
ROOT
ATOM      1  C   UNL     1     -21.594  68.015  -0.594  1.00  0.00     0.312 C 
ENDROOT
BRANCH   1   2
ATOM      2  N   UNL     1     -23.002  67.971  -0.201  1.00  0.00    -0.353 N 
ATOM      3  H   UNL     1     -23.119  67.382   0.654  1.00  0.00     0.344 HD
ATOM      4  H   UNL     1     -23.353  68.940  -0.015  1.00  0.00     0.344 HD
ATOM      5  H   UNL     1     -23.560  67.553  -0.980  1.00  0.00     0.344 HD
ENDBRANCH   1   2
BRANCH   1   6
ATOM      6  C   UNL     1     -20.709  67.988   0.613  1.00  0.00     0.096 C 
ATOM      7  O   UNL     1     -21.104  68.485   1.700  1.00  0.00    -0.544 OA
ATOM      8  O   UNL     1     -19.468  67.366   0.551  1.00  0.00    -0.544 OA
ENDBRANCH   1   6
TORSDOF 2
ENDMDL
MODEL 6
REMARK VINA RESULT:    -2.853     12.901     13.214
REMARK INTER + INTRA:          -3.103
REMARK INTER:                  -3.103
REMARK INTRA:                   0.000
REMARK UNBOUND:                 0.000
REMARK SMILES [NH3+]CC(=O)[O-]
REMARK SMILES IDX 2 1 1 2 3 6 4 7 5 8
REMARK H PARENT 1 3 1 4 1 5
REMARK Flexibility Score: inf
ROOT
ATOM      1  C   UNL     1     -18.906  67.858  -0.427  1.00  0.00     0.312 C 
ENDROOT
BRANCH   1   2
ATOM      2  N   UNL     1     -18.554  69.218  -0.835  1.00  0.00    -0.353 N 
ATOM      3  H   UNL     1     -18.086  69.203  -1.770  1.00  0.00     0.344 HD
ATOM      4  H   UNL     1     -19.414  69.812  -0.880  1.00  0.00     0.344 HD
ATOM      5  H   UNL     1     -17.897  69.625  -0.132  1.00  0.00     0.344 HD
ENDBRANCH   1   2
BRANCH   1   6
ATOM      6  C   UNL     1     -20.291  67.514  -0.877  1.00  0.00     0.096 C 
ATOM      7  O   UNL     1     -20.467  66.841  -1.926  1.00  0.00    -0.544 OA
ATOM      8  O   UNL     1     -21.386  67.891  -0.110  1.00  0.00    -0.544 OA
ENDBRANCH   1   6
TORSDOF 2
ENDMDL
MODEL 7
REMARK VINA RESULT:    -2.812     11.995     12.462
REMARK INTER + INTRA:          -3.059
REMARK INTER:                  -3.059
REMARK INTRA:                   0.000
REMARK UNBOUND:                 0.000
REMARK SMILES [NH3+]CC(=O)[O-]
REMARK SMILES IDX 2 1 1 2 3 6 4 7 5 8
REMARK H PARENT 1 3 1 4 1 5
REMARK Flexibility Score: inf
ROOT
ATOM      1  C   UNL     1     -21.303  68.522   1.319  1.00  0.00     0.312 C 
ENDROOT
BRANCH   1   2
ATOM      2  N   UNL     1     -22.666  68.334   0.823  1.00  0.00    -0.353 N 
ATOM      3  H   UNL     1     -22.887  67.314   0.756  1.00  0.00     0.344 HD
ATOM      4  H   UNL     1     -23.349  68.802   1.463  1.00  0.00     0.344 HD
ATOM      5  H   UNL     1     -22.745  68.761  -0.128  1.00  0.00     0.344 HD
ENDBRANCH   1   2
BRANCH   1   6
ATOM      6  C   UNL     1     -20.306  68.006   0.330  1.00  0.00     0.096 C 
ATOM      7  O   UNL     1     -19.405  67.207   0.697  1.00  0.00    -0.544 OA
ATOM      8  O   UNL     1     -20.402  68.367  -1.008  1.00  0.00    -0.544 OA
ENDBRANCH   1   6
TORSDOF 2
ENDMDL
MODEL 8
REMARK VINA RESULT:    -2.650     12.693     13.032
REMARK INTER + INTRA:          -2.883
REMARK INTER:                  -2.883
REMARK INTRA:                   0.000
REMARK UNBOUND:                 0.000
REMARK SMILES [NH3+]CC(=O)[O-]
REMARK SMILES IDX 2 1 1 2 3 6 4 7 5 8
REMARK H PARENT 1 3 1 4 1 5
REMARK Flexibility Score: inf
ROOT
ATOM      1  C   UNL     1     -21.812  69.904   0.765  1.00  0.00     0.312 C 
ENDROOT
BRANCH   1   2
ATOM      2  N   UNL     1     -20.887  70.783   0.052  1.00  0.00    -0.353 N 
ATOM      3  H   UNL     1     -21.094  70.768  -0.973  1.00  0.00     0.344 HD
ATOM      4  H   UNL     1     -20.970  71.761   0.415  1.00  0.00     0.344 HD
ATOM      5  H   UNL     1     -19.909  70.447   0.205  1.00  0.00     0.344 HD
ENDBRANCH   1   2
BRANCH   1   6
ATOM      6  C   UNL     1     -21.587  68.476   0.378  1.00  0.00     0.096 C 
ATOM      7  O   UNL     1     -20.551  67.871   0.761  1.00  0.00    -0.544 OA
ATOM      8  O   UNL     1     -22.546  67.796  -0.363  1.00  0.00    -0.544 OA
ENDBRANCH   1   6
TORSDOF 2
ENDMDL
MODEL 9
REMARK VINA RESULT:    -2.581     13.551     13.706
REMARK INTER + INTRA:          -2.807
REMARK INTER:                  -2.807
REMARK INTRA:                   0.000
REMARK UNBOUND:                 0.000
REMARK SMILES [NH3+]CC(=O)[O-]
REMARK SMILES IDX 2 1 1 2 3 6 4 7 5 8
REMARK H PARENT 1 3 1 4 1 5
REMARK Flexibility Score: inf
ROOT
ATOM      1  C   UNL     1     -21.079  68.032  -0.780  1.00  0.00     0.312 C 
ENDROOT
BRANCH   1   2
ATOM      2  N   UNL     1     -20.355  67.109  -1.653  1.00  0.00    -0.353 N 
ATOM      3  H   UNL     1     -20.920  66.243  -1.810  1.00  0.00     0.344 HD
ATOM      4  H   UNL     1     -20.149  67.568  -2.570  1.00  0.00     0.344 HD
ATOM      5  H   UNL     1     -19.452  66.845  -1.196  1.00  0.00     0.344 HD
ENDBRANCH   1   2
BRANCH   1   6
ATOM      6  C   UNL     1     -20.233  69.223  -0.454  1.00  0.00     0.096 C 
ATOM      7  O   UNL     1     -18.980  69.159  -0.561  1.00  0.00    -0.544 OA
ATOM      8  O   UNL     1     -20.831  70.420  -0.080  1.00  0.00    -0.544 OA
ENDBRANCH   1   6
TORSDOF 2
ENDMDL
