MODEL 1
REMARK VINA RESULT:    -3.173      0.000      0.000
REMARK INTER + INTRA:          -8.856
REMARK INTER:                  -5.770
REMARK INTRA:                  -3.086
REMARK UNBOUND:                -3.086
REMARK SMILES CCCCCCCCCCCCCC[C@H](C)C(=O)[O-]
REMARK SMILES IDX 9 1 10 2 11 3 12 4 13 5 14 6 15 7 16 8 17 9 18 10 19 11 8 12
REMARK SMILES IDX 7 13 6 14 5 15 4 16 3 17 2 18 1 19
REMARK H PARENT
REMARK Flexibility Score: inf
ROOT
ATOM      1  C   UNL     1      12.451 -13.175  22.379  1.00  0.00     0.000 C 
ENDROOT
BRANCH   1   2
ATOM      2  C   UNL     1      12.384 -11.875  23.195  1.00  0.00     0.000 C 
BRANCH   2   3
ATOM      3  C   UNL     1      13.052 -10.718  22.437  1.00  0.00     0.000 C 
BRANCH   3   4
ATOM      4  C   UNL     1      13.755 -11.183  21.151  1.00  0.00     0.000 C 
BRANCH   4   5
ATOM      5  C   UNL     1      13.561 -10.201  19.983  1.00  0.00     0.001 C 
BRANCH   5   6
ATOM      6  C   UNL     1      14.006 -10.772  18.622  1.00  0.00     0.009 C 
BRANCH   6   7
ATOM      7  C   UNL     1      13.279 -10.220  17.368  1.00  0.00     0.032 C 
ATOM      8  C   UNL     1      12.048  -9.370  17.721  1.00  0.00     0.014 C 
BRANCH   7   9
ATOM      9  C   UNL     1      12.974 -11.304  16.364  1.00  0.00     0.044 C 
ATOM     10  O   UNL     1      13.610 -12.393  16.363  1.00  0.00    -0.550 OA
ATOM     11  O   UNL     1      11.957 -11.114  15.436  1.00  0.00    -0.550 OA
ENDBRANCH   7   9
ENDBRANCH   6   7
ENDBRANCH   5   6
ENDBRANCH   4   5
ENDBRANCH   3   4
ENDBRANCH   2   3
ENDBRANCH   1   2
BRANCH   1  12
ATOM     12  C   UNL     1      11.138 -13.973  22.430  1.00  0.00     0.000 C 
BRANCH  12  13
ATOM     13  C   UNL     1      10.542 -14.220  21.033  1.00  0.00    -0.000 C 
BRANCH  13  14
ATOM     14  C   UNL     1      11.458 -13.727  19.902  1.00  0.00    -0.000 C 
BRANCH  14  15
ATOM     15  C   UNL     1      10.823 -12.594  19.079  1.00  0.00    -0.000 C 
BRANCH  15  16
ATOM     16  C   UNL     1       9.565 -12.013  19.747  1.00  0.00    -0.000 C 
BRANCH  16  17
ATOM     17  C   UNL     1       9.837 -10.681  20.464  1.00  0.00    -0.000 C 
BRANCH  17  18
ATOM     18  C   UNL     1       9.192 -10.669  21.855  1.00  0.00    -0.003 C 
ATOM     19  C   UNL     1       7.978 -11.592  21.909  1.00  0.00     0.004 C 
ENDBRANCH  17  18
ENDBRANCH  16  17
ENDBRANCH  15  16
ENDBRANCH  14  15
ENDBRANCH  13  14
ENDBRANCH  12  13
ENDBRANCH   1  12
TORSDOF 14
ENDMDL
MODEL 2
REMARK VINA RESULT:    -3.119      1.814      3.956
REMARK INTER + INTRA:          -8.758
REMARK INTER:                  -5.951
REMARK INTRA:                  -2.807
REMARK UNBOUND:                -3.086
REMARK SMILES CCCCCCCCCCCCCC[C@H](C)C(=O)[O-]
REMARK SMILES IDX 9 1 10 2 11 3 12 4 13 5 14 6 15 7 16 8 17 9 18 10 19 11 8 12
REMARK SMILES IDX 7 13 6 14 5 15 4 16 3 17 2 18 1 19
REMARK H PARENT
REMARK Flexibility Score: inf
ROOT
ATOM      1  C   UNL     1      11.786  -9.280  18.354  1.00  0.00     0.000 C 
ENDROOT
BRANCH   1   2
ATOM      2  C   UNL     1      13.090  -9.027  19.124  1.00  0.00     0.000 C 
BRANCH   2   3
ATOM      3  C   UNL     1      13.977 -10.281  19.128  1.00  0.00     0.000 C 
BRANCH   3   4
ATOM      4  C   UNL     1      13.690 -11.203  20.325  1.00  0.00     0.000 C 
BRANCH   4   5
ATOM      5  C   UNL     1      13.954 -12.685  20.006  1.00  0.00     0.001 C 
BRANCH   5   6
ATOM      6  C   UNL     1      14.154 -12.962  18.503  1.00  0.00     0.009 C 
BRANCH   6   7
ATOM      7  C   UNL     1      13.332 -14.131  17.898  1.00  0.00     0.032 C 
ATOM      8  C   UNL     1      13.269 -15.355  18.827  1.00  0.00     0.014 C 
BRANCH   7   9
ATOM      9  C   UNL     1      13.781 -14.479  16.501  1.00  0.00     0.044 C 
ATOM     10  O   UNL     1      13.310 -15.478  15.893  1.00  0.00    -0.550 OA
ATOM     11  O   UNL     1      14.713 -13.674  15.858  1.00  0.00    -0.550 OA
ENDBRANCH   7   9
ENDBRANCH   6   7
ENDBRANCH   5   6
ENDBRANCH   4   5
ENDBRANCH   3   4
ENDBRANCH   2   3
ENDBRANCH   1   2
BRANCH   1  12
ATOM     12  C   UNL     1      12.006 -10.106  17.076  1.00  0.00     0.000 C 
BRANCH  12  13
ATOM     13  C   UNL     1      11.114 -11.360  17.022  1.00  0.00    -0.000 C 
BRANCH  13  14
ATOM     14  C   UNL     1      10.066 -11.390  18.146  1.00  0.00    -0.000 C 
BRANCH  14  15
ATOM     15  C   UNL     1      10.359 -12.474  19.197  1.00  0.00    -0.000 C 
BRANCH  15  16
ATOM     16  C   UNL     1       9.984 -12.032  20.621  1.00  0.00    -0.000 C 
BRANCH  16  17
ATOM     17  C   UNL     1       9.731 -13.219  21.563  1.00  0.00    -0.000 C 
BRANCH  17  18
ATOM     18  C   UNL     1      10.698 -14.371  21.265  1.00  0.00    -0.003 C 
ATOM     19  C   UNL     1      11.761 -14.494  22.353  1.00  0.00     0.004 C 
ENDBRANCH  17  18
ENDBRANCH  16  17
ENDBRANCH  15  16
ENDBRANCH  14  15
ENDBRANCH  13  14
ENDBRANCH  12  13
ENDBRANCH   1  12
TORSDOF 14
ENDMDL
MODEL 3
REMARK VINA RESULT:    -3.054      2.898      5.642
REMARK INTER + INTRA:          -8.640
REMARK INTER:                  -6.059
REMARK INTRA:                  -2.580
REMARK UNBOUND:                -3.086
REMARK SMILES CCCCCCCCCCCCCC[C@H](C)C(=O)[O-]
REMARK SMILES IDX 9 1 10 2 11 3 12 4 13 5 14 6 15 7 16 8 17 9 18 10 19 11 8 12
REMARK SMILES IDX 7 13 6 14 5 15 4 16 3 17 2 18 1 19
REMARK H PARENT
REMARK Flexibility Score: inf
ROOT
ATOM      1  C   UNL     1      14.159 -10.445  18.105  1.00  0.00     0.000 C 
ENDROOT
BRANCH   1   2
ATOM      2  C   UNL     1      12.962 -10.212  17.171  1.00  0.00     0.000 C 
BRANCH   2   3
ATOM      3  C   UNL     1      12.720 -11.438  16.277  1.00  0.00     0.000 C 
BRANCH   3   4
ATOM      4  C   UNL     1      11.709 -12.423  16.887  1.00  0.00     0.000 C 
BRANCH   4   5
ATOM      5  C   UNL     1      10.654 -11.722  17.760  1.00  0.00     0.001 C 
BRANCH   5   6
ATOM      6  C   UNL     1      10.424 -12.414  19.118  1.00  0.00     0.009 C 
BRANCH   6   7
ATOM      7  C   UNL     1       9.639 -11.606  20.185  1.00  0.00     0.032 C 
ATOM      8  C   UNL     1      10.419 -10.383  20.695  1.00  0.00     0.014 C 
BRANCH   7   9
ATOM      9  C   UNL     1       9.130 -12.483  21.302  1.00  0.00     0.044 C 
ATOM     10  O   UNL     1       8.000 -12.284  21.826  1.00  0.00    -0.550 OA
ATOM     11  O   UNL     1       9.905 -13.545  21.749  1.00  0.00    -0.550 OA
ENDBRANCH   7   9
ENDBRANCH   6   7
ENDBRANCH   5   6
ENDBRANCH   4   5
ENDBRANCH   3   4
ENDBRANCH   2   3
ENDBRANCH   1   2
BRANCH   1  12
ATOM     12  C   UNL     1      13.933  -9.863  19.510  1.00  0.00     0.000 C 
BRANCH  12  13
ATOM     13  C   UNL     1      14.206 -10.889  20.625  1.00  0.00    -0.000 C 
BRANCH  13  14
ATOM     14  C   UNL     1      13.764 -12.310  20.243  1.00  0.00    -0.000 C 
BRANCH  14  15
ATOM     15  C   UNL     1      14.649 -13.394  20.881  1.00  0.00    -0.000 C 
BRANCH  15  16
ATOM     16  C   UNL     1      14.973 -14.541  19.908  1.00  0.00    -0.000 C 
BRANCH  16  17
ATOM     17  C   UNL     1      14.359 -14.328  18.516  1.00  0.00    -0.000 C 
BRANCH  17  18
ATOM     18  C   UNL     1      13.445 -15.499  18.137  1.00  0.00    -0.003 C 
ATOM     19  C   UNL     1      12.306 -15.657  19.141  1.00  0.00     0.004 C 
ENDBRANCH  17  18
ENDBRANCH  16  17
ENDBRANCH  15  16
ENDBRANCH  14  15
ENDBRANCH  13  14
ENDBRANCH  12  13
ENDBRANCH   1  12
TORSDOF 14
ENDMDL
MODEL 4
REMARK VINA RESULT:    -3.019      1.976      3.068
REMARK INTER + INTRA:          -8.575
REMARK INTER:                  -5.905
REMARK INTRA:                  -2.670
REMARK UNBOUND:                -3.086
REMARK SMILES CCCCCCCCCCCCCC[C@H](C)C(=O)[O-]
REMARK SMILES IDX 9 1 10 2 11 3 12 4 13 5 14 6 15 7 16 8 17 9 18 10 19 11 8 12
REMARK SMILES IDX 7 13 6 14 5 15 4 16 3 17 2 18 1 19
REMARK H PARENT
REMARK Flexibility Score: inf
ROOT
ATOM      1  C   UNL     1      13.326 -11.676  21.503  1.00  0.00     0.000 C 
ENDROOT
BRANCH   1   2
ATOM      2  C   UNL     1      14.301 -10.872  20.630  1.00  0.00     0.000 C 
BRANCH   2   3
ATOM      3  C   UNL     1      13.547 -10.079  19.553  1.00  0.00     0.000 C 
BRANCH   3   4
ATOM      4  C   UNL     1      14.183 -10.223  18.160  1.00  0.00     0.000 C 
BRANCH   4   5
ATOM      5  C   UNL     1      13.532 -11.338  17.325  1.00  0.00     0.001 C 
BRANCH   5   6
ATOM      6  C   UNL     1      14.328 -12.659  17.340  1.00  0.00     0.009 C 
BRANCH   6   7
ATOM      7  C   UNL     1      13.739 -13.813  18.192  1.00  0.00     0.032 C 
ATOM      8  C   UNL     1      14.709 -14.303  19.280  1.00  0.00     0.014 C 
BRANCH   7   9
ATOM      9  C   UNL     1      13.204 -14.936  17.337  1.00  0.00     0.044 C 
ATOM     10  O   UNL     1      12.517 -14.702  16.306  1.00  0.00    -0.550 OA
ATOM     11  O   UNL     1      13.490 -16.252  17.674  1.00  0.00    -0.550 OA
ENDBRANCH   7   9
ENDBRANCH   6   7
ENDBRANCH   5   6
ENDBRANCH   4   5
ENDBRANCH   3   4
ENDBRANCH   2   3
ENDBRANCH   1   2
BRANCH   1  12
ATOM     12  C   UNL     1      11.856 -11.426  21.129  1.00  0.00     0.000 C 
BRANCH  12  13
ATOM     13  C   UNL     1      11.162 -12.688  20.587  1.00  0.00    -0.000 C 
BRANCH  13  14
ATOM     14  C   UNL     1      10.534 -12.470  19.202  1.00  0.00    -0.000 C 
BRANCH  14  15
ATOM     15  C   UNL     1       9.785 -11.131  19.098  1.00  0.00    -0.000 C 
BRANCH  15  16
ATOM     16  C   UNL     1       8.309 -11.245  19.513  1.00  0.00    -0.000 C 
BRANCH  16  17
ATOM     17  C   UNL     1       8.056 -10.752  20.946  1.00  0.00    -0.000 C 
BRANCH  17  18
ATOM     18  C   UNL     1       7.789 -11.930  21.891  1.00  0.00    -0.003 C 
ATOM     19  C   UNL     1       8.601 -11.801  23.177  1.00  0.00     0.004 C 
ENDBRANCH  17  18
ENDBRANCH  16  17
ENDBRANCH  15  16
ENDBRANCH  14  15
ENDBRANCH  13  14
ENDBRANCH  12  13
ENDBRANCH   1  12
TORSDOF 14
ENDMDL
MODEL 5
REMARK VINA RESULT:    -2.987      2.189      4.592
REMARK INTER + INTRA:          -8.518
REMARK INTER:                  -6.017
REMARK INTRA:                  -2.501
REMARK UNBOUND:                -3.086
REMARK SMILES CCCCCCCCCCCCCC[C@H](C)C(=O)[O-]
REMARK SMILES IDX 9 1 10 2 11 3 12 4 13 5 14 6 15 7 16 8 17 9 18 10 19 11 8 12
REMARK SMILES IDX 7 13 6 14 5 15 4 16 3 17 2 18 1 19
REMARK H PARENT
REMARK Flexibility Score: inf
ROOT
ATOM      1  C   UNL     1       9.733 -11.393  18.426  1.00  0.00     0.000 C 
ENDROOT
BRANCH   1   2
ATOM      2  C   UNL     1      11.017 -12.087  17.947  1.00  0.00     0.000 C 
BRANCH   2   3
ATOM      3  C   UNL     1      11.271 -11.804  16.459  1.00  0.00     0.000 C 
BRANCH   3   4
ATOM      4  C   UNL     1      12.639 -11.149  16.208  1.00  0.00     0.000 C 
BRANCH   4   5
ATOM      5  C   UNL     1      13.640 -11.418  17.344  1.00  0.00     0.001 C 
BRANCH   5   6
ATOM      6  C   UNL     1      14.216 -10.132  17.971  1.00  0.00     0.009 C 
BRANCH   6   7
ATOM      7  C   UNL     1      13.889  -9.883  19.466  1.00  0.00     0.032 C 
ATOM      8  C   UNL     1      14.032 -11.151  20.324  1.00  0.00     0.014 C 
BRANCH   7   9
ATOM      9  C   UNL     1      12.558  -9.197  19.652  1.00  0.00     0.044 C 
ATOM     10  O   UNL     1      12.008  -9.135  20.785  1.00  0.00    -0.550 OA
ATOM     11  O   UNL     1      11.935  -8.602  18.563  1.00  0.00    -0.550 OA
ENDBRANCH   7   9
ENDBRANCH   6   7
ENDBRANCH   5   6
ENDBRANCH   4   5
ENDBRANCH   3   4
ENDBRANCH   2   3
ENDBRANCH   1   2
BRANCH   1  12
ATOM     12  C   UNL     1       9.449 -11.638  19.916  1.00  0.00     0.000 C 
BRANCH  12  13
ATOM     13  C   UNL     1      10.594 -12.388  20.620  1.00  0.00    -0.000 C 
BRANCH  13  14
ATOM     14  C   UNL     1      10.110 -13.643  21.365  1.00  0.00    -0.000 C 
BRANCH  14  15
ATOM     15  C   UNL     1      11.176 -14.751  21.406  1.00  0.00    -0.000 C 
BRANCH  15  16
ATOM     16  C   UNL     1      11.138 -15.653  20.162  1.00  0.00    -0.000 C 
BRANCH  16  17
ATOM     17  C   UNL     1      12.533 -15.905  19.568  1.00  0.00    -0.000 C 
BRANCH  17  18
ATOM     18  C   UNL     1      13.188 -14.588  19.135  1.00  0.00    -0.003 C 
ATOM     19  C   UNL     1      14.665 -14.788  18.806  1.00  0.00     0.004 C 
ENDBRANCH  17  18
ENDBRANCH  16  17
ENDBRANCH  15  16
ENDBRANCH  14  15
ENDBRANCH  13  14
ENDBRANCH  12  13
ENDBRANCH   1  12
TORSDOF 14
ENDMDL
MODEL 6
REMARK VINA RESULT:    -2.974      1.751      3.683
REMARK INTER + INTRA:          -8.494
REMARK INTER:                  -5.826
REMARK INTRA:                  -2.668
REMARK UNBOUND:                -3.086
REMARK SMILES CCCCCCCCCCCCCC[C@H](C)C(=O)[O-]
REMARK SMILES IDX 9 1 10 2 11 3 12 4 13 5 14 6 15 7 16 8 17 9 18 10 19 11 8 12
REMARK SMILES IDX 7 13 6 14 5 15 4 16 3 17 2 18 1 19
REMARK H PARENT
REMARK Flexibility Score: inf
ROOT
ATOM      1  C   UNL     1      10.498 -15.443  20.379  1.00  0.00     0.000 C 
ENDROOT
BRANCH   1   2
ATOM      2  C   UNL     1      10.872 -14.391  21.433  1.00  0.00     0.000 C 
BRANCH   2   3
ATOM      3  C   UNL     1      10.208 -13.041  21.121  1.00  0.00     0.000 C 
BRANCH   3   4
ATOM      4  C   UNL     1      10.207 -12.719  19.617  1.00  0.00     0.000 C 
BRANCH   4   5
ATOM      5  C   UNL     1      11.588 -12.274  19.107  1.00  0.00     0.001 C 
BRANCH   5   6
ATOM      6  C   UNL     1      11.894 -12.751  17.673  1.00  0.00     0.009 C 
BRANCH   6   7
ATOM      7  C   UNL     1      12.665 -11.760  16.762  1.00  0.00     0.032 C 
ATOM      8  C   UNL     1      13.857 -11.101  17.477  1.00  0.00     0.014 C 
BRANCH   7   9
ATOM      9  C   UNL     1      11.748 -10.756  16.109  1.00  0.00     0.044 C 
ATOM     10  O   UNL     1      11.667  -9.571  16.531  1.00  0.00    -0.550 OA
ATOM     11  O   UNL     1      10.992 -11.133  15.005  1.00  0.00    -0.550 OA
ENDBRANCH   7   9
ENDBRANCH   6   7
ENDBRANCH   5   6
ENDBRANCH   4   5
ENDBRANCH   3   4
ENDBRANCH   2   3
ENDBRANCH   1   2
BRANCH   1  12
ATOM     12  C   UNL     1      11.717 -16.226  19.866  1.00  0.00     0.000 C 
BRANCH  12  13
ATOM     13  C   UNL     1      13.028 -15.788  20.545  1.00  0.00    -0.000 C 
BRANCH  13  14
ATOM     14  C   UNL     1      14.101 -15.352  19.535  1.00  0.00    -0.000 C 
BRANCH  14  15
ATOM     15  C   UNL     1      14.687 -13.967  19.857  1.00  0.00    -0.000 C 
BRANCH  15  16
ATOM     16  C   UNL     1      14.425 -13.539  21.311  1.00  0.00    -0.000 C 
BRANCH  16  17
ATOM     17  C   UNL     1      15.032 -12.168  21.644  1.00  0.00    -0.000 C 
BRANCH  17  18
ATOM     18  C   UNL     1      14.123 -11.034  21.154  1.00  0.00    -0.003 C 
ATOM     19  C   UNL     1      13.016 -10.740  22.162  1.00  0.00     0.004 C 
ENDBRANCH  17  18
ENDBRANCH  16  17
ENDBRANCH  15  16
ENDBRANCH  14  15
ENDBRANCH  13  14
ENDBRANCH  12  13
ENDBRANCH   1  12
TORSDOF 14
ENDMDL
MODEL 7
REMARK VINA RESULT:    -2.958      2.552      4.435
REMARK INTER + INTRA:          -8.466
REMARK INTER:                  -5.639
REMARK INTRA:                  -2.827
REMARK UNBOUND:                -3.086
REMARK SMILES CCCCCCCCCCCCCC[C@H](C)C(=O)[O-]
REMARK SMILES IDX 9 1 10 2 11 3 12 4 13 5 14 6 15 7 16 8 17 9 18 10 19 11 8 12
REMARK SMILES IDX 7 13 6 14 5 15 4 16 3 17 2 18 1 19
REMARK H PARENT
REMARK Flexibility Score: inf
ROOT
ATOM      1  C   UNL     1      13.596  -9.299  19.604  1.00  0.00     0.000 C 
ENDROOT
BRANCH   1   2
ATOM      2  C   UNL     1      13.316 -10.295  20.739  1.00  0.00     0.000 C 
BRANCH   2   3
ATOM      3  C   UNL     1      14.506 -11.245  20.941  1.00  0.00     0.000 C 
BRANCH   3   4
ATOM      4  C   UNL     1      14.067 -12.704  21.147  1.00  0.00     0.000 C 
BRANCH   4   5
ATOM      5  C   UNL     1      14.603 -13.643  20.053  1.00  0.00     0.001 C 
BRANCH   5   6
ATOM      6  C   UNL     1      14.085 -15.090  20.178  1.00  0.00     0.009 C 
BRANCH   6   7
ATOM      7  C   UNL     1      14.138 -15.959  18.895  1.00  0.00     0.032 C 
ATOM      8  C   UNL     1      14.967 -15.312  17.774  1.00  0.00     0.014 C 
BRANCH   7   9
ATOM      9  C   UNL     1      12.764 -16.381  18.437  1.00  0.00     0.044 C 
ATOM     10  O   UNL     1      12.514 -16.582  17.217  1.00  0.00    -0.550 OA
ATOM     11  O   UNL     1      11.757 -16.577  19.374  1.00  0.00    -0.550 OA
ENDBRANCH   7   9
ENDBRANCH   6   7
ENDBRANCH   5   6
ENDBRANCH   4   5
ENDBRANCH   3   4
ENDBRANCH   2   3
ENDBRANCH   1   2
BRANCH   1  12
ATOM     12  C   UNL     1      14.050  -9.991  18.309  1.00  0.00     0.000 C 
BRANCH  12  13
ATOM     13  C   UNL     1      12.871 -10.350  17.387  1.00  0.00    -0.000 C 
BRANCH  13  14
ATOM     14  C   UNL     1      13.042 -11.721  16.713  1.00  0.00    -0.000 C 
BRANCH  14  15
ATOM     15  C   UNL     1      12.208 -12.819  17.393  1.00  0.00    -0.000 C 
BRANCH  15  16
ATOM     16  C   UNL     1      11.180 -12.251  18.386  1.00  0.00    -0.000 C 
BRANCH  16  17
ATOM     17  C   UNL     1      10.833 -13.238  19.511  1.00  0.00    -0.000 C 
BRANCH  17  18
ATOM     18  C   UNL     1      10.323 -12.496  20.752  1.00  0.00    -0.003 C 
ATOM     19  C   UNL     1      10.402 -13.378  21.994  1.00  0.00     0.004 C 
ENDBRANCH  17  18
ENDBRANCH  16  17
ENDBRANCH  15  16
ENDBRANCH  14  15
ENDBRANCH  13  14
ENDBRANCH  12  13
ENDBRANCH   1  12
TORSDOF 14
ENDMDL
MODEL 8
REMARK VINA RESULT:    -2.937      2.721      4.967
REMARK INTER + INTRA:          -8.427
REMARK INTER:                  -6.059
REMARK INTRA:                  -2.367
REMARK UNBOUND:                -3.086
REMARK SMILES CCCCCCCCCCCCCC[C@H](C)C(=O)[O-]
REMARK SMILES IDX 9 1 10 2 11 3 12 4 13 5 14 6 15 7 16 8 17 9 18 10 19 11 8 12
REMARK SMILES IDX 7 13 6 14 5 15 4 16 3 17 2 18 1 19
REMARK H PARENT
REMARK Flexibility Score: inf
ROOT
ATOM      1  C   UNL     1      14.209 -13.232  20.011  1.00  0.00     0.000 C 
ENDROOT
BRANCH   1   2
ATOM      2  C   UNL     1      14.292 -13.928  21.377  1.00  0.00     0.000 C 
BRANCH   2   3
ATOM      3  C   UNL     1      13.114 -14.895  21.572  1.00  0.00     0.000 C 
BRANCH   3   4
ATOM      4  C   UNL     1      12.442 -14.736  22.946  1.00  0.00     0.000 C 
BRANCH   4   5
ATOM      5  C   UNL     1      11.343 -13.660  22.945  1.00  0.00     0.001 C 
BRANCH   5   6
ATOM      6  C   UNL     1      10.360 -13.788  21.764  1.00  0.00     0.009 C 
BRANCH   6   7
ATOM      7  C   UNL     1      10.130 -12.513  20.912  1.00  0.00     0.032 C 
ATOM      8  C   UNL     1      11.178 -11.421  21.181  1.00  0.00     0.014 C 
BRANCH   7   9
ATOM      9  C   UNL     1       8.714 -12.004  21.021  1.00  0.00     0.044 C 
ATOM     10  O   UNL     1       7.886 -12.537  21.809  1.00  0.00    -0.550 OA
ATOM     11  O   UNL     1       8.316 -10.913  20.258  1.00  0.00    -0.550 OA
ENDBRANCH   7   9
ENDBRANCH   6   7
ENDBRANCH   5   6
ENDBRANCH   4   5
ENDBRANCH   3   4
ENDBRANCH   2   3
ENDBRANCH   1   2
BRANCH   1  12
ATOM     12  C   UNL     1      13.614 -14.137  18.921  1.00  0.00     0.000 C 
BRANCH  12  13
ATOM     13  C   UNL     1      12.305 -13.576  18.336  1.00  0.00    -0.000 C 
BRANCH  13  14
ATOM     14  C   UNL     1      12.361 -13.413  16.809  1.00  0.00    -0.000 C 
BRANCH  14  15
ATOM     15  C   UNL     1      11.532 -12.216  16.313  1.00  0.00    -0.000 C 
BRANCH  15  16
ATOM     16  C   UNL     1      12.376 -10.942  16.146  1.00  0.00    -0.000 C 
BRANCH  16  17
ATOM     17  C   UNL     1      11.950  -9.818  17.104  1.00  0.00    -0.000 C 
BRANCH  17  18
ATOM     18  C   UNL     1      12.872  -9.765  18.328  1.00  0.00    -0.003 C 
ATOM     19  C   UNL     1      14.309 -10.115  17.952  1.00  0.00     0.004 C 
ENDBRANCH  17  18
ENDBRANCH  16  17
ENDBRANCH  15  16
ENDBRANCH  14  15
ENDBRANCH  13  14
ENDBRANCH  12  13
ENDBRANCH   1  12
TORSDOF 14
ENDMDL
MODEL 9
REMARK VINA RESULT:    -2.909      1.765      4.777
REMARK INTER + INTRA:          -8.377
REMARK INTER:                  -5.952
REMARK INTRA:                  -2.425
REMARK UNBOUND:                -3.086
REMARK SMILES CCCCCCCCCCCCCC[C@H](C)C(=O)[O-]
REMARK SMILES IDX 9 1 10 2 11 3 12 4 13 5 14 6 15 7 16 8 17 9 18 10 19 11 8 12
REMARK SMILES IDX 7 13 6 14 5 15 4 16 3 17 2 18 1 19
REMARK H PARENT
REMARK Flexibility Score: inf
ROOT
ATOM      1  C   UNL     1      10.502 -12.499  19.120  1.00  0.00     0.000 C 
ENDROOT
BRANCH   1   2
ATOM      2  C   UNL     1       9.837 -11.864  20.350  1.00  0.00     0.000 C 
BRANCH   2   3
ATOM      3  C   UNL     1      10.082 -12.715  21.605  1.00  0.00     0.000 C 
BRANCH   3   4
ATOM      4  C   UNL     1      10.622 -14.115  21.272  1.00  0.00     0.000 C 
BRANCH   4   5
ATOM      5  C   UNL     1      12.064 -14.326  21.767  1.00  0.00     0.001 C 
BRANCH   5   6
ATOM      6  C   UNL     1      12.883 -15.283  20.879  1.00  0.00     0.009 C 
BRANCH   6   7
ATOM      7  C   UNL     1      12.322 -15.564  19.461  1.00  0.00     0.032 C 
ATOM      8  C   UNL     1      12.036 -17.056  19.220  1.00  0.00     0.014 C 
BRANCH   7   9
ATOM      9  C   UNL     1      13.175 -14.949  18.379  1.00  0.00     0.044 C 
ATOM     10  O   UNL     1      14.081 -14.117  18.655  1.00  0.00    -0.550 OA
ATOM     11  O   UNL     1      12.979 -15.322  17.055  1.00  0.00    -0.550 OA
ENDBRANCH   7   9
ENDBRANCH   6   7
ENDBRANCH   5   6
ENDBRANCH   4   5
ENDBRANCH   3   4
ENDBRANCH   2   3
ENDBRANCH   1   2
BRANCH   1  12
ATOM     12  C   UNL     1      10.741 -11.486  17.988  1.00  0.00     0.000 C 
BRANCH  12  13
ATOM     13  C   UNL     1      11.348 -12.136  16.732  1.00  0.00    -0.000 C 
BRANCH  13  14
ATOM     14  C   UNL     1      12.718 -11.545  16.362  1.00  0.00    -0.000 C 
BRANCH  14  15
ATOM     15  C   UNL     1      13.020 -10.239  17.116  1.00  0.00    -0.000 C 
BRANCH  15  16
ATOM     16  C   UNL     1      14.225 -10.368  18.063  1.00  0.00    -0.000 C 
BRANCH  16  17
ATOM     17  C   UNL     1      13.893  -9.953  19.505  1.00  0.00    -0.000 C 
BRANCH  17  18
ATOM     18  C   UNL     1      13.766 -11.183  20.412  1.00  0.00    -0.003 C 
ATOM     19  C   UNL     1      13.360 -10.785  21.828  1.00  0.00     0.004 C 
ENDBRANCH  17  18
ENDBRANCH  16  17
ENDBRANCH  15  16
ENDBRANCH  14  15
ENDBRANCH  13  14
ENDBRANCH  12  13
ENDBRANCH   1  12
TORSDOF 14
ENDMDL
