MODEL 1
REMARK VINA RESULT:    -5.319      0.000      0.000
REMARK INTER + INTRA:          -6.357
REMARK INTER:                  -6.096
REMARK INTRA:                  -0.260
REMARK UNBOUND:                -0.260
REMARK SMILES O=C([O-])C=Cc1ccc(O)cc1
REMARK SMILES IDX 6 1 7 2 12 3 8 4 11 5 9 6 5 7 4 8 2 9 1 10 3 11 10 12
REMARK H PARENT 10 13
REMARK Flexibility Score: inf
ROOT
ATOM      1  C   UNL     1     -10.305  -5.459  -7.147  1.00  0.00    -0.025 A 
ATOM      2  C   UNL     1     -10.129  -5.635  -8.527  1.00  0.00     0.012 A 
ATOM      3  C   UNL     1     -11.066  -4.372  -6.683  1.00  0.00     0.012 A 
ATOM      4  C   UNL     1     -10.748  -4.768  -9.433  1.00  0.00     0.047 A 
ATOM      5  C   UNL     1     -11.685  -3.506  -7.591  1.00  0.00     0.047 A 
ATOM      6  C   UNL     1     -11.531  -3.703  -8.967  1.00  0.00     0.115 A 
ENDROOT
BRANCH   1   7
ATOM      7  C   UNL     1      -9.599  -6.356  -6.209  1.00  0.00     0.010 C 
ATOM      8  C   UNL     1     -10.144  -7.409  -5.579  1.00  0.00     0.025 C 
BRANCH   8   9
ATOM      9  C   UNL     1     -11.483  -7.972  -5.842  1.00  0.00     0.064 C 
ATOM     10  O   UNL     1     -11.631  -9.063  -6.453  1.00  0.00    -0.545 OA
ATOM     11  O   UNL     1     -12.602  -7.317  -5.342  1.00  0.00    -0.545 OA
ENDBRANCH   8   9
ENDBRANCH   1   7
BRANCH   6  12
ATOM     12  O   UNL     1     -12.153  -2.834  -9.860  1.00  0.00    -0.508 OA
ATOM     13  H   UNL     1     -11.621  -2.302 -10.539  1.00  0.00     0.293 HD
ENDBRANCH   6  12
TORSDOF 3
ENDMDL
MODEL 2
REMARK VINA RESULT:    -4.498      3.080      5.175
REMARK INTER + INTRA:          -5.416
REMARK INTER:                  -5.275
REMARK INTRA:                  -0.141
REMARK UNBOUND:                -0.260
REMARK SMILES O=C([O-])C=Cc1ccc(O)cc1
REMARK SMILES IDX 6 1 7 2 12 3 8 4 11 5 9 6 5 7 4 8 2 9 1 10 3 11 10 12
REMARK H PARENT 10 13
REMARK Flexibility Score: inf
ROOT
ATOM      1  C   UNL     1     -10.838  -7.273  -5.848  1.00  0.00    -0.025 A 
ATOM      2  C   UNL     1      -9.541  -7.188  -5.321  1.00  0.00     0.012 A 
ATOM      3  C   UNL     1     -11.414  -8.538  -6.059  1.00  0.00     0.012 A 
ATOM      4  C   UNL     1      -8.849  -8.349  -4.961  1.00  0.00     0.047 A 
ATOM      5  C   UNL     1     -10.720  -9.697  -5.698  1.00  0.00     0.047 A 
ATOM      6  C   UNL     1      -9.439  -9.606  -5.145  1.00  0.00     0.115 A 
ENDROOT
BRANCH   1   7
ATOM      7  C   UNL     1     -11.529  -6.037  -6.270  1.00  0.00     0.010 C 
ATOM      8  C   UNL     1     -12.601  -5.499  -5.666  1.00  0.00     0.025 C 
BRANCH   8   9
ATOM      9  C   UNL     1     -13.173  -5.935  -4.377  1.00  0.00     0.064 C 
ATOM     10  O   UNL     1     -13.063  -5.234  -3.337  1.00  0.00    -0.545 OA
ATOM     11  O   UNL     1     -13.909  -7.112  -4.327  1.00  0.00    -0.545 OA
ENDBRANCH   8   9
ENDBRANCH   1   7
BRANCH   6  12
ATOM     12  O   UNL     1      -8.760 -10.769  -4.789  1.00  0.00    -0.508 OA
ATOM     13  H   UNL     1      -9.248 -11.573  -4.411  1.00  0.00     0.293 HD
ENDBRANCH   6  12
TORSDOF 3
ENDMDL
MODEL 3
REMARK VINA RESULT:    -4.471      2.128      4.283
REMARK INTER + INTRA:          -5.384
REMARK INTER:                  -5.137
REMARK INTRA:                  -0.248
REMARK UNBOUND:                -0.260
REMARK SMILES O=C([O-])C=Cc1ccc(O)cc1
REMARK SMILES IDX 6 1 7 2 12 3 8 4 11 5 9 6 5 7 4 8 2 9 1 10 3 11 10 12
REMARK H PARENT 10 13
REMARK Flexibility Score: inf
ROOT
ATOM      1  C   UNL     1     -10.840  -6.060  -5.803  1.00  0.00    -0.025 A 
ATOM      2  C   UNL     1     -11.915  -6.960  -5.817  1.00  0.00     0.012 A 
ATOM      3  C   UNL     1     -10.895  -4.935  -4.962  1.00  0.00     0.012 A 
ATOM      4  C   UNL     1     -13.006  -6.768  -4.964  1.00  0.00     0.047 A 
ATOM      5  C   UNL     1     -11.988  -4.745  -4.110  1.00  0.00     0.047 A 
ATOM      6  C   UNL     1     -13.043  -5.662  -4.105  1.00  0.00     0.115 A 
ENDROOT
BRANCH   1   7
ATOM      7  C   UNL     1      -9.723  -6.253  -6.751  1.00  0.00     0.010 C 
ATOM      8  C   UNL     1      -9.700  -5.828  -8.025  1.00  0.00     0.025 C 
BRANCH   8   9
ATOM      9  C   UNL     1     -10.697  -4.941  -8.655  1.00  0.00     0.064 C 
ATOM     10  O   UNL     1     -11.496  -5.365  -9.531  1.00  0.00    -0.545 OA
ATOM     11  O   UNL     1     -10.802  -3.625  -8.222  1.00  0.00    -0.545 OA
ENDBRANCH   8   9
ENDBRANCH   1   7
BRANCH   6  12
ATOM     12  O   UNL     1     -14.124  -5.462  -3.250  1.00  0.00    -0.508 OA
ATOM     13  H   UNL     1     -14.034  -4.917  -2.400  1.00  0.00     0.293 HD
ENDBRANCH   6  12
TORSDOF 3
ENDMDL
MODEL 4
REMARK VINA RESULT:    -4.442      1.528      1.932
REMARK INTER + INTRA:          -5.352
REMARK INTER:                  -5.084
REMARK INTRA:                  -0.267
REMARK UNBOUND:                -0.260
REMARK SMILES O=C([O-])C=Cc1ccc(O)cc1
REMARK SMILES IDX 6 1 7 2 12 3 8 4 11 5 9 6 5 7 4 8 2 9 1 10 3 11 10 12
REMARK H PARENT 10 13
REMARK Flexibility Score: inf
ROOT
ATOM      1  C   UNL     1     -10.713  -6.690  -6.024  1.00  0.00    -0.025 A 
ATOM      2  C   UNL     1     -10.490  -6.215  -7.325  1.00  0.00     0.012 A 
ATOM      3  C   UNL     1     -11.582  -5.983  -5.173  1.00  0.00     0.012 A 
ATOM      4  C   UNL     1     -11.164  -5.080  -7.787  1.00  0.00     0.047 A 
ATOM      5  C   UNL     1     -12.255  -4.849  -5.638  1.00  0.00     0.047 A 
ATOM      6  C   UNL     1     -12.052  -4.397  -6.945  1.00  0.00     0.115 A 
ENDROOT
BRANCH   1   7
ATOM      7  C   UNL     1      -9.950  -7.858  -5.540  1.00  0.00     0.010 C 
ATOM      8  C   UNL     1     -10.425  -9.110  -5.439  1.00  0.00     0.025 C 
BRANCH   8   9
ATOM      9  C   UNL     1     -11.724  -9.584  -5.955  1.00  0.00     0.064 C 
ATOM     10  O   UNL     1     -11.805 -10.260  -7.014  1.00  0.00    -0.545 OA
ATOM     11  O   UNL     1     -12.875  -9.337  -5.219  1.00  0.00    -0.545 OA
ENDBRANCH   8   9
ENDBRANCH   1   7
BRANCH   6  12
ATOM     12  O   UNL     1     -12.730  -3.267  -7.396  1.00  0.00    -0.508 OA
ATOM     13  H   UNL     1     -13.551  -3.342  -7.985  1.00  0.00     0.293 HD
ENDBRANCH   6  12
TORSDOF 3
ENDMDL
MODEL 5
REMARK VINA RESULT:    -4.401      2.306      3.304
REMARK INTER + INTRA:          -5.305
REMARK INTER:                  -5.475
REMARK INTRA:                   0.171
REMARK UNBOUND:                -0.260
REMARK SMILES O=C([O-])C=Cc1ccc(O)cc1
REMARK SMILES IDX 6 1 7 2 12 3 8 4 11 5 9 6 5 7 4 8 2 9 1 10 3 11 10 12
REMARK H PARENT 10 13
REMARK Flexibility Score: inf
ROOT
ATOM      1  C   UNL     1     -11.441  -7.016  -5.976  1.00  0.00    -0.025 A 
ATOM      2  C   UNL     1     -12.248  -6.352  -5.041  1.00  0.00     0.012 A 
ATOM      3  C   UNL     1     -10.839  -6.278  -7.011  1.00  0.00     0.012 A 
ATOM      4  C   UNL     1     -12.409  -4.965  -5.107  1.00  0.00     0.047 A 
ATOM      5  C   UNL     1     -11.001  -4.891  -7.075  1.00  0.00     0.047 A 
ATOM      6  C   UNL     1     -11.783  -4.230  -6.122  1.00  0.00     0.115 A 
ENDROOT
BRANCH   1   7
ATOM      7  C   UNL     1     -11.328  -8.488  -5.919  1.00  0.00     0.010 C 
ATOM      8  C   UNL     1     -10.213  -9.172  -5.615  1.00  0.00     0.025 C 
BRANCH   8   9
ATOM      9  C   UNL     1      -8.955  -8.588  -5.110  1.00  0.00     0.064 C 
ATOM     10  O   UNL     1      -8.944  -7.514  -4.453  1.00  0.00    -0.545 OA
ATOM     11  O   UNL     1      -7.764  -9.276  -5.305  1.00  0.00    -0.545 OA
ENDBRANCH   8   9
ENDBRANCH   1   7
BRANCH   6  12
ATOM     12  O   UNL     1     -11.935  -2.848  -6.196  1.00  0.00    -0.508 OA
ATOM     13  H   UNL     1     -11.186  -2.217  -5.934  1.00  0.00     0.293 HD
ENDBRANCH   6  12
TORSDOF 3
ENDMDL
MODEL 6
REMARK VINA RESULT:    -4.291      1.788      4.882
REMARK INTER + INTRA:          -5.179
REMARK INTER:                  -5.156
REMARK INTRA:                  -0.023
REMARK UNBOUND:                -0.260
REMARK SMILES O=C([O-])C=Cc1ccc(O)cc1
REMARK SMILES IDX 6 1 7 2 12 3 8 4 11 5 9 6 5 7 4 8 2 9 1 10 3 11 10 12
REMARK H PARENT 10 13
REMARK Flexibility Score: inf
ROOT
ATOM      1  C   UNL     1     -11.048  -5.949  -5.540  1.00  0.00    -0.025 A 
ATOM      2  C   UNL     1     -11.909  -7.001  -5.884  1.00  0.00     0.012 A 
ATOM      3  C   UNL     1      -9.726  -6.239  -5.160  1.00  0.00     0.012 A 
ATOM      4  C   UNL     1     -11.442  -8.319  -5.900  1.00  0.00     0.047 A 
ATOM      5  C   UNL     1      -9.260  -7.558  -5.176  1.00  0.00     0.047 A 
ATOM      6  C   UNL     1     -10.114  -8.600  -5.550  1.00  0.00     0.115 A 
ENDROOT
BRANCH   1   7
ATOM      7  C   UNL     1     -11.578  -4.572  -5.478  1.00  0.00     0.010 C 
ATOM      8  C   UNL     1     -11.549  -3.681  -6.483  1.00  0.00     0.025 C 
BRANCH   8   9
ATOM      9  C   UNL     1     -11.151  -3.965  -7.875  1.00  0.00     0.064 C 
ATOM     10  O   UNL     1     -10.087  -4.584  -8.144  1.00  0.00    -0.545 OA
ATOM     11  O   UNL     1     -12.003  -3.602  -8.910  1.00  0.00    -0.545 OA
ENDBRANCH   8   9
ENDBRANCH   1   7
BRANCH   6  12
ATOM     12  O   UNL     1      -9.638  -9.909  -5.564  1.00  0.00    -0.508 OA
ATOM     13  H   UNL     1      -9.969 -10.600  -4.901  1.00  0.00     0.293 HD
ENDBRANCH   6  12
TORSDOF 3
ENDMDL
MODEL 7
REMARK VINA RESULT:    -4.263      1.686      2.503
REMARK INTER + INTRA:          -5.146
REMARK INTER:                  -5.020
REMARK INTRA:                  -0.126
REMARK UNBOUND:                -0.260
REMARK SMILES O=C([O-])C=Cc1ccc(O)cc1
REMARK SMILES IDX 6 1 7 2 12 3 8 4 11 5 9 6 5 7 4 8 2 9 1 10 3 11 10 12
REMARK H PARENT 10 13
REMARK Flexibility Score: inf
ROOT
ATOM      1  C   UNL     1     -11.501  -6.039  -7.134  1.00  0.00    -0.025 A 
ATOM      2  C   UNL     1     -12.089  -4.818  -6.776  1.00  0.00     0.012 A 
ATOM      3  C   UNL     1     -10.799  -6.135  -8.349  1.00  0.00     0.012 A 
ATOM      4  C   UNL     1     -11.934  -3.694  -7.593  1.00  0.00     0.047 A 
ATOM      5  C   UNL     1     -10.645  -5.009  -9.165  1.00  0.00     0.047 A 
ATOM      6  C   UNL     1     -11.208  -3.786  -8.788  1.00  0.00     0.115 A 
ENDROOT
BRANCH   1   7
ATOM      7  C   UNL     1     -11.723  -7.226  -6.282  1.00  0.00     0.010 C 
ATOM      8  C   UNL     1     -10.795  -7.814  -5.509  1.00  0.00     0.025 C 
BRANCH   8   9
ATOM      9  C   UNL     1      -9.446  -7.284  -5.228  1.00  0.00     0.064 C 
ATOM     10  O   UNL     1      -9.275  -6.122  -4.777  1.00  0.00    -0.545 OA
ATOM     11  O   UNL     1      -8.344  -8.113  -5.402  1.00  0.00    -0.545 OA
ENDBRANCH   8   9
ENDBRANCH   1   7
BRANCH   6  12
ATOM     12  O   UNL     1     -11.046  -2.672  -9.608  1.00  0.00    -0.508 OA
ATOM     13  H   UNL     1     -11.150  -2.736 -10.615  1.00  0.00     0.293 HD
ENDBRANCH   6  12
TORSDOF 3
ENDMDL
MODEL 8
REMARK VINA RESULT:    -4.235      5.352      6.703
REMARK INTER + INTRA:          -5.115
REMARK INTER:                  -4.832
REMARK INTRA:                  -0.283
REMARK UNBOUND:                -0.260
REMARK SMILES O=C([O-])C=Cc1ccc(O)cc1
REMARK SMILES IDX 6 1 7 2 12 3 8 4 11 5 9 6 5 7 4 8 2 9 1 10 3 11 10 12
REMARK H PARENT 10 13
REMARK Flexibility Score: inf
ROOT
ATOM      1  C   UNL     1      -8.753 -11.502  -5.535  1.00  0.00    -0.025 A 
ATOM      2  C   UNL     1      -8.119 -12.151  -6.604  1.00  0.00     0.012 A 
ATOM      3  C   UNL     1      -8.114 -10.415  -4.912  1.00  0.00     0.012 A 
ATOM      4  C   UNL     1      -6.887 -11.688  -7.079  1.00  0.00     0.047 A 
ATOM      5  C   UNL     1      -6.882  -9.955  -5.389  1.00  0.00     0.047 A 
ATOM      6  C   UNL     1      -6.268 -10.587  -6.474  1.00  0.00     0.115 A 
ENDROOT
BRANCH   1   7
ATOM      7  C   UNL     1     -10.028 -12.040  -5.017  1.00  0.00     0.010 C 
ATOM      8  C   UNL     1     -11.247 -11.542  -5.279  1.00  0.00     0.025 C 
BRANCH   8   9
ATOM      9  C   UNL     1     -11.554 -10.488  -6.266  1.00  0.00     0.064 C 
ATOM     10  O   UNL     1     -11.944 -10.768  -7.430  1.00  0.00    -0.545 OA
ATOM     11  O   UNL     1     -11.476  -9.156  -5.879  1.00  0.00    -0.545 OA
ENDBRANCH   8   9
ENDBRANCH   1   7
BRANCH   6  12
ATOM     12  O   UNL     1      -5.042 -10.117  -6.940  1.00  0.00    -0.508 OA
ATOM     13  H   UNL     1      -4.187 -10.252  -6.412  1.00  0.00     0.293 HD
ENDBRANCH   6  12
TORSDOF 3
ENDMDL
MODEL 9
REMARK VINA RESULT:    -4.143      1.444      2.307
REMARK INTER + INTRA:          -5.009
REMARK INTER:                  -5.225
REMARK INTRA:                   0.216
REMARK UNBOUND:                -0.260
REMARK SMILES O=C([O-])C=Cc1ccc(O)cc1
REMARK SMILES IDX 6 1 7 2 12 3 8 4 11 5 9 6 5 7 4 8 2 9 1 10 3 11 10 12
REMARK H PARENT 10 13
REMARK Flexibility Score: inf
ROOT
ATOM      1  C   UNL     1     -11.173  -4.510  -6.797  1.00  0.00    -0.025 A 
ATOM      2  C   UNL     1     -11.927  -3.746  -7.700  1.00  0.00     0.012 A 
ATOM      3  C   UNL     1     -10.234  -5.432  -7.293  1.00  0.00     0.012 A 
ATOM      4  C   UNL     1     -11.709  -3.862  -9.076  1.00  0.00     0.047 A 
ATOM      5  C   UNL     1     -10.017  -5.546  -8.670  1.00  0.00     0.047 A 
ATOM      6  C   UNL     1     -10.750  -4.760  -9.564  1.00  0.00     0.115 A 
ENDROOT
BRANCH   1   7
ATOM      7  C   UNL     1     -11.458  -4.410  -5.351  1.00  0.00     0.010 C 
ATOM      8  C   UNL     1     -12.130  -5.318  -4.625  1.00  0.00     0.025 C 
BRANCH   8   9
ATOM      9  C   UNL     1     -12.546  -6.656  -5.090  1.00  0.00     0.064 C 
ATOM     10  O   UNL     1     -13.759  -6.993  -5.126  1.00  0.00    -0.545 OA
ATOM     11  O   UNL     1     -11.583  -7.537  -5.564  1.00  0.00    -0.545 OA
ENDBRANCH   8   9
ENDBRANCH   1   7
BRANCH   6  12
ATOM     12  O   UNL     1     -10.523  -4.883 -10.933  1.00  0.00    -0.508 OA
ATOM     13  H   UNL     1     -11.077  -4.370 -11.610  1.00  0.00     0.293 HD
ENDBRANCH   6  12
TORSDOF 3
ENDMDL
