MODEL 1
REMARK VINA RESULT:    -3.699      0.000      0.000
REMARK INTER + INTRA:          -3.808
REMARK INTER:                  -3.808
REMARK INTRA:                   0.000
REMARK UNBOUND:                 0.000
REMARK SMILES C[C@@H]1CC[C@@H]2C(C)(C)[C@@H]3C[C@]12CC[C@@]3(C)O
REMARK SMILES IDX 1 1 2 2 3 3 4 4 5 5 11 6 12 7 13 8 14 9 9 10 10 11 6 12 7 13
REMARK SMILES IDX 8 14 15 15 16 16
REMARK H PARENT 16 17
REMARK Flexibility Score: inf
ROOT
ATOM      1  C   UNL     1     160.054 175.540 168.073  1.00  0.00     0.008 C 
ATOM      2  C   UNL     1     160.101 175.013 169.516  1.00  0.00    -0.008 C 
ATOM      3  C   UNL     1     160.515 176.083 170.518  1.00  0.00     0.004 C 
ATOM      4  C   UNL     1     160.980 175.315 171.748  1.00  0.00     0.005 C 
ATOM      5  C   UNL     1     161.462 173.928 171.254  1.00  0.00     0.001 C 
ATOM      6  C   UNL     1     161.079 173.846 169.759  1.00  0.00    -0.023 C 
ATOM      7  C   UNL     1     160.470 172.459 169.400  1.00  0.00     0.010 C 
ATOM      8  C   UNL     1     161.409 171.288 169.786  1.00  0.00     0.036 C 
ATOM      9  C   UNL     1     162.911 171.571 169.479  1.00  0.00     0.065 C 
ATOM     10  C   UNL     1     163.307 173.060 169.863  1.00  0.00     0.027 C 
ATOM     11  C   UNL     1     162.415 173.975 169.024  1.00  0.00     0.014 C 
ATOM     12  C   UNL     1     162.996 173.584 171.316  1.00  0.00    -0.026 C 
ATOM     13  C   UNL     1     163.909 174.816 171.593  1.00  0.00     0.012 C 
ATOM     14  C   UNL     1     163.290 172.579 172.453  1.00  0.00     0.012 C 
ATOM     15  C   UNL     1     163.808 170.510 170.162  1.00  0.00     0.042 C 
ENDROOT
BRANCH   9  16
ATOM     16  O   UNL     1     163.078 171.400 168.087  1.00  0.00    -0.390 OA
ATOM     17  H   UNL     1     163.350 172.275 167.699  1.00  0.00     0.211 HD
ENDBRANCH   9  16
TORSDOF 1
ENDMDL
MODEL 2
REMARK VINA RESULT:    -3.693      6.665      9.591
REMARK INTER + INTRA:          -3.801
REMARK INTER:                  -3.801
REMARK INTRA:                   0.000
REMARK UNBOUND:                 0.000
REMARK SMILES C[C@@H]1CC[C@@H]2C(C)(C)[C@@H]3C[C@]12CC[C@@]3(C)O
REMARK SMILES IDX 1 1 2 2 3 3 4 4 5 5 11 6 12 7 13 8 14 9 9 10 10 11 6 12 7 13
REMARK SMILES IDX 8 14 15 15 16 16
REMARK H PARENT 16 17
REMARK Flexibility Score: inf
ROOT
ATOM      1  C   UNL     1     165.270 168.539 170.508  1.00  0.00     0.008 C 
ATOM      2  C   UNL     1     166.054 167.573 169.607  1.00  0.00    -0.008 C 
ATOM      3  C   UNL     1     165.755 167.776 168.128  1.00  0.00     0.004 C 
ATOM      4  C   UNL     1     166.192 166.482 167.453  1.00  0.00     0.005 C 
ATOM      5  C   UNL     1     166.096 165.366 168.522  1.00  0.00     0.001 C 
ATOM      6  C   UNL     1     165.790 166.075 169.861  1.00  0.00    -0.023 C 
ATOM      7  C   UNL     1     166.648 165.496 171.023  1.00  0.00     0.010 C 
ATOM      8  C   UNL     1     166.479 163.962 171.170  1.00  0.00     0.036 C 
ATOM      9  C   UNL     1     165.009 163.480 170.985  1.00  0.00     0.065 C 
ATOM     10  C   UNL     1     164.299 164.241 169.787  1.00  0.00     0.027 C 
ATOM     11  C   UNL     1     164.326 165.727 170.142  1.00  0.00     0.014 C 
ATOM     12  C   UNL     1     164.992 164.255 168.372  1.00  0.00    -0.026 C 
ATOM     13  C   UNL     1     163.906 164.584 167.303  1.00  0.00     0.012 C 
ATOM     14  C   UNL     1     165.618 162.911 167.934  1.00  0.00     0.012 C 
ATOM     15  C   UNL     1     164.962 161.939 170.837  1.00  0.00     0.042 C 
ENDROOT
BRANCH   9  16
ATOM     16  O   UNL     1     164.329 163.786 172.185  1.00  0.00    -0.390 OA
ATOM     17  H   UNL     1     164.821 164.522 172.639  1.00  0.00     0.211 HD
ENDBRANCH   9  16
TORSDOF 1
ENDMDL
MODEL 3
REMARK VINA RESULT:    -3.676     14.834     17.233
REMARK INTER + INTRA:          -3.783
REMARK INTER:                  -3.783
REMARK INTRA:                   0.000
REMARK UNBOUND:                 0.000
REMARK SMILES C[C@@H]1CC[C@@H]2C(C)(C)[C@@H]3C[C@]12CC[C@@]3(C)O
REMARK SMILES IDX 1 1 2 2 3 3 4 4 5 5 11 6 12 7 13 8 14 9 9 10 10 11 6 12 7 13
REMARK SMILES IDX 8 14 15 15 16 16
REMARK H PARENT 16 17
REMARK Flexibility Score: inf
ROOT
ATOM      1  C   UNL     1     167.145 156.685 167.378  1.00  0.00     0.008 C 
ATOM      2  C   UNL     1     168.525 157.183 167.835  1.00  0.00    -0.008 C 
ATOM      3  C   UNL     1     169.520 156.048 168.038  1.00  0.00     0.004 C 
ATOM      4  C   UNL     1     170.610 156.632 168.928  1.00  0.00     0.005 C 
ATOM      5  C   UNL     1     169.957 157.773 169.745  1.00  0.00     0.001 C 
ATOM      6  C   UNL     1     168.537 157.961 169.166  1.00  0.00    -0.023 C 
ATOM      7  C   UNL     1     168.185 159.467 168.991  1.00  0.00     0.010 C 
ATOM      8  C   UNL     1     168.344 160.264 170.312  1.00  0.00     0.036 C 
ATOM      9  C   UNL     1     167.829 159.494 171.566  1.00  0.00     0.065 C 
ATOM     10  C   UNL     1     168.244 157.962 171.513  1.00  0.00     0.027 C 
ATOM     11  C   UNL     1     167.615 157.387 170.244  1.00  0.00     0.014 C 
ATOM     12  C   UNL     1     169.759 157.589 171.295  1.00  0.00    -0.026 C 
ATOM     13  C   UNL     1     169.974 156.126 171.789  1.00  0.00     0.012 C 
ATOM     14  C   UNL     1     170.769 158.452 172.086  1.00  0.00     0.012 C 
ATOM     15  C   UNL     1     168.294 160.203 172.861  1.00  0.00     0.042 C 
ENDROOT
BRANCH   9  16
ATOM     16  O   UNL     1     166.419 159.583 171.544  1.00  0.00    -0.390 OA
ATOM     17  H   UNL     1     166.116 159.450 170.607  1.00  0.00     0.211 HD
ENDBRANCH   9  16
TORSDOF 1
ENDMDL
MODEL 4
REMARK VINA RESULT:    -3.673      6.601      9.353
REMARK INTER + INTRA:          -3.780
REMARK INTER:                  -3.780
REMARK INTRA:                   0.000
REMARK UNBOUND:                 0.000
REMARK SMILES C[C@@H]1CC[C@@H]2C(C)(C)[C@@H]3C[C@]12CC[C@@]3(C)O
REMARK SMILES IDX 1 1 2 2 3 3 4 4 5 5 11 6 12 7 13 8 14 9 9 10 10 11 6 12 7 13
REMARK SMILES IDX 8 14 15 15 16 16
REMARK H PARENT 16 17
REMARK Flexibility Score: inf
ROOT
ATOM      1  C   UNL     1     165.851 162.677 170.538  1.00  0.00     0.008 C 
ATOM      2  C   UNL     1     165.092 163.652 169.625  1.00  0.00    -0.008 C 
ATOM      3  C   UNL     1     165.401 163.435 168.150  1.00  0.00     0.004 C 
ATOM      4  C   UNL     1     164.992 164.733 167.464  1.00  0.00     0.005 C 
ATOM      5  C   UNL     1     165.099 165.853 168.527  1.00  0.00     0.001 C 
ATOM      6  C   UNL     1     165.380 165.147 169.872  1.00  0.00    -0.023 C 
ATOM      7  C   UNL     1     164.523 165.747 171.024  1.00  0.00     0.010 C 
ATOM      8  C   UNL     1     164.718 167.279 171.163  1.00  0.00     0.036 C 
ATOM      9  C   UNL     1     166.199 167.733 170.989  1.00  0.00     0.065 C 
ATOM     10  C   UNL     1     166.906 166.952 169.801  1.00  0.00     0.027 C 
ATOM     11  C   UNL     1     166.848 165.469 170.164  1.00  0.00     0.014 C 
ATOM     12  C   UNL     1     166.225 166.943 168.380  1.00  0.00    -0.026 C 
ATOM     13  C   UNL     1     167.314 166.588 167.323  1.00  0.00     0.012 C 
ATOM     14  C   UNL     1     165.627 168.296 167.930  1.00  0.00     0.012 C 
ATOM     15  C   UNL     1     166.274 169.272 170.832  1.00  0.00     0.042 C 
ENDROOT
BRANCH   9  16
ATOM     16  O   UNL     1     166.863 167.422 172.196  1.00  0.00    -0.390 OA
ATOM     17  H   UNL     1     167.095 168.276 172.651  1.00  0.00     0.211 HD
ENDBRANCH   9  16
TORSDOF 1
ENDMDL
MODEL 5
REMARK VINA RESULT:    -3.664      1.512      2.633
REMARK INTER + INTRA:          -3.772
REMARK INTER:                  -3.772
REMARK INTRA:                   0.000
REMARK UNBOUND:                 0.000
REMARK SMILES C[C@@H]1CC[C@@H]2C(C)(C)[C@@H]3C[C@]12CC[C@@]3(C)O
REMARK SMILES IDX 1 1 2 2 3 3 4 4 5 5 11 6 12 7 13 8 14 9 9 10 10 11 6 12 7 13
REMARK SMILES IDX 8 14 15 15 16 16
REMARK H PARENT 16 17
REMARK Flexibility Score: inf
ROOT
ATOM      1  C   UNL     1     163.963 174.549 167.412  1.00  0.00     0.008 C 
ATOM      2  C   UNL     1     162.617 173.994 167.902  1.00  0.00    -0.008 C 
ATOM      3  C   UNL     1     161.580 175.086 168.129  1.00  0.00     0.004 C 
ATOM      4  C   UNL     1     160.537 174.458 169.045  1.00  0.00     0.005 C 
ATOM      5  C   UNL     1     161.257 173.347 169.847  1.00  0.00     0.001 C 
ATOM      6  C   UNL     1     162.670 173.218 169.234  1.00  0.00    -0.023 C 
ATOM      7  C   UNL     1     163.080 171.728 169.052  1.00  0.00     0.010 C 
ATOM      8  C   UNL     1     162.988 170.928 170.376  1.00  0.00     0.036 C 
ATOM      9  C   UNL     1     163.500 171.721 171.617  1.00  0.00     0.065 C 
ATOM     10  C   UNL     1     163.019 173.233 171.573  1.00  0.00     0.027 C 
ATOM     11  C   UNL     1     163.593 173.832 170.289  1.00  0.00     0.014 C 
ATOM     12  C   UNL     1     161.484 173.542 171.392  1.00  0.00    -0.026 C 
ATOM     13  C   UNL     1     161.220 174.996 171.890  1.00  0.00     0.012 C 
ATOM     14  C   UNL     1     160.531 172.639 172.208  1.00  0.00     0.012 C 
ATOM     15  C   UNL     1     163.097 170.994 172.923  1.00  0.00     0.042 C 
ENDROOT
BRANCH   9  16
ATOM     16  O   UNL     1     164.911 171.691 171.561  1.00  0.00    -0.390 OA
ATOM     17  H   UNL     1     165.179 171.537 170.616  1.00  0.00     0.211 HD
ENDBRANCH   9  16
TORSDOF 1
ENDMDL
MODEL 6
REMARK VINA RESULT:    -3.582      8.383      9.678
REMARK INTER + INTRA:          -3.687
REMARK INTER:                  -3.687
REMARK INTRA:                   0.000
REMARK UNBOUND:                 0.000
REMARK SMILES C[C@@H]1CC[C@@H]2C(C)(C)[C@@H]3C[C@]12CC[C@@]3(C)O
REMARK SMILES IDX 1 1 2 2 3 3 4 4 5 5 11 6 12 7 13 8 14 9 9 10 10 11 6 12 7 13
REMARK SMILES IDX 8 14 15 15 16 16
REMARK H PARENT 16 17
REMARK Flexibility Score: inf
ROOT
ATOM      1  C   UNL     1     165.048 163.997 166.552  1.00  0.00     0.008 C 
ATOM      2  C   UNL     1     164.859 165.159 167.540  1.00  0.00    -0.008 C 
ATOM      3  C   UNL     1     166.048 166.110 167.561  1.00  0.00     0.004 C 
ATOM      4  C   UNL     1     165.928 166.866 168.878  1.00  0.00     0.005 C 
ATOM      5  C   UNL     1     165.150 165.947 169.851  1.00  0.00     0.001 C 
ATOM      6  C   UNL     1     164.658 164.747 169.012  1.00  0.00    -0.023 C 
ATOM      7  C   UNL     1     163.181 164.384 169.344  1.00  0.00     0.010 C 
ATOM      8  C   UNL     1     162.969 164.113 170.855  1.00  0.00     0.036 C 
ATOM      9  C   UNL     1     164.127 163.298 171.507  1.00  0.00     0.065 C 
ATOM     10  C   UNL     1     165.543 163.789 170.984  1.00  0.00     0.027 C 
ATOM     11  C   UNL     1     165.540 163.583 169.470  1.00  0.00     0.014 C 
ATOM     12  C   UNL     1     165.905 165.320 171.081  1.00  0.00    -0.026 C 
ATOM     13  C   UNL     1     167.456 165.457 171.007  1.00  0.00     0.012 C 
ATOM     14  C   UNL     1     165.485 166.012 172.398  1.00  0.00     0.012 C 
ATOM     15  C   UNL     1     164.006 163.332 173.050  1.00  0.00     0.042 C 
ENDROOT
BRANCH   9  16
ATOM     16  O   UNL     1     163.942 161.952 171.121  1.00  0.00    -0.390 OA
ATOM     17  H   UNL     1     163.676 161.433 171.928  1.00  0.00     0.211 HD
ENDBRANCH   9  16
TORSDOF 1
ENDMDL
MODEL 7
REMARK VINA RESULT:    -3.578      7.328      8.838
REMARK INTER + INTRA:          -3.682
REMARK INTER:                  -3.682
REMARK INTRA:                   0.000
REMARK UNBOUND:                 0.000
REMARK SMILES C[C@@H]1CC[C@@H]2C(C)(C)[C@@H]3C[C@]12CC[C@@]3(C)O
REMARK SMILES IDX 1 1 2 2 3 3 4 4 5 5 11 6 12 7 13 8 14 9 9 10 10 11 6 12 7 13
REMARK SMILES IDX 8 14 15 15 16 16
REMARK H PARENT 16 17
REMARK Flexibility Score: inf
ROOT
ATOM      1  C   UNL     1     166.181 167.430 166.600  1.00  0.00     0.008 C 
ATOM      2  C   UNL     1     166.360 166.224 167.536  1.00  0.00    -0.008 C 
ATOM      3  C   UNL     1     165.137 165.318 167.565  1.00  0.00     0.004 C 
ATOM      4  C   UNL     1     165.275 164.507 168.847  1.00  0.00     0.005 C 
ATOM      5  C   UNL     1     166.122 165.358 169.825  1.00  0.00     0.001 C 
ATOM      6  C   UNL     1     166.629 166.571 169.014  1.00  0.00    -0.023 C 
ATOM      7  C   UNL     1     168.130 166.866 169.304  1.00  0.00     0.010 C 
ATOM      8  C   UNL     1     168.406 167.069 170.816  1.00  0.00     0.036 C 
ATOM      9  C   UNL     1     167.304 167.900 171.541  1.00  0.00     0.065 C 
ATOM     10  C   UNL     1     165.852 167.482 171.053  1.00  0.00     0.027 C 
ATOM     11  C   UNL     1     165.809 167.747 169.548  1.00  0.00     0.014 C 
ATOM     12  C   UNL     1     165.435 165.964 171.105  1.00  0.00    -0.026 C 
ATOM     13  C   UNL     1     163.879 165.887 171.083  1.00  0.00     0.012 C 
ATOM     14  C   UNL     1     165.876 165.205 172.378  1.00  0.00     0.012 C 
ATOM     15  C   UNL     1     167.479 167.801 173.076  1.00  0.00     0.042 C 
ENDROOT
BRANCH   9  16
ATOM     16  O   UNL     1     167.527 169.252 171.199  1.00  0.00    -0.390 OA
ATOM     17  H   UNL     1     167.638 169.307 170.212  1.00  0.00     0.211 HD
ENDBRANCH   9  16
TORSDOF 1
ENDMDL
MODEL 8
REMARK VINA RESULT:    -3.468      1.904      4.048
REMARK INTER + INTRA:          -3.570
REMARK INTER:                  -3.570
REMARK INTRA:                   0.000
REMARK UNBOUND:                 0.000
REMARK SMILES C[C@@H]1CC[C@@H]2C(C)(C)[C@@H]3C[C@]12CC[C@@]3(C)O
REMARK SMILES IDX 1 1 2 2 3 3 4 4 5 5 11 6 12 7 13 8 14 9 9 10 10 11 6 12 7 13
REMARK SMILES IDX 8 14 15 15 16 16
REMARK H PARENT 16 17
REMARK Flexibility Score: inf
ROOT
ATOM      1  C   UNL     1     163.378 172.638 168.524  1.00  0.00     0.008 C 
ATOM      2  C   UNL     1     163.016 173.873 169.364  1.00  0.00    -0.008 C 
ATOM      3  C   UNL     1     163.554 173.793 170.786  1.00  0.00     0.004 C 
ATOM      4  C   UNL     1     162.722 174.792 171.581  1.00  0.00     0.005 C 
ATOM      5  C   UNL     1     161.362 174.921 170.852  1.00  0.00     0.001 C 
ATOM      6  C   UNL     1     161.506 174.138 169.528  1.00  0.00    -0.023 C 
ATOM      7  C   UNL     1     160.895 174.923 168.330  1.00  0.00     0.010 C 
ATOM      8  C   UNL     1     159.413 175.308 168.576  1.00  0.00     0.036 C 
ATOM      9  C   UNL     1     158.584 174.178 169.259  1.00  0.00     0.065 C 
ATOM     10  C   UNL     1     159.417 173.468 170.410  1.00  0.00     0.027 C 
ATOM     11  C   UNL     1     160.661 172.881 169.744  1.00  0.00     0.014 C 
ATOM     12  C   UNL     1     160.067 174.352 171.540  1.00  0.00    -0.026 C 
ATOM     13  C   UNL     1     160.355 173.435 172.767  1.00  0.00     0.012 C 
ATOM     14  C   UNL     1     159.176 175.498 172.072  1.00  0.00     0.012 C 
ATOM     15  C   UNL     1     157.224 174.731 169.749  1.00  0.00     0.042 C 
ENDROOT
BRANCH   9  16
ATOM     16  O   UNL     1     158.292 173.228 168.256  1.00  0.00    -0.390 OA
ATOM     17  H   UNL     1     158.933 172.473 168.350  1.00  0.00     0.211 HD
ENDBRANCH   9  16
TORSDOF 1
ENDMDL
MODEL 9
REMARK VINA RESULT:    -3.457      1.584      3.763
REMARK INTER + INTRA:          -3.558
REMARK INTER:                  -3.558
REMARK INTRA:                   0.000
REMARK UNBOUND:                 0.000
REMARK SMILES C[C@@H]1CC[C@@H]2C(C)(C)[C@@H]3C[C@]12CC[C@@]3(C)O
REMARK SMILES IDX 1 1 2 2 3 3 4 4 5 5 11 6 12 7 13 8 14 9 9 10 10 11 6 12 7 13
REMARK SMILES IDX 8 14 15 15 16 16
REMARK H PARENT 16 17
REMARK Flexibility Score: inf
ROOT
ATOM      1  C   UNL     1     161.380 170.547 173.034  1.00  0.00     0.008 C 
ATOM      2  C   UNL     1     161.114 172.051 172.874  1.00  0.00    -0.008 C 
ATOM      3  C   UNL     1     159.630 172.392 172.915  1.00  0.00     0.004 C 
ATOM      4  C   UNL     1     159.520 173.767 172.269  1.00  0.00     0.005 C 
ATOM      5  C   UNL     1     160.724 173.905 171.305  1.00  0.00     0.001 C 
ATOM      6  C   UNL     1     161.625 172.676 171.560  1.00  0.00    -0.023 C 
ATOM      7  C   UNL     1     163.129 173.072 171.622  1.00  0.00     0.010 C 
ATOM      8  C   UNL     1     163.589 173.828 170.349  1.00  0.00     0.036 C 
ATOM      9  C   UNL     1     163.002 173.238 169.031  1.00  0.00     0.065 C 
ATOM     10  C   UNL     1     161.474 172.844 169.206  1.00  0.00     0.027 C 
ATOM     11  C   UNL     1     161.422 171.800 170.321  1.00  0.00     0.014 C 
ATOM     12  C   UNL     1     160.464 173.923 169.753  1.00  0.00    -0.026 C 
ATOM     13  C   UNL     1     159.023 173.487 169.349  1.00  0.00     0.012 C 
ATOM     14  C   UNL     1     160.649 175.346 169.179  1.00  0.00     0.012 C 
ATOM     15  C   UNL     1     163.246 174.211 167.852  1.00  0.00     0.042 C 
ENDROOT
BRANCH   9  16
ATOM     16  O   UNL     1     163.743 172.070 168.746  1.00  0.00    -0.390 OA
ATOM     17  H   UNL     1     163.814 171.537 169.584  1.00  0.00     0.211 HD
ENDBRANCH   9  16
TORSDOF 1
ENDMDL
