MODEL 1
REMARK VINA RESULT:    -5.203      0.000      0.000
REMARK INTER + INTRA:         -10.561
REMARK INTER:                  -9.461
REMARK INTRA:                  -1.100
REMARK UNBOUND:                -1.100
REMARK SMILES CCCCCCCCCCCCCC[C@H](C)C(=O)[O-]
REMARK SMILES IDX 9 1 10 2 11 3 12 4 13 5 14 6 15 7 16 8 17 9 18 10 19 11 8 12
REMARK SMILES IDX 7 13 6 14 5 15 4 16 3 17 2 18 1 19
REMARK H PARENT
REMARK Flexibility Score: inf
ROOT
ATOM      1  C   UNL     1      -0.358  -3.938   8.981  1.00  0.00     0.000 C 
ENDROOT
BRANCH   1   2
ATOM      2  C   UNL     1       0.915  -4.790   8.932  1.00  0.00     0.000 C 
BRANCH   2   3
ATOM      3  C   UNL     1       1.014  -5.559   7.606  1.00  0.00     0.000 C 
BRANCH   3   4
ATOM      4  C   UNL     1      -0.364  -5.844   6.986  1.00  0.00     0.000 C 
BRANCH   4   5
ATOM      5  C   UNL     1      -0.851  -7.278   7.261  1.00  0.00     0.001 C 
BRANCH   5   6
ATOM      6  C   UNL     1      -2.051  -7.308   8.233  1.00  0.00     0.009 C 
BRANCH   6   7
ATOM      7  C   UNL     1      -2.597  -8.729   8.498  1.00  0.00     0.032 C 
ATOM      8  C   UNL     1      -1.897  -9.798   7.649  1.00  0.00     0.014 C 
BRANCH   7   9
ATOM      9  C   UNL     1      -4.079  -8.765   8.242  1.00  0.00     0.044 C 
ATOM     10  O   UNL     1      -4.780  -9.721   8.668  1.00  0.00    -0.550 OA
ATOM     11  O   UNL     1      -4.686  -7.735   7.533  1.00  0.00    -0.550 OA
ENDBRANCH   7   9
ENDBRANCH   6   7
ENDBRANCH   5   6
ENDBRANCH   4   5
ENDBRANCH   3   4
ENDBRANCH   2   3
ENDBRANCH   1   2
BRANCH   1  12
ATOM     12  C   UNL     1      -0.200  -2.766   9.955  1.00  0.00     0.000 C 
BRANCH  12  13
ATOM     13  C   UNL     1       0.695  -1.669   9.359  1.00  0.00    -0.000 C 
BRANCH  13  14
ATOM     14  C   UNL     1       0.021  -0.285   9.339  1.00  0.00    -0.000 C 
BRANCH  14  15
ATOM     15  C   UNL     1      -1.201  -0.156   8.403  1.00  0.00    -0.000 C 
BRANCH  15  16
ATOM     16  C   UNL     1      -1.089  -0.925   7.072  1.00  0.00    -0.000 C 
BRANCH  16  17
ATOM     17  C   UNL     1      -1.252  -0.031   5.821  1.00  0.00    -0.000 C 
BRANCH  17  18
ATOM     18  C   UNL     1      -1.485  -0.826   4.527  1.00  0.00    -0.003 C 
ATOM     19  C   UNL     1      -1.557  -2.334   4.764  1.00  0.00     0.004 C 
ENDBRANCH  17  18
ENDBRANCH  16  17
ENDBRANCH  15  16
ENDBRANCH  14  15
ENDBRANCH  13  14
ENDBRANCH  12  13
ENDBRANCH   1  12
TORSDOF 14
ENDMDL
MODEL 2
REMARK VINA RESULT:    -4.359      1.186      2.504
REMARK INTER + INTRA:          -9.026
REMARK INTER:                  -8.072
REMARK INTRA:                  -0.954
REMARK UNBOUND:                -1.100
REMARK SMILES CCCCCCCCCCCCCC[C@H](C)C(=O)[O-]
REMARK SMILES IDX 9 1 10 2 11 3 12 4 13 5 14 6 15 7 16 8 17 9 18 10 19 11 8 12
REMARK SMILES IDX 7 13 6 14 5 15 4 16 3 17 2 18 1 19
REMARK H PARENT
REMARK Flexibility Score: inf
ROOT
ATOM      1  C   UNL     1      -0.141  -4.863   7.273  1.00  0.00     0.000 C 
ENDROOT
BRANCH   1   2
ATOM      2  C   UNL     1      -0.385  -6.269   6.712  1.00  0.00     0.000 C 
BRANCH   2   3
ATOM      3  C   UNL     1      -1.307  -7.078   7.636  1.00  0.00     0.000 C 
BRANCH   3   4
ATOM      4  C   UNL     1      -1.133  -8.595   7.460  1.00  0.00     0.000 C 
BRANCH   4   5
ATOM      5  C   UNL     1      -2.340  -9.394   7.986  1.00  0.00     0.001 C 
BRANCH   5   6
ATOM      6  C   UNL     1      -3.426  -8.477   8.588  1.00  0.00     0.009 C 
BRANCH   6   7
ATOM      7  C   UNL     1      -4.862  -9.022   8.413  1.00  0.00     0.032 C 
ATOM      8  C   UNL     1      -4.951 -10.119   7.344  1.00  0.00     0.014 C 
BRANCH   7   9
ATOM      9  C   UNL     1      -5.800  -7.897   8.069  1.00  0.00     0.044 C 
ATOM     10  O   UNL     1      -5.351  -6.762   7.757  1.00  0.00    -0.550 OA
ATOM     11  O   UNL     1      -7.173  -8.108   8.088  1.00  0.00    -0.550 OA
ENDBRANCH   7   9
ENDBRANCH   6   7
ENDBRANCH   5   6
ENDBRANCH   4   5
ENDBRANCH   3   4
ENDBRANCH   2   3
ENDBRANCH   1   2
BRANCH   1  12
ATOM     12  C   UNL     1      -0.010  -4.893   8.800  1.00  0.00     0.000 C 
BRANCH  12  13
ATOM     13  C   UNL     1       1.234  -4.119   9.263  1.00  0.00    -0.000 C 
BRANCH  13  14
ATOM     14  C   UNL     1       0.891  -2.803   9.983  1.00  0.00    -0.000 C 
BRANCH  14  15
ATOM     15  C   UNL     1      -0.375  -2.079   9.476  1.00  0.00    -0.000 C 
BRANCH  15  16
ATOM     16  C   UNL     1      -0.156  -0.621   9.023  1.00  0.00    -0.000 C 
BRANCH  16  17
ATOM     17  C   UNL     1      -1.358  -0.021   8.256  1.00  0.00    -0.000 C 
BRANCH  17  18
ATOM     18  C   UNL     1      -1.111   0.118   6.746  1.00  0.00    -0.003 C 
ATOM     19  C   UNL     1      -1.444  -1.156   5.971  1.00  0.00     0.004 C 
ENDBRANCH  17  18
ENDBRANCH  16  17
ENDBRANCH  15  16
ENDBRANCH  14  15
ENDBRANCH  13  14
ENDBRANCH  12  13
ENDBRANCH   1  12
TORSDOF 14
ENDMDL
MODEL 3
REMARK VINA RESULT:    -4.289      1.586      4.210
REMARK INTER + INTRA:          -8.899
REMARK INTER:                  -7.376
REMARK INTRA:                  -1.522
REMARK UNBOUND:                -1.100
REMARK SMILES CCCCCCCCCCCCCC[C@H](C)C(=O)[O-]
REMARK SMILES IDX 9 1 10 2 11 3 12 4 13 5 14 6 15 7 16 8 17 9 18 10 19 11 8 12
REMARK SMILES IDX 7 13 6 14 5 15 4 16 3 17 2 18 1 19
REMARK H PARENT
REMARK Flexibility Score: inf
ROOT
ATOM      1  C   UNL     1      -1.853  -0.858   4.639  1.00  0.00     0.000 C 
ENDROOT
BRANCH   1   2
ATOM      2  C   UNL     1      -1.091  -2.165   4.387  1.00  0.00     0.000 C 
BRANCH   2   3
ATOM      3  C   UNL     1      -1.774  -3.346   5.092  1.00  0.00     0.000 C 
BRANCH   3   4
ATOM      4  C   UNL     1      -0.977  -3.846   6.307  1.00  0.00     0.000 C 
BRANCH   4   5
ATOM      5  C   UNL     1      -0.336  -5.225   6.067  1.00  0.00     0.001 C 
BRANCH   5   6
ATOM      6  C   UNL     1       0.011  -5.943   7.390  1.00  0.00     0.009 C 
BRANCH   6   7
ATOM      7  C   UNL     1      -1.229  -6.309   8.238  1.00  0.00     0.032 C 
ATOM      8  C   UNL     1      -1.006  -6.078   9.739  1.00  0.00     0.014 C 
BRANCH   7   9
ATOM      9  C   UNL     1      -1.612  -7.743   7.995  1.00  0.00     0.044 C 
ATOM     10  O   UNL     1      -1.073  -8.401   7.066  1.00  0.00    -0.550 OA
ATOM     11  O   UNL     1      -2.566  -8.353   8.801  1.00  0.00    -0.550 OA
ENDBRANCH   7   9
ENDBRANCH   6   7
ENDBRANCH   5   6
ENDBRANCH   4   5
ENDBRANCH   3   4
ENDBRANCH   2   3
ENDBRANCH   1   2
BRANCH   1  12
ATOM     12  C   UNL     1      -1.128   0.013   5.671  1.00  0.00     0.000 C 
BRANCH  12  13
ATOM     13  C   UNL     1      -1.569  -0.340   7.099  1.00  0.00    -0.000 C 
BRANCH  13  14
ATOM     14  C   UNL     1      -0.481  -0.063   8.152  1.00  0.00    -0.000 C 
BRANCH  14  15
ATOM     15  C   UNL     1      -0.569  -0.914   9.437  1.00  0.00    -0.000 C 
BRANCH  15  16
ATOM     16  C   UNL     1       0.781  -1.438   9.967  1.00  0.00    -0.000 C 
BRANCH  16  17
ATOM     17  C   UNL     1       1.004  -2.947   9.715  1.00  0.00    -0.000 C 
BRANCH  17  18
ATOM     18  C   UNL     1       2.481  -3.365   9.776  1.00  0.00    -0.003 C 
ATOM     19  C   UNL     1       2.694  -4.841   9.440  1.00  0.00     0.004 C 
ENDBRANCH  17  18
ENDBRANCH  16  17
ENDBRANCH  15  16
ENDBRANCH  14  15
ENDBRANCH  13  14
ENDBRANCH  12  13
ENDBRANCH   1  12
TORSDOF 14
ENDMDL
MODEL 4
REMARK VINA RESULT:    -4.086      5.217      9.060
REMARK INTER + INTRA:          -8.529
REMARK INTER:                  -7.944
REMARK INTRA:                  -0.586
REMARK UNBOUND:                -1.100
REMARK SMILES CCCCCCCCCCCCCC[C@H](C)C(=O)[O-]
REMARK SMILES IDX 9 1 10 2 11 3 12 4 13 5 14 6 15 7 16 8 17 9 18 10 19 11 8 12
REMARK SMILES IDX 7 13 6 14 5 15 4 16 3 17 2 18 1 19
REMARK H PARENT
REMARK Flexibility Score: inf
ROOT
ATOM      1  C   UNL     1       0.187  -4.471   8.617  1.00  0.00     0.000 C 
ENDROOT
BRANCH   1   2
ATOM      2  C   UNL     1       1.605  -4.887   9.027  1.00  0.00     0.000 C 
BRANCH   2   3
ATOM      3  C   UNL     1       2.154  -3.964  10.125  1.00  0.00     0.000 C 
BRANCH   3   4
ATOM      4  C   UNL     1       3.346  -3.122   9.644  1.00  0.00     0.000 C 
BRANCH   4   5
ATOM      5  C   UNL     1       3.262  -1.657  10.111  1.00  0.00     0.001 C 
BRANCH   5   6
ATOM      6  C   UNL     1       4.606  -0.914   9.938  1.00  0.00     0.009 C 
BRANCH   6   7
ATOM      7  C   UNL     1       4.658  -0.013   8.684  1.00  0.00     0.032 C 
ATOM      8  C   UNL     1       5.889  -0.289   7.809  1.00  0.00     0.014 C 
BRANCH   7   9
ATOM      9  C   UNL     1       4.636   1.435   9.090  1.00  0.00     0.044 C 
ATOM     10  O   UNL     1       5.670   1.986   9.551  1.00  0.00    -0.550 OA
ATOM     11  O   UNL     1       3.468   2.176   8.953  1.00  0.00    -0.550 OA
ENDBRANCH   7   9
ENDBRANCH   6   7
ENDBRANCH   5   6
ENDBRANCH   4   5
ENDBRANCH   3   4
ENDBRANCH   2   3
ENDBRANCH   1   2
BRANCH   1  12
ATOM     12  C   UNL     1      -0.145  -4.963   7.204  1.00  0.00     0.000 C 
BRANCH  12  13
ATOM     13  C   UNL     1      -0.506  -6.456   7.210  1.00  0.00    -0.000 C 
BRANCH  13  14
ATOM     14  C   UNL     1      -1.397  -6.856   8.400  1.00  0.00    -0.000 C 
BRANCH  14  15
ATOM     15  C   UNL     1      -2.354  -8.041   8.144  1.00  0.00    -0.000 C 
BRANCH  15  16
ATOM     16  C   UNL     1      -3.741  -7.914   8.804  1.00  0.00    -0.000 C 
BRANCH  16  17
ATOM     17  C   UNL     1      -4.428  -9.274   9.073  1.00  0.00    -0.000 C 
BRANCH  17  18
ATOM     18  C   UNL     1      -5.696  -9.494   8.232  1.00  0.00    -0.003 C 
ATOM     19  C   UNL     1      -5.393 -10.038   6.836  1.00  0.00     0.004 C 
ENDBRANCH  17  18
ENDBRANCH  16  17
ENDBRANCH  15  16
ENDBRANCH  14  15
ENDBRANCH  13  14
ENDBRANCH  12  13
ENDBRANCH   1  12
TORSDOF 14
ENDMDL
MODEL 5
REMARK VINA RESULT:    -4.067     17.104     20.363
REMARK INTER + INTRA:          -8.496
REMARK INTER:                  -6.108
REMARK INTRA:                  -2.388
REMARK UNBOUND:                -1.100
REMARK SMILES CCCCCCCCCCCCCC[C@H](C)C(=O)[O-]
REMARK SMILES IDX 9 1 10 2 11 3 12 4 13 5 14 6 15 7 16 8 17 9 18 10 19 11 8 12
REMARK SMILES IDX 7 13 6 14 5 15 4 16 3 17 2 18 1 19
REMARK H PARENT
REMARK Flexibility Score: inf
ROOT
ATOM      1  C   UNL     1       7.063   6.003  -4.269  1.00  0.00     0.000 C 
ENDROOT
BRANCH   1   2
ATOM      2  C   UNL     1       7.571   6.233  -5.697  1.00  0.00     0.000 C 
BRANCH   2   3
ATOM      3  C   UNL     1       7.168   7.625  -6.208  1.00  0.00     0.000 C 
BRANCH   3   4
ATOM      4  C   UNL     1       6.441   7.568  -7.561  1.00  0.00     0.000 C 
BRANCH   4   5
ATOM      5  C   UNL     1       6.010   8.959  -8.060  1.00  0.00     0.001 C 
BRANCH   5   6
ATOM      6  C   UNL     1       4.754   8.891  -8.957  1.00  0.00     0.009 C 
BRANCH   6   7
ATOM      7  C   UNL     1       3.895   7.628  -8.722  1.00  0.00     0.032 C 
ATOM      8  C   UNL     1       3.602   6.863 -10.020  1.00  0.00     0.014 C 
BRANCH   7   9
ATOM      9  C   UNL     1       2.603   8.004  -8.050  1.00  0.00     0.044 C 
ATOM     10  O   UNL     1       1.863   7.119  -7.543  1.00  0.00    -0.550 OA
ATOM     11  O   UNL     1       2.219   9.338  -7.981  1.00  0.00    -0.550 OA
ENDBRANCH   7   9
ENDBRANCH   6   7
ENDBRANCH   5   6
ENDBRANCH   4   5
ENDBRANCH   3   4
ENDBRANCH   2   3
ENDBRANCH   1   2
BRANCH   1  12
ATOM     12  C   UNL     1       5.553   5.739  -4.257  1.00  0.00     0.000 C 
BRANCH  12  13
ATOM     13  C   UNL     1       5.255   4.245  -4.059  1.00  0.00    -0.000 C 
BRANCH  13  14
ATOM     14  C   UNL     1       4.525   3.613  -5.257  1.00  0.00    -0.000 C 
BRANCH  14  15
ATOM     15  C   UNL     1       4.180   4.579  -6.411  1.00  0.00    -0.000 C 
BRANCH  15  16
ATOM     16  C   UNL     1       4.958   4.339  -7.720  1.00  0.00    -0.000 C 
BRANCH  16  17
ATOM     17  C   UNL     1       6.216   3.457  -7.542  1.00  0.00    -0.000 C 
BRANCH  17  18
ATOM     18  C   UNL     1       7.047   3.312  -8.827  1.00  0.00    -0.003 C 
ATOM     19  C   UNL     1       7.073   4.591  -9.662  1.00  0.00     0.004 C 
ENDBRANCH  17  18
ENDBRANCH  16  17
ENDBRANCH  15  16
ENDBRANCH  14  15
ENDBRANCH  13  14
ENDBRANCH  12  13
ENDBRANCH   1  12
TORSDOF 14
ENDMDL
MODEL 6
REMARK VINA RESULT:    -4.026     15.117     17.365
REMARK INTER + INTRA:          -8.421
REMARK INTER:                  -6.819
REMARK INTRA:                  -1.601
REMARK UNBOUND:                -1.100
REMARK SMILES CCCCCCCCCCCCCC[C@H](C)C(=O)[O-]
REMARK SMILES IDX 9 1 10 2 11 3 12 4 13 5 14 6 15 7 16 8 17 9 18 10 19 11 8 12
REMARK SMILES IDX 7 13 6 14 5 15 4 16 3 17 2 18 1 19
REMARK H PARENT
REMARK Flexibility Score: inf
ROOT
ATOM      1  C   UNL     1      -8.289   3.438  -2.206  1.00  0.00     0.000 C 
ENDROOT
BRANCH   1   2
ATOM      2  C   UNL     1      -8.788   4.857  -1.910  1.00  0.00     0.000 C 
BRANCH   2   3
ATOM      3  C   UNL     1      -7.618   5.851  -1.847  1.00  0.00     0.000 C 
BRANCH   3   4
ATOM      4  C   UNL     1      -7.892   7.135  -2.645  1.00  0.00     0.000 C 
BRANCH   4   5
ATOM      5  C   UNL     1      -7.483   8.407  -1.879  1.00  0.00     0.001 C 
BRANCH   5   6
ATOM      6  C   UNL     1      -6.434   8.113  -0.785  1.00  0.00     0.009 C 
BRANCH   6   7
ATOM      7  C   UNL     1      -6.522   9.067   0.428  1.00  0.00     0.032 C 
ATOM      8  C   UNL     1      -5.175   9.722   0.763  1.00  0.00     0.014 C 
BRANCH   7   9
ATOM      9  C   UNL     1      -7.039   8.324   1.629  1.00  0.00     0.044 C 
ATOM     10  O   UNL     1      -6.773   8.724   2.793  1.00  0.00    -0.550 OA
ATOM     11  O   UNL     1      -7.823   7.189   1.458  1.00  0.00    -0.550 OA
ENDBRANCH   7   9
ENDBRANCH   6   7
ENDBRANCH   5   6
ENDBRANCH   4   5
ENDBRANCH   3   4
ENDBRANCH   2   3
ENDBRANCH   1   2
BRANCH   1  12
ATOM     12  C   UNL     1      -8.162   3.202  -3.715  1.00  0.00     0.000 C 
BRANCH  12  13
ATOM     13  C   UNL     1      -6.764   2.676  -4.076  1.00  0.00    -0.000 C 
BRANCH  13  14
ATOM     14  C   UNL     1      -5.883   3.732  -4.766  1.00  0.00    -0.000 C 
BRANCH  14  15
ATOM     15  C   UNL     1      -6.643   4.817  -5.559  1.00  0.00    -0.000 C 
BRANCH  15  16
ATOM     16  C   UNL     1      -5.950   6.193  -5.614  1.00  0.00    -0.000 C 
BRANCH  16  17
ATOM     17  C   UNL     1      -6.677   7.219  -6.514  1.00  0.00    -0.000 C 
BRANCH  17  18
ATOM     18  C   UNL     1      -6.742   8.628  -5.903  1.00  0.00    -0.003 C 
ATOM     19  C   UNL     1      -5.920   9.651  -6.686  1.00  0.00     0.004 C 
ENDBRANCH  17  18
ENDBRANCH  16  17
ENDBRANCH  15  16
ENDBRANCH  14  15
ENDBRANCH  13  14
ENDBRANCH  12  13
ENDBRANCH   1  12
TORSDOF 14
ENDMDL
MODEL 7
REMARK VINA RESULT:    -3.980     15.054     16.525
REMARK INTER + INTRA:          -8.337
REMARK INTER:                  -6.804
REMARK INTRA:                  -1.533
REMARK UNBOUND:                -1.100
REMARK SMILES CCCCCCCCCCCCCC[C@H](C)C(=O)[O-]
REMARK SMILES IDX 9 1 10 2 11 3 12 4 13 5 14 6 15 7 16 8 17 9 18 10 19 11 8 12
REMARK SMILES IDX 7 13 6 14 5 15 4 16 3 17 2 18 1 19
REMARK H PARENT
REMARK Flexibility Score: inf
ROOT
ATOM      1  C   UNL     1      -6.092   4.557  -5.138  1.00  0.00     0.000 C 
ENDROOT
BRANCH   1   2
ATOM      2  C   UNL     1      -6.110   3.146  -4.537  1.00  0.00     0.000 C 
BRANCH   2   3
ATOM      3  C   UNL     1      -7.203   3.018  -3.465  1.00  0.00     0.000 C 
BRANCH   3   4
ATOM      4  C   UNL     1      -8.610   2.892  -4.071  1.00  0.00     0.000 C 
BRANCH   4   5
ATOM      5  C   UNL     1      -8.748   1.671  -4.999  1.00  0.00     0.001 C 
BRANCH   5   6
ATOM      6  C   UNL     1      -8.934   2.083  -6.476  1.00  0.00     0.009 C 
BRANCH   6   7
ATOM      7  C   UNL     1      -8.361   1.057  -7.481  1.00  0.00     0.032 C 
ATOM      8  C   UNL     1      -8.636  -0.394  -7.065  1.00  0.00     0.014 C 
BRANCH   7   9
ATOM      9  C   UNL     1      -6.881   1.269  -7.643  1.00  0.00     0.044 C 
ATOM     10  O   UNL     1      -6.060   0.447  -7.158  1.00  0.00    -0.550 OA
ATOM     11  O   UNL     1      -6.410   2.378  -8.337  1.00  0.00    -0.550 OA
ENDBRANCH   7   9
ENDBRANCH   6   7
ENDBRANCH   5   6
ENDBRANCH   4   5
ENDBRANCH   3   4
ENDBRANCH   2   3
ENDBRANCH   1   2
BRANCH   1  12
ATOM     12  C   UNL     1      -5.987   5.622  -4.041  1.00  0.00     0.000 C 
BRANCH  12  13
ATOM     13  C   UNL     1      -7.119   6.653  -4.163  1.00  0.00    -0.000 C 
BRANCH  13  14
ATOM     14  C   UNL     1      -7.509   7.282  -2.813  1.00  0.00    -0.000 C 
BRANCH  14  15
ATOM     15  C   UNL     1      -7.556   6.309  -1.616  1.00  0.00    -0.000 C 
BRANCH  15  16
ATOM     16  C   UNL     1      -6.703   6.726  -0.401  1.00  0.00    -0.000 C 
BRANCH  16  17
ATOM     17  C   UNL     1      -6.308   8.221  -0.403  1.00  0.00    -0.000 C 
BRANCH  17  18
ATOM     18  C   UNL     1      -6.253   8.840   1.003  1.00  0.00    -0.003 C 
ATOM     19  C   UNL     1      -6.960   7.985   2.054  1.00  0.00     0.004 C 
ENDBRANCH  17  18
ENDBRANCH  16  17
ENDBRANCH  15  16
ENDBRANCH  14  15
ENDBRANCH  13  14
ENDBRANCH  12  13
ENDBRANCH   1  12
TORSDOF 14
ENDMDL
MODEL 8
REMARK VINA RESULT:    -3.971     15.672     17.613
REMARK INTER + INTRA:          -8.320
REMARK INTER:                  -5.959
REMARK INTRA:                  -2.361
REMARK UNBOUND:                -1.100
REMARK SMILES CCCCCCCCCCCCCC[C@H](C)C(=O)[O-]
REMARK SMILES IDX 9 1 10 2 11 3 12 4 13 5 14 6 15 7 16 8 17 9 18 10 19 11 8 12
REMARK SMILES IDX 7 13 6 14 5 15 4 16 3 17 2 18 1 19
REMARK H PARENT
REMARK Flexibility Score: inf
ROOT
ATOM      1  C   UNL     1      -8.259   3.858  -2.226  1.00  0.00     0.000 C 
ENDROOT
BRANCH   1   2
ATOM      2  C   UNL     1      -8.261   3.394  -3.687  1.00  0.00     0.000 C 
BRANCH   2   3
ATOM      3  C   UNL     1      -7.069   2.470  -3.974  1.00  0.00     0.000 C 
BRANCH   3   4
ATOM      4  C   UNL     1      -5.935   3.186  -4.726  1.00  0.00     0.000 C 
BRANCH   4   5
ATOM      5  C   UNL     1      -6.438   4.384  -5.552  1.00  0.00     0.001 C 
BRANCH   5   6
ATOM      6  C   UNL     1      -5.762   5.707  -5.127  1.00  0.00     0.009 C 
BRANCH   6   7
ATOM      7  C   UNL     1      -6.586   6.964  -5.485  1.00  0.00     0.032 C 
ATOM      8  C   UNL     1      -8.038   6.634  -5.855  1.00  0.00     0.014 C 
BRANCH   7   9
ATOM      9  C   UNL     1      -5.928   7.703  -6.618  1.00  0.00     0.044 C 
ATOM     10  O   UNL     1      -6.066   8.950  -6.735  1.00  0.00    -0.550 OA
ATOM     11  O   UNL     1      -5.156   7.011  -7.543  1.00  0.00    -0.550 OA
ENDBRANCH   7   9
ENDBRANCH   6   7
ENDBRANCH   5   6
ENDBRANCH   4   5
ENDBRANCH   3   4
ENDBRANCH   2   3
ENDBRANCH   1   2
BRANCH   1  12
ATOM     12  C   UNL     1      -7.894   5.342  -2.119  1.00  0.00     0.000 C 
BRANCH  12  13
ATOM     13  C   UNL     1      -9.150   6.211  -1.957  1.00  0.00    -0.000 C 
BRANCH  13  14
ATOM     14  C   UNL     1      -8.909   7.690  -2.305  1.00  0.00    -0.000 C 
BRANCH  14  15
ATOM     15  C   UNL     1      -7.449   8.174  -2.174  1.00  0.00    -0.000 C 
BRANCH  15  16
ATOM     16  C   UNL     1      -7.185   9.147  -1.007  1.00  0.00    -0.000 C 
BRANCH  16  17
ATOM     17  C   UNL     1      -6.175   8.610   0.033  1.00  0.00    -0.000 C 
BRANCH  17  18
ATOM     18  C   UNL     1      -6.680   7.376   0.796  1.00  0.00    -0.003 C 
ATOM     19  C   UNL     1      -7.970   7.645   1.570  1.00  0.00     0.004 C 
ENDBRANCH  17  18
ENDBRANCH  16  17
ENDBRANCH  15  16
ENDBRANCH  14  15
ENDBRANCH  13  14
ENDBRANCH  12  13
ENDBRANCH   1  12
TORSDOF 14
ENDMDL
MODEL 9
REMARK VINA RESULT:    -3.917     15.316     17.419
REMARK INTER + INTRA:          -8.223
REMARK INTER:                  -5.519
REMARK INTRA:                  -2.704
REMARK UNBOUND:                -1.100
REMARK SMILES CCCCCCCCCCCCCC[C@H](C)C(=O)[O-]
REMARK SMILES IDX 9 1 10 2 11 3 12 4 13 5 14 6 15 7 16 8 17 9 18 10 19 11 8 12
REMARK SMILES IDX 7 13 6 14 5 15 4 16 3 17 2 18 1 19
REMARK H PARENT
REMARK Flexibility Score: inf
ROOT
ATOM      1  C   UNL     1      -6.706   2.929  -4.064  1.00  0.00     0.000 C 
ENDROOT
BRANCH   1   2
ATOM      2  C   UNL     1      -8.171   2.688  -4.449  1.00  0.00     0.000 C 
BRANCH   2   3
ATOM      3  C   UNL     1      -9.122   3.287  -3.401  1.00  0.00     0.000 C 
BRANCH   3   4
ATOM      4  C   UNL     1      -8.376   3.832  -2.173  1.00  0.00     0.000 C 
BRANCH   4   5
ATOM      5  C   UNL     1      -8.743   5.293  -1.858  1.00  0.00     0.001 C 
BRANCH   5   6
ATOM      6  C   UNL     1      -7.491   6.176  -1.656  1.00  0.00     0.009 C 
BRANCH   6   7
ATOM      7  C   UNL     1      -7.788   7.515  -0.943  1.00  0.00     0.032 C 
ATOM      8  C   UNL     1      -7.731   8.716  -1.897  1.00  0.00     0.014 C 
BRANCH   7   9
ATOM      9  C   UNL     1      -6.820   7.718   0.190  1.00  0.00     0.044 C 
ATOM     10  O   UNL     1      -6.976   7.110   1.282  1.00  0.00    -0.550 OA
ATOM     11  O   UNL     1      -5.740   8.579   0.035  1.00  0.00    -0.550 OA
ENDBRANCH   7   9
ENDBRANCH   6   7
ENDBRANCH   5   6
ENDBRANCH   4   5
ENDBRANCH   3   4
ENDBRANCH   2   3
ENDBRANCH   1   2
BRANCH   1  12
ATOM     12  C   UNL     1      -6.007   3.826  -5.092  1.00  0.00     0.000 C 
BRANCH  12  13
ATOM     13  C   UNL     1      -5.809   5.246  -4.542  1.00  0.00    -0.000 C 
BRANCH  13  14
ATOM     14  C   UNL     1      -6.008   6.338  -5.608  1.00  0.00    -0.000 C 
BRANCH  14  15
ATOM     15  C   UNL     1      -7.139   7.349  -5.319  1.00  0.00    -0.000 C 
BRANCH  15  16
ATOM     16  C   UNL     1      -8.550   6.738  -5.210  1.00  0.00    -0.000 C 
BRANCH  16  17
ATOM     17  C   UNL     1      -9.232   6.499  -6.577  1.00  0.00    -0.000 C 
BRANCH  17  18
ATOM     18  C   UNL     1      -9.546   5.019  -6.853  1.00  0.00    -0.003 C 
ATOM     19  C   UNL     1      -8.530   4.363  -7.786  1.00  0.00     0.004 C 
ENDBRANCH  17  18
ENDBRANCH  16  17
ENDBRANCH  15  16
ENDBRANCH  14  15
ENDBRANCH  13  14
ENDBRANCH  12  13
ENDBRANCH   1  12
TORSDOF 14
ENDMDL
