MODEL 1
REMARK VINA RESULT:    -5.199      0.000      0.000
REMARK INTER + INTRA:          -6.667
REMARK INTER:                  -6.415
REMARK INTRA:                  -0.252
REMARK UNBOUND:                -0.252
REMARK SMILES C=CC[C@H](C)C(=O)CC
REMARK SMILES IDX 4 1 5 2 6 3 7 4 8 5 9 6 3 7 2 8 1 9
REMARK H PARENT
REMARK Flexibility Score: inf
ROOT
ATOM      1  C   UNL     1      -2.391  27.521  28.591  1.00  0.00     0.057 C 
ATOM      2  C   UNL     1      -2.590  28.679  27.607  1.00  0.00     0.016 C 
ENDROOT
BRANCH   1   3
ATOM      3  C   UNL     1      -3.541  27.482  29.578  1.00  0.00     0.135 C 
ATOM      4  O   UNL     1      -4.333  26.551  29.548  1.00  0.00    -0.299 OA
BRANCH   3   5
ATOM      5  C   UNL     1      -3.714  28.561  30.615  1.00  0.00     0.072 C 
ATOM      6  C   UNL     1      -5.038  29.293  30.427  1.00  0.00     0.012 C 
ENDBRANCH   3   5
ENDBRANCH   1   3
BRANCH   1   7
ATOM      7  C   UNL     1      -1.036  27.650  29.313  1.00  0.00     0.038 C 
BRANCH   7   8
ATOM      8  C   UNL     1      -0.091  26.550  28.907  1.00  0.00    -0.034 C 
ATOM      9  C   UNL     1      -0.288  25.821  27.806  1.00  0.00     0.004 C 
ENDBRANCH   7   8
ENDBRANCH   1   7
TORSDOF 4
ENDMDL
MODEL 2
REMARK VINA RESULT:    -5.177      1.486      4.364
REMARK INTER + INTRA:          -6.640
REMARK INTER:                  -6.396
REMARK INTRA:                  -0.244
REMARK UNBOUND:                -0.252
REMARK SMILES C=CC[C@H](C)C(=O)CC
REMARK SMILES IDX 4 1 5 2 6 3 7 4 8 5 9 6 3 7 2 8 1 9
REMARK H PARENT
REMARK Flexibility Score: inf
ROOT
ATOM      1  C   UNL     1      -2.669  27.157  29.593  1.00  0.00     0.057 C 
ATOM      2  C   UNL     1      -1.928  28.135  30.510  1.00  0.00     0.016 C 
ENDROOT
BRANCH   1   3
ATOM      3  C   UNL     1      -2.147  27.283  28.175  1.00  0.00     0.135 C 
ATOM      4  O   UNL     1      -2.194  28.364  27.607  1.00  0.00    -0.299 OA
BRANCH   3   5
ATOM      5  C   UNL     1      -1.546  26.102  27.459  1.00  0.00     0.072 C 
ATOM      6  C   UNL     1      -0.117  25.848  27.925  1.00  0.00     0.012 C 
ENDBRANCH   3   5
ENDBRANCH   1   3
BRANCH   1   7
ATOM      7  C   UNL     1      -4.190  27.404  29.655  1.00  0.00     0.038 C 
BRANCH   7   8
ATOM      8  C   UNL     1      -4.510  28.665  30.412  1.00  0.00    -0.034 C 
ATOM      9  C   UNL     1      -5.550  29.439  30.086  1.00  0.00     0.004 C 
ENDBRANCH   7   8
ENDBRANCH   1   7
TORSDOF 4
ENDMDL
MODEL 3
REMARK VINA RESULT:    -5.078      1.476      4.273
REMARK INTER + INTRA:          -6.518
REMARK INTER:                  -6.333
REMARK INTRA:                  -0.184
REMARK UNBOUND:                -0.252
REMARK SMILES C=CC[C@H](C)C(=O)CC
REMARK SMILES IDX 4 1 5 2 6 3 7 4 8 5 9 6 3 7 2 8 1 9
REMARK H PARENT
REMARK Flexibility Score: inf
ROOT
ATOM      1  C   UNL     1      -2.535  28.236  28.936  1.00  0.00     0.057 C 
ATOM      2  C   UNL     1      -2.800  28.731  27.511  1.00  0.00     0.016 C 
ENDROOT
BRANCH   1   3
ATOM      3  C   UNL     1      -1.292  27.367  28.956  1.00  0.00     0.135 C 
ATOM      4  O   UNL     1      -0.512  27.449  29.894  1.00  0.00    -0.299 OA
BRANCH   3   5
ATOM      5  C   UNL     1      -1.010  26.385  27.850  1.00  0.00     0.072 C 
ATOM      6  C   UNL     1       0.294  25.636  28.101  1.00  0.00     0.012 C 
ENDBRANCH   3   5
ENDBRANCH   1   3
BRANCH   1   7
ATOM      7  C   UNL     1      -3.760  27.475  29.482  1.00  0.00     0.038 C 
BRANCH   7   8
ATOM      8  C   UNL     1      -4.510  28.299  30.494  1.00  0.00    -0.034 C 
ATOM      9  C   UNL     1      -5.401  29.225  30.130  1.00  0.00     0.004 C 
ENDBRANCH   7   8
ENDBRANCH   1   7
TORSDOF 4
ENDMDL
MODEL 4
REMARK VINA RESULT:    -5.012      1.668      4.274
REMARK INTER + INTRA:          -6.437
REMARK INTER:                  -6.127
REMARK INTRA:                  -0.309
REMARK UNBOUND:                -0.252
REMARK SMILES C=CC[C@H](C)C(=O)CC
REMARK SMILES IDX 4 1 5 2 6 3 7 4 8 5 9 6 3 7 2 8 1 9
REMARK H PARENT
REMARK Flexibility Score: inf
ROOT
ATOM      1  C   UNL     1      -3.260  27.789  30.513  1.00  0.00     0.057 C 
ATOM      2  C   UNL     1      -3.228  29.085  31.330  1.00  0.00     0.016 C 
ENDROOT
BRANCH   1   3
ATOM      3  C   UNL     1      -2.080  27.751  29.562  1.00  0.00     0.135 C 
ATOM      4  O   UNL     1      -0.943  27.825  30.005  1.00  0.00    -0.299 OA
BRANCH   3   5
ATOM      5  C   UNL     1      -2.282  27.601  28.077  1.00  0.00     0.072 C 
ATOM      6  C   UNL     1      -1.623  26.326  27.562  1.00  0.00     0.012 C 
ENDBRANCH   3   5
ENDBRANCH   1   3
BRANCH   1   7
ATOM      7  C   UNL     1      -4.596  27.660  29.756  1.00  0.00     0.038 C 
BRANCH   7   8
ATOM      8  C   UNL     1      -5.381  28.944  29.804  1.00  0.00    -0.034 C 
ATOM      9  C   UNL     1      -5.694  29.622  28.696  1.00  0.00     0.004 C 
ENDBRANCH   7   8
ENDBRANCH   1   7
TORSDOF 4
ENDMDL
MODEL 5
REMARK VINA RESULT:    -4.888      1.843      2.461
REMARK INTER + INTRA:          -6.283
REMARK INTER:                  -6.082
REMARK INTRA:                  -0.201
REMARK UNBOUND:                -0.252
REMARK SMILES C=CC[C@H](C)C(=O)CC
REMARK SMILES IDX 4 1 5 2 6 3 7 4 8 5 9 6 3 7 2 8 1 9
REMARK H PARENT
REMARK Flexibility Score: inf
ROOT
ATOM      1  C   UNL     1      -3.500  28.173  29.439  1.00  0.00     0.057 C 
ATOM      2  C   UNL     1      -4.261  26.878  29.739  1.00  0.00     0.016 C 
ENDROOT
BRANCH   1   3
ATOM      3  C   UNL     1      -4.460  29.347  29.447  1.00  0.00     0.135 C 
ATOM      4  O   UNL     1      -5.193  29.523  30.409  1.00  0.00    -0.299 OA
BRANCH   3   5
ATOM      5  C   UNL     1      -4.512  30.318  28.297  1.00  0.00     0.072 C 
ATOM      6  C   UNL     1      -5.817  31.107  28.305  1.00  0.00     0.012 C 
ENDBRANCH   3   5
ENDBRANCH   1   3
BRANCH   1   7
ATOM      7  C   UNL     1      -2.757  28.065  28.093  1.00  0.00     0.038 C 
BRANCH   7   8
ATOM      8  C   UNL     1      -1.596  27.110  28.182  1.00  0.00    -0.034 C 
ATOM      9  C   UNL     1      -1.507  26.031  27.400  1.00  0.00     0.004 C 
ENDBRANCH   7   8
ENDBRANCH   1   7
TORSDOF 4
ENDMDL
MODEL 6
REMARK VINA RESULT:    -4.768      1.944      4.099
REMARK INTER + INTRA:          -6.135
REMARK INTER:                  -5.832
REMARK INTRA:                  -0.303
REMARK UNBOUND:                -0.252
REMARK SMILES C=CC[C@H](C)C(=O)CC
REMARK SMILES IDX 4 1 5 2 6 3 7 4 8 5 9 6 3 7 2 8 1 9
REMARK H PARENT
REMARK Flexibility Score: inf
ROOT
ATOM      1  C   UNL     1      -3.815  28.018  29.393  1.00  0.00     0.057 C 
ATOM      2  C   UNL     1      -4.610  26.776  29.809  1.00  0.00     0.016 C 
ENDROOT
BRANCH   1   3
ATOM      3  C   UNL     1      -2.870  28.420  30.508  1.00  0.00     0.135 C 
ATOM      4  O   UNL     1      -3.263  29.160  31.398  1.00  0.00    -0.299 OA
BRANCH   3   5
ATOM      5  C   UNL     1      -1.454  27.906  30.553  1.00  0.00     0.072 C 
ATOM      6  C   UNL     1      -0.915  27.664  29.148  1.00  0.00     0.012 C 
ENDBRANCH   3   5
ENDBRANCH   1   3
BRANCH   1   7
ATOM      7  C   UNL     1      -4.768  29.171  29.021  1.00  0.00     0.038 C 
BRANCH   7   8
ATOM      8  C   UNL     1      -4.103  30.155  28.095  1.00  0.00    -0.034 C 
ATOM      9  C   UNL     1      -4.732  31.249  27.659  1.00  0.00     0.004 C 
ENDBRANCH   7   8
ENDBRANCH   1   7
TORSDOF 4
ENDMDL
MODEL 7
REMARK VINA RESULT:    -4.458      2.566      3.882
REMARK INTER + INTRA:          -5.753
REMARK INTER:                  -5.486
REMARK INTRA:                  -0.267
REMARK UNBOUND:                -0.252
REMARK SMILES C=CC[C@H](C)C(=O)CC
REMARK SMILES IDX 4 1 5 2 6 3 7 4 8 5 9 6 3 7 2 8 1 9
REMARK H PARENT
REMARK Flexibility Score: inf
ROOT
ATOM      1  C   UNL     1      -4.856  29.369  29.786  1.00  0.00     0.057 C 
ATOM      2  C   UNL     1      -6.123  29.854  30.498  1.00  0.00     0.016 C 
ENDROOT
BRANCH   1   3
ATOM      3  C   UNL     1      -4.811  29.929  28.378  1.00  0.00     0.135 C 
ATOM      4  O   UNL     1      -4.169  29.347  27.515  1.00  0.00    -0.299 OA
BRANCH   3   5
ATOM      5  C   UNL     1      -5.564  31.181  28.012  1.00  0.00     0.072 C 
ATOM      6  C   UNL     1      -4.611  32.277  27.548  1.00  0.00     0.012 C 
ENDBRANCH   3   5
ENDBRANCH   1   3
BRANCH   1   7
ATOM      7  C   UNL     1      -4.794  27.829  29.780  1.00  0.00     0.038 C 
BRANCH   7   8
ATOM      8  C   UNL     1      -3.529  27.329  30.426  1.00  0.00    -0.034 C 
ATOM      9  C   UNL     1      -2.470  28.121  30.613  1.00  0.00     0.004 C 
ENDBRANCH   7   8
ENDBRANCH   1   7
TORSDOF 4
ENDMDL
MODEL 8
REMARK VINA RESULT:    -4.327      1.966      3.790
REMARK INTER + INTRA:          -5.591
REMARK INTER:                  -5.286
REMARK INTRA:                  -0.306
REMARK UNBOUND:                -0.252
REMARK SMILES C=CC[C@H](C)C(=O)CC
REMARK SMILES IDX 4 1 5 2 6 3 7 4 8 5 9 6 3 7 2 8 1 9
REMARK H PARENT
REMARK Flexibility Score: inf
ROOT
ATOM      1  C   UNL     1      -3.356  29.139  28.447  1.00  0.00     0.057 C 
ATOM      2  C   UNL     1      -2.381  28.253  27.664  1.00  0.00     0.016 C 
ENDROOT
BRANCH   1   3
ATOM      3  C   UNL     1      -4.008  28.334  29.553  1.00  0.00     0.135 C 
ATOM      4  O   UNL     1      -4.238  27.145  29.382  1.00  0.00    -0.299 OA
BRANCH   3   5
ATOM      5  C   UNL     1      -4.360  28.967  30.874  1.00  0.00     0.072 C 
ATOM      6  C   UNL     1      -3.106  29.389  31.630  1.00  0.00     0.012 C 
ENDBRANCH   3   5
ENDBRANCH   1   3
BRANCH   1   7
ATOM      7  C   UNL     1      -4.409  29.751  27.502  1.00  0.00     0.038 C 
BRANCH   7   8
ATOM      8  C   UNL     1      -4.769  31.153  27.916  1.00  0.00    -0.034 C 
ATOM      9  C   UNL     1      -4.063  32.212  27.512  1.00  0.00     0.004 C 
ENDBRANCH   7   8
ENDBRANCH   1   7
TORSDOF 4
ENDMDL
MODEL 9
REMARK VINA RESULT:    -4.298      2.769      4.758
REMARK INTER + INTRA:          -5.555
REMARK INTER:                  -5.413
REMARK INTRA:                  -0.143
REMARK UNBOUND:                -0.252
REMARK SMILES C=CC[C@H](C)C(=O)CC
REMARK SMILES IDX 4 1 5 2 6 3 7 4 8 5 9 6 3 7 2 8 1 9
REMARK H PARENT
REMARK Flexibility Score: inf
ROOT
ATOM      1  C   UNL     1      -4.565  30.096  28.775  1.00  0.00     0.057 C 
ATOM      2  C   UNL     1      -3.875  29.318  27.650  1.00  0.00     0.016 C 
ENDROOT
BRANCH   1   3
ATOM      3  C   UNL     1      -5.125  29.129  29.800  1.00  0.00     0.135 C 
ATOM      4  O   UNL     1      -6.043  29.482  30.526  1.00  0.00    -0.299 OA
BRANCH   3   5
ATOM      5  C   UNL     1      -4.586  27.729  29.926  1.00  0.00     0.072 C 
ATOM      6  C   UNL     1      -3.315  27.706  30.768  1.00  0.00     0.012 C 
ENDBRANCH   3   5
ENDBRANCH   1   3
BRANCH   1   7
ATOM      7  C   UNL     1      -5.668  31.009  28.203  1.00  0.00     0.038 C 
BRANCH   7   8
ATOM      8  C   UNL     1      -5.095  32.296  27.673  1.00  0.00    -0.034 C 
ATOM      9  C   UNL     1      -5.128  32.602  26.373  1.00  0.00     0.004 C 
ENDBRANCH   7   8
ENDBRANCH   1   7
TORSDOF 4
ENDMDL
