MODEL 1
REMARK VINA RESULT:    -3.780      0.000      0.000
REMARK INTER + INTRA:          -4.706
REMARK INTER:                  -5.769
REMARK INTRA:                   1.062
REMARK UNBOUND:                 1.062
REMARK SMILES CC1=CCC[C@H](C)C(=O)C[C@H](C(C)C)C(=O)C1
REMARK SMILES IDX 8 1 9 2 6 3 7 4 5 5 4 6 3 7 2 8 1 9 10 11 11 12 15 13 16 14
REMARK SMILES IDX 17 15 12 17 13 18 14 19
REMARK H PARENT
REMARK Flexibility Score: 70.00
ROOT
ATOM      1  C   UNL     1      -2.991 -12.367  -7.457  1.00  0.00     0.136 C 
ATOM      2  O   UNL     1      -2.259 -12.136  -6.505  1.00  0.00    -0.299 OA
ENDROOT
BRANCH   1   3
ATOM      3  C   UNL     1      -3.659 -11.200  -8.164  1.00  0.00     0.053 C 
ATOM      4  C   UNL     1      -2.607 -10.364  -8.906  1.00  0.00     0.016 C 
BRANCH   3   5
ATOM      5  C   UNL     1      -4.784 -11.656  -9.124  1.00  0.00     0.015 C 
BRANCH   5   6
ATOM      6  C   UNL     1      -5.907 -12.486  -8.464  1.00  0.00     0.028 C 
BRANCH   6   7
ATOM      7  C   UNL     1      -6.292 -12.058  -7.066  1.00  0.00    -0.028 C 
ATOM      8  C   UNL     1      -6.204 -12.817  -5.949  1.00  0.00    -0.070 CG0
ATOM      9  C   UNL     1      -6.689 -12.220  -4.652  1.00  0.00     0.039 C 
ATOM     10  G   UNL     1      -5.666 -14.237  -5.946  1.00  0.00     0.000 G0
ENDBRANCH   6   7
ENDBRANCH   5   6
ENDBRANCH   3   5
ENDBRANCH   1   3
BRANCH   1  11
ATOM     11  C   UNL     1      -3.147 -13.799  -7.921  1.00  0.00     0.087 C 
BRANCH  11  12
ATOM     12  C   UNL     1      -3.180 -14.800  -6.736  1.00  0.00     0.066 C 
BRANCH  12  13
ATOM     13  C   UNL     1      -4.188 -14.351  -5.686  1.00  0.00     0.140 C 
ATOM     14  O   UNL     1      -3.795 -14.010  -4.581  1.00  0.00    -0.299 OA
BRANCH  13  15
ATOM     15  C   UNL     1      -5.664 -14.245  -5.982  1.00  0.00     0.106 CG0
ATOM     16  G   UNL     1      -6.176 -12.817  -5.952  1.00  0.00     0.000 G0
ENDBRANCH  13  15
ENDBRANCH  12  13
BRANCH  12  17
ATOM     17  C   UNL     1      -3.443 -16.277  -7.173  1.00  0.00    -0.006 C 
ATOM     18  C   UNL     1      -4.525 -16.356  -8.263  1.00  0.00     0.008 C 
ATOM     19  C   UNL     1      -3.807 -17.222  -6.011  1.00  0.00     0.008 C 
ENDBRANCH  12  17
ENDBRANCH  11  12
ENDBRANCH   1  11
TORSDOF 1
ENDMDL
MODEL 2
REMARK VINA RESULT:    -3.727      1.998      4.519
REMARK INTER + INTRA:          -4.626
REMARK INTER:                  -4.983
REMARK INTRA:                   0.356
REMARK UNBOUND:                 1.062
REMARK SMILES CC1=CCC[C@H](C)C(=O)C[C@H](C(C)C)C(=O)C1
REMARK SMILES IDX 8 1 9 2 6 3 7 4 5 5 4 6 3 7 2 8 1 9 10 11 11 12 15 13 16 14
REMARK SMILES IDX 17 15 12 17 13 18 14 19
REMARK H PARENT
REMARK Flexibility Score: 70.00
ROOT
ATOM      1  C   UNL     1      -4.436 -15.301  -5.924  1.00  0.00     0.136 C 
ATOM      2  O   UNL     1      -4.497 -15.987  -4.915  1.00  0.00    -0.299 OA
ENDROOT
BRANCH   1   3
ATOM      3  C   UNL     1      -3.087 -15.104  -6.593  1.00  0.00     0.053 C 
ATOM      4  C   UNL     1      -2.004 -15.878  -5.829  1.00  0.00     0.016 C 
BRANCH   3   5
ATOM      5  C   UNL     1      -3.105 -15.504  -8.089  1.00  0.00     0.015 C 
BRANCH   5   6
ATOM      6  C   UNL     1      -2.541 -14.439  -9.054  1.00  0.00     0.028 C 
BRANCH   6   7
ATOM      7  C   UNL     1      -2.352 -13.062  -8.461  1.00  0.00    -0.028 C 
ATOM      8  C   UNL     1      -3.250 -12.051  -8.496  1.00  0.00    -0.070 CG0
ATOM      9  C   UNL     1      -2.848 -10.730  -7.887  1.00  0.00     0.039 C 
ATOM     10  G   UNL     1      -4.622 -12.175  -9.133  1.00  0.00     0.000 G0
ENDBRANCH   6   7
ENDBRANCH   5   6
ENDBRANCH   3   5
ENDBRANCH   1   3
BRANCH   1  11
ATOM     11  C   UNL     1      -5.719 -14.731  -6.491  1.00  0.00     0.087 C 
BRANCH  11  12
ATOM     12  C   UNL     1      -5.568 -13.242  -6.902  1.00  0.00     0.066 C 
BRANCH  12  13
ATOM     13  C   UNL     1      -5.543 -13.107  -8.419  1.00  0.00     0.140 C 
ATOM     14  O   UNL     1      -6.329 -13.753  -9.094  1.00  0.00    -0.299 OA
BRANCH  13  15
ATOM     15  C   UNL     1      -4.621 -12.144  -9.125  1.00  0.00     0.106 CG0
ATOM     16  G   UNL     1      -3.245 -12.061  -8.488  1.00  0.00     0.000 G0
ENDBRANCH  13  15
ENDBRANCH  12  13
BRANCH  12  17
ATOM     17  C   UNL     1      -6.649 -12.308  -6.272  1.00  0.00    -0.006 C 
ATOM     18  C   UNL     1      -6.306 -10.825  -6.490  1.00  0.00     0.008 C 
ATOM     19  C   UNL     1      -6.911 -12.565  -4.775  1.00  0.00     0.008 C 
ENDBRANCH  12  17
ENDBRANCH  11  12
ENDBRANCH   1  11
TORSDOF 1
ENDMDL
MODEL 3
REMARK VINA RESULT:    -3.263      1.640      4.363
REMARK INTER + INTRA:          -3.917
REMARK INTER:                  -4.727
REMARK INTRA:                   0.810
REMARK UNBOUND:                 1.062
REMARK SMILES CC1=CCC[C@H](C)C(=O)C[C@H](C(C)C)C(=O)C1
REMARK SMILES IDX 8 1 9 2 6 3 7 4 5 5 4 6 3 7 2 8 1 9 10 11 11 12 15 13 16 14
REMARK SMILES IDX 17 15 12 17 13 18 14 19
REMARK H PARENT
REMARK Flexibility Score: 70.00
ROOT
ATOM      1  C   UNL     1      -2.147 -14.513  -6.692  1.00  0.00     0.136 C 
ATOM      2  O   UNL     1      -1.724 -14.793  -7.804  1.00  0.00    -0.299 OA
ENDROOT
BRANCH   1   3
ATOM      3  C   UNL     1      -2.080 -15.566  -5.599  1.00  0.00     0.053 C 
ATOM      4  C   UNL     1      -2.914 -15.121  -4.390  1.00  0.00     0.016 C 
BRANCH   3   5
ATOM      5  C   UNL     1      -2.524 -16.963  -6.096  1.00  0.00     0.015 C 
BRANCH   5   6
ATOM      6  C   UNL     1      -4.042 -17.116  -6.338  1.00  0.00     0.028 C 
BRANCH   6   7
ATOM      7  C   UNL     1      -4.556 -16.518  -7.628  1.00  0.00    -0.028 C 
ATOM      8  C   UNL     1      -5.253 -15.364  -7.748  1.00  0.00    -0.070 CG0
ATOM      9  C   UNL     1      -5.722 -14.965  -9.125  1.00  0.00     0.039 C 
ATOM     10  G   UNL     1      -5.601 -14.473  -6.569  1.00  0.00     0.000 G0
ENDBRANCH   6   7
ENDBRANCH   5   6
ENDBRANCH   3   5
ENDBRANCH   1   3
BRANCH   1  11
ATOM     11  C   UNL     1      -2.659 -13.110  -6.444  1.00  0.00     0.087 C 
BRANCH  11  12
ATOM     12  C   UNL     1      -3.782 -12.711  -7.437  1.00  0.00     0.066 C 
BRANCH  12  13
ATOM     13  C   UNL     1      -5.151 -13.022  -6.848  1.00  0.00     0.140 C 
ATOM     14  O   UNL     1      -5.925 -12.108  -6.605  1.00  0.00    -0.299 OA
BRANCH  13  15
ATOM     15  C   UNL     1      -5.623 -14.436  -6.612  1.00  0.00     0.106 CG0
ATOM     16  G   UNL     1      -5.243 -15.385  -7.733  1.00  0.00     0.000 G0
ENDBRANCH  13  15
ENDBRANCH  12  13
BRANCH  12  17
ATOM     17  C   UNL     1      -3.698 -11.225  -7.911  1.00  0.00    -0.006 C 
ATOM     18  C   UNL     1      -4.696 -10.940  -9.045  1.00  0.00     0.008 C 
ATOM     19  C   UNL     1      -2.286 -10.778  -8.336  1.00  0.00     0.008 C 
ENDBRANCH  12  17
ENDBRANCH  11  12
ENDBRANCH   1  11
TORSDOF 1
ENDMDL
MODEL 4
REMARK VINA RESULT:    -3.172      1.962      3.590
REMARK INTER + INTRA:          -3.779
REMARK INTER:                  -4.488
REMARK INTRA:                   0.709
REMARK UNBOUND:                 1.062
REMARK SMILES CC1=CCC[C@H](C)C(=O)C[C@H](C(C)C)C(=O)C1
REMARK SMILES IDX 8 1 9 2 6 3 7 4 5 5 4 6 3 7 2 8 1 9 10 11 11 12 15 13 16 14
REMARK SMILES IDX 17 15 12 17 13 18 14 19
REMARK H PARENT
REMARK Flexibility Score: 70.00
ROOT
ATOM      1  C   UNL     1      -5.990 -13.916  -7.317  1.00  0.00     0.136 C 
ATOM      2  O   UNL     1      -6.342 -14.561  -8.293  1.00  0.00    -0.299 OA
ENDROOT
BRANCH   1   3
ATOM      3  C   UNL     1      -6.719 -12.623  -6.995  1.00  0.00     0.053 C 
ATOM      4  C   UNL     1      -6.401 -12.185  -5.559  1.00  0.00     0.016 C 
BRANCH   3   5
ATOM      5  C   UNL     1      -6.396 -11.495  -8.004  1.00  0.00     0.015 C 
BRANCH   5   6
ATOM      6  C   UNL     1      -5.353 -11.864  -9.082  1.00  0.00     0.028 C 
BRANCH   6   7
ATOM      7  C   UNL     1      -4.086 -11.040  -9.068  1.00  0.00    -0.028 C 
ATOM      8  C   UNL     1      -3.016 -11.239  -8.264  1.00  0.00    -0.070 CG0
ATOM      9  C   UNL     1      -1.865 -10.270  -8.371  1.00  0.00     0.039 C 
ATOM     10  G   UNL     1      -2.931 -12.368  -7.253  1.00  0.00     0.000 G0
ENDBRANCH   6   7
ENDBRANCH   5   6
ENDBRANCH   3   5
ENDBRANCH   1   3
BRANCH   1  11
ATOM     11  C   UNL     1      -4.884 -14.469  -6.443  1.00  0.00     0.087 C 
BRANCH  11  12
ATOM     12  C   UNL     1      -3.665 -14.950  -7.273  1.00  0.00     0.066 C 
BRANCH  12  13
ATOM     13  C   UNL     1      -2.926 -13.763  -7.875  1.00  0.00     0.140 C 
ATOM     14  O   UNL     1      -2.338 -13.895  -8.938  1.00  0.00    -0.299 OA
BRANCH  13  15
ATOM     15  C   UNL     1      -2.947 -12.396  -7.238  1.00  0.00     0.106 CG0
ATOM     16  G   UNL     1      -3.020 -11.267  -8.251  1.00  0.00     0.000 G0
ENDBRANCH  13  15
ENDBRANCH  12  13
BRANCH  12  17
ATOM     17  C   UNL     1      -2.690 -15.873  -6.474  1.00  0.00    -0.006 C 
ATOM     18  C   UNL     1      -3.353 -17.213  -6.113  1.00  0.00     0.008 C 
ATOM     19  C   UNL     1      -2.107 -15.224  -5.203  1.00  0.00     0.008 C 
ENDBRANCH  12  17
ENDBRANCH  11  12
ENDBRANCH   1  11
TORSDOF 1
ENDMDL
MODEL 5
REMARK VINA RESULT:    -3.034      1.877      3.947
REMARK INTER + INTRA:          -3.569
REMARK INTER:                  -4.683
REMARK INTRA:                   1.114
REMARK UNBOUND:                 1.062
REMARK SMILES CC1=CCC[C@H](C)C(=O)C[C@H](C(C)C)C(=O)C1
REMARK SMILES IDX 8 1 9 2 6 3 7 4 5 5 4 6 3 7 2 8 1 9 10 11 11 12 15 13 16 14
REMARK SMILES IDX 17 15 12 17 13 18 14 19
REMARK H PARENT
REMARK Flexibility Score: 70.00
ROOT
ATOM      1  C   UNL     1      -3.695 -12.841  -8.822  1.00  0.00     0.136 C 
ATOM      2  O   UNL     1      -3.242 -11.745  -9.116  1.00  0.00    -0.299 OA
ENDROOT
BRANCH   1   3
ATOM      3  C   UNL     1      -2.790 -13.843  -8.125  1.00  0.00     0.053 C 
ATOM      4  C   UNL     1      -1.698 -14.323  -9.090  1.00  0.00     0.016 C 
BRANCH   3   5
ATOM      5  C   UNL     1      -2.172 -13.275  -6.824  1.00  0.00     0.015 C 
BRANCH   5   6
ATOM      6  C   UNL     1      -2.653 -13.956  -5.524  1.00  0.00     0.028 C 
BRANCH   6   7
ATOM      7  C   UNL     1      -2.851 -15.452  -5.611  1.00  0.00    -0.028 C 
ATOM      8  C   UNL     1      -4.028 -16.089  -5.806  1.00  0.00    -0.070 CG0
ATOM      9  C   UNL     1      -4.021 -17.597  -5.811  1.00  0.00     0.039 C 
ATOM     10  G   UNL     1      -5.348 -15.363  -5.996  1.00  0.00     0.000 G0
ENDBRANCH   6   7
ENDBRANCH   5   6
ENDBRANCH   3   5
ENDBRANCH   1   3
BRANCH   1  11
ATOM     11  C   UNL     1      -5.154 -13.124  -9.112  1.00  0.00     0.087 C 
BRANCH  11  12
ATOM     12  C   UNL     1      -5.937 -13.532  -7.836  1.00  0.00     0.066 C 
BRANCH  12  13
ATOM     13  C   UNL     1      -5.606 -14.965  -7.442  1.00  0.00     0.140 C 
ATOM     14  O   UNL     1      -5.477 -15.814  -8.309  1.00  0.00    -0.299 OA
BRANCH  13  15
ATOM     15  C   UNL     1      -5.361 -15.368  -6.008  1.00  0.00     0.106 CG0
ATOM     16  G   UNL     1      -4.033 -16.075  -5.807  1.00  0.00     0.000 G0
ENDBRANCH  13  15
ENDBRANCH  12  13
BRANCH  12  17
ATOM     17  C   UNL     1      -5.727 -12.555  -6.635  1.00  0.00    -0.006 C 
ATOM     18  C   UNL     1      -6.737 -12.826  -5.508  1.00  0.00     0.008 C 
ATOM     19  C   UNL     1      -5.769 -11.064  -7.021  1.00  0.00     0.008 C 
ENDBRANCH  12  17
ENDBRANCH  11  12
ENDBRANCH   1  11
TORSDOF 1
ENDMDL
MODEL 6
REMARK VINA RESULT:    -2.717      2.091      3.573
REMARK INTER + INTRA:          -3.084
REMARK INTER:                  -4.593
REMARK INTRA:                   1.509
REMARK UNBOUND:                 1.062
REMARK SMILES CC1=CCC[C@H](C)C(=O)C[C@H](C(C)C)C(=O)C1
REMARK SMILES IDX 8 1 9 2 6 3 7 4 5 5 4 6 3 7 2 8 1 9 10 11 11 12 15 13 16 14
REMARK SMILES IDX 17 15 12 17 13 18 14 19
REMARK H PARENT
REMARK Flexibility Score: 70.00
ROOT
ATOM      1  C   UNL     1      -5.871 -13.037  -6.121  1.00  0.00     0.136 C 
ATOM      2  O   UNL     1      -6.507 -13.234  -5.097  1.00  0.00    -0.299 OA
ENDROOT
BRANCH   1   3
ATOM      3  C   UNL     1      -6.395 -12.022  -7.122  1.00  0.00     0.053 C 
ATOM      4  C   UNL     1      -6.018 -10.603  -6.677  1.00  0.00     0.016 C 
BRANCH   3   5
ATOM      5  C   UNL     1      -5.900 -12.301  -8.562  1.00  0.00     0.015 C 
BRANCH   5   6
ATOM      6  C   UNL     1      -4.626 -11.532  -8.973  1.00  0.00     0.028 C 
BRANCH   6   7
ATOM      7  C   UNL     1      -3.362 -12.357  -9.034  1.00  0.00    -0.028 C 
ATOM      8  C   UNL     1      -3.294 -13.708  -9.078  1.00  0.00    -0.070 CG0
ATOM      9  C   UNL     1      -1.927 -14.346  -9.085  1.00  0.00     0.039 C 
ATOM     10  G   UNL     1      -4.519 -14.604  -9.098  1.00  0.00     0.000 G0
ENDBRANCH   6   7
ENDBRANCH   5   6
ENDBRANCH   3   5
ENDBRANCH   1   3
BRANCH   1  11
ATOM     11  C   UNL     1      -4.561 -13.771  -6.314  1.00  0.00     0.087 C 
BRANCH  11  12
ATOM     12  C   UNL     1      -4.768 -15.291  -6.542  1.00  0.00     0.066 C 
BRANCH  12  13
ATOM     13  C   UNL     1      -4.526 -15.650  -8.002  1.00  0.00     0.140 C 
ATOM     14  O   UNL     1      -4.377 -16.820  -8.319  1.00  0.00    -0.299 OA
BRANCH  13  15
ATOM     15  C   UNL     1      -4.530 -14.611  -9.097  1.00  0.00     0.106 CG0
ATOM     16  G   UNL     1      -3.301 -13.720  -9.077  1.00  0.00     0.000 G0
ENDBRANCH  13  15
ENDBRANCH  12  13
BRANCH  12  17
ATOM     17  C   UNL     1      -3.909 -16.188  -5.594  1.00  0.00    -0.006 C 
ATOM     18  C   UNL     1      -4.225 -15.906  -4.116  1.00  0.00     0.008 C 
ATOM     19  C   UNL     1      -2.390 -16.081  -5.830  1.00  0.00     0.008 C 
ENDBRANCH  12  17
ENDBRANCH  11  12
ENDBRANCH   1  11
TORSDOF 1
ENDMDL
MODEL 7
REMARK VINA RESULT:    -2.346      2.137      3.651
REMARK INTER + INTRA:          -2.518
REMARK INTER:                  -3.426
REMARK INTRA:                   0.908
REMARK UNBOUND:                 1.062
REMARK SMILES CC1=CCC[C@H](C)C(=O)C[C@H](C(C)C)C(=O)C1
REMARK SMILES IDX 8 1 9 2 6 3 7 4 5 5 4 6 3 7 2 8 1 9 10 11 11 12 15 13 16 14
REMARK SMILES IDX 17 15 12 17 13 18 14 19
REMARK H PARENT
REMARK Flexibility Score: 70.00
ROOT
ATOM      1  C   UNL     1      -5.543 -13.863  -7.787  1.00  0.00     0.136 C 
ATOM      2  O   UNL     1      -5.845 -14.784  -8.532  1.00  0.00    -0.299 OA
ENDROOT
BRANCH   1   3
ATOM      3  C   UNL     1      -5.674 -12.438  -8.297  1.00  0.00     0.053 C 
ATOM      4  C   UNL     1      -7.155 -12.048  -8.393  1.00  0.00     0.016 C 
BRANCH   3   5
ATOM      5  C   UNL     1      -4.888 -11.425  -7.430  1.00  0.00     0.015 C 
BRANCH   5   6
ATOM      6  C   UNL     1      -3.441 -11.153  -7.897  1.00  0.00     0.028 C 
BRANCH   6   7
ATOM      7  C   UNL     1      -2.792 -12.270  -8.682  1.00  0.00    -0.028 C 
ATOM      8  C   UNL     1      -2.266 -13.404  -8.165  1.00  0.00    -0.070 CG0
ATOM      9  C   UNL     1      -1.615 -14.377  -9.117  1.00  0.00     0.039 C 
ATOM     10  G   UNL     1      -2.279 -13.729  -6.682  1.00  0.00     0.000 G0
ENDBRANCH   6   7
ENDBRANCH   5   6
ENDBRANCH   3   5
ENDBRANCH   1   3
BRANCH   1  11
ATOM     11  C   UNL     1      -5.113 -14.186  -6.372  1.00  0.00     0.087 C 
BRANCH  11  12
ATOM     12  C   UNL     1      -4.249 -15.473  -6.300  1.00  0.00     0.066 C 
BRANCH  12  13
ATOM     13  C   UNL     1      -2.768 -15.126  -6.355  1.00  0.00     0.140 C 
ATOM     14  O   UNL     1      -1.936 -16.008  -6.203  1.00  0.00    -0.299 OA
BRANCH  13  15
ATOM     15  C   UNL     1      -2.280 -13.732  -6.660  1.00  0.00     0.106 CG0
ATOM     16  G   UNL     1      -2.258 -13.420  -8.146  1.00  0.00     0.000 G0
ENDBRANCH  13  15
ENDBRANCH  12  13
BRANCH  12  17
ATOM     17  C   UNL     1      -4.571 -16.374  -5.065  1.00  0.00    -0.006 C 
ATOM     18  C   UNL     1      -3.914 -15.828  -3.786  1.00  0.00     0.008 C 
ATOM     19  C   UNL     1      -4.193 -17.856  -5.250  1.00  0.00     0.008 C 
ENDBRANCH  12  17
ENDBRANCH  11  12
ENDBRANCH   1  11
TORSDOF 1
ENDMDL
MODEL 8
REMARK VINA RESULT:    -2.313      1.874      3.278
REMARK INTER + INTRA:          -2.468
REMARK INTER:                  -3.072
REMARK INTRA:                   0.604
REMARK UNBOUND:                 1.062
REMARK SMILES CC1=CCC[C@H](C)C(=O)C[C@H](C(C)C)C(=O)C1
REMARK SMILES IDX 8 1 9 2 6 3 7 4 5 5 4 6 3 7 2 8 1 9 10 11 11 12 15 13 16 14
REMARK SMILES IDX 17 15 12 17 13 18 14 19
REMARK H PARENT
REMARK Flexibility Score: 70.00
ROOT
ATOM      1  C   UNL     1      -4.167 -13.080  -5.953  1.00  0.00     0.136 C 
ATOM      2  O   UNL     1      -3.365 -12.159  -5.997  1.00  0.00    -0.299 OA
ENDROOT
BRANCH   1   3
ATOM      3  C   UNL     1      -5.577 -12.845  -6.468  1.00  0.00     0.053 C 
ATOM      4  C   UNL     1      -6.478 -12.355  -5.328  1.00  0.00     0.016 C 
BRANCH   3   5
ATOM      5  C   UNL     1      -5.613 -11.864  -7.665  1.00  0.00     0.015 C 
BRANCH   5   6
ATOM      6  C   UNL     1      -5.703 -12.534  -9.054  1.00  0.00     0.028 C 
BRANCH   6   7
ATOM      7  C   UNL     1      -5.923 -14.029  -9.039  1.00  0.00    -0.028 C 
ATOM      8  C   UNL     1      -4.958 -14.976  -9.100  1.00  0.00    -0.070 CG0
ATOM      9  C   UNL     1      -5.390 -16.421  -9.123  1.00  0.00     0.039 C 
ATOM     10  G   UNL     1      -3.476 -14.654  -9.168  1.00  0.00     0.000 G0
ENDBRANCH   6   7
ENDBRANCH   5   6
ENDBRANCH   3   5
ENDBRANCH   1   3
BRANCH   1  11
ATOM     11  C   UNL     1      -3.699 -14.426  -5.443  1.00  0.00     0.087 C 
BRANCH  11  12
ATOM     12  C   UNL     1      -3.502 -15.452  -6.591  1.00  0.00     0.066 C 
BRANCH  12  13
ATOM     13  C   UNL     1      -2.806 -14.798  -7.777  1.00  0.00     0.140 C 
ATOM     14  O   UNL     1      -1.651 -14.417  -7.663  1.00  0.00    -0.299 OA
BRANCH  13  15
ATOM     15  C   UNL     1      -3.472 -14.662  -9.124  1.00  0.00     0.106 CG0
ATOM     16  G   UNL     1      -4.957 -14.974  -9.089  1.00  0.00     0.000 G0
ENDBRANCH  13  15
ENDBRANCH  12  13
BRANCH  12  17
ATOM     17  C   UNL     1      -2.756 -16.751  -6.146  1.00  0.00    -0.006 C 
ATOM     18  C   UNL     1      -3.745 -17.865  -5.766  1.00  0.00     0.008 C 
ATOM     19  C   UNL     1      -1.748 -16.538  -5.000  1.00  0.00     0.008 C 
ENDBRANCH  12  17
ENDBRANCH  11  12
ENDBRANCH   1  11
TORSDOF 1
ENDMDL
MODEL 9
REMARK VINA RESULT:    -2.269      2.083      3.075
REMARK INTER + INTRA:          -2.400
REMARK INTER:                  -3.767
REMARK INTRA:                   1.366
REMARK UNBOUND:                 1.062
REMARK SMILES CC1=CCC[C@H](C)C(=O)C[C@H](C(C)C)C(=O)C1
REMARK SMILES IDX 8 1 9 2 6 3 7 4 5 5 4 6 3 7 2 8 1 9 10 11 11 12 15 13 16 14
REMARK SMILES IDX 17 15 12 17 13 18 14 19
REMARK H PARENT
REMARK Flexibility Score: 70.00
ROOT
ATOM      1  C   UNL     1      -3.212 -14.059  -5.011  1.00  0.00     0.136 C 
ATOM      2  O   UNL     1      -4.051 -13.393  -4.423  1.00  0.00    -0.299 OA
ENDROOT
BRANCH   1   3
ATOM      3  C   UNL     1      -2.299 -13.367  -6.009  1.00  0.00     0.053 C 
ATOM      4  C   UNL     1      -1.581 -14.410  -6.875  1.00  0.00     0.016 C 
BRANCH   3   5
ATOM      5  C   UNL     1      -3.055 -12.341  -6.889  1.00  0.00     0.015 C 
BRANCH   5   6
ATOM      6  C   UNL     1      -3.210 -12.744  -8.371  1.00  0.00     0.028 C 
BRANCH   6   7
ATOM      7  C   UNL     1      -4.610 -13.125  -8.796  1.00  0.00    -0.028 C 
ATOM      8  C   UNL     1      -5.217 -14.312  -8.565  1.00  0.00    -0.070 CG0
ATOM      9  C   UNL     1      -6.606 -14.513  -9.118  1.00  0.00     0.039 C 
ATOM     10  G   UNL     1      -4.562 -15.448  -7.800  1.00  0.00     0.000 G0
ENDBRANCH   6   7
ENDBRANCH   5   6
ENDBRANCH   3   5
ENDBRANCH   1   3
BRANCH   1  11
ATOM     11  C   UNL     1      -3.084 -15.529  -4.672  1.00  0.00     0.087 C 
BRANCH  11  12
ATOM     12  C   UNL     1      -4.189 -16.385  -5.344  1.00  0.00     0.066 C 
BRANCH  12  13
ATOM     13  C   UNL     1      -4.972 -15.552  -6.350  1.00  0.00     0.140 C 
ATOM     14  O   UNL     1      -5.919 -14.881  -5.970  1.00  0.00    -0.299 OA
BRANCH  13  15
ATOM     15  C   UNL     1      -4.578 -15.470  -7.804  1.00  0.00     0.106 CG0
ATOM     16  G   UNL     1      -5.231 -14.310  -8.533  1.00  0.00     0.000 G0
ENDBRANCH  13  15
ENDBRANCH  12  13
BRANCH  12  17
ATOM     17  C   UNL     1      -3.652 -17.698  -5.997  1.00  0.00    -0.006 C 
ATOM     18  C   UNL     1      -4.535 -18.905  -5.642  1.00  0.00     0.008 C 
ATOM     19  C   UNL     1      -2.181 -18.014  -5.660  1.00  0.00     0.008 C 
ENDBRANCH  12  17
ENDBRANCH  11  12
ENDBRANCH   1  11
TORSDOF 1
ENDMDL
