MODEL 1
REMARK VINA RESULT:    -3.295      0.000      0.000
REMARK INTER + INTRA:          -4.256
REMARK INTER:                  -4.065
REMARK INTRA:                  -0.191
REMARK UNBOUND:                -0.191
REMARK SMILES CCCCCC(=O)[O-]
REMARK SMILES IDX 4 1 5 2 6 3 7 4 8 5 3 6 2 7 1 8
REMARK H PARENT
REMARK Flexibility Score: inf
ROOT
ATOM      1  C   UNL     1       3.225   6.457  17.817  1.00  0.00     0.006 C 
ENDROOT
BRANCH   1   2
ATOM      2  C   UNL     1       1.979   6.834  18.623  1.00  0.00     0.053 C 
BRANCH   2   3
ATOM      3  C   UNL     1       2.241   8.050  19.455  1.00  0.00     0.041 C 
ATOM      4  O   UNL     1       2.343   9.180  18.909  1.00  0.00    -0.550 OA
ATOM      5  O   UNL     1       2.422   7.928  20.827  1.00  0.00    -0.550 OA
ENDBRANCH   2   3
ENDBRANCH   1   2
BRANCH   1   6
ATOM      6  C   UNL     1       2.942   6.502  16.311  1.00  0.00     0.000 C 
BRANCH   6   7
ATOM      7  C   UNL     1       4.105   7.149  15.551  1.00  0.00    -0.003 C 
ATOM      8  C   UNL     1       4.481   8.497  16.160  1.00  0.00     0.004 C 
ENDBRANCH   6   7
ENDBRANCH   1   6
TORSDOF 4
ENDMDL
MODEL 2
REMARK VINA RESULT:    -2.946     17.653     18.755
REMARK INTER + INTRA:          -3.826
REMARK INTER:                  -3.721
REMARK INTRA:                  -0.105
REMARK UNBOUND:                -0.191
REMARK SMILES CCCCCC(=O)[O-]
REMARK SMILES IDX 4 1 5 2 6 3 7 4 8 5 3 6 2 7 1 8
REMARK H PARENT
REMARK Flexibility Score: inf
ROOT
ATOM      1  C   UNL     1       5.320  -6.270   6.009  1.00  0.00     0.006 C 
ENDROOT
BRANCH   1   2
ATOM      2  C   UNL     1       4.653  -5.702   4.753  1.00  0.00     0.053 C 
BRANCH   2   3
ATOM      3  C   UNL     1       3.987  -4.397   5.056  1.00  0.00     0.041 C 
ATOM      4  O   UNL     1       4.105  -3.877   6.198  1.00  0.00    -0.550 OA
ATOM      5  O   UNL     1       3.195  -3.780   4.097  1.00  0.00    -0.550 OA
ENDBRANCH   2   3
ENDBRANCH   1   2
BRANCH   1   6
ATOM      6  C   UNL     1       6.377  -7.319   5.646  1.00  0.00     0.000 C 
BRANCH   6   7
ATOM      7  C   UNL     1       5.956  -8.713   6.124  1.00  0.00    -0.003 C 
ATOM      8  C   UNL     1       4.904  -8.624   7.226  1.00  0.00     0.004 C 
ENDBRANCH   6   7
ENDBRANCH   1   6
TORSDOF 4
ENDMDL
MODEL 3
REMARK VINA RESULT:    -2.917     18.392     19.342
REMARK INTER + INTRA:          -3.790
REMARK INTER:                  -3.641
REMARK INTRA:                  -0.150
REMARK UNBOUND:                -0.191
REMARK SMILES CCCCCC(=O)[O-]
REMARK SMILES IDX 4 1 5 2 6 3 7 4 8 5 3 6 2 7 1 8
REMARK H PARENT
REMARK Flexibility Score: inf
ROOT
ATOM      1  C   UNL     1       5.651  -6.434   6.161  1.00  0.00     0.006 C 
ENDROOT
BRANCH   1   2
ATOM      2  C   UNL     1       5.947  -7.935   6.228  1.00  0.00     0.053 C 
BRANCH   2   3
ATOM      3  C   UNL     1       4.713  -8.696   6.595  1.00  0.00     0.041 C 
ATOM      4  O   UNL     1       4.535  -9.079   7.783  1.00  0.00    -0.550 OA
ATOM      5  O   UNL     1       3.782  -9.028   5.619  1.00  0.00    -0.550 OA
ENDBRANCH   2   3
ENDBRANCH   1   2
BRANCH   1   6
ATOM      6  C   UNL     1       5.417  -5.982   4.715  1.00  0.00     0.000 C 
BRANCH   6   7
ATOM      7  C   UNL     1       3.971  -5.515   4.511  1.00  0.00    -0.003 C 
ATOM      8  C   UNL     1       3.798  -4.058   4.929  1.00  0.00     0.004 C 
ENDBRANCH   6   7
ENDBRANCH   1   6
TORSDOF 4
ENDMDL
MODEL 4
REMARK VINA RESULT:    -2.582     19.003     19.854
REMARK INTER + INTRA:          -3.376
REMARK INTER:                  -3.215
REMARK INTRA:                  -0.161
REMARK UNBOUND:                -0.191
REMARK SMILES CCCCCC(=O)[O-]
REMARK SMILES IDX 4 1 5 2 6 3 7 4 8 5 3 6 2 7 1 8
REMARK H PARENT
REMARK Flexibility Score: inf
ROOT
ATOM      1  C   UNL     1       5.582  -6.492   5.956  1.00  0.00     0.006 C 
ENDROOT
BRANCH   1   2
ATOM      2  C   UNL     1       5.911  -7.942   6.326  1.00  0.00     0.053 C 
BRANCH   2   3
ATOM      3  C   UNL     1       4.659  -8.703   6.627  1.00  0.00     0.041 C 
ATOM      4  O   UNL     1       4.426  -9.099   7.800  1.00  0.00    -0.550 OA
ATOM      5  O   UNL     1       3.773  -9.019   5.605  1.00  0.00    -0.550 OA
ENDBRANCH   2   3
ENDBRANCH   1   2
BRANCH   1   6
ATOM      6  C   UNL     1       5.783  -6.248   4.456  1.00  0.00     0.000 C 
BRANCH   6   7
ATOM      7  C   UNL     1       7.072  -6.911   3.958  1.00  0.00    -0.003 C 
ATOM      8  C   UNL     1       8.274  -5.990   4.146  1.00  0.00     0.004 C 
ENDBRANCH   6   7
ENDBRANCH   1   6
TORSDOF 4
ENDMDL
MODEL 5
REMARK VINA RESULT:    -2.564     18.967     19.909
REMARK INTER + INTRA:          -3.354
REMARK INTER:                  -3.119
REMARK INTRA:                  -0.236
REMARK UNBOUND:                -0.191
REMARK SMILES CCCCCC(=O)[O-]
REMARK SMILES IDX 4 1 5 2 6 3 7 4 8 5 3 6 2 7 1 8
REMARK H PARENT
REMARK Flexibility Score: inf
ROOT
ATOM      1  C   UNL     1       5.567  -6.651   6.316  1.00  0.00     0.006 C 
ENDROOT
BRANCH   1   2
ATOM      2  C   UNL     1       5.490  -8.143   6.651  1.00  0.00     0.053 C 
BRANCH   2   3
ATOM      3  C   UNL     1       4.801  -8.892   5.555  1.00  0.00     0.041 C 
ATOM      4  O   UNL     1       3.567  -8.732   5.359  1.00  0.00    -0.550 OA
ATOM      5  O   UNL     1       5.508  -9.806   4.784  1.00  0.00    -0.550 OA
ENDBRANCH   2   3
ENDBRANCH   1   2
BRANCH   1   6
ATOM      6  C   UNL     1       6.205  -6.427   4.941  1.00  0.00     0.000 C 
BRANCH   6   7
ATOM      7  C   UNL     1       5.352  -5.485   4.084  1.00  0.00    -0.003 C 
ATOM      8  C   UNL     1       4.176  -4.928   4.880  1.00  0.00     0.004 C 
ENDBRANCH   6   7
ENDBRANCH   1   6
TORSDOF 4
ENDMDL
MODEL 6
REMARK VINA RESULT:    -2.519     21.464     22.470
REMARK INTER + INTRA:          -3.299
REMARK INTER:                  -3.202
REMARK INTRA:                  -0.097
REMARK UNBOUND:                -0.191
REMARK SMILES CCCCCC(=O)[O-]
REMARK SMILES IDX 4 1 5 2 6 3 7 4 8 5 3 6 2 7 1 8
REMARK H PARENT
REMARK Flexibility Score: inf
ROOT
ATOM      1  C   UNL     1      14.424  -5.253   4.723  1.00  0.00     0.006 C 
ENDROOT
BRANCH   1   2
ATOM      2  C   UNL     1      15.789  -5.711   4.202  1.00  0.00     0.053 C 
BRANCH   2   3
ATOM      3  C   UNL     1      16.688  -6.082   5.339  1.00  0.00     0.041 C 
ATOM      4  O   UNL     1      17.314  -7.175   5.321  1.00  0.00    -0.550 OA
ATOM      5  O   UNL     1      16.796  -5.244   6.442  1.00  0.00    -0.550 OA
ENDBRANCH   2   3
ENDBRANCH   1   2
BRANCH   1   6
ATOM      6  C   UNL     1      13.506  -4.835   3.570  1.00  0.00     0.000 C 
BRANCH   6   7
ATOM      7  C   UNL     1      12.194  -5.628   3.595  1.00  0.00    -0.003 C 
ATOM      8  C   UNL     1      12.021  -6.366   4.919  1.00  0.00     0.004 C 
ENDBRANCH   6   7
ENDBRANCH   1   6
TORSDOF 4
ENDMDL
MODEL 7
REMARK VINA RESULT:    -2.444     22.229     23.504
REMARK INTER + INTRA:          -3.207
REMARK INTER:                  -3.139
REMARK INTRA:                  -0.068
REMARK UNBOUND:                -0.191
REMARK SMILES CCCCCC(=O)[O-]
REMARK SMILES IDX 4 1 5 2 6 3 7 4 8 5 3 6 2 7 1 8
REMARK H PARENT
REMARK Flexibility Score: inf
ROOT
ATOM      1  C   UNL     1      16.520  -6.169   4.651  1.00  0.00     0.006 C 
ENDROOT
BRANCH   1   2
ATOM      2  C   UNL     1      15.458  -5.918   3.575  1.00  0.00     0.053 C 
BRANCH   2   3
ATOM      3  C   UNL     1      14.306  -5.152   4.144  1.00  0.00     0.041 C 
ATOM      4  O   UNL     1      14.082  -5.175   5.384  1.00  0.00    -0.550 OA
ATOM      5  O   UNL     1      13.450  -4.455   3.302  1.00  0.00    -0.550 OA
ENDBRANCH   2   3
ENDBRANCH   1   2
BRANCH   1   6
ATOM      6  C   UNL     1      17.358  -7.409   4.319  1.00  0.00     0.000 C 
BRANCH   6   7
ATOM      7  C   UNL     1      17.682  -8.210   5.585  1.00  0.00    -0.003 C 
ATOM      8  C   UNL     1      17.335  -9.685   5.408  1.00  0.00     0.004 C 
ENDBRANCH   6   7
ENDBRANCH   1   6
TORSDOF 4
ENDMDL
MODEL 8
REMARK VINA RESULT:    -2.435     19.149     20.157
REMARK INTER + INTRA:          -3.195
REMARK INTER:                  -2.928
REMARK INTRA:                  -0.267
REMARK UNBOUND:                -0.191
REMARK SMILES CCCCCC(=O)[O-]
REMARK SMILES IDX 4 1 5 2 6 3 7 4 8 5 3 6 2 7 1 8
REMARK H PARENT
REMARK Flexibility Score: inf
ROOT
ATOM      1  C   UNL     1       5.957  -8.582   6.251  1.00  0.00     0.006 C 
ENDROOT
BRANCH   1   2
ATOM      2  C   UNL     1       5.643  -7.090   6.398  1.00  0.00     0.053 C 
BRANCH   2   3
ATOM      3  C   UNL     1       6.057  -6.344   5.170  1.00  0.00     0.041 C 
ATOM      4  O   UNL     1       5.208  -5.686   4.512  1.00  0.00    -0.550 OA
ATOM      5  O   UNL     1       7.371  -6.415   4.722  1.00  0.00    -0.550 OA
ENDBRANCH   2   3
ENDBRANCH   1   2
BRANCH   1   6
ATOM      6  C   UNL     1       5.123  -9.212   5.130  1.00  0.00     0.000 C 
BRANCH   6   7
ATOM      7  C   UNL     1       3.625  -9.132   5.446  1.00  0.00    -0.003 C 
ATOM      8  C   UNL     1       2.857  -8.454   4.315  1.00  0.00     0.004 C 
ENDBRANCH   6   7
ENDBRANCH   1   6
TORSDOF 4
ENDMDL
MODEL 9
REMARK VINA RESULT:    -1.928      2.049      3.641
REMARK INTER + INTRA:          -2.570
REMARK INTER:                  -2.469
REMARK INTRA:                  -0.101
REMARK UNBOUND:                -0.191
REMARK SMILES CCCCCC(=O)[O-]
REMARK SMILES IDX 4 1 5 2 6 3 7 4 8 5 3 6 2 7 1 8
REMARK H PARENT
REMARK Flexibility Score: inf
ROOT
ATOM      1  C   UNL     1       3.056   6.213  16.927  1.00  0.00     0.006 C 
ENDROOT
BRANCH   1   2
ATOM      2  C   UNL     1       4.427   6.874  17.103  1.00  0.00     0.053 C 
BRANCH   2   3
ATOM      3  C   UNL     1       4.497   8.150  16.327  1.00  0.00     0.041 C 
ATOM      4  O   UNL     1       4.860   8.139  15.120  1.00  0.00    -0.550 OA
ATOM      5  O   UNL     1       4.211   9.360  16.948  1.00  0.00    -0.550 OA
ENDBRANCH   2   3
ENDBRANCH   1   2
BRANCH   1   6
ATOM      6  C   UNL     1       2.277   6.202  18.247  1.00  0.00     0.000 C 
BRANCH   6   7
ATOM      7  C   UNL     1       1.875   7.622  18.662  1.00  0.00    -0.003 C 
ATOM      8  C   UNL     1       2.275   7.908  20.106  1.00  0.00     0.004 C 
ENDBRANCH   6   7
ENDBRANCH   1   6
TORSDOF 4
ENDMDL
