MODEL 1
REMARK VINA RESULT:    -2.278      0.000      0.000
REMARK INTER + INTRA:          -2.920
REMARK INTER:                  -2.811
REMARK INTRA:                  -0.109
REMARK UNBOUND:                -0.109
REMARK SMILES CCCCCC(=O)[O-]
REMARK SMILES IDX 4 1 5 2 6 3 7 4 8 5 3 6 2 7 1 8
REMARK H PARENT
REMARK Flexibility Score: inf
ROOT
ATOM      1  C   UNL     1       0.621  14.373  -5.047  1.00  0.00     0.006 C 
ENDROOT
BRANCH   1   2
ATOM      2  C   UNL     1      -0.100  13.224  -5.762  1.00  0.00     0.053 C 
BRANCH   2   3
ATOM      3  C   UNL     1       0.060  13.309  -7.250  1.00  0.00     0.041 C 
ATOM      4  O   UNL     1       1.149  13.696  -7.749  1.00  0.00    -0.550 OA
ATOM      5  O   UNL     1      -1.006  12.992  -8.082  1.00  0.00    -0.550 OA
ENDBRANCH   2   3
ENDBRANCH   1   2
BRANCH   1   6
ATOM      6  C   UNL     1       0.153  14.540  -3.594  1.00  0.00     0.000 C 
BRANCH   6   7
ATOM      7  C   UNL     1      -0.822  13.425  -3.199  1.00  0.00    -0.003 C 
ATOM      8  C   UNL     1      -1.697  13.848  -2.024  1.00  0.00     0.004 C 
ENDBRANCH   6   7
ENDBRANCH   1   6
TORSDOF 4
ENDMDL
MODEL 2
REMARK VINA RESULT:    -2.254      0.775      1.393
REMARK INTER + INTRA:          -2.891
REMARK INTER:                  -2.784
REMARK INTRA:                  -0.106
REMARK UNBOUND:                -0.109
REMARK SMILES CCCCCC(=O)[O-]
REMARK SMILES IDX 4 1 5 2 6 3 7 4 8 5 3 6 2 7 1 8
REMARK H PARENT
REMARK Flexibility Score: inf
ROOT
ATOM      1  C   UNL     1       0.418  14.483  -4.234  1.00  0.00     0.006 C 
ENDROOT
BRANCH   1   2
ATOM      2  C   UNL     1      -0.121  13.296  -5.042  1.00  0.00     0.053 C 
BRANCH   2   3
ATOM      3  C   UNL     1       0.158  13.449  -6.507  1.00  0.00     0.041 C 
ATOM      4  O   UNL     1      -0.729  13.166  -7.354  1.00  0.00    -0.550 OA
ATOM      5  O   UNL     1       1.410  13.871  -6.934  1.00  0.00    -0.550 OA
ENDBRANCH   2   3
ENDBRANCH   1   2
BRANCH   1   6
ATOM      6  C   UNL     1      -0.287  14.633  -2.879  1.00  0.00     0.000 C 
BRANCH   6   7
ATOM      7  C   UNL     1      -1.305  13.509  -2.661  1.00  0.00    -0.003 C 
ATOM      8  C   UNL     1      -2.236  13.826  -1.495  1.00  0.00     0.004 C 
ENDBRANCH   6   7
ENDBRANCH   1   6
TORSDOF 4
ENDMDL
MODEL 3
REMARK VINA RESULT:    -2.188      1.549      2.150
REMARK INTER + INTRA:          -2.808
REMARK INTER:                  -2.728
REMARK INTRA:                  -0.080
REMARK UNBOUND:                -0.109
REMARK SMILES CCCCCC(=O)[O-]
REMARK SMILES IDX 4 1 5 2 6 3 7 4 8 5 3 6 2 7 1 8
REMARK H PARENT
REMARK Flexibility Score: inf
ROOT
ATOM      1  C   UNL     1      -0.186  13.237  -6.293  1.00  0.00     0.006 C 
ENDROOT
BRANCH   1   2
ATOM      2  C   UNL     1       0.166  13.134  -7.782  1.00  0.00     0.053 C 
BRANCH   2   3
ATOM      3  C   UNL     1      -0.959  12.546  -8.579  1.00  0.00     0.041 C 
ATOM      4  O   UNL     1      -1.355  11.373  -8.346  1.00  0.00    -0.550 OA
ATOM      5  O   UNL     1      -1.546  13.282  -9.599  1.00  0.00    -0.550 OA
ENDBRANCH   2   3
ENDBRANCH   1   2
BRANCH   1   6
ATOM      6  C   UNL     1       0.730  14.215  -5.544  1.00  0.00     0.000 C 
BRANCH   6   7
ATOM      7  C   UNL     1       0.621  14.020  -4.027  1.00  0.00    -0.003 C 
ATOM      8  C   UNL     1      -0.703  13.362  -3.651  1.00  0.00     0.004 C 
ENDBRANCH   6   7
ENDBRANCH   1   6
TORSDOF 4
ENDMDL
MODEL 4
REMARK VINA RESULT:    -2.137      1.220      1.438
REMARK INTER + INTRA:          -2.745
REMARK INTER:                  -2.651
REMARK INTRA:                  -0.095
REMARK UNBOUND:                -0.109
REMARK SMILES CCCCCC(=O)[O-]
REMARK SMILES IDX 4 1 5 2 6 3 7 4 8 5 3 6 2 7 1 8
REMARK H PARENT
REMARK Flexibility Score: inf
ROOT
ATOM      1  C   UNL     1      -0.526  13.265  -4.255  1.00  0.00     0.006 C 
ENDROOT
BRANCH   1   2
ATOM      2  C   UNL     1       0.334  13.882  -5.365  1.00  0.00     0.053 C 
BRANCH   2   3
ATOM      3  C   UNL     1       0.295  13.060  -6.619  1.00  0.00     0.041 C 
ATOM      4  O   UNL     1       1.252  12.293  -6.903  1.00  0.00    -0.550 OA
ATOM      5  O   UNL     1      -0.784  13.169  -7.486  1.00  0.00    -0.550 OA
ENDBRANCH   2   3
ENDBRANCH   1   2
BRANCH   1   6
ATOM      6  C   UNL     1      -0.049  13.673  -2.854  1.00  0.00     0.000 C 
BRANCH   6   7
ATOM      7  C   UNL     1      -1.130  14.468  -2.114  1.00  0.00    -0.003 C 
ATOM      8  C   UNL     1      -0.822  15.962  -2.128  1.00  0.00     0.004 C 
ENDBRANCH   6   7
ENDBRANCH   1   6
TORSDOF 4
ENDMDL
MODEL 5
REMARK VINA RESULT:    -2.128      3.868      5.450
REMARK INTER + INTRA:          -2.735
REMARK INTER:                  -2.606
REMARK INTRA:                  -0.129
REMARK UNBOUND:                -0.109
REMARK SMILES CCCCCC(=O)[O-]
REMARK SMILES IDX 4 1 5 2 6 3 7 4 8 5 3 6 2 7 1 8
REMARK H PARENT
REMARK Flexibility Score: inf
ROOT
ATOM      1  C   UNL     1      -0.872  10.350  -9.191  1.00  0.00     0.006 C 
ENDROOT
BRANCH   1   2
ATOM      2  C   UNL     1      -0.016  11.293  -8.338  1.00  0.00     0.053 C 
BRANCH   2   3
ATOM      3  C   UNL     1      -0.650  12.644  -8.198  1.00  0.00     0.041 C 
ATOM      4  O   UNL     1      -0.629  13.243  -7.090  1.00  0.00    -0.550 OA
ATOM      5  O   UNL     1      -1.291  13.226  -9.283  1.00  0.00    -0.550 OA
ENDBRANCH   2   3
ENDBRANCH   1   2
BRANCH   1   6
ATOM      6  C   UNL     1      -2.125   9.866  -8.445  1.00  0.00     0.000 C 
BRANCH   6   7
ATOM      7  C   UNL     1      -3.329   9.785  -9.390  1.00  0.00    -0.003 C 
ATOM      8  C   UNL     1      -4.490   9.039  -8.740  1.00  0.00     0.004 C 
ENDBRANCH   6   7
ENDBRANCH   1   6
TORSDOF 4
ENDMDL
MODEL 6
REMARK VINA RESULT:    -2.072      3.566      5.943
REMARK INTER + INTRA:          -2.666
REMARK INTER:                  -2.577
REMARK INTRA:                  -0.089
REMARK UNBOUND:                -0.109
REMARK SMILES CCCCCC(=O)[O-]
REMARK SMILES IDX 4 1 5 2 6 3 7 4 8 5 3 6 2 7 1 8
REMARK H PARENT
REMARK Flexibility Score: inf
ROOT
ATOM      1  C   UNL     1      -0.523  13.595  -9.978  1.00  0.00     0.006 C 
ENDROOT
BRANCH   1   2
ATOM      2  C   UNL     1      -0.927  12.453  -9.038  1.00  0.00     0.053 C 
BRANCH   2   3
ATOM      3  C   UNL     1      -0.202  12.528  -7.728  1.00  0.00     0.041 C 
ATOM      4  O   UNL     1      -0.597  13.318  -6.830  1.00  0.00    -0.550 OA
ATOM      5  O   UNL     1       0.928  11.751  -7.515  1.00  0.00    -0.550 OA
ENDBRANCH   2   3
ENDBRANCH   1   2
BRANCH   1   6
ATOM      6  C   UNL     1      -1.341  13.597 -11.277  1.00  0.00     0.000 C 
BRANCH   6   7
ATOM      7  C   UNL     1      -2.793  13.181 -11.014  1.00  0.00    -0.003 C 
ATOM      8  C   UNL     1      -3.710  13.632 -12.146  1.00  0.00     0.004 C 
ENDBRANCH   6   7
ENDBRANCH   1   6
TORSDOF 4
ENDMDL
MODEL 7
REMARK VINA RESULT:    -2.030      1.788      2.045
REMARK INTER + INTRA:          -2.614
REMARK INTER:                  -2.492
REMARK INTRA:                  -0.123
REMARK UNBOUND:                -0.109
REMARK SMILES CCCCCC(=O)[O-]
REMARK SMILES IDX 4 1 5 2 6 3 7 4 8 5 3 6 2 7 1 8
REMARK H PARENT
REMARK Flexibility Score: inf
ROOT
ATOM      1  C   UNL     1      -0.464  13.276  -4.205  1.00  0.00     0.006 C 
ENDROOT
BRANCH   1   2
ATOM      2  C   UNL     1       0.195  13.979  -5.398  1.00  0.00     0.053 C 
BRANCH   2   3
ATOM      3  C   UNL     1       0.247  13.092  -6.605  1.00  0.00     0.041 C 
ATOM      4  O   UNL     1       1.249  12.358  -6.809  1.00  0.00    -0.550 OA
ATOM      5  O   UNL     1      -0.798  13.104  -7.520  1.00  0.00    -0.550 OA
ENDBRANCH   2   3
ENDBRANCH   1   2
BRANCH   1   6
ATOM      6  C   UNL     1       0.368  13.407  -2.920  1.00  0.00     0.000 C 
BRANCH   6   7
ATOM      7  C   UNL     1       1.653  12.577  -3.010  1.00  0.00    -0.003 C 
ATOM      8  C   UNL     1       1.987  11.931  -1.670  1.00  0.00     0.004 C 
ENDBRANCH   6   7
ENDBRANCH   1   6
TORSDOF 4
ENDMDL
MODEL 8
REMARK VINA RESULT:    -2.019      5.028      6.578
REMARK INTER + INTRA:          -2.600
REMARK INTER:                  -2.477
REMARK INTRA:                  -0.123
REMARK UNBOUND:                -0.109
REMARK SMILES CCCCCC(=O)[O-]
REMARK SMILES IDX 4 1 5 2 6 3 7 4 8 5 3 6 2 7 1 8
REMARK H PARENT
REMARK Flexibility Score: inf
ROOT
ATOM      1  C   UNL     1      -2.484  10.008  -8.698  1.00  0.00     0.006 C 
ENDROOT
BRANCH   1   2
ATOM      2  C   UNL     1      -2.191  10.949  -9.873  1.00  0.00     0.053 C 
BRANCH   2   3
ATOM      3  C   UNL     1      -1.747  12.301  -9.404  1.00  0.00     0.041 C 
ATOM      4  O   UNL     1      -1.198  12.432  -8.278  1.00  0.00    -0.550 OA
ATOM      5  O   UNL     1      -1.969  13.419 -10.197  1.00  0.00    -0.550 OA
ENDBRANCH   2   3
ENDBRANCH   1   2
BRANCH   1   6
ATOM      6  C   UNL     1      -3.837   9.297  -8.844  1.00  0.00     0.000 C 
BRANCH   6   7
ATOM      7  C   UNL     1      -4.442   9.547 -10.230  1.00  0.00    -0.003 C 
ATOM      8  C   UNL     1      -5.927   9.197 -10.254  1.00  0.00     0.004 C 
ENDBRANCH   6   7
ENDBRANCH   1   6
TORSDOF 4
ENDMDL
MODEL 9
REMARK VINA RESULT:    -1.988      4.167      5.873
REMARK INTER + INTRA:          -2.562
REMARK INTER:                  -2.308
REMARK INTRA:                  -0.254
REMARK UNBOUND:                -0.109
REMARK SMILES CCCCCC(=O)[O-]
REMARK SMILES IDX 4 1 5 2 6 3 7 4 8 5 3 6 2 7 1 8
REMARK H PARENT
REMARK Flexibility Score: inf
ROOT
ATOM      1  C   UNL     1      -0.692  13.550 -10.995  1.00  0.00     0.006 C 
ENDROOT
BRANCH   1   2
ATOM      2  C   UNL     1       0.094  13.848  -9.712  1.00  0.00     0.053 C 
BRANCH   2   3
ATOM      3  C   UNL     1      -0.131  12.798  -8.667  1.00  0.00     0.041 C 
ATOM      4  O   UNL     1       0.245  11.613  -8.867  1.00  0.00    -0.550 OA
ATOM      5  O   UNL     1      -0.785  13.123  -7.486  1.00  0.00    -0.550 OA
ENDBRANCH   2   3
ENDBRANCH   1   2
BRANCH   1   6
ATOM      6  C   UNL     1      -2.191  13.357 -10.728  1.00  0.00     0.000 C 
BRANCH   6   7
ATOM      7  C   UNL     1      -2.724  12.117 -11.454  1.00  0.00    -0.003 C 
ATOM      8  C   UNL     1      -2.844  10.930 -10.504  1.00  0.00     0.004 C 
ENDBRANCH   6   7
ENDBRANCH   1   6
TORSDOF 4
ENDMDL
