MODEL 1
REMARK VINA RESULT:    -4.533      0.000      0.000
REMARK INTER + INTRA:          -6.155
REMARK INTER:                  -5.991
REMARK INTRA:                  -0.164
REMARK UNBOUND:                -0.164
REMARK SMILES C=C[C@H](O)CCCCC
REMARK SMILES IDX 6 1 7 2 8 3 9 4 5 5 3 6 2 7 1 8 4 9
REMARK H PARENT 4 10
REMARK Flexibility Score: inf
ROOT
ATOM      1  C   UNL     1       4.784   2.467  18.709  1.00  0.00     0.003 C 
ENDROOT
BRANCH   1   2
ATOM      2  C   UNL     1       3.444   2.405  17.959  1.00  0.00    -0.000 C 
BRANCH   2   3
ATOM      3  C   UNL     1       2.766   1.045  18.160  1.00  0.00    -0.003 C 
ATOM      4  C   UNL     1       2.168   0.529  16.854  1.00  0.00     0.004 C 
ENDBRANCH   2   3
ENDBRANCH   1   2
BRANCH   1   5
ATOM      5  C   UNL     1       5.981   2.731  17.776  1.00  0.00     0.036 C 
BRANCH   5   6
ATOM      6  C   UNL     1       7.360   2.450  18.417  1.00  0.00     0.136 C 
BRANCH   6   7
ATOM      7  C   UNL     1       8.306   1.718  17.490  1.00  0.00    -0.004 C 
ATOM      8  C   UNL     1       7.916   1.193  16.323  1.00  0.00     0.007 C 
ENDBRANCH   6   7
BRANCH   6   9
ATOM      9  O   UNL     1       7.215   1.749  19.627  1.00  0.00    -0.389 OA
ATOM     10  H   UNL     1       6.251   1.556  19.757  1.00  0.00     0.211 HD
ENDBRANCH   6   9
ENDBRANCH   5   6
ENDBRANCH   1   5
TORSDOF 6
ENDMDL
MODEL 2
REMARK VINA RESULT:    -4.157      1.575      4.441
REMARK INTER + INTRA:          -5.658
REMARK INTER:                  -5.469
REMARK INTRA:                  -0.189
REMARK UNBOUND:                -0.164
REMARK SMILES C=C[C@H](O)CCCCC
REMARK SMILES IDX 6 1 7 2 8 3 9 4 5 5 3 6 2 7 1 8 4 9
REMARK H PARENT 4 10
REMARK Flexibility Score: inf
ROOT
ATOM      1  C   UNL     1       6.032   2.265  18.982  1.00  0.00     0.003 C 
ENDROOT
BRANCH   1   2
ATOM      2  C   UNL     1       7.198   2.767  18.115  1.00  0.00    -0.000 C 
BRANCH   2   3
ATOM      3  C   UNL     1       8.144   1.618  17.751  1.00  0.00    -0.003 C 
ATOM      4  C   UNL     1       8.020   1.249  16.275  1.00  0.00     0.004 C 
ENDBRANCH   2   3
ENDBRANCH   1   2
BRANCH   1   5
ATOM      5  C   UNL     1       4.762   3.125  18.834  1.00  0.00     0.036 C 
BRANCH   5   6
ATOM      6  C   UNL     1       3.670   2.496  17.937  1.00  0.00     0.136 C 
BRANCH   6   7
ATOM      7  C   UNL     1       3.117   1.203  18.495  1.00  0.00    -0.004 C 
ATOM      8  C   UNL     1       2.368   0.364  17.771  1.00  0.00     0.007 C 
ENDBRANCH   6   7
BRANCH   6   9
ATOM      9  O   UNL     1       4.149   2.303  16.629  1.00  0.00    -0.389 OA
ATOM     10  H   UNL     1       3.916   3.107  16.094  1.00  0.00     0.211 HD
ENDBRANCH   6   9
ENDBRANCH   5   6
ENDBRANCH   1   5
TORSDOF 6
ENDMDL
MODEL 3
REMARK VINA RESULT:    -4.122      1.726      2.724
REMARK INTER + INTRA:          -5.611
REMARK INTER:                  -5.454
REMARK INTRA:                  -0.157
REMARK UNBOUND:                -0.164
REMARK SMILES C=C[C@H](O)CCCCC
REMARK SMILES IDX 6 1 7 2 8 3 9 4 5 5 3 6 2 7 1 8 4 9
REMARK H PARENT 4 10
REMARK Flexibility Score: inf
ROOT
ATOM      1  C   UNL     1       2.771   1.258  17.806  1.00  0.00     0.003 C 
ENDROOT
BRANCH   1   2
ATOM      2  C   UNL     1       2.158   0.594  16.563  1.00  0.00    -0.000 C 
BRANCH   2   3
ATOM      3  C   UNL     1       1.818  -0.875  16.837  1.00  0.00    -0.003 C 
ATOM      4  C   UNL     1       1.672  -1.136  18.334  1.00  0.00     0.004 C 
ENDBRANCH   2   3
ENDBRANCH   1   2
BRANCH   1   5
ATOM      5  C   UNL     1       3.515   2.567  17.480  1.00  0.00     0.036 C 
BRANCH   5   6
ATOM      6  C   UNL     1       4.495   3.032  18.583  1.00  0.00     0.136 C 
BRANCH   6   7
ATOM      7  C   UNL     1       5.945   2.792  18.226  1.00  0.00    -0.004 C 
ATOM      8  C   UNL     1       6.847   2.357  19.113  1.00  0.00     0.007 C 
ENDBRANCH   6   7
BRANCH   6   9
ATOM      9  O   UNL     1       4.184   2.428  19.814  1.00  0.00    -0.389 OA
ATOM     10  H   UNL     1       4.796   1.656  19.941  1.00  0.00     0.211 HD
ENDBRANCH   6   9
ENDBRANCH   5   6
ENDBRANCH   1   5
TORSDOF 6
ENDMDL
MODEL 4
REMARK VINA RESULT:    -4.028      2.976      5.151
REMARK INTER + INTRA:          -5.487
REMARK INTER:                  -5.189
REMARK INTRA:                  -0.298
REMARK UNBOUND:                -0.164
REMARK SMILES C=C[C@H](O)CCCCC
REMARK SMILES IDX 6 1 7 2 8 3 9 4 5 5 3 6 2 7 1 8 4 9
REMARK H PARENT 4 10
REMARK Flexibility Score: inf
ROOT
ATOM      1  C   UNL     1       3.432   1.682  16.754  1.00  0.00     0.003 C 
ENDROOT
BRANCH   1   2
ATOM      2  C   UNL     1       3.486   2.808  17.799  1.00  0.00    -0.000 C 
BRANCH   2   3
ATOM      3  C   UNL     1       3.939   2.270  19.161  1.00  0.00    -0.003 C 
ATOM      4  C   UNL     1       5.461   2.272  19.275  1.00  0.00     0.004 C 
ENDBRANCH   2   3
ENDBRANCH   1   2
BRANCH   1   5
ATOM      5  C   UNL     1       1.994   1.325  16.331  1.00  0.00     0.036 C 
BRANCH   5   6
ATOM      6  C   UNL     1       1.684  -0.190  16.350  1.00  0.00     0.136 C 
BRANCH   6   7
ATOM      7  C   UNL     1       1.197  -0.678  17.697  1.00  0.00    -0.004 C 
ATOM      8  C   UNL     1       1.870  -1.571  18.431  1.00  0.00     0.007 C 
ENDBRANCH   6   7
BRANCH   6   9
ATOM      9  O   UNL     1       2.802  -0.934  15.931  1.00  0.00    -0.389 OA
ATOM     10  H   UNL     1       3.236  -0.444  15.185  1.00  0.00     0.211 HD
ENDBRANCH   6   9
ENDBRANCH   5   6
ENDBRANCH   1   5
TORSDOF 6
ENDMDL
MODEL 5
REMARK VINA RESULT:    -3.876     18.515     19.121
REMARK INTER + INTRA:          -5.286
REMARK INTER:                  -5.092
REMARK INTRA:                  -0.194
REMARK UNBOUND:                -0.164
REMARK SMILES C=C[C@H](O)CCCCC
REMARK SMILES IDX 6 1 7 2 8 3 9 4 5 5 3 6 2 7 1 8 4 9
REMARK H PARENT 4 10
REMARK Flexibility Score: inf
ROOT
ATOM      1  C   UNL     1      10.115 -10.409  33.507  1.00  0.00     0.003 C 
ENDROOT
BRANCH   1   2
ATOM      2  C   UNL     1      10.174 -11.823  32.909  1.00  0.00    -0.000 C 
BRANCH   2   3
ATOM      3  C   UNL     1       9.613 -11.838  31.482  1.00  0.00    -0.003 C 
ATOM      4  C   UNL     1      10.386 -12.811  30.596  1.00  0.00     0.004 C 
ENDBRANCH   2   3
ENDBRANCH   1   2
BRANCH   1   5
ATOM      5  C   UNL     1       9.544  -9.367  32.526  1.00  0.00     0.036 C 
BRANCH   5   6
ATOM      6  C   UNL     1      10.517  -8.212  32.189  1.00  0.00     0.136 C 
BRANCH   6   7
ATOM      7  C   UNL     1      10.542  -7.131  33.247  1.00  0.00    -0.004 C 
ATOM      8  C   UNL     1      10.762  -5.843  32.961  1.00  0.00     0.007 C 
ENDBRANCH   6   7
BRANCH   6   9
ATOM      9  O   UNL     1      10.222  -7.662  30.929  1.00  0.00    -0.389 OA
ATOM     10  H   UNL     1      10.128  -6.680  31.037  1.00  0.00     0.211 HD
ENDBRANCH   6   9
ENDBRANCH   5   6
ENDBRANCH   1   5
TORSDOF 6
ENDMDL
MODEL 6
REMARK VINA RESULT:    -3.646     18.281     18.811
REMARK INTER + INTRA:          -4.982
REMARK INTER:                  -4.428
REMARK INTRA:                  -0.555
REMARK UNBOUND:                -0.164
REMARK SMILES C=C[C@H](O)CCCCC
REMARK SMILES IDX 6 1 7 2 8 3 9 4 5 5 3 6 2 7 1 8 4 9
REMARK H PARENT 4 10
REMARK Flexibility Score: inf
ROOT
ATOM      1  C   UNL     1       9.525  -9.162  33.973  1.00  0.00     0.003 C 
ENDROOT
BRANCH   1   2
ATOM      2  C   UNL     1       9.808 -10.670  33.884  1.00  0.00    -0.000 C 
BRANCH   2   3
ATOM      3  C   UNL     1       9.009 -11.310  32.743  1.00  0.00    -0.003 C 
ATOM      4  C   UNL     1       9.934 -11.984  31.733  1.00  0.00     0.004 C 
ENDBRANCH   2   3
ENDBRANCH   1   2
BRANCH   1   5
ATOM      5  C   UNL     1      10.647  -8.305  33.355  1.00  0.00     0.036 C 
BRANCH   5   6
ATOM      6  C   UNL     1      10.216  -7.500  32.106  1.00  0.00     0.136 C 
BRANCH   6   7
ATOM      7  C   UNL     1      10.102  -8.353  30.862  1.00  0.00    -0.004 C 
ATOM      8  C   UNL     1       8.939  -8.577  30.241  1.00  0.00     0.007 C 
ENDBRANCH   6   7
BRANCH   6   9
ATOM      9  O   UNL     1      11.087  -6.419  31.884  1.00  0.00    -0.389 OA
ATOM     10  H   UNL     1      11.405  -6.094  32.766  1.00  0.00     0.211 HD
ENDBRANCH   6   9
ENDBRANCH   5   6
ENDBRANCH   1   5
TORSDOF 6
ENDMDL
MODEL 7
REMARK VINA RESULT:    -3.644     12.878     13.810
REMARK INTER + INTRA:          -4.980
REMARK INTER:                  -4.791
REMARK INTRA:                  -0.189
REMARK UNBOUND:                -0.164
REMARK SMILES C=C[C@H](O)CCCCC
REMARK SMILES IDX 6 1 7 2 8 3 9 4 5 5 3 6 2 7 1 8 4 9
REMARK H PARENT 4 10
REMARK Flexibility Score: inf
ROOT
ATOM      1  C   UNL     1      10.546  -7.577  27.483  1.00  0.00     0.003 C 
ENDROOT
BRANCH   1   2
ATOM      2  C   UNL     1      10.613  -9.109  27.583  1.00  0.00    -0.000 C 
BRANCH   2   3
ATOM      3  C   UNL     1      11.349  -9.704  26.378  1.00  0.00    -0.003 C 
ATOM      4  C   UNL     1      12.376 -10.744  26.818  1.00  0.00     0.004 C 
ENDBRANCH   2   3
ENDBRANCH   1   2
BRANCH   1   5
ATOM      5  C   UNL     1       9.369  -7.084  26.619  1.00  0.00     0.036 C 
BRANCH   5   6
ATOM      6  C   UNL     1       9.789  -6.497  25.251  1.00  0.00     0.136 C 
BRANCH   6   7
ATOM      7  C   UNL     1       9.578  -5.001  25.159  1.00  0.00    -0.004 C 
ATOM      8  C   UNL     1      10.589  -4.126  25.149  1.00  0.00     0.007 C 
ENDBRANCH   6   7
BRANCH   6   9
ATOM      9  O   UNL     1       9.124  -7.153  24.200  1.00  0.00    -0.389 OA
ATOM     10  H   UNL     1       8.570  -6.483  23.721  1.00  0.00     0.211 HD
ENDBRANCH   6   9
ENDBRANCH   5   6
ENDBRANCH   1   5
TORSDOF 6
ENDMDL
MODEL 8
REMARK VINA RESULT:    -3.637     16.658     17.160
REMARK INTER + INTRA:          -4.970
REMARK INTER:                  -4.686
REMARK INTRA:                  -0.285
REMARK UNBOUND:                -0.164
REMARK SMILES C=C[C@H](O)CCCCC
REMARK SMILES IDX 6 1 7 2 8 3 9 4 5 5 3 6 2 7 1 8 4 9
REMARK H PARENT 4 10
REMARK Flexibility Score: inf
ROOT
ATOM      1  C   UNL     1       9.573  -8.695  30.809  1.00  0.00     0.003 C 
ENDROOT
BRANCH   1   2
ATOM      2  C   UNL     1       8.864  -9.692  31.740  1.00  0.00    -0.000 C 
BRANCH   2   3
ATOM      3  C   UNL     1       9.869 -10.662  32.371  1.00  0.00    -0.003 C 
ATOM      4  C   UNL     1       9.898 -11.991  31.621  1.00  0.00     0.004 C 
ENDBRANCH   2   3
ENDBRANCH   1   2
BRANCH   1   5
ATOM      5  C   UNL     1       8.847  -8.514  29.462  1.00  0.00     0.036 C 
BRANCH   5   6
ATOM      6  C   UNL     1       9.785  -8.505  28.232  1.00  0.00     0.136 C 
BRANCH   6   7
ATOM      7  C   UNL     1      10.592  -9.777  28.094  1.00  0.00    -0.004 C 
ATOM      8  C   UNL     1      11.486  -9.966  27.116  1.00  0.00     0.007 C 
ENDBRANCH   6   7
BRANCH   6   9
ATOM      9  O   UNL     1      10.633  -7.384  28.258  1.00  0.00    -0.389 OA
ATOM     10  H   UNL     1      11.494  -7.659  28.668  1.00  0.00     0.211 HD
ENDBRANCH   6   9
ENDBRANCH   5   6
ENDBRANCH   1   5
TORSDOF 6
ENDMDL
MODEL 9
REMARK VINA RESULT:    -3.630     16.331     17.043
REMARK INTER + INTRA:          -4.961
REMARK INTER:                  -4.786
REMARK INTRA:                  -0.176
REMARK UNBOUND:                -0.164
REMARK SMILES C=C[C@H](O)CCCCC
REMARK SMILES IDX 6 1 7 2 8 3 9 4 5 5 3 6 2 7 1 8 4 9
REMARK H PARENT 4 10
REMARK Flexibility Score: inf
ROOT
ATOM      1  C   UNL     1       9.867  -8.341  30.868  1.00  0.00     0.003 C 
ENDROOT
BRANCH   1   2
ATOM      2  C   UNL     1       9.960  -9.143  32.176  1.00  0.00    -0.000 C 
BRANCH   2   3
ATOM      3  C   UNL     1      10.505  -8.274  33.314  1.00  0.00    -0.003 C 
ATOM      4  C   UNL     1      10.873  -6.879  32.815  1.00  0.00     0.004 C 
ENDBRANCH   2   3
ENDBRANCH   1   2
BRANCH   1   5
ATOM      5  C   UNL     1       9.819  -9.238  29.617  1.00  0.00     0.036 C 
BRANCH   5   6
ATOM      6  C   UNL     1       9.975  -8.474  28.281  1.00  0.00     0.136 C 
BRANCH   6   7
ATOM      7  C   UNL     1      10.642  -9.298  27.201  1.00  0.00    -0.004 C 
ATOM      8  C   UNL     1      11.452 -10.327  27.472  1.00  0.00     0.007 C 
ENDBRANCH   6   7
BRANCH   6   9
ATOM      9  O   UNL     1      10.665  -7.265  28.475  1.00  0.00    -0.389 OA
ATOM     10  H   UNL     1      10.600  -6.736  27.637  1.00  0.00     0.211 HD
ENDBRANCH   6   9
ENDBRANCH   5   6
ENDBRANCH   1   5
TORSDOF 6
ENDMDL
