MODEL 1
REMARK VINA RESULT:    -6.706      0.000      0.000
REMARK INTER + INTRA:         -11.228
REMARK INTER:                 -10.431
REMARK INTRA:                  -0.797
REMARK UNBOUND:                -0.797
REMARK SMILES COc1cc(CNC(=O)CCCCC=CC(C)C)ccc1O
REMARK SMILES IDX 11 1 12 2 13 3 14 4 15 5 16 6 17 7 18 8 10 9 8 10 9 11 7 12
REMARK SMILES IDX 6 14 5 15 4 16 19 17 3 18 20 19 21 20 2 21 1 22 22 23
REMARK H PARENT 7 13 22 24
REMARK Flexibility Score: inf
ROOT
ATOM      1  C   UNL     1       4.001   1.238 -21.818  1.00  0.00     0.010 C 
ENDROOT
BRANCH   1   2
ATOM      2  C   UNL     1       4.193   2.769 -21.775  1.00  0.00     0.005 C 
BRANCH   2   3
ATOM      3  C   UNL     1       4.463   3.417 -23.143  1.00  0.00     0.027 C 
BRANCH   3   4
ATOM      4  C   UNL     1       5.883   3.906 -23.289  1.00  0.00    -0.031 C 
ATOM      5  C   UNL     1       6.274   5.193 -23.207  1.00  0.00    -0.028 C 
BRANCH   5   6
ATOM      6  C   UNL     1       5.361   6.374 -22.953  1.00  0.00     0.005 C 
ATOM      7  C   UNL     1       6.198   7.606 -22.604  1.00  0.00     0.012 C 
ATOM      8  C   UNL     1       4.506   6.639 -24.195  1.00  0.00     0.012 C 
ENDBRANCH   5   6
ENDBRANCH   3   4
ENDBRANCH   2   3
ENDBRANCH   1   2
BRANCH   1   9
ATOM      9  C   UNL     1       5.273   0.442 -22.156  1.00  0.00     0.100 C 
BRANCH   9  10
ATOM     10  C   UNL     1       5.151  -0.292 -23.460  1.00  0.00     0.220 C 
ATOM     11  O   UNL     1       4.720   0.317 -24.477  1.00  0.00    -0.275 OA
ATOM     12  N   UNL     1       5.493  -1.682 -23.541  1.00  0.00    -0.352 N 
ATOM     13  H   UNL     1       6.008  -2.127 -22.748  1.00  0.00     0.163 HD
BRANCH  12  14
ATOM     14  C   UNL     1       4.954  -2.552 -24.583  1.00  0.00     0.151 C 
BRANCH  14  15
ATOM     15  C   UNL     1       3.570  -2.999 -24.199  1.00  0.00    -0.025 A 
ATOM     16  C   UNL     1       2.440  -2.384 -24.762  1.00  0.00     0.056 A 
ATOM     17  C   UNL     1       3.402  -3.971 -23.202  1.00  0.00     0.009 A 
ATOM     18  C   UNL     1       1.145  -2.742 -24.337  1.00  0.00     0.160 A 
ATOM     19  C   UNL     1       2.122  -4.332 -22.781  1.00  0.00     0.050 A 
ATOM     20  C   UNL     1       0.994  -3.721 -23.342  1.00  0.00     0.157 A 
BRANCH  18  21
ATOM     21  O   UNL     1      -0.008  -2.147 -24.871  1.00  0.00    -0.493 OA
ATOM     22  C   UNL     1      -0.014  -1.244 -25.971  1.00  0.00     0.278 C 
ENDBRANCH  18  21
BRANCH  20  23
ATOM     23  O   UNL     1      -0.284  -4.076 -22.914  1.00  0.00    -0.504 OA
ATOM     24  H   UNL     1      -0.549  -5.045 -22.782  1.00  0.00     0.293 HD
ENDBRANCH  20  23
ENDBRANCH  14  15
ENDBRANCH  12  14
ENDBRANCH   9  10
ENDBRANCH   1   9
TORSDOF 10
ENDMDL
MODEL 2
REMARK VINA RESULT:    -6.664      1.860      2.702
REMARK INTER + INTRA:         -11.161
REMARK INTER:                  -9.761
REMARK INTRA:                  -1.400
REMARK UNBOUND:                -0.797
REMARK SMILES COc1cc(CNC(=O)CCCCC=CC(C)C)ccc1O
REMARK SMILES IDX 11 1 12 2 13 3 14 4 15 5 16 6 17 7 18 8 10 9 8 10 9 11 7 12
REMARK SMILES IDX 6 14 5 15 4 16 19 17 3 18 20 19 21 20 2 21 1 22 22 23
REMARK H PARENT 7 13 22 24
REMARK Flexibility Score: inf
ROOT
ATOM      1  C   UNL     1       4.525   2.715 -22.501  1.00  0.00     0.010 C 
ENDROOT
BRANCH   1   2
ATOM      2  C   UNL     1       4.743   4.120 -21.900  1.00  0.00     0.005 C 
BRANCH   2   3
ATOM      3  C   UNL     1       5.728   5.004 -22.683  1.00  0.00     0.027 C 
BRANCH   3   4
ATOM      4  C   UNL     1       5.123   6.319 -23.109  1.00  0.00    -0.031 C 
ATOM      5  C   UNL     1       4.356   6.504 -24.201  1.00  0.00    -0.028 C 
BRANCH   5   6
ATOM      6  C   UNL     1       3.965   5.427 -25.192  1.00  0.00     0.005 C 
ATOM      7  C   UNL     1       2.455   5.191 -25.124  1.00  0.00     0.012 C 
ATOM      8  C   UNL     1       4.380   5.852 -26.603  1.00  0.00     0.012 C 
ENDBRANCH   5   6
ENDBRANCH   3   4
ENDBRANCH   2   3
ENDBRANCH   1   2
BRANCH   1   9
ATOM      9  C   UNL     1       5.475   2.358 -23.658  1.00  0.00     0.100 C 
BRANCH   9  10
ATOM     10  C   UNL     1       4.756   1.696 -24.796  1.00  0.00     0.220 C 
ATOM     11  O   UNL     1       3.515   1.877 -24.937  1.00  0.00    -0.275 OA
ATOM     12  N   UNL     1       5.467   0.840 -25.700  1.00  0.00    -0.352 N 
ATOM     13  H   UNL     1       6.512   0.836 -25.681  1.00  0.00     0.163 HD
BRANCH  12  14
ATOM     14  C   UNL     1       4.791  -0.189 -26.485  1.00  0.00     0.151 C 
BRANCH  14  15
ATOM     15  C   UNL     1       4.423  -1.343 -25.593  1.00  0.00    -0.025 A 
ATOM     16  C   UNL     1       3.084  -1.745 -25.464  1.00  0.00     0.056 A 
ATOM     17  C   UNL     1       5.408  -1.962 -24.811  1.00  0.00     0.009 A 
ATOM     18  C   UNL     1       2.729  -2.768 -24.562  1.00  0.00     0.160 A 
ATOM     19  C   UNL     1       5.063  -2.977 -23.919  1.00  0.00     0.050 A 
ATOM     20  C   UNL     1       3.728  -3.381 -23.790  1.00  0.00     0.157 A 
BRANCH  18  21
ATOM     21  O   UNL     1       1.402  -3.195 -24.400  1.00  0.00    -0.493 OA
ATOM     22  C   UNL     1       0.335  -2.360 -23.963  1.00  0.00     0.278 C 
ENDBRANCH  18  21
BRANCH  20  23
ATOM     23  O   UNL     1       3.382  -4.389 -22.892  1.00  0.00    -0.504 OA
ATOM     24  H   UNL     1       4.080  -4.855 -22.324  1.00  0.00     0.293 HD
ENDBRANCH  20  23
ENDBRANCH  14  15
ENDBRANCH  12  14
ENDBRANCH   9  10
ENDBRANCH   1   9
TORSDOF 10
ENDMDL
MODEL 3
REMARK VINA RESULT:    -6.656      2.232      2.921
REMARK INTER + INTRA:         -11.149
REMARK INTER:                  -9.761
REMARK INTRA:                  -1.387
REMARK UNBOUND:                -0.797
REMARK SMILES COc1cc(CNC(=O)CCCCC=CC(C)C)ccc1O
REMARK SMILES IDX 11 1 12 2 13 3 14 4 15 5 16 6 17 7 18 8 10 9 8 10 9 11 7 12
REMARK SMILES IDX 6 14 5 15 4 16 19 17 3 18 20 19 21 20 2 21 1 22 22 23
REMARK H PARENT 7 13 22 24
REMARK Flexibility Score: inf
ROOT
ATOM      1  C   UNL     1       3.933   2.334 -24.857  1.00  0.00     0.010 C 
ENDROOT
BRANCH   1   2
ATOM      2  C   UNL     1       4.751   1.582 -23.785  1.00  0.00     0.005 C 
BRANCH   2   3
ATOM      3  C   UNL     1       5.508   2.495 -22.805  1.00  0.00     0.027 C 
BRANCH   3   4
ATOM      4  C   UNL     1       4.596   3.445 -22.068  1.00  0.00    -0.031 C 
ATOM      5  C   UNL     1       4.540   4.777 -22.265  1.00  0.00    -0.028 C 
BRANCH   5   6
ATOM      6  C   UNL     1       5.378   5.554 -23.258  1.00  0.00     0.005 C 
ATOM      7  C   UNL     1       4.523   5.926 -24.472  1.00  0.00     0.012 C 
ATOM      8  C   UNL     1       5.936   6.812 -22.588  1.00  0.00     0.012 C 
ENDBRANCH   5   6
ENDBRANCH   3   4
ENDBRANCH   2   3
ENDBRANCH   1   2
BRANCH   1   9
ATOM      9  C   UNL     1       4.682   2.582 -26.178  1.00  0.00     0.100 C 
BRANCH   9  10
ATOM     10  C   UNL     1       4.661   1.379 -27.075  1.00  0.00     0.220 C 
ATOM     11  O   UNL     1       3.746   1.261 -27.934  1.00  0.00    -0.275 OA
ATOM     12  N   UNL     1       5.658   0.357 -26.936  1.00  0.00    -0.352 N 
ATOM     13  H   UNL     1       6.502   0.545 -26.349  1.00  0.00     0.163 HD
BRANCH  12  14
ATOM     14  C   UNL     1       5.432  -1.011 -27.394  1.00  0.00     0.151 C 
BRANCH  14  15
ATOM     15  C   UNL     1       4.891  -1.839 -26.262  1.00  0.00    -0.025 A 
ATOM     16  C   UNL     1       3.522  -1.813 -25.950  1.00  0.00     0.056 A 
ATOM     17  C   UNL     1       5.770  -2.569 -25.449  1.00  0.00     0.009 A 
ATOM     18  C   UNL     1       3.030  -2.519 -24.834  1.00  0.00     0.160 A 
ATOM     19  C   UNL     1       5.287  -3.274 -24.346  1.00  0.00     0.050 A 
ATOM     20  C   UNL     1       3.922  -3.250 -24.035  1.00  0.00     0.157 A 
BRANCH  18  21
ATOM     21  O   UNL     1       1.670  -2.514 -24.486  1.00  0.00    -0.493 OA
ATOM     22  C   UNL     1       0.897  -1.338 -24.276  1.00  0.00     0.278 C 
ENDBRANCH  18  21
BRANCH  20  23
ATOM     23  O   UNL     1       3.441  -3.947 -22.927  1.00  0.00    -0.504 OA
ATOM     24  H   UNL     1       3.857  -3.834 -22.009  1.00  0.00     0.293 HD
ENDBRANCH  20  23
ENDBRANCH  14  15
ENDBRANCH  12  14
ENDBRANCH   9  10
ENDBRANCH   1   9
TORSDOF 10
ENDMDL
MODEL 4
REMARK VINA RESULT:    -6.645      2.170      3.009
REMARK INTER + INTRA:         -11.132
REMARK INTER:                  -9.865
REMARK INTRA:                  -1.266
REMARK UNBOUND:                -0.797
REMARK SMILES COc1cc(CNC(=O)CCCCC=CC(C)C)ccc1O
REMARK SMILES IDX 11 1 12 2 13 3 14 4 15 5 16 6 17 7 18 8 10 9 8 10 9 11 7 12
REMARK SMILES IDX 6 14 5 15 4 16 19 17 3 18 20 19 21 20 2 21 1 22 22 23
REMARK H PARENT 7 13 22 24
REMARK Flexibility Score: inf
ROOT
ATOM      1  C   UNL     1       5.286   1.969 -25.904  1.00  0.00     0.010 C 
ENDROOT
BRANCH   1   2
ATOM      2  C   UNL     1       4.533   2.228 -24.582  1.00  0.00     0.005 C 
BRANCH   2   3
ATOM      3  C   UNL     1       5.438   2.325 -23.342  1.00  0.00     0.027 C 
BRANCH   3   4
ATOM      4  C   UNL     1       4.699   2.803 -22.116  1.00  0.00    -0.031 C 
ATOM      5  C   UNL     1       4.406   4.089 -21.838  1.00  0.00    -0.028 C 
BRANCH   5   6
ATOM      6  C   UNL     1       4.763   5.278 -22.704  1.00  0.00     0.005 C 
ATOM      7  C   UNL     1       3.804   6.434 -22.411  1.00  0.00     0.012 C 
ATOM      8  C   UNL     1       6.209   5.698 -22.431  1.00  0.00     0.012 C 
ENDBRANCH   5   6
ENDBRANCH   3   4
ENDBRANCH   2   3
ENDBRANCH   1   2
BRANCH   1   9
ATOM      9  C   UNL     1       4.422   1.373 -27.029  1.00  0.00     0.100 C 
BRANCH   9  10
ATOM     10  C   UNL     1       4.554  -0.119 -27.113  1.00  0.00     0.220 C 
ATOM     11  O   UNL     1       3.826  -0.763 -27.917  1.00  0.00    -0.275 OA
ATOM     12  N   UNL     1       5.480  -0.811 -26.264  1.00  0.00    -0.352 N 
ATOM     13  H   UNL     1       6.193  -0.262 -25.734  1.00  0.00     0.163 HD
BRANCH  12  14
ATOM     14  C   UNL     1       5.320  -2.225 -25.935  1.00  0.00     0.151 C 
BRANCH  14  15
ATOM     15  C   UNL     1       4.554  -2.360 -24.649  1.00  0.00    -0.025 A 
ATOM     16  C   UNL     1       3.710  -3.461 -24.433  1.00  0.00     0.056 A 
ATOM     17  C   UNL     1       4.606  -1.334 -23.695  1.00  0.00     0.009 A 
ATOM     18  C   UNL     1       2.925  -3.543 -23.266  1.00  0.00     0.160 A 
ATOM     19  C   UNL     1       3.834  -1.411 -22.535  1.00  0.00     0.050 A 
ATOM     20  C   UNL     1       2.993  -2.510 -22.318  1.00  0.00     0.157 A 
BRANCH  18  21
ATOM     21  O   UNL     1       2.065  -4.624 -23.016  1.00  0.00    -0.493 OA
ATOM     22  C   UNL     1       0.681  -4.646 -23.349  1.00  0.00     0.278 C 
ENDBRANCH  18  21
BRANCH  20  23
ATOM     23  O   UNL     1       2.215  -2.582 -21.164  1.00  0.00    -0.504 OA
ATOM     24  H   UNL     1       1.530  -1.870 -20.941  1.00  0.00     0.293 HD
ENDBRANCH  20  23
ENDBRANCH  14  15
ENDBRANCH  12  14
ENDBRANCH   9  10
ENDBRANCH   1   9
TORSDOF 10
ENDMDL
MODEL 5
REMARK VINA RESULT:    -6.608      2.111      7.642
REMARK INTER + INTRA:         -11.075
REMARK INTER:                  -9.519
REMARK INTRA:                  -1.556
REMARK UNBOUND:                -0.797
REMARK SMILES COc1cc(CNC(=O)CCCCC=CC(C)C)ccc1O
REMARK SMILES IDX 11 1 12 2 13 3 14 4 15 5 16 6 17 7 18 8 10 9 8 10 9 11 7 12
REMARK SMILES IDX 6 14 5 15 4 16 19 17 3 18 20 19 21 20 2 21 1 22 22 23
REMARK H PARENT 7 13 22 24
REMARK Flexibility Score: inf
ROOT
ATOM      1  C   UNL     1       4.308  -2.778 -25.154  1.00  0.00     0.010 C 
ENDROOT
BRANCH   1   2
ATOM      2  C   UNL     1       3.701  -1.601 -25.947  1.00  0.00     0.005 C 
BRANCH   2   3
ATOM      3  C   UNL     1       2.164  -1.538 -25.919  1.00  0.00     0.027 C 
BRANCH   3   4
ATOM      4  C   UNL     1       1.625  -1.012 -24.612  1.00  0.00    -0.031 C 
ATOM      5  C   UNL     1       0.998  -1.752 -23.677  1.00  0.00    -0.028 C 
BRANCH   5   6
ATOM      6  C   UNL     1       0.727  -3.239 -23.770  1.00  0.00     0.005 C 
ATOM      7  C   UNL     1       1.740  -4.001 -22.912  1.00  0.00     0.012 C 
ATOM      8  C   UNL     1      -0.701  -3.532 -23.302  1.00  0.00     0.012 C 
ENDBRANCH   5   6
ENDBRANCH   3   4
ENDBRANCH   2   3
ENDBRANCH   1   2
BRANCH   1   9
ATOM      9  C   UNL     1       5.517  -2.407 -24.279  1.00  0.00     0.100 C 
BRANCH   9  10
ATOM     10  C   UNL     1       5.138  -1.494 -23.149  1.00  0.00     0.220 C 
ATOM     11  O   UNL     1       4.125  -1.763 -22.447  1.00  0.00    -0.275 OA
ATOM     12  N   UNL     1       5.903  -0.309 -22.890  1.00  0.00    -0.352 N 
ATOM     13  H   UNL     1       6.829  -0.189 -23.358  1.00  0.00     0.163 HD
BRANCH  12  14
ATOM     14  C   UNL     1       5.340   0.835 -22.178  1.00  0.00     0.151 C 
BRANCH  14  15
ATOM     15  C   UNL     1       5.065   1.948 -23.151  1.00  0.00    -0.025 A 
ATOM     16  C   UNL     1       5.676   3.202 -22.991  1.00  0.00     0.056 A 
ATOM     17  C   UNL     1       4.122   1.766 -24.171  1.00  0.00     0.009 A 
ATOM     18  C   UNL     1       5.351   4.270 -23.851  1.00  0.00     0.160 A 
ATOM     19  C   UNL     1       3.799   2.818 -25.028  1.00  0.00     0.050 A 
ATOM     20  C   UNL     1       4.408   4.069 -24.871  1.00  0.00     0.157 A 
BRANCH  18  21
ATOM     21  O   UNL     1       5.935   5.540 -23.720  1.00  0.00    -0.493 OA
ATOM     22  C   UNL     1       5.921   6.314 -22.526  1.00  0.00     0.278 C 
ENDBRANCH  18  21
BRANCH  20  23
ATOM     23  O   UNL     1       4.079   5.124 -25.721  1.00  0.00    -0.504 OA
ATOM     24  H   UNL     1       4.637   5.969 -25.758  1.00  0.00     0.293 HD
ENDBRANCH  20  23
ENDBRANCH  14  15
ENDBRANCH  12  14
ENDBRANCH   9  10
ENDBRANCH   1   9
TORSDOF 10
ENDMDL
MODEL 6
REMARK VINA RESULT:    -6.580      2.311      7.153
REMARK INTER + INTRA:         -11.032
REMARK INTER:                  -9.336
REMARK INTRA:                  -1.696
REMARK UNBOUND:                -0.797
REMARK SMILES COc1cc(CNC(=O)CCCCC=CC(C)C)ccc1O
REMARK SMILES IDX 11 1 12 2 13 3 14 4 15 5 16 6 17 7 18 8 10 9 8 10 9 11 7 12
REMARK SMILES IDX 6 14 5 15 4 16 19 17 3 18 20 19 21 20 2 21 1 22 22 23
REMARK H PARENT 7 13 22 24
REMARK Flexibility Score: inf
ROOT
ATOM      1  C   UNL     1       2.464  -3.000 -22.455  1.00  0.00     0.010 C 
ENDROOT
BRANCH   1   2
ATOM      2  C   UNL     1       1.165  -3.669 -22.955  1.00  0.00     0.005 C 
BRANCH   2   3
ATOM      3  C   UNL     1       0.326  -2.800 -23.908  1.00  0.00     0.027 C 
BRANCH   3   4
ATOM      4  C   UNL     1       0.800  -1.368 -23.963  1.00  0.00    -0.031 C 
ATOM      5  C   UNL     1       1.395  -0.787 -25.023  1.00  0.00    -0.028 C 
BRANCH   5   6
ATOM      6  C   UNL     1       1.690  -1.464 -26.344  1.00  0.00     0.005 C 
ATOM      7  C   UNL     1       0.863  -0.811 -27.453  1.00  0.00     0.012 C 
ATOM      8  C   UNL     1       3.185  -1.356 -26.655  1.00  0.00     0.012 C 
ENDBRANCH   5   6
ENDBRANCH   3   4
ENDBRANCH   2   3
ENDBRANCH   1   2
BRANCH   1   9
ATOM      9  C   UNL     1       3.726  -3.375 -23.251  1.00  0.00     0.100 C 
BRANCH   9  10
ATOM     10  C   UNL     1       4.673  -2.218 -23.386  1.00  0.00     0.220 C 
ATOM     11  O   UNL     1       5.821  -2.409 -23.873  1.00  0.00    -0.275 OA
ATOM     12  N   UNL     1       4.287  -0.912 -22.936  1.00  0.00    -0.352 N 
ATOM     13  H   UNL     1       3.286  -0.731 -22.699  1.00  0.00     0.163 HD
BRANCH  12  14
ATOM     14  C   UNL     1       5.272   0.106 -22.581  1.00  0.00     0.151 C 
BRANCH  14  15
ATOM     15  C   UNL     1       4.881   1.421 -23.196  1.00  0.00    -0.025 A 
ATOM     16  C   UNL     1       5.085   2.623 -22.500  1.00  0.00     0.056 A 
ATOM     17  C   UNL     1       4.222   1.444 -24.433  1.00  0.00     0.009 A 
ATOM     18  C   UNL     1       4.638   3.846 -23.038  1.00  0.00     0.160 A 
ATOM     19  C   UNL     1       3.781   2.653 -24.974  1.00  0.00     0.050 A 
ATOM     20  C   UNL     1       3.985   3.852 -24.281  1.00  0.00     0.157 A 
BRANCH  18  21
ATOM     21  O   UNL     1       4.818   5.068 -22.371  1.00  0.00    -0.493 OA
ATOM     22  C   UNL     1       5.976   5.887 -22.487  1.00  0.00     0.278 C 
ENDBRANCH  18  21
BRANCH  20  23
ATOM     23  O   UNL     1       3.537   5.058 -24.817  1.00  0.00    -0.504 OA
ATOM     24  H   UNL     1       2.648   5.462 -24.542  1.00  0.00     0.293 HD
ENDBRANCH  20  23
ENDBRANCH  14  15
ENDBRANCH  12  14
ENDBRANCH   9  10
ENDBRANCH   1   9
TORSDOF 10
ENDMDL
MODEL 7
REMARK VINA RESULT:    -6.556      1.954      3.402
REMARK INTER + INTRA:         -10.994
REMARK INTER:                  -9.028
REMARK INTRA:                  -1.967
REMARK UNBOUND:                -0.797
REMARK SMILES COc1cc(CNC(=O)CCCCC=CC(C)C)ccc1O
REMARK SMILES IDX 11 1 12 2 13 3 14 4 15 5 16 6 17 7 18 8 10 9 8 10 9 11 7 12
REMARK SMILES IDX 6 14 5 15 4 16 19 17 3 18 20 19 21 20 2 21 1 22 22 23
REMARK H PARENT 7 13 22 24
REMARK Flexibility Score: inf
ROOT
ATOM      1  C   UNL     1       3.423   1.675 -26.078  1.00  0.00     0.010 C 
ENDROOT
BRANCH   1   2
ATOM      2  C   UNL     1       3.647   3.092 -25.508  1.00  0.00     0.005 C 
BRANCH   2   3
ATOM      3  C   UNL     1       4.844   3.212 -24.549  1.00  0.00     0.027 C 
BRANCH   3   4
ATOM      4  C   UNL     1       4.427   3.290 -23.101  1.00  0.00    -0.031 C 
ATOM      5  C   UNL     1       4.264   2.233 -22.282  1.00  0.00    -0.028 C 
BRANCH   5   6
ATOM      6  C   UNL     1       4.470   0.783 -22.667  1.00  0.00     0.005 C 
ATOM      7  C   UNL     1       5.857   0.323 -22.213  1.00  0.00     0.012 C 
ATOM      8  C   UNL     1       3.381  -0.080 -22.024  1.00  0.00     0.012 C 
ENDBRANCH   5   6
ENDBRANCH   3   4
ENDBRANCH   2   3
ENDBRANCH   1   2
BRANCH   1   9
ATOM      9  C   UNL     1       4.364   1.292 -27.232  1.00  0.00     0.100 C 
BRANCH   9  10
ATOM     10  C   UNL     1       4.955  -0.076 -27.049  1.00  0.00     0.220 C 
ATOM     11  O   UNL     1       5.313  -0.739 -28.061  1.00  0.00    -0.275 OA
ATOM     12  N   UNL     1       5.086  -0.636 -25.736  1.00  0.00    -0.352 N 
ATOM     13  H   UNL     1       4.953  -0.019 -24.904  1.00  0.00     0.163 HD
BRANCH  12  14
ATOM     14  C   UNL     1       5.173  -2.077 -25.515  1.00  0.00     0.151 C 
BRANCH  14  15
ATOM     15  C   UNL     1       3.940  -2.552 -24.796  1.00  0.00    -0.025 A 
ATOM     16  C   UNL     1       2.667  -2.124 -25.206  1.00  0.00     0.056 A 
ATOM     17  C   UNL     1       4.064  -3.350 -23.651  1.00  0.00     0.009 A 
ATOM     18  C   UNL     1       1.519  -2.498 -24.479  1.00  0.00     0.160 A 
ATOM     19  C   UNL     1       2.931  -3.727 -22.929  1.00  0.00     0.050 A 
ATOM     20  C   UNL     1       1.660  -3.303 -23.338  1.00  0.00     0.157 A 
BRANCH  18  21
ATOM     21  O   UNL     1       0.230  -2.086 -24.852  1.00  0.00    -0.493 OA
ATOM     22  C   UNL     1      -0.055  -1.235 -25.956  1.00  0.00     0.278 C 
ENDBRANCH  18  21
BRANCH  20  23
ATOM     23  O   UNL     1       0.529  -3.671 -22.611  1.00  0.00    -0.504 OA
ATOM     24  H   UNL     1       0.524  -3.663 -21.598  1.00  0.00     0.293 HD
ENDBRANCH  20  23
ENDBRANCH  14  15
ENDBRANCH  12  14
ENDBRANCH   9  10
ENDBRANCH   1   9
TORSDOF 10
ENDMDL
MODEL 8
REMARK VINA RESULT:    -6.547      2.828      7.059
REMARK INTER + INTRA:         -10.980
REMARK INTER:                  -9.161
REMARK INTRA:                  -1.819
REMARK UNBOUND:                -0.797
REMARK SMILES COc1cc(CNC(=O)CCCCC=CC(C)C)ccc1O
REMARK SMILES IDX 11 1 12 2 13 3 14 4 15 5 16 6 17 7 18 8 10 9 8 10 9 11 7 12
REMARK SMILES IDX 6 14 5 15 4 16 19 17 3 18 20 19 21 20 2 21 1 22 22 23
REMARK H PARENT 7 13 22 24
REMARK Flexibility Score: inf
ROOT
ATOM      1  C   UNL     1       5.648  -2.658 -24.528  1.00  0.00     0.010 C 
ENDROOT
BRANCH   1   2
ATOM      2  C   UNL     1       5.142  -1.943 -23.257  1.00  0.00     0.005 C 
BRANCH   2   3
ATOM      3  C   UNL     1       3.708  -2.317 -22.843  1.00  0.00     0.027 C 
BRANCH   3   4
ATOM      4  C   UNL     1       2.774  -1.133 -22.840  1.00  0.00    -0.031 C 
ATOM      5  C   UNL     1       1.643  -1.034 -23.566  1.00  0.00    -0.028 C 
BRANCH   5   6
ATOM      6  C   UNL     1       1.109  -2.093 -24.508  1.00  0.00     0.005 C 
ATOM      7  C   UNL     1      -0.105  -2.778 -23.877  1.00  0.00     0.012 C 
ATOM      8  C   UNL     1       0.728  -1.448 -25.843  1.00  0.00     0.012 C 
ENDBRANCH   5   6
ENDBRANCH   3   4
ENDBRANCH   2   3
ENDBRANCH   1   2
BRANCH   1   9
ATOM      9  C   UNL     1       4.746  -2.485 -25.763  1.00  0.00     0.100 C 
BRANCH   9  10
ATOM     10  C   UNL     1       4.944  -1.153 -26.425  1.00  0.00     0.220 C 
ATOM     11  O   UNL     1       5.852  -1.017 -27.289  1.00  0.00    -0.275 OA
ATOM     12  N   UNL     1       4.125  -0.035 -26.056  1.00  0.00    -0.352 N 
ATOM     13  H   UNL     1       3.271  -0.199 -25.476  1.00  0.00     0.163 HD
BRANCH  12  14
ATOM     14  C   UNL     1       4.558   1.344 -26.267  1.00  0.00     0.151 C 
BRANCH  14  15
ATOM     15  C   UNL     1       4.514   2.090 -24.963  1.00  0.00    -0.025 A 
ATOM     16  C   UNL     1       3.954   3.376 -24.895  1.00  0.00     0.056 A 
ATOM     17  C   UNL     1       5.120   1.541 -23.824  1.00  0.00     0.009 A 
ATOM     18  C   UNL     1       3.992   4.110 -23.693  1.00  0.00     0.160 A 
ATOM     19  C   UNL     1       5.157   2.262 -22.630  1.00  0.00     0.050 A 
ATOM     20  C   UNL     1       4.597   3.544 -22.560  1.00  0.00     0.157 A 
BRANCH  18  21
ATOM     21  O   UNL     1       3.449   5.400 -23.587  1.00  0.00    -0.493 OA
ATOM     22  C   UNL     1       4.159   6.600 -23.875  1.00  0.00     0.278 C 
ENDBRANCH  18  21
BRANCH  20  23
ATOM     23  O   UNL     1       4.643   4.267 -21.370  1.00  0.00    -0.504 OA
ATOM     24  H   UNL     1       5.476   4.770 -21.087  1.00  0.00     0.293 HD
ENDBRANCH  20  23
ENDBRANCH  14  15
ENDBRANCH  12  14
ENDBRANCH   9  10
ENDBRANCH   1   9
TORSDOF 10
ENDMDL
MODEL 9
REMARK VINA RESULT:    -6.501      2.090      3.791
REMARK INTER + INTRA:         -10.909
REMARK INTER:                  -9.250
REMARK INTRA:                  -1.659
REMARK UNBOUND:                -0.797
REMARK SMILES COc1cc(CNC(=O)CCCCC=CC(C)C)ccc1O
REMARK SMILES IDX 11 1 12 2 13 3 14 4 15 5 16 6 17 7 18 8 10 9 8 10 9 11 7 12
REMARK SMILES IDX 6 14 5 15 4 16 19 17 3 18 20 19 21 20 2 21 1 22 22 23
REMARK H PARENT 7 13 22 24
REMARK Flexibility Score: inf
ROOT
ATOM      1  C   UNL     1       3.604   3.928 -24.851  1.00  0.00     0.010 C 
ENDROOT
BRANCH   1   2
ATOM      2  C   UNL     1       4.900   4.596 -24.343  1.00  0.00     0.005 C 
BRANCH   2   3
ATOM      3  C   UNL     1       5.586   3.858 -23.182  1.00  0.00     0.027 C 
BRANCH   3   4
ATOM      4  C   UNL     1       4.635   3.524 -22.059  1.00  0.00    -0.031 C 
ATOM      5  C   UNL     1       4.141   2.298 -21.798  1.00  0.00    -0.028 C 
BRANCH   5   6
ATOM      6  C   UNL     1       4.454   1.040 -22.581  1.00  0.00     0.005 C 
ATOM      7  C   UNL     1       5.858   0.547 -22.223  1.00  0.00     0.012 C 
ATOM      8  C   UNL     1       3.411  -0.035 -22.266  1.00  0.00     0.012 C 
ENDBRANCH   5   6
ENDBRANCH   3   4
ENDBRANCH   2   3
ENDBRANCH   1   2
BRANCH   1   9
ATOM      9  C   UNL     1       3.695   3.351 -26.274  1.00  0.00     0.100 C 
BRANCH   9  10
ATOM     10  C   UNL     1       4.262   1.962 -26.286  1.00  0.00     0.220 C 
ATOM     11  O   UNL     1       5.494   1.792 -26.071  1.00  0.00    -0.275 OA
ATOM     12  N   UNL     1       3.417   0.839 -26.569  1.00  0.00    -0.352 N 
ATOM     13  H   UNL     1       2.381   0.969 -26.572  1.00  0.00     0.163 HD
BRANCH  12  14
ATOM     14  C   UNL     1       3.951  -0.423 -27.074  1.00  0.00     0.151 C 
BRANCH  14  15
ATOM     15  C   UNL     1       3.828  -1.483 -26.014  1.00  0.00    -0.025 A 
ATOM     16  C   UNL     1       2.564  -1.892 -25.559  1.00  0.00     0.056 A 
ATOM     17  C   UNL     1       4.980  -2.000 -25.407  1.00  0.00     0.009 A 
ATOM     18  C   UNL     1       2.450  -2.820 -24.505  1.00  0.00     0.160 A 
ATOM     19  C   UNL     1       4.873  -2.922 -24.365  1.00  0.00     0.050 A 
ATOM     20  C   UNL     1       3.614  -3.332 -23.911  1.00  0.00     0.157 A 
BRANCH  18  21
ATOM     21  O   UNL     1       1.205  -3.249 -24.018  1.00  0.00    -0.493 OA
ATOM     22  C   UNL     1       0.007  -2.484 -24.083  1.00  0.00     0.278 C 
ENDBRANCH  18  21
BRANCH  20  23
ATOM     23  O   UNL     1       3.507  -4.247 -22.864  1.00  0.00    -0.504 OA
ATOM     24  H   UNL     1       2.665  -4.315 -22.305  1.00  0.00     0.293 HD
ENDBRANCH  20  23
ENDBRANCH  14  15
ENDBRANCH  12  14
ENDBRANCH   9  10
ENDBRANCH   1   9
TORSDOF 10
ENDMDL
