MODEL 1
REMARK VINA RESULT:    29.622      0.000      0.000
REMARK INTER + INTRA:          37.363
REMARK INTER:                  37.415
REMARK INTRA:                  -0.052
REMARK UNBOUND:                -0.052
REMARK SMILES COc1cc(O)c2c(=O)c(OC)c(-c3ccc(O)c(O)c3)oc2c1
REMARK SMILES IDX 3 1 4 2 5 3 7 4 23 5 24 6 22 7 13 8 10 9 8 10 9 11 2 12 1 13
REMARK SMILES IDX 6 14 14 16 21 17 15 18 19 19 16 20 17 21 20 22 18 24 11 26
REMARK SMILES IDX 12 27
REMARK H PARENT 6 15 20 23 18 25
REMARK Flexibility Score: inf
ROOT
ATOM      1  C   UNL     1     -16.011 -57.018   3.063  1.00  0.00     0.126 A 
ATOM      2  C   UNL     1     -15.254 -55.969   3.589  1.00  0.00     0.093 A 
ATOM      3  C   UNL     1     -15.135 -54.751   2.905  1.00  0.00     0.134 A 
ATOM      4  C   UNL     1     -15.787 -54.574   1.660  1.00  0.00     0.111 A 
ATOM      5  C   UNL     1     -16.548 -55.640   1.132  1.00  0.00     0.146 A 
ATOM      6  C   UNL     1     -16.659 -56.847   1.828  1.00  0.00     0.094 A 
ATOM      7  O   UNL     1     -17.168 -55.513  -0.035  1.00  0.00    -0.452 OA
ATOM      8  C   UNL     1     -17.120 -54.408  -0.773  1.00  0.00     0.180 A 
ATOM      9  C   UNL     1     -16.409 -53.279  -0.316  1.00  0.00     0.210 A 
ATOM     10  C   UNL     1     -15.722 -53.376   0.917  1.00  0.00     0.239 A 
ATOM     11  O   UNL     1     -15.059 -52.398   1.355  1.00  0.00    -0.285 OA
ENDROOT
BRANCH   1  12
ATOM     12  O   UNL     1     -16.094 -58.212   3.796  1.00  0.00    -0.496 OA
ATOM     13  C   UNL     1     -17.127 -58.516   4.726  1.00  0.00     0.278 C 
ENDBRANCH   1  12
BRANCH   3  14
ATOM     14  O   UNL     1     -14.370 -53.727   3.466  1.00  0.00    -0.507 OA
ATOM     15  H   UNL     1     -14.692 -52.766   3.479  1.00  0.00     0.293 HD
ENDBRANCH   3  14
BRANCH   8  16
ATOM     16  C   UNL     1     -17.846 -54.408  -2.062  1.00  0.00     0.025 A 
ATOM     17  C   UNL     1     -17.200 -54.746  -3.266  1.00  0.00     0.062 A 
ATOM     18  C   UNL     1     -19.221 -54.125  -2.081  1.00  0.00     0.016 A 
ATOM     19  C   UNL     1     -17.911 -54.764  -4.474  1.00  0.00     0.158 A 
ATOM     20  C   UNL     1     -19.930 -54.142  -3.285  1.00  0.00     0.051 A 
ATOM     21  C   UNL     1     -19.277 -54.457  -4.485  1.00  0.00     0.157 A 
BRANCH  19  22
ATOM     22  O   UNL     1     -17.268 -55.091  -5.667  1.00  0.00    -0.504 OA
ATOM     23  H   UNL     1     -17.785 -55.228  -6.528  1.00  0.00     0.293 HD
ENDBRANCH  19  22
BRANCH  21  24
ATOM     24  O   UNL     1     -19.981 -54.472  -5.688  1.00  0.00    -0.504 OA
ATOM     25  H   UNL     1     -19.917 -55.254  -6.330  1.00  0.00     0.293 HD
ENDBRANCH  21  24
ENDBRANCH   8  16
BRANCH   9  26
ATOM     26  O   UNL     1     -16.446 -52.106  -1.098  1.00  0.00    -0.490 OA
ATOM     27  C   UNL     1     -17.587 -51.295  -1.355  1.00  0.00     0.278 C 
ENDBRANCH   9  26
TORSDOF 6
ENDMDL
MODEL 2
REMARK VINA RESULT:    32.450      5.222      8.453
REMARK INTER + INTRA:          40.935
REMARK INTER:                  40.894
REMARK INTRA:                   0.040
REMARK UNBOUND:                -0.052
REMARK SMILES COc1cc(O)c2c(=O)c(OC)c(-c3ccc(O)c(O)c3)oc2c1
REMARK SMILES IDX 3 1 4 2 5 3 7 4 23 5 24 6 22 7 13 8 10 9 8 10 9 11 2 12 1 13
REMARK SMILES IDX 6 14 14 16 21 17 15 18 19 19 16 20 17 21 20 22 18 24 11 26
REMARK SMILES IDX 12 27
REMARK H PARENT 6 15 20 23 18 25
REMARK Flexibility Score: inf
ROOT
ATOM      1  C   UNL     1     -15.994 -57.554   2.722  1.00  0.00     0.126 A 
ATOM      2  C   UNL     1     -16.342 -58.280   1.581  1.00  0.00     0.093 A 
ATOM      3  C   UNL     1     -15.381 -58.619   0.618  1.00  0.00     0.134 A 
ATOM      4  C   UNL     1     -14.033 -58.221   0.798  1.00  0.00     0.111 A 
ATOM      5  C   UNL     1     -13.687 -57.484   1.951  1.00  0.00     0.146 A 
ATOM      6  C   UNL     1     -14.658 -57.157   2.902  1.00  0.00     0.094 A 
ATOM      7  O   UNL     1     -12.436 -57.089   2.149  1.00  0.00    -0.452 OA
ATOM      8  C   UNL     1     -11.444 -57.347   1.302  1.00  0.00     0.180 A 
ATOM      9  C   UNL     1     -11.684 -58.102   0.135  1.00  0.00     0.210 A 
ATOM     10  C   UNL     1     -13.008 -58.532  -0.121  1.00  0.00     0.239 A 
ATOM     11  O   UNL     1     -13.272 -59.193  -1.160  1.00  0.00    -0.285 OA
ENDROOT
BRANCH   1  12
ATOM     12  O   UNL     1     -17.001 -57.247   3.650  1.00  0.00    -0.496 OA
ATOM     13  C   UNL     1     -17.409 -58.106   4.708  1.00  0.00     0.278 C 
ENDBRANCH   1  12
BRANCH   3  14
ATOM     14  O   UNL     1     -15.771 -59.347  -0.507  1.00  0.00    -0.507 OA
ATOM     15  H   UNL     1     -16.748 -59.519  -0.718  1.00  0.00     0.293 HD
ENDBRANCH   3  14
BRANCH   8  16
ATOM     16  C   UNL     1     -10.098 -56.833   1.640  1.00  0.00     0.025 A 
ATOM     17  C   UNL     1      -9.651 -55.586   1.165  1.00  0.00     0.062 A 
ATOM     18  C   UNL     1      -9.271 -57.573   2.500  1.00  0.00     0.016 A 
ATOM     19  C   UNL     1      -8.382 -55.105   1.516  1.00  0.00     0.158 A 
ATOM     20  C   UNL     1      -8.006 -57.093   2.849  1.00  0.00     0.051 A 
ATOM     21  C   UNL     1      -7.555 -55.862   2.355  1.00  0.00     0.157 A 
BRANCH  19  22
ATOM     22  O   UNL     1      -7.937 -53.873   1.037  1.00  0.00    -0.504 OA
ATOM     23  H   UNL     1      -7.937 -53.046   1.622  1.00  0.00     0.293 HD
ENDBRANCH  19  22
BRANCH  21  24
ATOM     24  O   UNL     1      -6.293 -55.382   2.699  1.00  0.00    -0.504 OA
ATOM     25  H   UNL     1      -5.936 -55.459   3.645  1.00  0.00     0.293 HD
ENDBRANCH  21  24
ENDBRANCH   8  16
BRANCH   9  26
ATOM     26  O   UNL     1     -10.589 -58.412  -0.696  1.00  0.00    -0.490 OA
ATOM     27  C   UNL     1      -9.461 -59.209  -0.349  1.00  0.00     0.278 C 
ENDBRANCH   9  26
TORSDOF 6
ENDMDL
