MODEL 1
REMARK VINA RESULT:    -3.328      0.000      0.000
REMARK INTER + INTRA:          -7.869
REMARK INTER:                  -5.858
REMARK INTRA:                  -2.011
REMARK UNBOUND:                -2.011
REMARK SMILES CCCCCCC=CCCCCCCCC(=O)[O-]
REMARK SMILES IDX 10 1 11 2 12 3 13 4 14 5 15 6 16 7 17 8 18 9 9 10 8 11 7 12
REMARK SMILES IDX 6 13 5 14 4 15 3 16 2 17 1 18
REMARK H PARENT
REMARK Flexibility Score: inf
ROOT
ATOM      1  C   UNL     1      54.531  25.324  49.779  1.00  0.00     0.004 C 
ENDROOT
BRANCH   1   2
ATOM      2  C   UNL     1      53.216  26.117  49.699  1.00  0.00     0.000 C 
BRANCH   2   3
ATOM      3  C   UNL     1      53.090  27.178  50.806  1.00  0.00     0.000 C 
BRANCH   3   4
ATOM      4  C   UNL     1      53.244  28.624  50.293  1.00  0.00     0.000 C 
BRANCH   4   5
ATOM      5  C   UNL     1      53.789  29.569  51.378  1.00  0.00     0.006 C 
BRANCH   5   6
ATOM      6  C   UNL     1      53.915  28.875  52.741  1.00  0.00     0.053 C 
BRANCH   6   7
ATOM      7  C   UNL     1      54.921  29.556  53.618  1.00  0.00     0.041 C 
ATOM      8  O   UNL     1      55.784  30.322  53.116  1.00  0.00    -0.550 OA
ATOM      9  O   UNL     1      54.886  29.368  54.995  1.00  0.00    -0.550 OA
ENDBRANCH   6   7
ENDBRANCH   5   6
ENDBRANCH   4   5
ENDBRANCH   3   4
ENDBRANCH   2   3
ENDBRANCH   1   2
BRANCH   1  10
ATOM     10  C   UNL     1      55.448  25.836  50.897  1.00  0.00     0.027 C 
BRANCH  10  11
ATOM     11  C   UNL     1      56.590  26.647  50.343  1.00  0.00    -0.031 C 
ATOM     12  C   UNL     1      56.983  27.793  50.920  1.00  0.00    -0.031 C 
BRANCH  12  13
ATOM     13  C   UNL     1      58.128  28.601  50.369  1.00  0.00     0.027 C 
BRANCH  13  14
ATOM     14  C   UNL     1      59.054  27.744  49.498  1.00  0.00     0.004 C 
BRANCH  14  15
ATOM     15  C   UNL     1      60.474  27.651  50.077  1.00  0.00     0.000 C 
BRANCH  15  16
ATOM     16  C   UNL     1      60.684  26.319  50.807  1.00  0.00    -0.000 C 
BRANCH  16  17
ATOM     17  C   UNL     1      59.964  25.175  50.083  1.00  0.00    -0.003 C 
ATOM     18  C   UNL     1      59.233  24.271  51.069  1.00  0.00     0.004 C 
ENDBRANCH  16  17
ENDBRANCH  15  16
ENDBRANCH  14  15
ENDBRANCH  13  14
ENDBRANCH  12  13
ENDBRANCH  10  11
ENDBRANCH   1  10
TORSDOF 13
ENDMDL
MODEL 2
REMARK VINA RESULT:    -3.274      3.001      6.138
REMARK INTER + INTRA:          -7.773
REMARK INTER:                  -5.784
REMARK INTRA:                  -1.989
REMARK UNBOUND:                -2.011
REMARK SMILES CCCCCCC=CCCCCCCCC(=O)[O-]
REMARK SMILES IDX 10 1 11 2 12 3 13 4 14 5 15 6 16 7 17 8 18 9 9 10 8 11 7 12
REMARK SMILES IDX 6 13 5 14 4 15 3 16 2 17 1 18
REMARK H PARENT
REMARK Flexibility Score: inf
ROOT
ATOM      1  C   UNL     1      58.857  28.939  49.818  1.00  0.00     0.004 C 
ENDROOT
BRANCH   1   2
ATOM      2  C   UNL     1      59.548  27.666  49.305  1.00  0.00     0.000 C 
BRANCH   2   3
ATOM      3  C   UNL     1      60.715  27.216  50.202  1.00  0.00     0.000 C 
BRANCH   3   4
ATOM      4  C   UNL     1      60.651  25.726  50.594  1.00  0.00     0.000 C 
BRANCH   4   5
ATOM      5  C   UNL     1      59.356  25.053  50.106  1.00  0.00     0.006 C 
BRANCH   5   6
ATOM      6  C   UNL     1      58.471  24.586  51.269  1.00  0.00     0.053 C 
BRANCH   6   7
ATOM      7  C   UNL     1      59.195  23.630  52.166  1.00  0.00     0.041 C 
ATOM      8  O   UNL     1      59.588  22.519  51.723  1.00  0.00    -0.550 OA
ATOM      9  O   UNL     1      59.463  23.978  53.485  1.00  0.00    -0.550 OA
ENDBRANCH   6   7
ENDBRANCH   5   6
ENDBRANCH   4   5
ENDBRANCH   3   4
ENDBRANCH   2   3
ENDBRANCH   1   2
BRANCH   1  10
ATOM     10  C   UNL     1      57.955  28.661  51.027  1.00  0.00     0.027 C 
BRANCH  10  11
ATOM     11  C   UNL     1      56.818  27.742  50.666  1.00  0.00    -0.031 C 
ATOM     12  C   UNL     1      55.547  28.172  50.641  1.00  0.00    -0.031 C 
BRANCH  12  13
ATOM     13  C   UNL     1      54.411  27.254  50.275  1.00  0.00     0.027 C 
BRANCH  13  14
ATOM     14  C   UNL     1      54.897  25.817  50.053  1.00  0.00     0.004 C 
BRANCH  14  15
ATOM     15  C   UNL     1      54.144  24.806  50.930  1.00  0.00     0.000 C 
BRANCH  15  16
ATOM     16  C   UNL     1      53.976  25.337  52.359  1.00  0.00    -0.000 C 
BRANCH  16  17
ATOM     17  C   UNL     1      55.300  25.269  53.130  1.00  0.00    -0.003 C 
ATOM     18  C   UNL     1      55.632  23.836  53.533  1.00  0.00     0.004 C 
ENDBRANCH  16  17
ENDBRANCH  15  16
ENDBRANCH  14  15
ENDBRANCH  13  14
ENDBRANCH  12  13
ENDBRANCH  10  11
ENDBRANCH   1  10
TORSDOF 13
ENDMDL
MODEL 3
REMARK VINA RESULT:    -3.236     10.968     13.316
REMARK INTER + INTRA:          -7.707
REMARK INTER:                  -6.070
REMARK INTRA:                  -1.637
REMARK UNBOUND:                -2.011
REMARK SMILES CCCCCCC=CCCCCCCCC(=O)[O-]
REMARK SMILES IDX 10 1 11 2 12 3 13 4 14 5 15 6 16 7 17 8 18 9 9 10 8 11 7 12
REMARK SMILES IDX 6 13 5 14 4 15 3 16 2 17 1 18
REMARK H PARENT
REMARK Flexibility Score: inf
ROOT
ATOM      1  C   UNL     1      63.791  30.589  61.049  1.00  0.00     0.004 C 
ENDROOT
BRANCH   1   2
ATOM      2  C   UNL     1      62.347  31.040  61.322  1.00  0.00     0.000 C 
BRANCH   2   3
ATOM      3  C   UNL     1      61.408  29.869  61.659  1.00  0.00     0.000 C 
BRANCH   3   4
ATOM      4  C   UNL     1      60.859  29.142  60.415  1.00  0.00     0.000 C 
BRANCH   4   5
ATOM      5  C   UNL     1      61.085  27.622  60.484  1.00  0.00     0.006 C 
BRANCH   5   6
ATOM      6  C   UNL     1      62.021  27.227  61.634  1.00  0.00     0.053 C 
BRANCH   6   7
ATOM      7  C   UNL     1      63.230  26.495  61.137  1.00  0.00     0.041 C 
ATOM      8  O   UNL     1      64.229  27.133  60.714  1.00  0.00    -0.550 OA
ATOM      9  O   UNL     1      63.266  25.106  61.170  1.00  0.00    -0.550 OA
ENDBRANCH   6   7
ENDBRANCH   5   6
ENDBRANCH   4   5
ENDBRANCH   3   4
ENDBRANCH   2   3
ENDBRANCH   1   2
BRANCH   1  10
ATOM     10  C   UNL     1      64.656  31.725  60.491  1.00  0.00     0.027 C 
BRANCH  10  11
ATOM     11  C   UNL     1      63.923  33.040  60.517  1.00  0.00    -0.031 C 
ATOM     12  C   UNL     1      64.338  34.061  61.281  1.00  0.00    -0.031 C 
BRANCH  12  13
ATOM     13  C   UNL     1      63.607  35.378  61.303  1.00  0.00     0.027 C 
BRANCH  13  14
ATOM     14  C   UNL     1      62.499  35.424  60.244  1.00  0.00     0.004 C 
BRANCH  14  15
ATOM     15  C   UNL     1      61.177  35.962  60.810  1.00  0.00     0.000 C 
BRANCH  15  16
ATOM     16  C   UNL     1      59.981  35.184  60.249  1.00  0.00    -0.000 C 
BRANCH  16  17
ATOM     17  C   UNL     1      60.166  33.675  60.445  1.00  0.00    -0.003 C 
ATOM     18  C   UNL     1      59.967  32.919  59.135  1.00  0.00     0.004 C 
ENDBRANCH  16  17
ENDBRANCH  15  16
ENDBRANCH  14  15
ENDBRANCH  13  14
ENDBRANCH  12  13
ENDBRANCH  10  11
ENDBRANCH   1  10
TORSDOF 13
ENDMDL
MODEL 4
REMARK VINA RESULT:    -3.220      4.137      7.755
REMARK INTER + INTRA:          -7.678
REMARK INTER:                  -5.896
REMARK INTRA:                  -1.782
REMARK UNBOUND:                -2.011
REMARK SMILES CCCCCCC=CCCCCCCCC(=O)[O-]
REMARK SMILES IDX 10 1 11 2 12 3 13 4 14 5 15 6 16 7 17 8 18 9 9 10 8 11 7 12
REMARK SMILES IDX 6 13 5 14 4 15 3 16 2 17 1 18
REMARK H PARENT
REMARK Flexibility Score: inf
ROOT
ATOM      1  C   UNL     1      61.149  24.659  51.328  1.00  0.00     0.004 C 
ENDROOT
BRANCH   1   2
ATOM      2  C   UNL     1      62.359  23.917  50.738  1.00  0.00     0.000 C 
BRANCH   2   3
ATOM      3  C   UNL     1      63.495  24.866  50.318  1.00  0.00     0.000 C 
BRANCH   3   4
ATOM      4  C   UNL     1      63.180  26.354  50.573  1.00  0.00     0.000 C 
BRANCH   4   5
ATOM      5  C   UNL     1      63.012  27.144  49.264  1.00  0.00     0.006 C 
BRANCH   5   6
ATOM      6  C   UNL     1      64.282  27.117  48.403  1.00  0.00     0.053 C 
BRANCH   6   7
ATOM      7  C   UNL     1      64.795  28.498  48.130  1.00  0.00     0.041 C 
ATOM      8  O   UNL     1      65.689  28.682  47.263  1.00  0.00    -0.550 OA
ATOM      9  O   UNL     1      64.263  29.586  48.811  1.00  0.00    -0.550 OA
ENDBRANCH   6   7
ENDBRANCH   5   6
ENDBRANCH   4   5
ENDBRANCH   3   4
ENDBRANCH   2   3
ENDBRANCH   1   2
BRANCH   1  10
ATOM     10  C   UNL     1      59.885  24.469  50.480  1.00  0.00     0.027 C 
BRANCH  10  11
ATOM     11  C   UNL     1      59.518  25.732  49.748  1.00  0.00    -0.031 C 
ATOM     12  C   UNL     1      59.588  26.934  50.340  1.00  0.00    -0.031 C 
BRANCH  12  13
ATOM     13  C   UNL     1      59.225  28.198  49.605  1.00  0.00     0.027 C 
BRANCH  13  14
ATOM     14  C   UNL     1      57.826  28.692  49.994  1.00  0.00     0.004 C 
BRANCH  14  15
ATOM     15  C   UNL     1      57.434  28.266  51.416  1.00  0.00     0.000 C 
BRANCH  15  16
ATOM     16  C   UNL     1      56.030  27.650  51.439  1.00  0.00    -0.000 C 
BRANCH  16  17
ATOM     17  C   UNL     1      56.099  26.121  51.367  1.00  0.00    -0.003 C 
ATOM     18  C   UNL     1      55.462  25.599  50.083  1.00  0.00     0.004 C 
ENDBRANCH  16  17
ENDBRANCH  15  16
ENDBRANCH  14  15
ENDBRANCH  13  14
ENDBRANCH  12  13
ENDBRANCH  10  11
ENDBRANCH   1  10
TORSDOF 13
ENDMDL
MODEL 5
REMARK VINA RESULT:    -3.215     10.337     12.975
REMARK INTER + INTRA:          -7.670
REMARK INTER:                  -5.761
REMARK INTRA:                  -1.909
REMARK UNBOUND:                -2.011
REMARK SMILES CCCCCCC=CCCCCCCCC(=O)[O-]
REMARK SMILES IDX 10 1 11 2 12 3 13 4 14 5 15 6 16 7 17 8 18 9 9 10 8 11 7 12
REMARK SMILES IDX 6 13 5 14 4 15 3 16 2 17 1 18
REMARK H PARENT
REMARK Flexibility Score: inf
ROOT
ATOM      1  C   UNL     1      64.461  33.757  60.313  1.00  0.00     0.004 C 
ENDROOT
BRANCH   1   2
ATOM      2  C   UNL     1      64.307  32.357  60.929  1.00  0.00     0.000 C 
BRANCH   2   3
ATOM      3  C   UNL     1      63.203  31.525  60.254  1.00  0.00     0.000 C 
BRANCH   3   4
ATOM      4  C   UNL     1      61.858  31.560  61.008  1.00  0.00     0.000 C 
BRANCH   4   5
ATOM      5  C   UNL     1      61.636  30.295  61.856  1.00  0.00     0.006 C 
BRANCH   5   6
ATOM      6  C   UNL     1      61.010  29.154  61.043  1.00  0.00     0.053 C 
BRANCH   6   7
ATOM      7  C   UNL     1      61.993  28.052  60.787  1.00  0.00     0.041 C 
ATOM      8  O   UNL     1      62.635  28.014  59.705  1.00  0.00    -0.550 OA
ATOM      9  O   UNL     1      62.223  27.085  61.757  1.00  0.00    -0.550 OA
ENDBRANCH   6   7
ENDBRANCH   5   6
ENDBRANCH   4   5
ENDBRANCH   3   4
ENDBRANCH   2   3
ENDBRANCH   1   2
BRANCH   1  10
ATOM     10  C   UNL     1      64.206  34.870  61.336  1.00  0.00     0.027 C 
BRANCH  10  11
ATOM     11  C   UNL     1      62.768  35.316  61.319  1.00  0.00    -0.031 C 
ATOM     12  C   UNL     1      62.014  35.213  60.214  1.00  0.00    -0.031 C 
BRANCH  12  13
ATOM     13  C   UNL     1      60.574  35.655  60.198  1.00  0.00     0.027 C 
BRANCH  13  14
ATOM     14  C   UNL     1      59.619  34.468  60.375  1.00  0.00     0.004 C 
BRANCH  14  15
ATOM     15  C   UNL     1      58.569  34.396  59.256  1.00  0.00     0.000 C 
BRANCH  15  16
ATOM     16  C   UNL     1      59.194  33.897  57.948  1.00  0.00    -0.000 C 
BRANCH  16  17
ATOM     17  C   UNL     1      59.907  32.556  58.154  1.00  0.00    -0.003 C 
ATOM     18  C   UNL     1      61.194  32.483  57.339  1.00  0.00     0.004 C 
ENDBRANCH  16  17
ENDBRANCH  15  16
ENDBRANCH  14  15
ENDBRANCH  13  14
ENDBRANCH  12  13
ENDBRANCH  10  11
ENDBRANCH   1  10
TORSDOF 13
ENDMDL
MODEL 6
REMARK VINA RESULT:    -3.207      2.490      5.601
REMARK INTER + INTRA:          -7.656
REMARK INTER:                  -5.595
REMARK INTRA:                  -2.060
REMARK UNBOUND:                -2.011
REMARK SMILES CCCCCCC=CCCCCCCCC(=O)[O-]
REMARK SMILES IDX 10 1 11 2 12 3 13 4 14 5 15 6 16 7 17 8 18 9 9 10 8 11 7 12
REMARK SMILES IDX 6 13 5 14 4 15 3 16 2 17 1 18
REMARK H PARENT
REMARK Flexibility Score: inf
ROOT
ATOM      1  C   UNL     1      57.991  25.705  51.127  1.00  0.00     0.004 C 
ENDROOT
BRANCH   1   2
ATOM      2  C   UNL     1      59.045  25.514  50.025  1.00  0.00     0.000 C 
BRANCH   2   3
ATOM      3  C   UNL     1      59.800  26.812  49.690  1.00  0.00     0.000 C 
BRANCH   3   4
ATOM      4  C   UNL     1      58.871  27.990  49.335  1.00  0.00     0.000 C 
BRANCH   4   5
ATOM      5  C   UNL     1      59.150  29.230  50.203  1.00  0.00     0.006 C 
BRANCH   5   6
ATOM      6  C   UNL     1      60.031  28.902  51.416  1.00  0.00     0.053 C 
BRANCH   6   7
ATOM      7  C   UNL     1      61.237  29.788  51.479  1.00  0.00     0.041 C 
ATOM      8  O   UNL     1      62.119  29.725  50.583  1.00  0.00    -0.550 OA
ATOM      9  O   UNL     1      61.373  30.708  52.512  1.00  0.00    -0.550 OA
ENDBRANCH   6   7
ENDBRANCH   5   6
ENDBRANCH   4   5
ENDBRANCH   3   4
ENDBRANCH   2   3
ENDBRANCH   1   2
BRANCH   1  10
ATOM     10  C   UNL     1      56.576  25.370  50.639  1.00  0.00     0.027 C 
BRANCH  10  11
ATOM     11  C   UNL     1      55.748  26.614  50.455  1.00  0.00    -0.031 C 
ATOM     12  C   UNL     1      54.409  26.563  50.390  1.00  0.00    -0.031 C 
BRANCH  12  13
ATOM     13  C   UNL     1      53.580  27.808  50.211  1.00  0.00     0.027 C 
BRANCH  13  14
ATOM     14  C   UNL     1      54.359  29.065  50.616  1.00  0.00     0.004 C 
BRANCH  14  15
ATOM     15  C   UNL     1      53.821  29.689  51.912  1.00  0.00     0.000 C 
BRANCH  15  16
ATOM     16  C   UNL     1      54.719  29.340  53.105  1.00  0.00    -0.000 C 
BRANCH  16  17
ATOM     17  C   UNL     1      56.200  29.411  52.717  1.00  0.00    -0.003 C 
ATOM     18  C   UNL     1      57.031  28.422  53.527  1.00  0.00     0.004 C 
ENDBRANCH  16  17
ENDBRANCH  15  16
ENDBRANCH  14  15
ENDBRANCH  13  14
ENDBRANCH  12  13
ENDBRANCH  10  11
ENDBRANCH   1  10
TORSDOF 13
ENDMDL
MODEL 7
REMARK VINA RESULT:    -3.175     10.979     13.173
REMARK INTER + INTRA:          -7.599
REMARK INTER:                  -5.576
REMARK INTRA:                  -2.024
REMARK UNBOUND:                -2.011
REMARK SMILES CCCCCCC=CCCCCCCCC(=O)[O-]
REMARK SMILES IDX 10 1 11 2 12 3 13 4 14 5 15 6 16 7 17 8 18 9 9 10 8 11 7 12
REMARK SMILES IDX 6 13 5 14 4 15 3 16 2 17 1 18
REMARK H PARENT
REMARK Flexibility Score: inf
ROOT
ATOM      1  C   UNL     1      64.096  31.303  58.849  1.00  0.00     0.004 C 
ENDROOT
BRANCH   1   2
ATOM      2  C   UNL     1      62.685  31.878  58.650  1.00  0.00     0.000 C 
BRANCH   2   3
ATOM      3  C   UNL     1      61.601  31.067  59.380  1.00  0.00     0.000 C 
BRANCH   3   4
ATOM      4  C   UNL     1      61.316  31.568  60.810  1.00  0.00     0.000 C 
BRANCH   4   5
ATOM      5  C   UNL     1      61.267  30.416  61.829  1.00  0.00     0.006 C 
BRANCH   5   6
ATOM      6  C   UNL     1      62.433  29.434  61.651  1.00  0.00     0.053 C 
BRANCH   6   7
ATOM      7  C   UNL     1      61.948  28.042  61.383  1.00  0.00     0.041 C 
ATOM      8  O   UNL     1      62.672  27.053  61.668  1.00  0.00    -0.550 OA
ATOM      9  O   UNL     1      60.682  27.836  60.847  1.00  0.00    -0.550 OA
ENDBRANCH   6   7
ENDBRANCH   5   6
ENDBRANCH   4   5
ENDBRANCH   3   4
ENDBRANCH   2   3
ENDBRANCH   1   2
BRANCH   1  10
ATOM     10  C   UNL     1      64.788  31.884  60.088  1.00  0.00     0.027 C 
BRANCH  10  11
ATOM     11  C   UNL     1      64.600  33.375  60.176  1.00  0.00    -0.031 C 
ATOM     12  C   UNL     1      64.040  33.951  61.250  1.00  0.00    -0.031 C 
BRANCH  12  13
ATOM     13  C   UNL     1      63.855  35.443  61.340  1.00  0.00     0.027 C 
BRANCH  13  14
ATOM     14  C   UNL     1      63.651  36.069  59.955  1.00  0.00     0.004 C 
BRANCH  14  15
ATOM     15  C   UNL     1      62.176  36.063  59.527  1.00  0.00     0.000 C 
BRANCH  15  16
ATOM     16  C   UNL     1      61.252  35.899  60.740  1.00  0.00    -0.000 C 
BRANCH  16  17
ATOM     17  C   UNL     1      60.048  35.014  60.399  1.00  0.00    -0.003 C 
ATOM     18  C   UNL     1      60.092  34.559  58.943  1.00  0.00     0.004 C 
ENDBRANCH  16  17
ENDBRANCH  15  16
ENDBRANCH  14  15
ENDBRANCH  13  14
ENDBRANCH  12  13
ENDBRANCH  10  11
ENDBRANCH   1  10
TORSDOF 13
ENDMDL
MODEL 8
REMARK VINA RESULT:    -3.169     10.615     13.027
REMARK INTER + INTRA:          -7.588
REMARK INTER:                  -6.005
REMARK INTRA:                  -1.583
REMARK UNBOUND:                -2.011
REMARK SMILES CCCCCCC=CCCCCCCCC(=O)[O-]
REMARK SMILES IDX 10 1 11 2 12 3 13 4 14 5 15 6 16 7 17 8 18 9 9 10 8 11 7 12
REMARK SMILES IDX 6 13 5 14 4 15 3 16 2 17 1 18
REMARK H PARENT
REMARK Flexibility Score: inf
ROOT
ATOM      1  C   UNL     1      63.422  30.996  60.257  1.00  0.00     0.004 C 
ENDROOT
BRANCH   1   2
ATOM      2  C   UNL     1      62.066  31.286  60.919  1.00  0.00     0.000 C 
BRANCH   2   3
ATOM      3  C   UNL     1      61.578  30.134  61.813  1.00  0.00     0.000 C 
BRANCH   3   4
ATOM      4  C   UNL     1      62.445  28.863  61.707  1.00  0.00     0.000 C 
BRANCH   4   5
ATOM      5  C   UNL     1      61.616  27.625  61.321  1.00  0.00     0.006 C 
BRANCH   5   6
ATOM      6  C   UNL     1      60.257  28.003  60.717  1.00  0.00     0.053 C 
BRANCH   6   7
ATOM      7  C   UNL     1      59.235  26.931  60.939  1.00  0.00     0.041 C 
ATOM      8  O   UNL     1      59.595  25.734  61.093  1.00  0.00    -0.550 OA
ATOM      9  O   UNL     1      57.886  27.257  61.007  1.00  0.00    -0.550 OA
ENDBRANCH   6   7
ENDBRANCH   5   6
ENDBRANCH   4   5
ENDBRANCH   3   4
ENDBRANCH   2   3
ENDBRANCH   1   2
BRANCH   1  10
ATOM     10  C   UNL     1      64.490  32.023  60.652  1.00  0.00     0.027 C 
BRANCH  10  11
ATOM     11  C   UNL     1      63.952  33.428  60.592  1.00  0.00    -0.031 C 
ATOM     12  C   UNL     1      64.336  34.366  61.471  1.00  0.00    -0.031 C 
BRANCH  12  13
ATOM     13  C   UNL     1      63.801  35.773  61.407  1.00  0.00     0.027 C 
BRANCH  13  14
ATOM     14  C   UNL     1      62.750  35.926  60.302  1.00  0.00     0.004 C 
BRANCH  14  15
ATOM     15  C   UNL     1      61.325  36.031  60.866  1.00  0.00     0.000 C 
BRANCH  15  16
ATOM     16  C   UNL     1      60.499  34.790  60.507  1.00  0.00    -0.000 C 
BRANCH  16  17
ATOM     17  C   UNL     1      60.697  34.404  59.037  1.00  0.00    -0.003 C 
ATOM     18  C   UNL     1      59.794  33.238  58.646  1.00  0.00     0.004 C 
ENDBRANCH  16  17
ENDBRANCH  15  16
ENDBRANCH  14  15
ENDBRANCH  13  14
ENDBRANCH  12  13
ENDBRANCH  10  11
ENDBRANCH   1  10
TORSDOF 13
ENDMDL
MODEL 9
REMARK VINA RESULT:    -3.159      4.222      7.454
REMARK INTER + INTRA:          -7.572
REMARK INTER:                  -6.128
REMARK INTRA:                  -1.444
REMARK UNBOUND:                -2.011
REMARK SMILES CCCCCCC=CCCCCCCCC(=O)[O-]
REMARK SMILES IDX 10 1 11 2 12 3 13 4 14 5 15 6 16 7 17 8 18 9 9 10 8 11 7 12
REMARK SMILES IDX 6 13 5 14 4 15 3 16 2 17 1 18
REMARK H PARENT
REMARK Flexibility Score: inf
ROOT
ATOM      1  C   UNL     1      59.184  28.601  49.684  1.00  0.00     0.004 C 
ENDROOT
BRANCH   1   2
ATOM      2  C   UNL     1      59.651  27.138  49.627  1.00  0.00     0.000 C 
BRANCH   2   3
ATOM      3  C   UNL     1      60.562  26.755  50.806  1.00  0.00     0.000 C 
BRANCH   3   4
ATOM      4  C   UNL     1      61.919  26.167  50.370  1.00  0.00     0.000 C 
BRANCH   4   5
ATOM      5  C   UNL     1      62.670  27.097  49.400  1.00  0.00     0.006 C 
BRANCH   5   6
ATOM      6  C   UNL     1      64.139  26.688  49.226  1.00  0.00     0.053 C 
BRANCH   6   7
ATOM      7  C   UNL     1      64.763  27.359  48.041  1.00  0.00     0.041 C 
ATOM      8  O   UNL     1      64.460  28.546  47.751  1.00  0.00    -0.550 OA
ATOM      9  O   UNL     1      65.704  26.684  47.273  1.00  0.00    -0.550 OA
ENDBRANCH   6   7
ENDBRANCH   5   6
ENDBRANCH   4   5
ENDBRANCH   3   4
ENDBRANCH   2   3
ENDBRANCH   1   2
BRANCH   1  10
ATOM     10  C   UNL     1      58.053  28.809  50.699  1.00  0.00     0.027 C 
BRANCH  10  11
ATOM     11  C   UNL     1      56.877  27.916  50.402  1.00  0.00    -0.031 C 
ATOM     12  C   UNL     1      55.635  28.234  50.797  1.00  0.00    -0.031 C 
BRANCH  12  13
ATOM     13  C   UNL     1      54.459  27.344  50.497  1.00  0.00     0.027 C 
BRANCH  13  14
ATOM     14  C   UNL     1      54.905  25.914  50.166  1.00  0.00     0.004 C 
BRANCH  14  15
ATOM     15  C   UNL     1      54.451  24.904  51.230  1.00  0.00     0.000 C 
BRANCH  15  16
ATOM     16  C   UNL     1      55.400  24.909  52.434  1.00  0.00    -0.000 C 
BRANCH  16  17
ATOM     17  C   UNL     1      56.858  24.763  51.985  1.00  0.00    -0.003 C 
ATOM     18  C   UNL     1      57.810  25.432  52.973  1.00  0.00     0.004 C 
ENDBRANCH  16  17
ENDBRANCH  15  16
ENDBRANCH  14  15
ENDBRANCH  13  14
ENDBRANCH  12  13
ENDBRANCH  10  11
ENDBRANCH   1  10
TORSDOF 13
ENDMDL
