MODEL 1
REMARK VINA RESULT:    -5.120      0.000      0.000
REMARK INTER + INTRA:          -7.346
REMARK INTER:                  -7.215
REMARK INTRA:                  -0.130
REMARK UNBOUND:                -0.130
REMARK SMILES CCCCCCCCC(=O)[O-]
REMARK SMILES IDX 6 1 7 2 8 3 9 4 10 5 11 6 5 7 4 8 3 9 2 10 1 11
REMARK H PARENT
REMARK Flexibility Score: inf
ROOT
ATOM      1  C   UNL     1      36.007  43.992  46.015  1.00  0.00     0.000 C 
ENDROOT
BRANCH   1   2
ATOM      2  C   UNL     1      34.577  44.454  45.679  1.00  0.00     0.006 C 
BRANCH   2   3
ATOM      3  C   UNL     1      34.368  44.855  44.210  1.00  0.00     0.053 C 
BRANCH   3   4
ATOM      4  C   UNL     1      32.926  44.803  43.812  1.00  0.00     0.041 C 
ATOM      5  O   UNL     1      32.102  44.145  44.499  1.00  0.00    -0.550 OA
ATOM      6  O   UNL     1      32.497  45.455  42.662  1.00  0.00    -0.550 OA
ENDBRANCH   3   4
ENDBRANCH   2   3
ENDBRANCH   1   2
BRANCH   1   7
ATOM      7  C   UNL     1      36.039  42.633  46.736  1.00  0.00     0.000 C 
BRANCH   7   8
ATOM      8  C   UNL     1      36.346  42.767  48.236  1.00  0.00    -0.000 C 
BRANCH   8   9
ATOM      9  C   UNL     1      37.722  42.197  48.613  1.00  0.00    -0.000 C 
BRANCH   9  10
ATOM     10  C   UNL     1      37.974  42.328  50.120  1.00  0.00    -0.003 C 
ATOM     11  C   UNL     1      39.119  41.425  50.568  1.00  0.00     0.004 C 
ENDBRANCH   9  10
ENDBRANCH   8   9
ENDBRANCH   7   8
ENDBRANCH   1   7
TORSDOF 7
ENDMDL
MODEL 2
REMARK VINA RESULT:    -5.109      4.211      7.000
REMARK INTER + INTRA:          -7.330
REMARK INTER:                  -7.128
REMARK INTRA:                  -0.202
REMARK UNBOUND:                -0.130
REMARK SMILES CCCCCCCCC(=O)[O-]
REMARK SMILES IDX 6 1 7 2 8 3 9 4 10 5 11 6 5 7 4 8 3 9 2 10 1 11
REMARK H PARENT
REMARK Flexibility Score: inf
ROOT
ATOM      1  C   UNL     1      35.945  42.678  46.803  1.00  0.00     0.000 C 
ENDROOT
BRANCH   1   2
ATOM      2  C   UNL     1      37.246  42.465  47.599  1.00  0.00     0.006 C 
BRANCH   2   3
ATOM      3  C   UNL     1      37.073  42.517  49.125  1.00  0.00     0.053 C 
BRANCH   3   4
ATOM      4  C   UNL     1      38.341  42.183  49.848  1.00  0.00     0.041 C 
ATOM      5  O   UNL     1      38.934  41.097  49.616  1.00  0.00    -0.550 OA
ATOM      6  O   UNL     1      38.849  43.055  50.802  1.00  0.00    -0.550 OA
ENDBRANCH   3   4
ENDBRANCH   2   3
ENDBRANCH   1   2
BRANCH   1   7
ATOM      7  C   UNL     1      35.853  44.081  46.178  1.00  0.00     0.000 C 
BRANCH   7   8
ATOM      8  C   UNL     1      34.430  44.424  45.707  1.00  0.00    -0.000 C 
BRANCH   8   9
ATOM      9  C   UNL     1      34.381  44.858  44.234  1.00  0.00    -0.000 C 
BRANCH   9  10
ATOM     10  C   UNL     1      32.952  44.769  43.684  1.00  0.00    -0.003 C 
ATOM     11  C   UNL     1      31.997  44.190  44.722  1.00  0.00     0.004 C 
ENDBRANCH   9  10
ENDBRANCH   8   9
ENDBRANCH   7   8
ENDBRANCH   1   7
TORSDOF 7
ENDMDL
MODEL 3
REMARK VINA RESULT:    -5.014      1.623      2.201
REMARK INTER + INTRA:          -7.196
REMARK INTER:                  -6.771
REMARK INTRA:                  -0.426
REMARK UNBOUND:                -0.130
REMARK SMILES CCCCCCCCC(=O)[O-]
REMARK SMILES IDX 6 1 7 2 8 3 9 4 10 5 11 6 5 7 4 8 3 9 2 10 1 11
REMARK H PARENT
REMARK Flexibility Score: inf
ROOT
ATOM      1  C   UNL     1      36.062  42.615  46.713  1.00  0.00     0.000 C 
ENDROOT
BRANCH   1   2
ATOM      2  C   UNL     1      35.919  44.080  46.262  1.00  0.00     0.006 C 
BRANCH   2   3
ATOM      3  C   UNL     1      34.580  44.408  45.583  1.00  0.00     0.053 C 
BRANCH   3   4
ATOM      4  C   UNL     1      33.409  44.059  46.448  1.00  0.00     0.041 C 
ATOM      5  O   UNL     1      32.482  43.336  45.996  1.00  0.00    -0.550 OA
ATOM      6  O   UNL     1      33.325  44.558  47.741  1.00  0.00    -0.550 OA
ENDBRANCH   3   4
ENDBRANCH   2   3
ENDBRANCH   1   2
BRANCH   1   7
ATOM      7  C   UNL     1      36.916  42.464  47.984  1.00  0.00     0.000 C 
BRANCH   7   8
ATOM      8  C   UNL     1      36.189  42.959  49.245  1.00  0.00    -0.000 C 
BRANCH   8   9
ATOM      9  C   UNL     1      36.925  42.581  50.540  1.00  0.00    -0.000 C 
BRANCH   9  10
ATOM     10  C   UNL     1      38.443  42.701  50.361  1.00  0.00    -0.003 C 
ATOM     11  C   UNL     1      39.158  41.449  50.857  1.00  0.00     0.004 C 
ENDBRANCH   9  10
ENDBRANCH   8   9
ENDBRANCH   7   8
ENDBRANCH   1   7
TORSDOF 7
ENDMDL
MODEL 4
REMARK VINA RESULT:    -4.948      3.090      6.374
REMARK INTER + INTRA:          -7.104
REMARK INTER:                  -6.667
REMARK INTRA:                  -0.436
REMARK UNBOUND:                -0.130
REMARK SMILES CCCCCCCCC(=O)[O-]
REMARK SMILES IDX 6 1 7 2 8 3 9 4 10 5 11 6 5 7 4 8 3 9 2 10 1 11
REMARK H PARENT
REMARK Flexibility Score: inf
ROOT
ATOM      1  C   UNL     1      35.862  44.294  46.355  1.00  0.00     0.000 C 
ENDROOT
BRANCH   1   2
ATOM      2  C   UNL     1      36.152  42.811  46.651  1.00  0.00     0.006 C 
BRANCH   2   3
ATOM      3  C   UNL     1      36.697  42.540  48.062  1.00  0.00     0.053 C 
BRANCH   3   4
ATOM      4  C   UNL     1      35.712  42.910  49.128  1.00  0.00     0.041 C 
ATOM      5  O   UNL     1      36.079  43.592  50.120  1.00  0.00    -0.550 OA
ATOM      6  O   UNL     1      34.396  42.474  49.041  1.00  0.00    -0.550 OA
ENDBRANCH   3   4
ENDBRANCH   2   3
ENDBRANCH   1   2
BRANCH   1   7
ATOM      7  C   UNL     1      34.712  44.486  45.351  1.00  0.00     0.000 C 
BRANCH   7   8
ATOM      8  C   UNL     1      33.343  44.113  45.944  1.00  0.00    -0.000 C 
BRANCH   8   9
ATOM      9  C   UNL     1      32.209  44.186  44.910  1.00  0.00    -0.000 C 
BRANCH   9  10
ATOM     10  C   UNL     1      32.766  44.438  43.503  1.00  0.00    -0.003 C 
ATOM     11  C   UNL     1      32.018  45.571  42.808  1.00  0.00     0.004 C 
ENDBRANCH   9  10
ENDBRANCH   8   9
ENDBRANCH   7   8
ENDBRANCH   1   7
TORSDOF 7
ENDMDL
MODEL 5
REMARK VINA RESULT:    -4.873      1.439      2.211
REMARK INTER + INTRA:          -6.998
REMARK INTER:                  -6.519
REMARK INTRA:                  -0.479
REMARK UNBOUND:                -0.130
REMARK SMILES CCCCCCCCC(=O)[O-]
REMARK SMILES IDX 6 1 7 2 8 3 9 4 10 5 11 6 5 7 4 8 3 9 2 10 1 11
REMARK H PARENT
REMARK Flexibility Score: inf
ROOT
ATOM      1  C   UNL     1      35.900  44.043  46.104  1.00  0.00     0.000 C 
ENDROOT
BRANCH   1   2
ATOM      2  C   UNL     1      34.456  44.340  45.662  1.00  0.00     0.006 C 
BRANCH   2   3
ATOM      3  C   UNL     1      34.326  44.871  44.226  1.00  0.00     0.053 C 
BRANCH   3   4
ATOM      4  C   UNL     1      32.925  44.765  43.710  1.00  0.00     0.041 C 
ATOM      5  O   UNL     1      32.122  43.940  44.222  1.00  0.00    -0.550 OA
ATOM      6  O   UNL     1      32.514  45.553  42.642  1.00  0.00    -0.550 OA
ENDBRANCH   3   4
ENDBRANCH   2   3
ENDBRANCH   1   2
BRANCH   1   7
ATOM      7  C   UNL     1      36.058  42.643  46.722  1.00  0.00     0.000 C 
BRANCH   7   8
ATOM      8  C   UNL     1      36.437  42.695  48.212  1.00  0.00    -0.000 C 
BRANCH   8   9
ATOM      9  C   UNL     1      35.226  42.951  49.123  1.00  0.00    -0.000 C 
BRANCH   9  10
ATOM     10  C   UNL     1      35.439  44.207  49.976  1.00  0.00    -0.003 C 
ATOM     11  C   UNL     1      34.742  45.417  49.360  1.00  0.00     0.004 C 
ENDBRANCH   9  10
ENDBRANCH   8   9
ENDBRANCH   7   8
ENDBRANCH   1   7
TORSDOF 7
ENDMDL
MODEL 6
REMARK VINA RESULT:    -4.868      4.444      7.055
REMARK INTER + INTRA:          -6.990
REMARK INTER:                  -6.618
REMARK INTRA:                  -0.372
REMARK UNBOUND:                -0.130
REMARK SMILES CCCCCCCCC(=O)[O-]
REMARK SMILES IDX 6 1 7 2 8 3 9 4 10 5 11 6 5 7 4 8 3 9 2 10 1 11
REMARK H PARENT
REMARK Flexibility Score: inf
ROOT
ATOM      1  C   UNL     1      36.124  43.060  49.288  1.00  0.00     0.000 C 
ENDROOT
BRANCH   1   2
ATOM      2  C   UNL     1      36.836  42.573  50.563  1.00  0.00     0.006 C 
BRANCH   2   3
ATOM      3  C   UNL     1      38.342  42.875  50.605  1.00  0.00     0.053 C 
BRANCH   3   4
ATOM      4  C   UNL     1      39.167  41.625  50.634  1.00  0.00     0.041 C 
ATOM      5  O   UNL     1      39.212  40.873  49.625  1.00  0.00    -0.550 OA
ATOM      6  O   UNL     1      39.858  41.273  51.787  1.00  0.00    -0.550 OA
ENDBRANCH   3   4
ENDBRANCH   2   3
ENDBRANCH   1   2
BRANCH   1   7
ATOM      7  C   UNL     1      36.800  42.557  48.000  1.00  0.00     0.000 C 
BRANCH   7   8
ATOM      8  C   UNL     1      35.822  42.468  46.817  1.00  0.00    -0.000 C 
BRANCH   8   9
ATOM      9  C   UNL     1      34.392  42.882  47.196  1.00  0.00    -0.000 C 
BRANCH   9  10
ATOM     10  C   UNL     1      33.952  44.119  46.405  1.00  0.00    -0.003 C 
ATOM     11  C   UNL     1      35.012  44.528  45.387  1.00  0.00     0.004 C 
ENDBRANCH   9  10
ENDBRANCH   8   9
ENDBRANCH   7   8
ENDBRANCH   1   7
TORSDOF 7
ENDMDL
MODEL 7
REMARK VINA RESULT:    -4.864      2.239      3.154
REMARK INTER + INTRA:          -6.985
REMARK INTER:                  -6.514
REMARK INTRA:                  -0.471
REMARK UNBOUND:                -0.130
REMARK SMILES CCCCCCCCC(=O)[O-]
REMARK SMILES IDX 6 1 7 2 8 3 9 4 10 5 11 6 5 7 4 8 3 9 2 10 1 11
REMARK H PARENT
REMARK Flexibility Score: inf
ROOT
ATOM      1  C   UNL     1      34.623  42.681  49.585  1.00  0.00     0.000 C 
ENDROOT
BRANCH   1   2
ATOM      2  C   UNL     1      34.078  43.180  48.234  1.00  0.00     0.006 C 
BRANCH   2   3
ATOM      3  C   UNL     1      34.866  44.349  47.623  1.00  0.00     0.053 C 
BRANCH   3   4
ATOM      4  C   UNL     1      35.541  43.965  46.343  1.00  0.00     0.041 C 
ATOM      5  O   UNL     1      36.441  43.085  46.340  1.00  0.00    -0.550 OA
ATOM      6  O   UNL     1      35.199  44.603  45.157  1.00  0.00    -0.550 OA
ENDBRANCH   3   4
ENDBRANCH   2   3
ENDBRANCH   1   2
BRANCH   1   7
ATOM      7  C   UNL     1      35.810  43.518  50.092  1.00  0.00     0.000 C 
BRANCH   7   8
ATOM      8  C   UNL     1      37.011  42.650  50.504  1.00  0.00    -0.000 C 
BRANCH   8   9
ATOM      9  C   UNL     1      37.919  42.294  49.317  1.00  0.00    -0.000 C 
BRANCH   9  10
ATOM     10  C   UNL     1      38.937  41.216  49.711  1.00  0.00    -0.003 C 
ATOM     11  C   UNL     1      39.378  41.377  51.162  1.00  0.00     0.004 C 
ENDBRANCH   9  10
ENDBRANCH   8   9
ENDBRANCH   7   8
ENDBRANCH   1   7
TORSDOF 7
ENDMDL
MODEL 8
REMARK VINA RESULT:    -4.834      3.064      6.409
REMARK INTER + INTRA:          -6.942
REMARK INTER:                  -6.552
REMARK INTRA:                  -0.390
REMARK UNBOUND:                -0.130
REMARK SMILES CCCCCCCCC(=O)[O-]
REMARK SMILES IDX 6 1 7 2 8 3 9 4 10 5 11 6 5 7 4 8 3 9 2 10 1 11
REMARK H PARENT
REMARK Flexibility Score: inf
ROOT
ATOM      1  C   UNL     1      33.647  43.352  47.589  1.00  0.00     0.000 C 
ENDROOT
BRANCH   1   2
ATOM      2  C   UNL     1      34.973  43.924  48.121  1.00  0.00     0.006 C 
BRANCH   2   3
ATOM      3  C   UNL     1      35.855  42.904  48.859  1.00  0.00     0.053 C 
BRANCH   3   4
ATOM      4  C   UNL     1      37.036  42.484  48.040  1.00  0.00     0.041 C 
ATOM      5  O   UNL     1      38.062  42.019  48.601  1.00  0.00    -0.550 OA
ATOM      6  O   UNL     1      37.016  42.637  46.659  1.00  0.00    -0.550 OA
ENDBRANCH   3   4
ENDBRANCH   2   3
ENDBRANCH   1   2
BRANCH   1   7
ATOM      7  C   UNL     1      33.275  43.904  46.201  1.00  0.00     0.000 C 
BRANCH   7   8
ATOM      8  C   UNL     1      34.468  44.563  45.489  1.00  0.00    -0.000 C 
BRANCH   8   9
ATOM      9  C   UNL     1      34.168  44.903  44.021  1.00  0.00    -0.000 C 
BRANCH   9  10
ATOM     10  C   UNL     1      32.707  44.594  43.675  1.00  0.00    -0.003 C 
ATOM     11  C   UNL     1      32.204  45.494  42.551  1.00  0.00     0.004 C 
ENDBRANCH   9  10
ENDBRANCH   8   9
ENDBRANCH   7   8
ENDBRANCH   1   7
TORSDOF 7
ENDMDL
MODEL 9
REMARK VINA RESULT:    -4.731      4.262      6.367
REMARK INTER + INTRA:          -6.797
REMARK INTER:                  -6.299
REMARK INTRA:                  -0.497
REMARK UNBOUND:                -0.130
REMARK SMILES CCCCCCCCC(=O)[O-]
REMARK SMILES IDX 6 1 7 2 8 3 9 4 10 5 11 6 5 7 4 8 3 9 2 10 1 11
REMARK H PARENT
REMARK Flexibility Score: inf
ROOT
ATOM      1  C   UNL     1      36.597  42.792  46.794  1.00  0.00     0.000 C 
ENDROOT
BRANCH   1   2
ATOM      2  C   UNL     1      36.772  42.612  48.313  1.00  0.00     0.006 C 
BRANCH   2   3
ATOM      3  C   UNL     1      38.100  41.959  48.727  1.00  0.00     0.053 C 
BRANCH   3   4
ATOM      4  C   UNL     1      38.399  42.165  50.180  1.00  0.00     0.041 C 
ATOM      5  O   UNL     1      39.122  41.341  50.800  1.00  0.00    -0.550 OA
ATOM      6  O   UNL     1      37.854  43.248  50.857  1.00  0.00    -0.550 OA
ENDBRANCH   3   4
ENDBRANCH   2   3
ENDBRANCH   1   2
BRANCH   1   7
ATOM      7  C   UNL     1      35.825  44.073  46.431  1.00  0.00     0.000 C 
BRANCH   7   8
ATOM      8  C   UNL     1      34.310  43.837  46.321  1.00  0.00    -0.000 C 
BRANCH   8   9
ATOM      9  C   UNL     1      33.561  44.174  47.619  1.00  0.00    -0.000 C 
BRANCH   9  10
ATOM     10  C   UNL     1      33.036  42.901  48.294  1.00  0.00    -0.003 C 
ATOM     11  C   UNL     1      32.928  41.752  47.296  1.00  0.00     0.004 C 
ENDBRANCH   9  10
ENDBRANCH   8   9
ENDBRANCH   7   8
ENDBRANCH   1   7
TORSDOF 7
ENDMDL
