MODEL 1
REMARK VINA RESULT:    -4.715      0.000      0.000
REMARK INTER + INTRA:         -10.630
REMARK INTER:                  -8.850
REMARK INTRA:                  -1.781
REMARK UNBOUND:                -1.781
REMARK SMILES O=C([O-])CCCCCCCCCCCCCCC(=O)[O-]
REMARK SMILES IDX 10 1 9 2 8 3 7 4 6 5 5 6 4 7 2 8 1 9 3 10 11 11 12 12 13 13
REMARK SMILES IDX 14 14 15 15 16 16 17 17 18 18 19 19 20 20
REMARK H PARENT
REMARK Flexibility Score: inf
ROOT
ATOM      1  C   UNL     1      19.095  28.324  31.943  1.00  0.00     0.000 C 
ENDROOT
BRANCH   1   2
ATOM      2  C   UNL     1      19.219  27.748  33.363  1.00  0.00     0.000 C 
BRANCH   2   3
ATOM      3  C   UNL     1      18.326  28.480  34.379  1.00  0.00     0.000 C 
BRANCH   3   4
ATOM      4  C   UNL     1      19.137  29.321  35.379  1.00  0.00     0.000 C 
BRANCH   4   5
ATOM      5  C   UNL     1      18.380  30.577  35.847  1.00  0.00     0.000 C 
BRANCH   5   6
ATOM      6  C   UNL     1      17.042  30.766  35.114  1.00  0.00     0.006 C 
BRANCH   6   7
ATOM      7  C   UNL     1      17.055  31.971  34.164  1.00  0.00     0.053 C 
BRANCH   7   8
ATOM      8  C   UNL     1      16.115  33.028  34.648  1.00  0.00     0.041 C 
ATOM      9  O   UNL     1      15.572  33.817  33.831  1.00  0.00    -0.550 OA
ATOM     10  O   UNL     1      15.800  33.113  35.999  1.00  0.00    -0.550 OA
ENDBRANCH   7   8
ENDBRANCH   6   7
ENDBRANCH   5   6
ENDBRANCH   4   5
ENDBRANCH   3   4
ENDBRANCH   2   3
ENDBRANCH   1   2
BRANCH   1  11
ATOM     11  C   UNL     1      17.871  29.237  31.778  1.00  0.00     0.000 C 
BRANCH  11  12
ATOM     12  C   UNL     1      18.224  30.480  30.946  1.00  0.00     0.000 C 
BRANCH  12  13
ATOM     13  C   UNL     1      19.190  30.167  29.791  1.00  0.00     0.000 C 
BRANCH  13  14
ATOM     14  C   UNL     1      18.496  30.191  28.419  1.00  0.00     0.000 C 
BRANCH  14  15
ATOM     15  C   UNL     1      18.785  28.933  27.582  1.00  0.00     0.000 C 
BRANCH  15  16
ATOM     16  C   UNL     1      17.614  27.928  27.551  1.00  0.00     0.006 C 
BRANCH  16  17
ATOM     17  C   UNL     1      17.635  26.977  28.755  1.00  0.00     0.053 C 
BRANCH  17  18
ATOM     18  C   UNL     1      18.744  25.983  28.619  1.00  0.00     0.041 C 
ATOM     19  O   UNL     1      19.708  25.993  29.431  1.00  0.00    -0.550 OA
ATOM     20  O   UNL     1      18.741  25.077  27.566  1.00  0.00    -0.550 OA
ENDBRANCH  17  18
ENDBRANCH  16  17
ENDBRANCH  15  16
ENDBRANCH  14  15
ENDBRANCH  13  14
ENDBRANCH  12  13
ENDBRANCH  11  12
ENDBRANCH   1  11
TORSDOF 15
ENDMDL
MODEL 2
REMARK VINA RESULT:    -4.708      1.923      3.473
REMARK INTER + INTRA:         -10.617
REMARK INTER:                  -9.293
REMARK INTRA:                  -1.323
REMARK UNBOUND:                -1.781
REMARK SMILES O=C([O-])CCCCCCCCCCCCCCC(=O)[O-]
REMARK SMILES IDX 10 1 9 2 8 3 7 4 6 5 5 6 4 7 2 8 1 9 3 10 11 11 12 12 13 13
REMARK SMILES IDX 14 14 15 15 16 16 17 17 18 18 19 19 20 20
REMARK H PARENT
REMARK Flexibility Score: inf
ROOT
ATOM      1  C   UNL     1      18.444  30.488  29.904  1.00  0.00     0.000 C 
ENDROOT
BRANCH   1   2
ATOM      2  C   UNL     1      18.327  29.142  30.638  1.00  0.00     0.000 C 
BRANCH   2   3
ATOM      3  C   UNL     1      19.529  28.864  31.559  1.00  0.00     0.000 C 
BRANCH   3   4
ATOM      4  C   UNL     1      19.502  27.446  32.151  1.00  0.00     0.000 C 
BRANCH   4   5
ATOM      5  C   UNL     1      19.361  27.446  33.684  1.00  0.00     0.000 C 
BRANCH   5   6
ATOM      6  C   UNL     1      19.053  28.843  34.247  1.00  0.00     0.006 C 
BRANCH   6   7
ATOM      7  C   UNL     1      17.639  28.945  34.833  1.00  0.00     0.053 C 
BRANCH   7   8
ATOM      8  C   UNL     1      17.062  30.300  34.572  1.00  0.00     0.041 C 
ATOM      9  O   UNL     1      17.048  30.770  33.404  1.00  0.00    -0.550 OA
ATOM     10  O   UNL     1      16.496  31.027  35.612  1.00  0.00    -0.550 OA
ENDBRANCH   7   8
ENDBRANCH   6   7
ENDBRANCH   5   6
ENDBRANCH   4   5
ENDBRANCH   3   4
ENDBRANCH   2   3
ENDBRANCH   1   2
BRANCH   1  11
ATOM     11  C   UNL     1      18.333  30.344  28.379  1.00  0.00     0.000 C 
BRANCH  11  12
ATOM     12  C   UNL     1      18.879  28.983  27.917  1.00  0.00     0.000 C 
BRANCH  12  13
ATOM     13  C   UNL     1      17.790  28.079  27.317  1.00  0.00     0.000 C 
BRANCH  13  14
ATOM     14  C   UNL     1      18.236  26.612  27.206  1.00  0.00     0.000 C 
BRANCH  14  15
ATOM     15  C   UNL     1      18.531  25.974  28.574  1.00  0.00     0.000 C 
BRANCH  15  16
ATOM     16  C   UNL     1      19.599  24.861  28.522  1.00  0.00     0.006 C 
BRANCH  16  17
ATOM     17  C   UNL     1      19.005  23.509  28.103  1.00  0.00     0.053 C 
BRANCH  17  18
ATOM     18  C   UNL     1      19.219  22.488  29.175  1.00  0.00     0.041 C 
ATOM     19  O   UNL     1      18.505  21.451  29.215  1.00  0.00    -0.550 OA
ATOM     20  O   UNL     1      20.174  22.705  30.161  1.00  0.00    -0.550 OA
ENDBRANCH  17  18
ENDBRANCH  16  17
ENDBRANCH  15  16
ENDBRANCH  14  15
ENDBRANCH  13  14
ENDBRANCH  12  13
ENDBRANCH  11  12
ENDBRANCH   1  11
TORSDOF 15
ENDMDL
MODEL 3
REMARK VINA RESULT:    -4.678      1.689      7.589
REMARK INTER + INTRA:         -10.561
REMARK INTER:                  -9.314
REMARK INTRA:                  -1.247
REMARK UNBOUND:                -1.781
REMARK SMILES O=C([O-])CCCCCCCCCCCCCCC(=O)[O-]
REMARK SMILES IDX 10 1 9 2 8 3 7 4 6 5 5 6 4 7 2 8 1 9 3 10 11 11 12 12 13 13
REMARK SMILES IDX 14 14 15 15 16 16 17 17 18 18 19 19 20 20
REMARK H PARENT
REMARK Flexibility Score: inf
ROOT
ATOM      1  C   UNL     1      19.605  27.157  34.778  1.00  0.00     0.000 C 
ENDROOT
BRANCH   1   2
ATOM      2  C   UNL     1      20.550  26.986  33.577  1.00  0.00     0.000 C 
BRANCH   2   3
ATOM      3  C   UNL     1      19.809  27.035  32.229  1.00  0.00     0.000 C 
BRANCH   3   4
ATOM      4  C   UNL     1      19.075  28.368  32.009  1.00  0.00     0.000 C 
BRANCH   4   5
ATOM      5  C   UNL     1      18.246  28.379  30.712  1.00  0.00     0.000 C 
BRANCH   5   6
ATOM      6  C   UNL     1      18.910  27.579  29.580  1.00  0.00     0.006 C 
BRANCH   6   7
ATOM      7  C   UNL     1      17.897  26.781  28.749  1.00  0.00     0.053 C 
BRANCH   7   8
ATOM      8  C   UNL     1      17.792  27.349  27.369  1.00  0.00     0.041 C 
ATOM      9  O   UNL     1      17.817  28.596  27.193  1.00  0.00    -0.550 OA
ATOM     10  O   UNL     1      17.713  26.501  26.272  1.00  0.00    -0.550 OA
ENDBRANCH   7   8
ENDBRANCH   6   7
ENDBRANCH   5   6
ENDBRANCH   4   5
ENDBRANCH   3   4
ENDBRANCH   2   3
ENDBRANCH   1   2
BRANCH   1  11
ATOM     11  C   UNL     1      20.004  28.330  35.685  1.00  0.00     0.000 C 
BRANCH  11  12
ATOM     12  C   UNL     1      18.914  29.413  35.688  1.00  0.00     0.000 C 
BRANCH  12  13
ATOM     13  C   UNL     1      17.636  28.973  34.956  1.00  0.00     0.000 C 
BRANCH  13  14
ATOM     14  C   UNL     1      16.592  30.097  34.864  1.00  0.00     0.000 C 
BRANCH  14  15
ATOM     15  C   UNL     1      16.534  30.745  33.470  1.00  0.00     0.000 C 
BRANCH  15  16
ATOM     16  C   UNL     1      16.855  32.255  33.474  1.00  0.00     0.006 C 
BRANCH  16  17
ATOM     17  C   UNL     1      16.292  32.963  34.714  1.00  0.00     0.053 C 
BRANCH  17  18
ATOM     18  C   UNL     1      15.606  34.233  34.325  1.00  0.00     0.041 C 
ATOM     19  O   UNL     1      15.049  34.335  33.200  1.00  0.00    -0.550 OA
ATOM     20  O   UNL     1      15.625  35.325  35.184  1.00  0.00    -0.550 OA
ENDBRANCH  17  18
ENDBRANCH  16  17
ENDBRANCH  15  16
ENDBRANCH  14  15
ENDBRANCH  13  14
ENDBRANCH  12  13
ENDBRANCH  11  12
ENDBRANCH   1  11
TORSDOF 15
ENDMDL
MODEL 4
REMARK VINA RESULT:    -4.663      1.046      7.683
REMARK INTER + INTRA:         -10.533
REMARK INTER:                  -8.691
REMARK INTRA:                  -1.842
REMARK UNBOUND:                -1.781
REMARK SMILES O=C([O-])CCCCCCCCCCCCCCC(=O)[O-]
REMARK SMILES IDX 10 1 9 2 8 3 7 4 6 5 5 6 4 7 2 8 1 9 3 10 11 11 12 12 13 13
REMARK SMILES IDX 14 14 15 15 16 16 17 17 18 18 19 19 20 20
REMARK H PARENT
REMARK Flexibility Score: inf
ROOT
ATOM      1  C   UNL     1      19.012  27.843  31.228  1.00  0.00     0.000 C 
ENDROOT
BRANCH   1   2
ATOM      2  C   UNL     1      17.961  28.830  30.694  1.00  0.00     0.000 C 
BRANCH   2   3
ATOM      3  C   UNL     1      18.590  30.001  29.919  1.00  0.00     0.000 C 
BRANCH   3   4
ATOM      4  C   UNL     1      18.267  29.955  28.417  1.00  0.00     0.000 C 
BRANCH   4   5
ATOM      5  C   UNL     1      19.462  29.480  27.569  1.00  0.00     0.000 C 
BRANCH   5   6
ATOM      6  C   UNL     1      19.102  28.300  26.652  1.00  0.00     0.006 C 
BRANCH   6   7
ATOM      7  C   UNL     1      18.223  27.255  27.353  1.00  0.00     0.053 C 
BRANCH   7   8
ATOM      8  C   UNL     1      19.048  26.085  27.785  1.00  0.00     0.041 C 
ATOM      9  O   UNL     1      18.611  24.913  27.641  1.00  0.00    -0.550 OA
ATOM     10  O   UNL     1      20.321  26.285  28.305  1.00  0.00    -0.550 OA
ENDBRANCH   7   8
ENDBRANCH   6   7
ENDBRANCH   5   6
ENDBRANCH   4   5
ENDBRANCH   3   4
ENDBRANCH   2   3
ENDBRANCH   1   2
BRANCH   1  11
ATOM     11  C   UNL     1      19.720  28.354  32.492  1.00  0.00     0.000 C 
BRANCH  11  12
ATOM     12  C   UNL     1      19.502  27.391  33.668  1.00  0.00     0.000 C 
BRANCH  12  13
ATOM     13  C   UNL     1      19.238  28.123  34.995  1.00  0.00     0.000 C 
BRANCH  13  14
ATOM     14  C   UNL     1      18.604  29.508  34.787  1.00  0.00     0.000 C 
BRANCH  14  15
ATOM     15  C   UNL     1      17.067  29.462  34.761  1.00  0.00     0.000 C 
BRANCH  15  16
ATOM     16  C   UNL     1      16.442  30.298  33.623  1.00  0.00     0.006 C 
BRANCH  16  17
ATOM     17  C   UNL     1      17.278  31.542  33.293  1.00  0.00     0.053 C 
BRANCH  17  18
ATOM     18  C   UNL     1      16.764  32.732  34.040  1.00  0.00     0.041 C 
ATOM     19  O   UNL     1      17.321  33.097  35.109  1.00  0.00    -0.550 OA
ATOM     20  O   UNL     1      15.640  33.408  33.583  1.00  0.00    -0.550 OA
ENDBRANCH  17  18
ENDBRANCH  16  17
ENDBRANCH  15  16
ENDBRANCH  14  15
ENDBRANCH  13  14
ENDBRANCH  12  13
ENDBRANCH  11  12
ENDBRANCH   1  11
TORSDOF 15
ENDMDL
MODEL 5
REMARK VINA RESULT:    -4.648      1.848      3.823
REMARK INTER + INTRA:         -10.504
REMARK INTER:                  -8.748
REMARK INTRA:                  -1.757
REMARK UNBOUND:                -1.781
REMARK SMILES O=C([O-])CCCCCCCCCCCCCCC(=O)[O-]
REMARK SMILES IDX 10 1 9 2 8 3 7 4 6 5 5 6 4 7 2 8 1 9 3 10 11 11 12 12 13 13
REMARK SMILES IDX 14 14 15 15 16 16 17 17 18 18 19 19 20 20
REMARK H PARENT
REMARK Flexibility Score: inf
ROOT
ATOM      1  C   UNL     1      18.159  30.334  35.548  1.00  0.00     0.000 C 
ENDROOT
BRANCH   1   2
ATOM      2  C   UNL     1      16.889  29.986  34.753  1.00  0.00     0.000 C 
BRANCH   2   3
ATOM      3  C   UNL     1      16.608  30.989  33.621  1.00  0.00     0.000 C 
BRANCH   3   4
ATOM      4  C   UNL     1      17.090  32.409  33.958  1.00  0.00     0.000 C 
BRANCH   4   5
ATOM      5  C   UNL     1      15.935  33.425  34.033  1.00  0.00     0.000 C 
BRANCH   5   6
ATOM      6  C   UNL     1      15.750  34.002  35.445  1.00  0.00     0.006 C 
BRANCH   6   7
ATOM      7  C   UNL     1      16.818  33.508  36.430  1.00  0.00     0.053 C 
BRANCH   7   8
ATOM      8  C   UNL     1      16.198  32.643  37.481  1.00  0.00     0.041 C 
ATOM      9  O   UNL     1      16.743  32.529  38.610  1.00  0.00    -0.550 OA
ATOM     10  O   UNL     1      14.993  32.000  37.231  1.00  0.00    -0.550 OA
ENDBRANCH   7   8
ENDBRANCH   6   7
ENDBRANCH   5   6
ENDBRANCH   4   5
ENDBRANCH   3   4
ENDBRANCH   2   3
ENDBRANCH   1   2
BRANCH   1  11
ATOM     11  C   UNL     1      19.190  29.195  35.549  1.00  0.00     0.000 C 
BRANCH  11  12
ATOM     12  C   UNL     1      18.686  28.001  34.722  1.00  0.00     0.000 C 
BRANCH  12  13
ATOM     13  C   UNL     1      19.799  27.345  33.888  1.00  0.00     0.000 C 
BRANCH  13  14
ATOM     14  C   UNL     1      19.491  27.356  32.382  1.00  0.00     0.000 C 
BRANCH  14  15
ATOM     15  C   UNL     1      19.115  28.754  31.861  1.00  0.00     0.000 C 
BRANCH  15  16
ATOM     16  C   UNL     1      17.868  28.761  30.951  1.00  0.00     0.006 C 
BRANCH  16  17
ATOM     17  C   UNL     1      18.118  28.036  29.621  1.00  0.00     0.053 C 
BRANCH  17  18
ATOM     18  C   UNL     1      18.347  29.023  28.521  1.00  0.00     0.041 C 
ATOM     19  O   UNL     1      18.301  30.259  28.759  1.00  0.00    -0.550 OA
ATOM     20  O   UNL     1      18.559  28.579  27.222  1.00  0.00    -0.550 OA
ENDBRANCH  17  18
ENDBRANCH  16  17
ENDBRANCH  15  16
ENDBRANCH  14  15
ENDBRANCH  13  14
ENDBRANCH  12  13
ENDBRANCH  11  12
ENDBRANCH   1  11
TORSDOF 15
ENDMDL
MODEL 6
REMARK VINA RESULT:    -4.603      1.203      1.436
REMARK INTER + INTRA:         -10.419
REMARK INTER:                  -8.432
REMARK INTRA:                  -1.987
REMARK UNBOUND:                -1.781
REMARK SMILES O=C([O-])CCCCCCCCCCCCCCC(=O)[O-]
REMARK SMILES IDX 10 1 9 2 8 3 7 4 6 5 5 6 4 7 2 8 1 9 3 10 11 11 12 12 13 13
REMARK SMILES IDX 14 14 15 15 16 16 17 17 18 18 19 19 20 20
REMARK H PARENT
REMARK Flexibility Score: inf
ROOT
ATOM      1  C   UNL     1      18.870  27.907  31.759  1.00  0.00     0.000 C 
ENDROOT
BRANCH   1   2
ATOM      2  C   UNL     1      19.682  28.575  32.881  1.00  0.00     0.000 C 
BRANCH   2   3
ATOM      3  C   UNL     1      19.206  28.160  34.284  1.00  0.00     0.000 C 
BRANCH   3   4
ATOM      4  C   UNL     1      17.844  28.773  34.649  1.00  0.00     0.000 C 
BRANCH   4   5
ATOM      5  C   UNL     1      17.844  30.310  34.561  1.00  0.00     0.000 C 
BRANCH   5   6
ATOM      6  C   UNL     1      16.710  30.850  33.675  1.00  0.00     0.006 C 
BRANCH   6   7
ATOM      7  C   UNL     1      16.942  32.302  33.238  1.00  0.00     0.053 C 
BRANCH   7   8
ATOM      8  C   UNL     1      16.012  33.221  33.964  1.00  0.00     0.041 C 
ATOM      9  O   UNL     1      15.298  34.037  33.323  1.00  0.00    -0.550 OA
ATOM     10  O   UNL     1      15.896  33.144  35.346  1.00  0.00    -0.550 OA
ENDBRANCH   7   8
ENDBRANCH   6   7
ENDBRANCH   5   6
ENDBRANCH   4   5
ENDBRANCH   3   4
ENDBRANCH   2   3
ENDBRANCH   1   2
BRANCH   1  11
ATOM     11  C   UNL     1      18.141  28.924  30.868  1.00  0.00     0.000 C 
BRANCH  11  12
ATOM     12  C   UNL     1      19.016  30.163  30.624  1.00  0.00     0.000 C 
BRANCH  12  13
ATOM     13  C   UNL     1      18.353  31.184  29.685  1.00  0.00     0.000 C 
BRANCH  13  14
ATOM     14  C   UNL     1      18.375  30.734  28.215  1.00  0.00     0.000 C 
BRANCH  14  15
ATOM     15  C   UNL     1      19.694  30.047  27.822  1.00  0.00     0.000 C 
BRANCH  15  16
ATOM     16  C   UNL     1      19.514  28.891  26.814  1.00  0.00     0.006 C 
BRANCH  16  17
ATOM     17  C   UNL     1      19.674  27.516  27.477  1.00  0.00     0.053 C 
BRANCH  17  18
ATOM     18  C   UNL     1      18.337  26.939  27.815  1.00  0.00     0.041 C 
ATOM     19  O   UNL     1      18.251  25.949  28.590  1.00  0.00    -0.550 OA
ATOM     20  O   UNL     1      17.187  27.460  27.234  1.00  0.00    -0.550 OA
ENDBRANCH  17  18
ENDBRANCH  16  17
ENDBRANCH  15  16
ENDBRANCH  14  15
ENDBRANCH  13  14
ENDBRANCH  12  13
ENDBRANCH  11  12
ENDBRANCH   1  11
TORSDOF 15
ENDMDL
MODEL 7
REMARK VINA RESULT:    -4.542      1.251      2.844
REMARK INTER + INTRA:         -10.306
REMARK INTER:                  -8.440
REMARK INTRA:                  -1.866
REMARK UNBOUND:                -1.781
REMARK SMILES O=C([O-])CCCCCCCCCCCCCCC(=O)[O-]
REMARK SMILES IDX 10 1 9 2 8 3 7 4 6 5 5 6 4 7 2 8 1 9 3 10 11 11 12 12 13 13
REMARK SMILES IDX 14 14 15 15 16 16 17 17 18 18 19 19 20 20
REMARK H PARENT
REMARK Flexibility Score: inf
ROOT
ATOM      1  C   UNL     1      19.384  29.009  35.465  1.00  0.00     0.000 C 
ENDROOT
BRANCH   1   2
ATOM      2  C   UNL     1      18.302  30.101  35.467  1.00  0.00     0.000 C 
BRANCH   2   3
ATOM      3  C   UNL     1      17.015  29.660  34.749  1.00  0.00     0.000 C 
BRANCH   3   4
ATOM      4  C   UNL     1      16.457  30.748  33.816  1.00  0.00     0.000 C 
BRANCH   4   5
ATOM      5  C   UNL     1      17.552  31.694  33.290  1.00  0.00     0.000 C 
BRANCH   5   6
ATOM      6  C   UNL     1      17.339  33.149  33.738  1.00  0.00     0.006 C 
BRANCH   6   7
ATOM      7  C   UNL     1      16.079  33.323  34.597  1.00  0.00     0.053 C 
BRANCH   7   8
ATOM      8  C   UNL     1      15.319  34.539  34.168  1.00  0.00     0.041 C 
ATOM      9  O   UNL     1      14.896  34.638  32.987  1.00  0.00    -0.550 OA
ATOM     10  O   UNL     1      15.037  35.542  35.087  1.00  0.00    -0.550 OA
ENDBRANCH   7   8
ENDBRANCH   6   7
ENDBRANCH   5   6
ENDBRANCH   4   5
ENDBRANCH   3   4
ENDBRANCH   2   3
ENDBRANCH   1   2
BRANCH   1  11
ATOM     11  C   UNL     1      18.937  27.731  34.739  1.00  0.00     0.000 C 
BRANCH  11  12
ATOM     12  C   UNL     1      19.983  27.297  33.701  1.00  0.00     0.000 C 
BRANCH  12  13
ATOM     13  C   UNL     1      19.444  27.335  32.262  1.00  0.00     0.000 C 
BRANCH  13  14
ATOM     14  C   UNL     1      19.135  28.764  31.786  1.00  0.00     0.000 C 
BRANCH  14  15
ATOM     15  C   UNL     1      17.977  28.818  30.774  1.00  0.00     0.000 C 
BRANCH  15  16
ATOM     16  C   UNL     1      18.390  29.359  29.388  1.00  0.00     0.006 C 
BRANCH  16  17
ATOM     17  C   UNL     1      18.115  28.348  28.267  1.00  0.00     0.053 C 
BRANCH  17  18
ATOM     18  C   UNL     1      18.892  27.091  28.493  1.00  0.00     0.041 C 
ATOM     19  O   UNL     1      18.292  25.995  28.659  1.00  0.00    -0.550 OA
ATOM     20  O   UNL     1      20.278  27.135  28.571  1.00  0.00    -0.550 OA
ENDBRANCH  17  18
ENDBRANCH  16  17
ENDBRANCH  15  16
ENDBRANCH  14  15
ENDBRANCH  13  14
ENDBRANCH  12  13
ENDBRANCH  11  12
ENDBRANCH   1  11
TORSDOF 15
ENDMDL
MODEL 8
REMARK VINA RESULT:    -4.533      1.775      2.338
REMARK INTER + INTRA:         -10.289
REMARK INTER:                  -8.383
REMARK INTRA:                  -1.906
REMARK UNBOUND:                -1.781
REMARK SMILES O=C([O-])CCCCCCCCCCCCCCC(=O)[O-]
REMARK SMILES IDX 10 1 9 2 8 3 7 4 6 5 5 6 4 7 2 8 1 9 3 10 11 11 12 12 13 13
REMARK SMILES IDX 14 14 15 15 16 16 17 17 18 18 19 19 20 20
REMARK H PARENT
REMARK Flexibility Score: inf
ROOT
ATOM      1  C   UNL     1      19.503  27.064  33.629  1.00  0.00     0.000 C 
ENDROOT
BRANCH   1   2
ATOM      2  C   UNL     1      20.062  28.322  34.314  1.00  0.00     0.000 C 
BRANCH   2   3
ATOM      3  C   UNL     1      19.062  28.952  35.300  1.00  0.00     0.000 C 
BRANCH   3   4
ATOM      4  C   UNL     1      17.633  29.006  34.736  1.00  0.00     0.000 C 
BRANCH   4   5
ATOM      5  C   UNL     1      16.834  30.212  35.261  1.00  0.00     0.000 C 
BRANCH   5   6
ATOM      6  C   UNL     1      16.798  31.377  34.258  1.00  0.00     0.006 C 
BRANCH   6   7
ATOM      7  C   UNL     1      17.215  30.951  32.844  1.00  0.00     0.053 C 
BRANCH   7   8
ATOM      8  C   UNL     1      18.378  31.766  32.375  1.00  0.00     0.041 C 
ATOM      9  O   UNL     1      19.533  31.539  32.823  1.00  0.00    -0.550 OA
ATOM     10  O   UNL     1      18.196  32.745  31.407  1.00  0.00    -0.550 OA
ENDBRANCH   7   8
ENDBRANCH   6   7
ENDBRANCH   5   6
ENDBRANCH   4   5
ENDBRANCH   3   4
ENDBRANCH   2   3
ENDBRANCH   1   2
BRANCH   1  11
ATOM     11  C   UNL     1      19.925  26.952  32.157  1.00  0.00     0.000 C 
BRANCH  11  12
ATOM     12  C   UNL     1      19.708  28.285  31.423  1.00  0.00     0.000 C 
BRANCH  12  13
ATOM     13  C   UNL     1      18.384  28.324  30.642  1.00  0.00     0.000 C 
BRANCH  13  14
ATOM     14  C   UNL     1      18.384  29.392  29.536  1.00  0.00     0.000 C 
BRANCH  14  15
ATOM     15  C   UNL     1      18.211  28.794  28.130  1.00  0.00     0.000 C 
BRANCH  15  16
ATOM     16  C   UNL     1      17.647  27.357  28.132  1.00  0.00     0.006 C 
BRANCH  16  17
ATOM     17  C   UNL     1      18.466  26.413  27.241  1.00  0.00     0.053 C 
BRANCH  17  18
ATOM     18  C   UNL     1      19.143  25.367  28.069  1.00  0.00     0.041 C 
ATOM     19  O   UNL     1      20.093  25.681  28.834  1.00  0.00    -0.550 OA
ATOM     20  O   UNL     1      18.759  24.037  27.958  1.00  0.00    -0.550 OA
ENDBRANCH  17  18
ENDBRANCH  16  17
ENDBRANCH  15  16
ENDBRANCH  14  15
ENDBRANCH  13  14
ENDBRANCH  12  13
ENDBRANCH  11  12
ENDBRANCH   1  11
TORSDOF 15
ENDMDL
MODEL 9
REMARK VINA RESULT:    -4.505      2.176      7.248
REMARK INTER + INTRA:         -10.235
REMARK INTER:                  -8.308
REMARK INTRA:                  -1.927
REMARK UNBOUND:                -1.781
REMARK SMILES O=C([O-])CCCCCCCCCCCCCCC(=O)[O-]
REMARK SMILES IDX 10 1 9 2 8 3 7 4 6 5 5 6 4 7 2 8 1 9 3 10 11 11 12 12 13 13
REMARK SMILES IDX 14 14 15 15 16 16 17 17 18 18 19 19 20 20
REMARK H PARENT
REMARK Flexibility Score: inf
ROOT
ATOM      1  C   UNL     1      18.311  30.101  35.496  1.00  0.00     0.000 C 
ENDROOT
BRANCH   1   2
ATOM      2  C   UNL     1      19.389  29.016  35.652  1.00  0.00     0.000 C 
BRANCH   2   3
ATOM      3  C   UNL     1      19.133  27.795  34.751  1.00  0.00     0.000 C 
BRANCH   3   4
ATOM      4  C   UNL     1      20.182  27.655  33.636  1.00  0.00     0.000 C 
BRANCH   4   5
ATOM      5  C   UNL     1      19.576  27.156  32.311  1.00  0.00     0.000 C 
BRANCH   5   6
ATOM      6  C   UNL     1      18.814  28.260  31.560  1.00  0.00     0.006 C 
BRANCH   6   7
ATOM      7  C   UNL     1      18.834  28.060  30.039  1.00  0.00     0.053 C 
BRANCH   7   8
ATOM      8  C   UNL     1      18.348  29.292  29.344  1.00  0.00     0.041 C 
ATOM      9  O   UNL     1      18.234  30.374  29.978  1.00  0.00    -0.550 OA
ATOM     10  O   UNL     1      18.067  29.259  27.984  1.00  0.00    -0.550 OA
ENDBRANCH   7   8
ENDBRANCH   6   7
ENDBRANCH   5   6
ENDBRANCH   4   5
ENDBRANCH   3   4
ENDBRANCH   2   3
ENDBRANCH   1   2
BRANCH   1  11
ATOM     11  C   UNL     1      17.061  29.596  34.760  1.00  0.00     0.000 C 
BRANCH  11  12
ATOM     12  C   UNL     1      16.742  30.487  33.550  1.00  0.00     0.000 C 
BRANCH  12  13
ATOM     13  C   UNL     1      17.856  31.505  33.251  1.00  0.00     0.000 C 
BRANCH  13  14
ATOM     14  C   UNL     1      17.330  32.948  33.175  1.00  0.00     0.000 C 
BRANCH  14  15
ATOM     15  C   UNL     1      15.998  33.138  33.919  1.00  0.00     0.000 C 
BRANCH  15  16
ATOM     16  C   UNL     1      16.160  33.712  35.343  1.00  0.00     0.006 C 
BRANCH  16  17
ATOM     17  C   UNL     1      15.762  32.698  36.424  1.00  0.00     0.053 C 
BRANCH  17  18
ATOM     18  C   UNL     1      16.608  32.875  37.645  1.00  0.00     0.041 C 
ATOM     19  O   UNL     1      16.377  32.195  38.681  1.00  0.00    -0.550 OA
ATOM     20  O   UNL     1      17.619  33.827  37.659  1.00  0.00    -0.550 OA
ENDBRANCH  17  18
ENDBRANCH  16  17
ENDBRANCH  15  16
ENDBRANCH  14  15
ENDBRANCH  13  14
ENDBRANCH  12  13
ENDBRANCH  11  12
ENDBRANCH   1  11
TORSDOF 15
ENDMDL
