MODEL 1
REMARK VINA RESULT:    -3.367      0.000      0.000
REMARK INTER + INTRA:          -3.400
REMARK INTER:                  -4.155
REMARK INTRA:                   0.755
REMARK UNBOUND:                 0.755
REMARK SMILES CC1=CC=CC(C)(C)CC1=O
REMARK SMILES IDX 1 1 2 2 3 3 10 4 11 5 9 6 4 8 5 9 6 10 7 11 8 12
REMARK H PARENT
REMARK Flexibility Score: 80.00
ROOT
ATOM      1  C   UNL     1     -18.868  -4.795   8.529  1.00  0.00     0.048 C 
ATOM      2  C   UNL     1     -18.879  -3.431   9.176  1.00  0.00    -0.008 C 
ATOM      3  C   UNL     1     -17.751  -3.023   9.797  1.00  0.00     0.007 C 
ENDROOT
BRANCH   2   4
ATOM      4  C   UNL     1     -20.158  -2.677   9.145  1.00  0.00     0.159 C 
ATOM      5  O   UNL     1     -21.205  -3.273   8.769  1.00  0.00    -0.295 OA
BRANCH   4   6
ATOM      6  C   UNL     1     -20.276  -1.234   9.524  1.00  0.00     0.091 CG0
ATOM      7  G   UNL     1     -19.836  -0.948  10.978  1.00  0.00     0.000 G0
ENDBRANCH   4   6
ENDBRANCH   2   4
BRANCH   3   8
ATOM      8  C   UNL     1     -17.469  -1.768  10.532  1.00  0.00    -0.003 C 
ATOM      9  C   UNL     1     -18.330  -0.882  11.050  1.00  0.00    -0.020 C 
BRANCH   9  10
ATOM     10  C   UNL     1     -19.837  -0.947  10.978  1.00  0.00    -0.010 CG0
ATOM     11  C   UNL     1     -20.370  -1.991  11.986  1.00  0.00     0.016 C 
ATOM     12  C   UNL     1     -20.402   0.435  11.379  1.00  0.00     0.016 C 
ATOM     13  G   UNL     1     -20.276  -1.243   9.525  1.00  0.00     0.000 G0
ENDBRANCH   9  10
ENDBRANCH   3   8
TORSDOF 0
ENDMDL
MODEL 2
REMARK VINA RESULT:    -3.217      1.815      2.735
REMARK INTER + INTRA:          -3.215
REMARK INTER:                  -3.963
REMARK INTRA:                   0.748
REMARK UNBOUND:                 0.755
REMARK SMILES CC1=CC=CC(C)(C)CC1=O
REMARK SMILES IDX 1 1 2 2 3 3 10 4 11 5 9 6 4 8 5 9 6 10 7 11 8 12
REMARK H PARENT
REMARK Flexibility Score: 80.00
ROOT
ATOM      1  C   UNL     1     -18.422  -3.755   9.643  1.00  0.00     0.048 C 
ATOM      2  C   UNL     1     -19.068  -2.589  10.354  1.00  0.00    -0.008 C 
ATOM      3  C   UNL     1     -20.349  -2.735  10.758  1.00  0.00     0.007 C 
ENDROOT
BRANCH   2   4
ATOM      4  C   UNL     1     -18.266  -1.347  10.484  1.00  0.00     0.159 C 
ATOM      5  O   UNL     1     -17.181  -1.254   9.846  1.00  0.00    -0.295 OA
BRANCH   4   6
ATOM      6  C   UNL     1     -18.667  -0.191  11.346  1.00  0.00     0.091 CG0
ATOM      7  G   UNL     1     -20.047   0.398  10.973  1.00  0.00     0.000 G0
ENDBRANCH   4   6
ENDBRANCH   2   4
BRANCH   3   8
ATOM      8  C   UNL     1     -21.244  -1.775  11.446  1.00  0.00    -0.003 C 
ATOM      9  C   UNL     1     -21.141  -0.443  11.542  1.00  0.00    -0.020 C 
BRANCH   9  10
ATOM     10  C   UNL     1     -20.035   0.414  10.973  1.00  0.00    -0.010 CG0
ATOM     11  C   UNL     1     -20.230   0.585   9.449  1.00  0.00     0.016 C 
ATOM     12  C   UNL     1     -20.123   1.813  11.625  1.00  0.00     0.016 C 
ATOM     13  G   UNL     1     -18.663  -0.200  11.333  1.00  0.00     0.000 G0
ENDBRANCH   9  10
ENDBRANCH   3   8
TORSDOF 0
ENDMDL
MODEL 3
REMARK VINA RESULT:    -3.204      1.866      3.346
REMARK INTER + INTRA:          -3.198
REMARK INTER:                  -3.949
REMARK INTRA:                   0.750
REMARK UNBOUND:                 0.755
REMARK SMILES CC1=CC=CC(C)(C)CC1=O
REMARK SMILES IDX 1 1 2 2 3 3 10 4 11 5 9 6 4 8 5 9 6 10 7 11 8 12
REMARK H PARENT
REMARK Flexibility Score: 80.00
ROOT
ATOM      1  C   UNL     1     -17.270  -1.498  10.819  1.00  0.00     0.048 C 
ATOM      2  C   UNL     1     -18.432  -2.395  10.465  1.00  0.00    -0.008 C 
ATOM      3  C   UNL     1     -18.170  -3.498   9.729  1.00  0.00     0.007 C 
ENDROOT
BRANCH   2   4
ATOM      4  C   UNL     1     -19.784  -1.952  10.890  1.00  0.00     0.159 C 
ATOM      5  O   UNL     1     -19.924  -0.785  11.350  1.00  0.00    -0.295 OA
BRANCH   4   6
ATOM      6  C   UNL     1     -21.000  -2.822  10.816  1.00  0.00     0.091 CG0
ATOM      7  G   UNL     1     -21.309  -3.317   9.385  1.00  0.00     0.000 G0
ENDBRANCH   4   6
ENDBRANCH   2   4
BRANCH   3   8
ATOM      8  C   UNL     1     -19.091  -4.538   9.212  1.00  0.00    -0.003 C 
ATOM      9  C   UNL     1     -20.419  -4.484   9.047  1.00  0.00    -0.020 C 
BRANCH   9  10
ATOM     10  C   UNL     1     -21.318  -3.319   9.388  1.00  0.00    -0.010 CG0
ATOM     11  C   UNL     1     -21.185  -2.215   8.314  1.00  0.00     0.016 C 
ATOM     12  C   UNL     1     -22.781  -3.818   9.379  1.00  0.00     0.016 C 
ATOM     13  G   UNL     1     -20.993  -2.810  10.811  1.00  0.00     0.000 G0
ENDBRANCH   9  10
ENDBRANCH   3   8
TORSDOF 0
ENDMDL
MODEL 4
REMARK VINA RESULT:    -3.047     13.145     14.084
REMARK INTER + INTRA:          -3.005
REMARK INTER:                  -3.749
REMARK INTRA:                   0.744
REMARK UNBOUND:                 0.755
REMARK SMILES CC1=CC=CC(C)(C)CC1=O
REMARK SMILES IDX 1 1 2 2 3 3 10 4 11 5 9 6 4 8 5 9 6 10 7 11 8 12
REMARK H PARENT
REMARK Flexibility Score: 80.00
ROOT
ATOM      1  C   UNL     1      -6.409  -0.878  13.409  1.00  0.00     0.048 C 
ATOM      2  C   UNL     1      -6.441  -1.611  12.089  1.00  0.00    -0.008 C 
ATOM      3  C   UNL     1      -6.832  -2.904  12.100  1.00  0.00     0.007 C 
ENDROOT
BRANCH   2   4
ATOM      4  C   UNL     1      -5.965  -0.871  10.893  1.00  0.00     0.159 C 
ATOM      5  O   UNL     1      -5.399   0.245  11.054  1.00  0.00    -0.295 OA
BRANCH   4   6
ATOM      6  C   UNL     1      -6.131  -1.372   9.492  1.00  0.00     0.091 CG0
ATOM      7  G   UNL     1      -5.455  -2.740   9.249  1.00  0.00     0.000 G0
ENDBRANCH   4   6
ENDBRANCH   2   4
BRANCH   3   8
ATOM      8  C   UNL     1      -6.940  -3.875  10.986  1.00  0.00    -0.003 C 
ATOM      9  C   UNL     1      -6.367  -3.838   9.775  1.00  0.00    -0.020 C 
BRANCH   9  10
ATOM     10  C   UNL     1      -5.471  -2.746   9.239  1.00  0.00    -0.010 CG0
ATOM     11  C   UNL     1      -4.056  -2.876   9.849  1.00  0.00     0.016 C 
ATOM     12  C   UNL     1      -5.350  -2.927   7.709  1.00  0.00     0.016 C 
ATOM     13  G   UNL     1      -6.113  -1.366   9.512  1.00  0.00     0.000 G0
ENDBRANCH   9  10
ENDBRANCH   3   8
TORSDOF 0
ENDMDL
MODEL 5
REMARK VINA RESULT:    -3.037      1.704      2.966
REMARK INTER + INTRA:          -2.993
REMARK INTER:                  -4.054
REMARK INTRA:                   1.061
REMARK UNBOUND:                 0.755
REMARK SMILES CC1=CC=CC(C)(C)CC1=O
REMARK SMILES IDX 1 1 2 2 3 3 10 4 11 5 9 6 4 8 5 9 6 10 7 11 8 12
REMARK H PARENT
REMARK Flexibility Score: 80.00
ROOT
ATOM      1  C   UNL     1     -16.630  -1.133  11.588  1.00  0.00     0.048 C 
ATOM      2  C   UNL     1     -17.846  -1.543  10.792  1.00  0.00    -0.008 C 
ATOM      3  C   UNL     1     -17.797  -2.723  10.137  1.00  0.00     0.007 C 
ENDROOT
BRANCH   2   4
ATOM      4  C   UNL     1     -18.972  -0.577  10.730  1.00  0.00     0.159 C 
ATOM      5  O   UNL     1     -19.011   0.366  11.568  1.00  0.00    -0.295 OA
BRANCH   4   6
ATOM      6  C   UNL     1     -20.083  -0.665   9.730  1.00  0.00     0.091 CG0
ATOM      7  G   UNL     1     -20.875  -1.989   9.816  1.00  0.00     0.000 G0
ENDBRANCH   4   6
ENDBRANCH   2   4
BRANCH   3   8
ATOM      8  C   UNL     1     -18.806  -3.372   9.267  1.00  0.00    -0.003 C 
ATOM      9  C   UNL     1     -20.102  -3.074   9.110  1.00  0.00    -0.020 C 
BRANCH   9  10
ATOM     10  C   UNL     1     -20.866  -1.987   9.829  1.00  0.00    -0.010 CG0
ATOM     11  C   UNL     1     -22.297  -1.877   9.254  1.00  0.00     0.016 C 
ATOM     12  C   UNL     1     -20.981  -2.381  11.320  1.00  0.00     0.016 C 
ATOM     13  G   UNL     1     -20.084  -0.656   9.742  1.00  0.00     0.000 G0
ENDBRANCH   9  10
ENDBRANCH   3   8
TORSDOF 0
ENDMDL
MODEL 6
REMARK VINA RESULT:    -2.903      2.025      3.149
REMARK INTER + INTRA:          -2.827
REMARK INTER:                  -3.575
REMARK INTRA:                   0.749
REMARK UNBOUND:                 0.755
REMARK SMILES CC1=CC=CC(C)(C)CC1=O
REMARK SMILES IDX 1 1 2 2 3 3 10 4 11 5 9 6 4 8 5 9 6 10 7 11 8 12
REMARK H PARENT
REMARK Flexibility Score: 80.00
ROOT
ATOM      1  C   UNL     1     -17.005  -1.614  10.873  1.00  0.00     0.048 C 
ATOM      2  C   UNL     1     -18.512  -1.660  10.779  1.00  0.00    -0.008 C 
ATOM      3  C   UNL     1     -19.070  -2.746  10.201  1.00  0.00     0.007 C 
ENDROOT
BRANCH   2   4
ATOM      4  C   UNL     1     -19.256  -0.470  11.262  1.00  0.00     0.159 C 
ATOM      5  O   UNL     1     -18.616   0.588  11.511  1.00  0.00    -0.295 OA
BRANCH   4   6
ATOM      6  C   UNL     1     -20.736  -0.456  11.486  1.00  0.00     0.091 CG0
ATOM      7  G   UNL     1     -21.550  -0.744  10.203  1.00  0.00     0.000 G0
ENDBRANCH   4   6
ENDBRANCH   2   4
BRANCH   3   8
ATOM      8  C   UNL     1     -20.495  -3.061   9.945  1.00  0.00    -0.003 C 
ATOM      9  C   UNL     1     -21.552  -2.237   9.926  1.00  0.00    -0.020 C 
BRANCH   9  10
ATOM     10  C   UNL     1     -21.536  -0.751  10.196  1.00  0.00    -0.010 CG0
ATOM     11  C   UNL     1     -20.992   0.005   8.962  1.00  0.00     0.016 C 
ATOM     12  C   UNL     1     -22.991  -0.287  10.436  1.00  0.00     0.016 C 
ATOM     13  G   UNL     1     -20.722  -0.464  11.478  1.00  0.00     0.000 G0
ENDBRANCH   9  10
ENDBRANCH   3   8
TORSDOF 0
ENDMDL
MODEL 7
REMARK VINA RESULT:    -2.883      1.197      1.682
REMARK INTER + INTRA:          -2.802
REMARK INTER:                  -3.542
REMARK INTRA:                   0.740
REMARK UNBOUND:                 0.755
REMARK SMILES CC1=CC=CC(C)(C)CC1=O
REMARK SMILES IDX 1 1 2 2 3 3 10 4 11 5 9 6 4 8 5 9 6 10 7 11 8 12
REMARK H PARENT
REMARK Flexibility Score: 80.00
ROOT
ATOM      1  C   UNL     1     -17.739  -3.218   9.374  1.00  0.00     0.048 C 
ATOM      2  C   UNL     1     -18.742  -2.194   9.851  1.00  0.00    -0.008 C 
ATOM      3  C   UNL     1     -18.266  -1.094  10.473  1.00  0.00     0.007 C 
ENDROOT
BRANCH   2   4
ATOM      4  C   UNL     1     -20.180  -2.517   9.665  1.00  0.00     0.159 C 
ATOM      5  O   UNL     1     -20.499  -3.684   9.306  1.00  0.00    -0.295 OA
BRANCH   4   6
ATOM      6  C   UNL     1     -21.282  -1.525   9.868  1.00  0.00     0.091 CG0
ATOM      7  G   UNL     1     -21.321  -0.941  11.298  1.00  0.00     0.000 G0
ENDBRANCH   4   6
ENDBRANCH   2   4
BRANCH   3   8
ATOM      8  C   UNL     1     -18.993   0.054  11.065  1.00  0.00    -0.003 C 
ATOM      9  C   UNL     1     -20.278   0.142  11.431  1.00  0.00    -0.020 C 
BRANCH   9  10
ATOM     10  C   UNL     1     -21.326  -0.938  11.295  1.00  0.00    -0.010 CG0
ATOM     11  C   UNL     1     -21.140  -1.997  12.405  1.00  0.00     0.016 C 
ATOM     12  C   UNL     1     -22.717  -0.290  11.481  1.00  0.00     0.016 C 
ATOM     13  G   UNL     1     -21.265  -1.545   9.875  1.00  0.00     0.000 G0
ENDBRANCH   9  10
ENDBRANCH   3   8
TORSDOF 0
ENDMDL
MODEL 8
REMARK VINA RESULT:    -2.697      1.827      3.242
REMARK INTER + INTRA:          -2.573
REMARK INTER:                  -3.324
REMARK INTRA:                   0.751
REMARK UNBOUND:                 0.755
REMARK SMILES CC1=CC=CC(C)(C)CC1=O
REMARK SMILES IDX 1 1 2 2 3 3 10 4 11 5 9 6 4 8 5 9 6 10 7 11 8 12
REMARK H PARENT
REMARK Flexibility Score: 80.00
ROOT
ATOM      1  C   UNL     1     -16.882  -0.562  12.263  1.00  0.00     0.048 C 
ATOM      2  C   UNL     1     -18.130  -0.596  11.414  1.00  0.00    -0.008 C 
ATOM      3  C   UNL     1     -19.067   0.351  11.640  1.00  0.00     0.007 C 
ENDROOT
BRANCH   2   4
ATOM      4  C   UNL     1     -18.261  -1.716  10.448  1.00  0.00     0.159 C 
ATOM      5  O   UNL     1     -17.428  -2.662  10.497  1.00  0.00    -0.295 OA
BRANCH   4   6
ATOM      6  C   UNL     1     -19.328  -1.782   9.399  1.00  0.00     0.091 CG0
ATOM      7  G   UNL     1     -20.759  -1.746   9.982  1.00  0.00     0.000 G0
ENDBRANCH   4   6
ENDBRANCH   2   4
BRANCH   3   8
ATOM      8  C   UNL     1     -20.385   0.558  10.995  1.00  0.00    -0.003 C 
ATOM      9  C   UNL     1     -21.129  -0.309  10.296  1.00  0.00    -0.020 C 
BRANCH   9  10
ATOM     10  C   UNL     1     -20.769  -1.739   9.968  1.00  0.00    -0.010 CG0
ATOM     11  C   UNL     1     -20.966  -2.633  11.213  1.00  0.00     0.016 C 
ATOM     12  C   UNL     1     -21.729  -2.239   8.864  1.00  0.00     0.016 C 
ATOM     13  G   UNL     1     -19.327  -1.799   9.414  1.00  0.00     0.000 G0
ENDBRANCH   9  10
ENDBRANCH   3   8
TORSDOF 0
ENDMDL
MODEL 9
REMARK VINA RESULT:    -2.519     13.080     14.388
REMARK INTER + INTRA:          -2.353
REMARK INTER:                  -3.107
REMARK INTRA:                   0.754
REMARK UNBOUND:                 0.755
REMARK SMILES CC1=CC=CC(C)(C)CC1=O
REMARK SMILES IDX 1 1 2 2 3 3 10 4 11 5 9 6 4 8 5 9 6 10 7 11 8 12
REMARK H PARENT
REMARK Flexibility Score: 80.00
ROOT
ATOM      1  C   UNL     1      -7.204  -1.275  12.712  1.00  0.00     0.048 C 
ATOM      2  C   UNL     1      -6.250  -1.530  11.570  1.00  0.00    -0.008 C 
ATOM      3  C   UNL     1      -5.704  -0.456  10.959  1.00  0.00     0.007 C 
ENDROOT
BRANCH   2   4
ATOM      4  C   UNL     1      -6.049  -2.942  11.158  1.00  0.00     0.159 C 
ATOM      5  O   UNL     1      -6.802  -3.830  11.644  1.00  0.00    -0.295 OA
BRANCH   4   6
ATOM      6  C   UNL     1      -4.984  -3.380  10.201  1.00  0.00     0.091 CG0
ATOM      7  G   UNL     1      -5.091  -2.699   8.817  1.00  0.00     0.000 G0
ENDBRANCH   4   6
ENDBRANCH   2   4
BRANCH   3   8
ATOM      8  C   UNL     1      -4.769  -0.387   9.811  1.00  0.00    -0.003 C 
ATOM      9  C   UNL     1      -4.496  -1.317   8.887  1.00  0.00    -0.020 C 
BRANCH   9  10
ATOM     10  C   UNL     1      -5.079  -2.709   8.816  1.00  0.00    -0.010 CG0
ATOM     11  C   UNL     1      -6.525  -2.649   8.270  1.00  0.00     0.016 C 
ATOM     12  C   UNL     1      -4.230  -3.540   7.828  1.00  0.00     0.016 C 
ATOM     13  G   UNL     1      -4.994  -3.380  10.206  1.00  0.00     0.000 G0
ENDBRANCH   9  10
ENDBRANCH   3   8
TORSDOF 0
ENDMDL
