MODEL 1
REMARK VINA RESULT:     0.879      0.000      0.000
REMARK INTER + INTRA:           0.687
REMARK INTER:                   1.546
REMARK INTRA:                  -0.859
REMARK UNBOUND:                -0.859
REMARK SMILES CCCCCCC=CCCCCCCCC(=O)[O-]
REMARK SMILES IDX 10 1 11 2 12 3 13 4 14 5 15 6 16 7 17 8 18 9 9 10 8 11 7 12
REMARK SMILES IDX 6 13 5 14 4 15 3 16 2 17 1 18
REMARK H PARENT
REMARK Flexibility Score: inf
ROOT
ATOM      1  C   UNL     1      45.789 -24.038  -1.578  1.00  0.00     0.004 C 
ENDROOT
BRANCH   1   2
ATOM      2  C   UNL     1      44.286 -23.956  -1.900  1.00  0.00     0.000 C 
BRANCH   2   3
ATOM      3  C   UNL     1      43.951 -24.523  -3.296  1.00  0.00     0.000 C 
BRANCH   3   4
ATOM      4  C   UNL     1      44.884 -25.663  -3.746  1.00  0.00     0.000 C 
BRANCH   4   5
ATOM      5  C   UNL     1      45.982 -25.251  -4.749  1.00  0.00     0.006 C 
BRANCH   5   6
ATOM      6  C   UNL     1      45.716 -23.921  -5.472  1.00  0.00     0.053 C 
BRANCH   6   7
ATOM      7  C   UNL     1      45.889 -24.045  -6.954  1.00  0.00     0.041 C 
ATOM      8  O   UNL     1      45.894 -23.015  -7.679  1.00  0.00    -0.550 OA
ATOM      9  O   UNL     1      46.080 -25.294  -7.532  1.00  0.00    -0.550 OA
ENDBRANCH   6   7
ENDBRANCH   5   6
ENDBRANCH   4   5
ENDBRANCH   3   4
ENDBRANCH   2   3
ENDBRANCH   1   2
BRANCH   1  10
ATOM     10  C   UNL     1      46.071 -23.836  -0.083  1.00  0.00     0.027 C 
BRANCH  10  11
ATOM     11  C   UNL     1      44.942 -24.372   0.767  1.00  0.00    -0.031 C 
ATOM     12  C   UNL     1      44.949 -25.565   1.388  1.00  0.00    -0.031 C 
BRANCH  12  13
ATOM     13  C   UNL     1      46.118 -26.522   1.350  1.00  0.00     0.027 C 
BRANCH  13  14
ATOM     14  C   UNL     1      46.084 -27.540   2.502  1.00  0.00     0.004 C 
BRANCH  14  15
ATOM     15  C   UNL     1      45.129 -28.732   2.280  1.00  0.00     0.000 C 
BRANCH  15  16
ATOM     16  C   UNL     1      45.397 -29.962   3.166  1.00  0.00    -0.000 C 
BRANCH  16  17
ATOM     17  C   UNL     1      46.102 -31.101   2.415  1.00  0.00    -0.003 C 
ATOM     18  C   UNL     1      45.996 -30.914   0.905  1.00  0.00     0.004 C 
ENDBRANCH  16  17
ENDBRANCH  15  16
ENDBRANCH  14  15
ENDBRANCH  13  14
ENDBRANCH  12  13
ENDBRANCH  10  11
ENDBRANCH   1  10
TORSDOF 13
ENDMDL
MODEL 2
REMARK VINA RESULT:     0.938      4.944      9.210
REMARK INTER + INTRA:           0.792
REMARK INTER:                  -1.040
REMARK INTRA:                   1.833
REMARK UNBOUND:                -0.859
REMARK SMILES CCCCCCC=CCCCCCCCC(=O)[O-]
REMARK SMILES IDX 10 1 11 2 12 3 13 4 14 5 15 6 16 7 17 8 18 9 9 10 8 11 7 12
REMARK SMILES IDX 6 13 5 14 4 15 3 16 2 17 1 18
REMARK H PARENT
REMARK Flexibility Score: inf
ROOT
ATOM      1  C   UNL     1      46.001 -24.673  -1.407  1.00  0.00     0.004 C 
ENDROOT
BRANCH   1   2
ATOM      2  C   UNL     1      45.123 -24.855  -0.157  1.00  0.00     0.000 C 
BRANCH   2   3
ATOM      3  C   UNL     1      45.942 -25.262   1.086  1.00  0.00     0.000 C 
BRANCH   3   4
ATOM      4  C   UNL     1      45.198 -26.217   2.037  1.00  0.00     0.000 C 
BRANCH   4   5
ATOM      5  C   UNL     1      45.961 -26.579   3.328  1.00  0.00     0.006 C 
BRANCH   5   6
ATOM      6  C   UNL     1      46.124 -28.088   3.568  1.00  0.00     0.053 C 
BRANCH   6   7
ATOM      7  C   UNL     1      45.901 -28.455   5.002  1.00  0.00     0.041 C 
ATOM      8  O   UNL     1      45.857 -29.665   5.347  1.00  0.00    -0.550 OA
ATOM      9  O   UNL     1      45.777 -27.460   5.965  1.00  0.00    -0.550 OA
ENDBRANCH   6   7
ENDBRANCH   5   6
ENDBRANCH   4   5
ENDBRANCH   3   4
ENDBRANCH   2   3
ENDBRANCH   1   2
BRANCH   1  10
ATOM     10  C   UNL     1      45.264 -25.069  -2.694  1.00  0.00     0.027 C 
BRANCH  10  11
ATOM     11  C   UNL     1      45.866 -26.310  -3.313  1.00  0.00    -0.031 C 
ATOM     12  C   UNL     1      46.125 -26.465  -4.623  1.00  0.00    -0.031 C 
BRANCH  12  13
ATOM     13  C   UNL     1      45.883 -25.390  -5.658  1.00  0.00     0.027 C 
BRANCH  13  14
ATOM     14  C   UNL     1      46.067 -23.973  -5.090  1.00  0.00     0.004 C 
BRANCH  14  15
ATOM     15  C   UNL     1      45.707 -22.836  -6.070  1.00  0.00     0.000 C 
BRANCH  15  16
ATOM     16  C   UNL     1      45.821 -23.195  -7.562  1.00  0.00    -0.000 C 
BRANCH  16  17
ATOM     17  C   UNL     1      45.325 -24.613  -7.879  1.00  0.00    -0.003 C 
ATOM     18  C   UNL     1      46.125 -25.235  -9.019  1.00  0.00     0.004 C 
ENDBRANCH  16  17
ENDBRANCH  15  16
ENDBRANCH  14  15
ENDBRANCH  13  14
ENDBRANCH  12  13
ENDBRANCH  10  11
ENDBRANCH   1  10
TORSDOF 13
ENDMDL
MODEL 3
REMARK VINA RESULT:     1.444      1.256      2.210
REMARK INTER + INTRA:           1.682
REMARK INTER:                   0.072
REMARK INTRA:                   1.610
REMARK UNBOUND:                -0.859
REMARK SMILES CCCCCCC=CCCCCCCCC(=O)[O-]
REMARK SMILES IDX 10 1 11 2 12 3 13 4 14 5 15 6 16 7 17 8 18 9 9 10 8 11 7 12
REMARK SMILES IDX 6 13 5 14 4 15 3 16 2 17 1 18
REMARK H PARENT
REMARK Flexibility Score: inf
ROOT
ATOM      1  C   UNL     1      44.104 -25.186  -1.978  1.00  0.00     0.004 C 
ENDROOT
BRANCH   1   2
ATOM      2  C   UNL     1      45.476 -25.110  -2.671  1.00  0.00     0.000 C 
BRANCH   2   3
ATOM      3  C   UNL     1      45.791 -23.696  -3.202  1.00  0.00     0.000 C 
BRANCH   3   4
ATOM      4  C   UNL     1      45.991 -23.633  -4.728  1.00  0.00     0.000 C 
BRANCH   4   5
ATOM      5  C   UNL     1      46.123 -25.003  -5.426  1.00  0.00     0.006 C 
BRANCH   5   6
ATOM      6  C   UNL     1      45.445 -25.082  -6.803  1.00  0.00     0.053 C 
BRANCH   6   7
ATOM      7  C   UNL     1      45.841 -23.942  -7.689  1.00  0.00     0.041 C 
ATOM      8  O   UNL     1      46.068 -22.806  -7.195  1.00  0.00    -0.550 OA
ATOM      9  O   UNL     1      45.994 -24.142  -9.055  1.00  0.00    -0.550 OA
ENDBRANCH   6   7
ENDBRANCH   5   6
ENDBRANCH   4   5
ENDBRANCH   3   4
ENDBRANCH   2   3
ENDBRANCH   1   2
BRANCH   1  10
ATOM     10  C   UNL     1      43.870 -24.004  -1.028  1.00  0.00     0.027 C 
BRANCH  10  11
ATOM     11  C   UNL     1      45.081 -23.101  -0.964  1.00  0.00    -0.031 C 
ATOM     12  C   UNL     1      45.916 -23.010   0.086  1.00  0.00    -0.031 C 
BRANCH  12  13
ATOM     13  C   UNL     1      45.776 -23.839   1.341  1.00  0.00     0.027 C 
BRANCH  13  14
ATOM     14  C   UNL     1      46.124 -25.319   1.112  1.00  0.00     0.004 C 
BRANCH  14  15
ATOM     15  C   UNL     1      45.346 -26.308   2.005  1.00  0.00     0.000 C 
BRANCH  15  16
ATOM     16  C   UNL     1      46.018 -27.677   2.211  1.00  0.00    -0.000 C 
BRANCH  16  17
ATOM     17  C   UNL     1      45.276 -28.566   3.220  1.00  0.00    -0.003 C 
ATOM     18  C   UNL     1      46.025 -29.873   3.459  1.00  0.00     0.004 C 
ENDBRANCH  16  17
ENDBRANCH  15  16
ENDBRANCH  14  15
ENDBRANCH  13  14
ENDBRANCH  12  13
ENDBRANCH  10  11
ENDBRANCH   1  10
TORSDOF 13
ENDMDL
MODEL 4
REMARK VINA RESULT:     1.744      2.185      3.021
REMARK INTER + INTRA:           2.210
REMARK INTER:                   2.893
REMARK INTRA:                  -0.683
REMARK UNBOUND:                -0.859
REMARK SMILES CCCCCCC=CCCCCCCCC(=O)[O-]
REMARK SMILES IDX 10 1 11 2 12 3 13 4 14 5 15 6 16 7 17 8 18 9 9 10 8 11 7 12
REMARK SMILES IDX 6 13 5 14 4 15 3 16 2 17 1 18
REMARK H PARENT
REMARK Flexibility Score: inf
ROOT
ATOM      1  C   UNL     1      44.852 -25.190  -2.301  1.00  0.00     0.004 C 
ENDROOT
BRANCH   1   2
ATOM      2  C   UNL     1      43.660 -25.308  -3.267  1.00  0.00     0.000 C 
BRANCH   2   3
ATOM      3  C   UNL     1      44.043 -24.966  -4.722  1.00  0.00     0.000 C 
BRANCH   3   4
ATOM      4  C   UNL     1      44.945 -23.724  -4.853  1.00  0.00     0.000 C 
BRANCH   4   5
ATOM      5  C   UNL     1      46.107 -23.864  -5.859  1.00  0.00     0.006 C 
BRANCH   5   6
ATOM      6  C   UNL     1      46.109 -25.183  -6.648  1.00  0.00     0.053 C 
BRANCH   6   7
ATOM      7  C   UNL     1      46.002 -24.954  -8.123  1.00  0.00     0.041 C 
ATOM      8  O   UNL     1      46.062 -25.925  -8.922  1.00  0.00    -0.550 OA
ATOM      9  O   UNL     1      45.800 -23.670  -8.616  1.00  0.00    -0.550 OA
ENDBRANCH   6   7
ENDBRANCH   5   6
ENDBRANCH   4   5
ENDBRANCH   3   4
ENDBRANCH   2   3
ENDBRANCH   1   2
BRANCH   1  10
ATOM     10  C   UNL     1      44.402 -25.062  -0.840  1.00  0.00     0.027 C 
BRANCH  10  11
ATOM     11  C   UNL     1      45.284 -24.102  -0.074  1.00  0.00    -0.031 C 
ATOM     12  C   UNL     1      46.033 -24.432   0.993  1.00  0.00    -0.031 C 
BRANCH  12  13
ATOM     13  C   UNL     1      46.125 -25.834   1.549  1.00  0.00     0.027 C 
BRANCH  13  14
ATOM     14  C   UNL     1      45.115 -26.087   2.682  1.00  0.00     0.004 C 
BRANCH  14  15
ATOM     15  C   UNL     1      45.700 -26.807   3.915  1.00  0.00     0.000 C 
BRANCH  15  16
ATOM     16  C   UNL     1      45.102 -26.382   5.268  1.00  0.00    -0.000 C 
BRANCH  16  17
ATOM     17  C   UNL     1      46.121 -26.428   6.416  1.00  0.00    -0.003 C 
ATOM     18  C   UNL     1      45.773 -27.525   7.418  1.00  0.00     0.004 C 
ENDBRANCH  16  17
ENDBRANCH  15  16
ENDBRANCH  14  15
ENDBRANCH  13  14
ENDBRANCH  12  13
ENDBRANCH  10  11
ENDBRANCH   1  10
TORSDOF 13
ENDMDL
MODEL 5
REMARK VINA RESULT:     2.207      3.901      8.317
REMARK INTER + INTRA:           3.025
REMARK INTER:                   1.343
REMARK INTRA:                   1.683
REMARK UNBOUND:                -0.859
REMARK SMILES CCCCCCC=CCCCCCCCC(=O)[O-]
REMARK SMILES IDX 10 1 11 2 12 3 13 4 14 5 15 6 16 7 17 8 18 9 9 10 8 11 7 12
REMARK SMILES IDX 6 13 5 14 4 15 3 16 2 17 1 18
REMARK H PARENT
REMARK Flexibility Score: inf
ROOT
ATOM      1  C   UNL     1      44.048 -24.663  -2.805  1.00  0.00     0.004 C 
ENDROOT
BRANCH   1   2
ATOM      2  C   UNL     1      43.669 -23.829  -1.568  1.00  0.00     0.000 C 
BRANCH   2   3
ATOM      3  C   UNL     1      44.861 -23.020  -1.015  1.00  0.00     0.000 C 
BRANCH   3   4
ATOM      4  C   UNL     1      45.924 -23.882  -0.309  1.00  0.00     0.000 C 
BRANCH   4   5
ATOM      5  C   UNL     1      45.385 -25.154   0.377  1.00  0.00     0.006 C 
BRANCH   5   6
ATOM      6  C   UNL     1      45.959 -25.412   1.779  1.00  0.00     0.053 C 
BRANCH   6   7
ATOM      7  C   UNL     1      45.386 -26.648   2.400  1.00  0.00     0.041 C 
ATOM      8  O   UNL     1      45.863 -27.096   3.476  1.00  0.00    -0.550 OA
ATOM      9  O   UNL     1      44.303 -27.287   1.809  1.00  0.00    -0.550 OA
ENDBRANCH   6   7
ENDBRANCH   5   6
ENDBRANCH   4   5
ENDBRANCH   3   4
ENDBRANCH   2   3
ENDBRANCH   1   2
BRANCH   1  10
ATOM     10  C   UNL     1      45.538 -24.540  -3.150  1.00  0.00     0.027 C 
BRANCH  10  11
ATOM     11  C   UNL     1      45.878 -25.312  -4.405  1.00  0.00    -0.031 C 
ATOM     12  C   UNL     1      45.590 -24.910  -5.655  1.00  0.00    -0.031 C 
BRANCH  12  13
ATOM     13  C   UNL     1      44.916 -23.596  -5.978  1.00  0.00     0.027 C 
BRANCH  13  14
ATOM     14  C   UNL     1      45.498 -22.928  -7.235  1.00  0.00     0.004 C 
BRANCH  14  15
ATOM     15  C   UNL     1      46.124 -23.906  -8.252  1.00  0.00     0.000 C 
BRANCH  15  16
ATOM     16  C   UNL     1      46.044 -25.394  -7.867  1.00  0.00    -0.000 C 
BRANCH  16  17
ATOM     17  C   UNL     1      46.003 -26.328  -9.085  1.00  0.00    -0.003 C 
ATOM     18  C   UNL     1      46.052 -27.792  -8.660  1.00  0.00     0.004 C 
ENDBRANCH  16  17
ENDBRANCH  15  16
ENDBRANCH  14  15
ENDBRANCH  13  14
ENDBRANCH  12  13
ENDBRANCH  10  11
ENDBRANCH   1  10
TORSDOF 13
ENDMDL
MODEL 6
REMARK VINA RESULT:     3.834      3.602      8.899
REMARK INTER + INTRA:           5.889
REMARK INTER:                   5.317
REMARK INTRA:                   0.572
REMARK UNBOUND:                -0.859
REMARK SMILES CCCCCCC=CCCCCCCCC(=O)[O-]
REMARK SMILES IDX 10 1 11 2 12 3 13 4 14 5 15 6 16 7 17 8 18 9 9 10 8 11 7 12
REMARK SMILES IDX 6 13 5 14 4 15 3 16 2 17 1 18
REMARK H PARENT
REMARK Flexibility Score: inf
ROOT
ATOM      1  C   UNL     1      45.531 -24.885  -1.438  1.00  0.00     0.004 C 
ENDROOT
BRANCH   1   2
ATOM      2  C   UNL     1      44.741 -24.810  -0.120  1.00  0.00     0.000 C 
BRANCH   2   3
ATOM      3  C   UNL     1      45.588 -25.231   1.099  1.00  0.00     0.000 C 
BRANCH   3   4
ATOM      4  C   UNL     1      44.839 -26.133   2.097  1.00  0.00     0.000 C 
BRANCH   4   5
ATOM      5  C   UNL     1      45.704 -26.703   3.240  1.00  0.00     0.006 C 
BRANCH   5   6
ATOM      6  C   UNL     1      45.606 -28.227   3.412  1.00  0.00     0.053 C 
BRANCH   6   7
ATOM      7  C   UNL     1      45.653 -28.943   2.098  1.00  0.00     0.041 C 
ATOM      8  O   UNL     1      45.384 -28.328   1.032  1.00  0.00    -0.550 OA
ATOM      9  O   UNL     1      46.027 -30.280   2.044  1.00  0.00    -0.550 OA
ENDBRANCH   6   7
ENDBRANCH   5   6
ENDBRANCH   4   5
ENDBRANCH   3   4
ENDBRANCH   2   3
ENDBRANCH   1   2
BRANCH   1  10
ATOM     10  C   UNL     1      44.760 -25.637  -2.532  1.00  0.00     0.027 C 
BRANCH  10  11
ATOM     11  C   UNL     1      45.677 -26.525  -3.341  1.00  0.00    -0.031 C 
ATOM     12  C   UNL     1      46.124 -26.243  -4.577  1.00  0.00    -0.031 C 
BRANCH  12  13
ATOM     13  C   UNL     1      45.796 -24.966  -5.315  1.00  0.00     0.027 C 
BRANCH  13  14
ATOM     14  C   UNL     1      45.715 -25.168  -6.838  1.00  0.00     0.004 C 
BRANCH  14  15
ATOM     15  C   UNL     1      45.913 -23.883  -7.668  1.00  0.00     0.000 C 
BRANCH  15  16
ATOM     16  C   UNL     1      45.984 -22.579  -6.855  1.00  0.00    -0.000 C 
BRANCH  16  17
ATOM     17  C   UNL     1      45.436 -21.364  -7.618  1.00  0.00    -0.003 C 
ATOM     18  C   UNL     1      45.596 -21.541  -9.124  1.00  0.00     0.004 C 
ENDBRANCH  16  17
ENDBRANCH  15  16
ENDBRANCH  14  15
ENDBRANCH  13  14
ENDBRANCH  12  13
ENDBRANCH  10  11
ENDBRANCH   1  10
TORSDOF 13
ENDMDL
