MODEL 1
REMARK VINA RESULT:    -4.620      0.000      0.000
REMARK INTER + INTRA:          -5.063
REMARK INTER:                  -4.890
REMARK INTRA:                  -0.173
REMARK UNBOUND:                -0.173
REMARK SMILES CC(C)[C@H]1CC[C@H](C)CC1=O
REMARK SMILES IDX 8 1 7 2 6 3 5 4 4 5 10 6 11 7 9 8 2 9 1 10 3 11
REMARK H PARENT
REMARK Flexibility Score: inf
ROOT
ATOM      1  C   UNL     1     102.958 104.159 102.629  1.00  0.00     0.008 C 
ATOM      2  C   UNL     1     104.180 104.988 103.036  1.00  0.00    -0.007 C 
ATOM      3  C   UNL     1     105.478 104.318 102.540  1.00  0.00     0.004 C 
ATOM      4  C   UNL     1     106.708 105.127 102.978  1.00  0.00     0.012 C 
ATOM      5  C   UNL     1     106.662 106.568 102.424  1.00  0.00     0.058 C 
ATOM      6  C   UNL     1     105.322 107.202 102.769  1.00  0.00     0.136 C 
ATOM      7  O   UNL     1     105.237 108.354 103.164  1.00  0.00    -0.299 OA
ATOM      8  C   UNL     1     104.064 106.424 102.492  1.00  0.00     0.079 C 
ENDROOT
BRANCH   5   9
ATOM      9  C   UNL     1     107.931 107.383 102.837  1.00  0.00    -0.007 C 
ATOM     10  C   UNL     1     108.358 107.087 104.284  1.00  0.00     0.008 C 
ATOM     11  C   UNL     1     109.126 107.227 101.878  1.00  0.00     0.008 C 
ENDBRANCH   5   9
TORSDOF 1
ENDMDL
MODEL 2
REMARK VINA RESULT:    -4.594      1.791      3.164
REMARK INTER + INTRA:          -5.036
REMARK INTER:                  -4.864
REMARK INTRA:                  -0.172
REMARK UNBOUND:                -0.173
REMARK SMILES CC(C)[C@H]1CC[C@H](C)CC1=O
REMARK SMILES IDX 8 1 7 2 6 3 5 4 4 5 10 6 11 7 9 8 2 9 1 10 3 11
REMARK H PARENT
REMARK Flexibility Score: inf
ROOT
ATOM      1  C   UNL     1     107.504 102.910 102.515  1.00  0.00     0.008 C 
ATOM      2  C   UNL     1     106.647 104.118 102.908  1.00  0.00    -0.007 C 
ATOM      3  C   UNL     1     107.494 105.407 102.907  1.00  0.00     0.004 C 
ATOM      4  C   UNL     1     106.647 106.614 103.337  1.00  0.00     0.012 C 
ATOM      5  C   UNL     1     105.441 106.822 102.393  1.00  0.00     0.058 C 
ATOM      6  C   UNL     1     104.673 105.516 102.256  1.00  0.00     0.136 C 
ATOM      7  O   UNL     1     103.453 105.482 102.275  1.00  0.00    -0.299 OA
ATOM      8  C   UNL     1     105.440 104.256 101.961  1.00  0.00     0.079 C 
ENDROOT
BRANCH   5   9
ATOM      9  C   UNL     1     104.599 108.072 102.807  1.00  0.00    -0.007 C 
ATOM     10  C   UNL     1     104.847 108.475 104.269  1.00  0.00     0.008 C 
ATOM     11  C   UNL     1     104.766 109.288 101.875  1.00  0.00     0.008 C 
ENDBRANCH   5   9
TORSDOF 1
ENDMDL
MODEL 3
REMARK VINA RESULT:    -4.570      1.905      3.359
REMARK INTER + INTRA:          -5.011
REMARK INTER:                  -4.844
REMARK INTRA:                  -0.167
REMARK UNBOUND:                -0.173
REMARK SMILES CC(C)[C@H]1CC[C@H](C)CC1=O
REMARK SMILES IDX 8 1 7 2 6 3 5 4 4 5 10 6 11 7 9 8 2 9 1 10 3 11
REMARK H PARENT
REMARK Flexibility Score: inf
ROOT
ATOM      1  C   UNL     1     104.499 109.295 102.261  1.00  0.00     0.008 C 
ATOM      2  C   UNL     1     105.353 108.144 102.803  1.00  0.00    -0.007 C 
ATOM      3  C   UNL     1     104.500 106.870 102.971  1.00  0.00     0.004 C 
ATOM      4  C   UNL     1     105.344 105.724 103.549  1.00  0.00     0.012 C 
ATOM      5  C   UNL     1     106.543 105.389 102.634  1.00  0.00     0.058 C 
ATOM      6  C   UNL     1     107.316 106.663 102.326  1.00  0.00     0.136 C 
ATOM      7  O   UNL     1     108.537 106.693 102.335  1.00  0.00    -0.299 OA
ATOM      8  C   UNL     1     106.553 107.879 101.875  1.00  0.00     0.079 C 
ENDROOT
BRANCH   5   9
ATOM      9  C   UNL     1     107.382 104.199 103.201  1.00  0.00    -0.007 C 
ATOM     10  C   UNL     1     106.881 103.747 104.582  1.00  0.00     0.008 C 
ATOM     11  C   UNL     1     107.500 102.994 102.249  1.00  0.00     0.008 C 
ENDBRANCH   5   9
TORSDOF 1
ENDMDL
MODEL 4
REMARK VINA RESULT:    -4.528      1.838      4.603
REMARK INTER + INTRA:          -4.966
REMARK INTER:                  -4.790
REMARK INTRA:                  -0.176
REMARK UNBOUND:                -0.173
REMARK SMILES CC(C)[C@H]1CC[C@H](C)CC1=O
REMARK SMILES IDX 8 1 7 2 6 3 5 4 4 5 10 6 11 7 9 8 2 9 1 10 3 11
REMARK H PARENT
REMARK Flexibility Score: inf
ROOT
ATOM      1  C   UNL     1     109.187 107.501 102.003  1.00  0.00     0.008 C 
ATOM      2  C   UNL     1     107.970 106.730 102.525  1.00  0.00    -0.007 C 
ATOM      3  C   UNL     1     106.674 107.525 102.268  1.00  0.00     0.004 C 
ATOM      4  C   UNL     1     105.455 106.772 102.823  1.00  0.00     0.012 C 
ATOM      5  C   UNL     1     105.309 105.379 102.173  1.00  0.00     0.058 C 
ATOM      6  C   UNL     1     106.629 104.629 102.278  1.00  0.00     0.136 C 
ATOM      7  O   UNL     1     106.676 103.447 102.579  1.00  0.00    -0.299 OA
ATOM      8  C   UNL     1     107.894 105.336 101.875  1.00  0.00     0.079 C 
ENDROOT
BRANCH   5   9
ATOM      9  C   UNL     1     104.049 104.625 102.709  1.00  0.00    -0.007 C 
ATOM     10  C   UNL     1     103.785 104.929 104.193  1.00  0.00     0.008 C 
ATOM     11  C   UNL     1     102.773 104.848 101.876  1.00  0.00     0.008 C 
ENDBRANCH   5   9
TORSDOF 1
ENDMDL
MODEL 5
REMARK VINA RESULT:    -4.419      1.911      3.549
REMARK INTER + INTRA:          -4.851
REMARK INTER:                  -4.675
REMARK INTRA:                  -0.175
REMARK UNBOUND:                -0.173
REMARK SMILES CC(C)[C@H]1CC[C@H](C)CC1=O
REMARK SMILES IDX 8 1 7 2 6 3 5 4 4 5 10 6 11 7 9 8 2 9 1 10 3 11
REMARK H PARENT
REMARK Flexibility Score: inf
ROOT
ATOM      1  C   UNL     1     104.883 109.154 101.875  1.00  0.00     0.008 C 
ATOM      2  C   UNL     1     105.374 107.706 101.974  1.00  0.00    -0.007 C 
ATOM      3  C   UNL     1     106.616 107.616 102.883  1.00  0.00     0.004 C 
ATOM      4  C   UNL     1     107.133 106.171 102.955  1.00  0.00     0.012 C 
ATOM      5  C   UNL     1     106.055 105.213 103.507  1.00  0.00     0.058 C 
ATOM      6  C   UNL     1     104.765 105.394 102.722  1.00  0.00     0.136 C 
ATOM      7  O   UNL     1     104.088 104.442 102.366  1.00  0.00    -0.299 OA
ATOM      8  C   UNL     1     104.250 106.789 102.492  1.00  0.00     0.079 C 
ENDROOT
BRANCH   5   9
ATOM      9  C   UNL     1     106.590 103.748 103.617  1.00  0.00    -0.007 C 
ATOM     10  C   UNL     1     107.702 103.465 102.593  1.00  0.00     0.008 C 
ATOM     11  C   UNL     1     107.041 103.340 105.032  1.00  0.00     0.008 C 
ENDBRANCH   5   9
TORSDOF 1
ENDMDL
MODEL 6
REMARK VINA RESULT:    -4.366      1.680      2.495
REMARK INTER + INTRA:          -4.794
REMARK INTER:                  -4.622
REMARK INTRA:                  -0.172
REMARK UNBOUND:                -0.173
REMARK SMILES CC(C)[C@H]1CC[C@H](C)CC1=O
REMARK SMILES IDX 8 1 7 2 6 3 5 4 4 5 10 6 11 7 9 8 2 9 1 10 3 11
REMARK H PARENT
REMARK Flexibility Score: inf
ROOT
ATOM      1  C   UNL     1     102.805 104.803 101.875  1.00  0.00     0.008 C 
ATOM      2  C   UNL     1     104.273 105.232 101.978  1.00  0.00    -0.007 C 
ATOM      3  C   UNL     1     104.386 106.617 102.647  1.00  0.00     0.004 C 
ATOM      4  C   UNL     1     105.853 107.067 102.719  1.00  0.00     0.012 C 
ATOM      5  C   UNL     1     106.711 106.066 103.523  1.00  0.00     0.058 C 
ATOM      6  C   UNL     1     106.497 104.662 102.978  1.00  0.00     0.136 C 
ATOM      7  O   UNL     1     107.426 103.885 102.818  1.00  0.00    -0.299 OA
ATOM      8  C   UNL     1     105.089 104.182 102.754  1.00  0.00     0.079 C 
ENDROOT
BRANCH   5   9
ATOM      9  C   UNL     1     108.197 106.540 103.630  1.00  0.00    -0.007 C 
ATOM     10  C   UNL     1     108.553 107.565 102.540  1.00  0.00     0.008 C 
ATOM     11  C   UNL     1     108.598 107.069 105.020  1.00  0.00     0.008 C 
ENDBRANCH   5   9
TORSDOF 1
ENDMDL
MODEL 7
REMARK VINA RESULT:    -4.322      1.101      4.157
REMARK INTER + INTRA:          -4.748
REMARK INTER:                  -4.580
REMARK INTRA:                  -0.168
REMARK UNBOUND:                -0.173
REMARK SMILES CC(C)[C@H]1CC[C@H](C)CC1=O
REMARK SMILES IDX 8 1 7 2 6 3 5 4 4 5 10 6 11 7 9 8 2 9 1 10 3 11
REMARK H PARENT
REMARK Flexibility Score: inf
ROOT
ATOM      1  C   UNL     1     109.084 107.284 101.886  1.00  0.00     0.008 C 
ATOM      2  C   UNL     1     107.619 106.857 102.029  1.00  0.00    -0.007 C 
ATOM      3  C   UNL     1     107.526 105.413 102.566  1.00  0.00     0.004 C 
ATOM      4  C   UNL     1     106.060 104.968 102.676  1.00  0.00     0.012 C 
ATOM      5  C   UNL     1     105.260 105.891 103.621  1.00  0.00     0.058 C 
ATOM      6  C   UNL     1     105.461 107.341 103.205  1.00  0.00     0.136 C 
ATOM      7  O   UNL     1     104.535 108.136 103.174  1.00  0.00    -0.299 OA
ATOM      8  C   UNL     1     106.860 107.831 102.949  1.00  0.00     0.079 C 
ENDROOT
BRANCH   5   9
ATOM      9  C   UNL     1     103.777 105.419 103.765  1.00  0.00    -0.007 C 
ATOM     10  C   UNL     1     103.420 104.325 102.745  1.00  0.00     0.008 C 
ATOM     11  C   UNL     1     103.384 104.979 105.188  1.00  0.00     0.008 C 
ENDBRANCH   5   9
TORSDOF 1
ENDMDL
MODEL 8
REMARK VINA RESULT:    -4.301      1.868      3.386
REMARK INTER + INTRA:          -4.725
REMARK INTER:                  -4.564
REMARK INTRA:                  -0.162
REMARK UNBOUND:                -0.173
REMARK SMILES CC(C)[C@H]1CC[C@H](C)CC1=O
REMARK SMILES IDX 8 1 7 2 6 3 5 4 4 5 10 6 11 7 9 8 2 9 1 10 3 11
REMARK H PARENT
REMARK Flexibility Score: inf
ROOT
ATOM      1  C   UNL     1     107.290 102.853 101.881  1.00  0.00     0.008 C 
ATOM      2  C   UNL     1     107.002 104.347 102.065  1.00  0.00    -0.007 C 
ATOM      3  C   UNL     1     105.485 104.616 102.013  1.00  0.00     0.004 C 
ATOM      4  C   UNL     1     105.194 106.117 102.161  1.00  0.00     0.012 C 
ATOM      5  C   UNL     1     105.740 106.669 103.496  1.00  0.00     0.058 C 
ATOM      6  C   UNL     1     107.204 106.282 103.643  1.00  0.00     0.136 C 
ATOM      7  O   UNL     1     108.040 107.070 104.058  1.00  0.00    -0.299 OA
ATOM      8  C   UNL     1     107.602 104.853 103.391  1.00  0.00     0.079 C 
ENDROOT
BRANCH   5   9
ATOM      9  C   UNL     1     105.413 108.188 103.665  1.00  0.00    -0.007 C 
ATOM     10  C   UNL     1     104.431 108.688 102.594  1.00  0.00     0.008 C 
ATOM     11  C   UNL     1     104.923 108.580 105.072  1.00  0.00     0.008 C 
ENDBRANCH   5   9
TORSDOF 1
ENDMDL
MODEL 9
REMARK VINA RESULT:    -3.944      1.954      3.402
REMARK INTER + INTRA:          -4.348
REMARK INTER:                  -4.357
REMARK INTRA:                   0.008
REMARK UNBOUND:                -0.173
REMARK SMILES CC(C)[C@H]1CC[C@H](C)CC1=O
REMARK SMILES IDX 8 1 7 2 6 3 5 4 4 5 10 6 11 7 9 8 2 9 1 10 3 11
REMARK H PARENT
REMARK Flexibility Score: inf
ROOT
ATOM      1  C   UNL     1     107.833 102.613 102.665  1.00  0.00     0.008 C 
ATOM      2  C   UNL     1     107.043 103.920 102.794  1.00  0.00    -0.007 C 
ATOM      3  C   UNL     1     106.468 104.067 104.217  1.00  0.00     0.004 C 
ATOM      4  C   UNL     1     105.645 105.358 104.340  1.00  0.00     0.012 C 
ATOM      5  C   UNL     1     106.501 106.605 104.030  1.00  0.00     0.058 C 
ATOM      6  C   UNL     1     107.205 106.418 102.694  1.00  0.00     0.136 C 
ATOM      7  O   UNL     1     107.282 107.320 101.875  1.00  0.00    -0.299 OA
ATOM      8  C   UNL     1     107.932 105.126 102.436  1.00  0.00     0.079 C 
ENDROOT
BRANCH   5   9
ATOM      9  C   UNL     1     105.675 107.923 104.190  1.00  0.00    -0.007 C 
ATOM     10  C   UNL     1     104.500 107.988 103.202  1.00  0.00     0.008 C 
ATOM     11  C   UNL     1     105.190 108.198 105.626  1.00  0.00     0.008 C 
ENDBRANCH   5   9
TORSDOF 1
ENDMDL
