MODEL 1
REMARK VINA RESULT:    -3.318      0.000      0.000
REMARK INTER + INTRA:          -3.932
REMARK INTER:                  -3.900
REMARK INTRA:                  -0.032
REMARK UNBOUND:                -0.032
REMARK SMILES CCCCC(=O)[O-]
REMARK SMILES IDX 4 1 5 2 6 3 7 4 3 5 2 6 1 7
REMARK H PARENT
REMARK Flexibility Score: inf
ROOT
ATOM      1  C   UNL     1       5.635  -7.619   1.033  1.00  0.00     0.053 C 
ENDROOT
BRANCH   1   2
ATOM      2  C   UNL     1       4.435  -6.728   0.988  1.00  0.00     0.041 C 
ATOM      3  O   UNL     1       4.044  -6.246  -0.108  1.00  0.00    -0.550 OA
ATOM      4  O   UNL     1       3.775  -6.387   2.162  1.00  0.00    -0.550 OA
ENDBRANCH   1   2
BRANCH   1   5
ATOM      5  C   UNL     1       5.562  -8.670  -0.083  1.00  0.00     0.006 C 
BRANCH   5   6
ATOM      6  C   UNL     1       6.768  -9.623  -0.073  1.00  0.00    -0.003 C 
ATOM      7  C   UNL     1       7.610  -9.500   1.197  1.00  0.00     0.004 C 
ENDBRANCH   5   6
ENDBRANCH   1   5
TORSDOF 3
ENDMDL
MODEL 2
REMARK VINA RESULT:    -3.121     18.944     19.358
REMARK INTER + INTRA:          -3.701
REMARK INTER:                  -3.675
REMARK INTRA:                  -0.026
REMARK UNBOUND:                -0.032
REMARK SMILES CCCCC(=O)[O-]
REMARK SMILES IDX 4 1 5 2 6 3 7 4 3 5 2 6 1 7
REMARK H PARENT
REMARK Flexibility Score: inf
ROOT
ATOM      1  C   UNL     1      -4.853   8.646   2.760  1.00  0.00     0.053 C 
ENDROOT
BRANCH   1   2
ATOM      2  C   UNL     1      -5.359   7.945   1.540  1.00  0.00     0.041 C 
ATOM      3  O   UNL     1      -5.297   8.506   0.415  1.00  0.00    -0.550 OA
ATOM      4  O   UNL     1      -5.944   6.690   1.651  1.00  0.00    -0.550 OA
ENDBRANCH   1   2
BRANCH   1   5
ATOM      5  C   UNL     1      -5.201   7.843   4.021  1.00  0.00     0.006 C 
BRANCH   5   6
ATOM      6  C   UNL     1      -4.140   7.987   5.123  1.00  0.00    -0.003 C 
ATOM      7  C   UNL     1      -4.730   8.442   6.458  1.00  0.00     0.004 C 
ENDBRANCH   5   6
ENDBRANCH   1   5
TORSDOF 3
ENDMDL
MODEL 3
REMARK VINA RESULT:    -3.087     18.873     19.352
REMARK INTER + INTRA:          -3.661
REMARK INTER:                  -3.617
REMARK INTRA:                  -0.044
REMARK UNBOUND:                -0.032
REMARK SMILES CCCCC(=O)[O-]
REMARK SMILES IDX 4 1 5 2 6 3 7 4 3 5 2 6 1 7
REMARK H PARENT
REMARK Flexibility Score: inf
ROOT
ATOM      1  C   UNL     1      -5.159   7.914   3.747  1.00  0.00     0.053 C 
ENDROOT
BRANCH   1   2
ATOM      2  C   UNL     1      -4.319   7.905   4.984  1.00  0.00     0.041 C 
ATOM      3  O   UNL     1      -3.068   7.787   4.901  1.00  0.00    -0.550 OA
ATOM      4  O   UNL     1      -4.921   7.978   6.235  1.00  0.00    -0.550 OA
ENDBRANCH   1   2
BRANCH   1   5
ATOM      5  C   UNL     1      -4.811   9.127   2.873  1.00  0.00     0.006 C 
BRANCH   5   6
ATOM      6  C   UNL     1      -4.869   8.807   1.372  1.00  0.00    -0.003 C 
ATOM      7  C   UNL     1      -5.699   7.561   1.063  1.00  0.00     0.004 C 
ENDBRANCH   5   6
ENDBRANCH   1   5
TORSDOF 3
ENDMDL
MODEL 4
REMARK VINA RESULT:    -2.970     19.071     19.704
REMARK INTER + INTRA:          -3.523
REMARK INTER:                  -3.429
REMARK INTRA:                  -0.094
REMARK UNBOUND:                -0.032
REMARK SMILES CCCCC(=O)[O-]
REMARK SMILES IDX 4 1 5 2 6 3 7 4 3 5 2 6 1 7
REMARK H PARENT
REMARK Flexibility Score: inf
ROOT
ATOM      1  C   UNL     1      -5.260   7.771   4.099  1.00  0.00     0.053 C 
ENDROOT
BRANCH   1   2
ATOM      2  C   UNL     1      -4.937   8.097   2.676  1.00  0.00     0.041 C 
ATOM      3  O   UNL     1      -5.325   7.339   1.748  1.00  0.00    -0.550 OA
ATOM      4  O   UNL     1      -4.165   9.212   2.375  1.00  0.00    -0.550 OA
ENDBRANCH   1   2
BRANCH   1   5
ATOM      5  C   UNL     1      -5.610   9.049   4.874  1.00  0.00     0.006 C 
BRANCH   5   6
ATOM      6  C   UNL     1      -4.714   9.256   6.105  1.00  0.00    -0.003 C 
ATOM      7  C   UNL     1      -3.336   8.613   5.949  1.00  0.00     0.004 C 
ENDBRANCH   5   6
ENDBRANCH   1   5
TORSDOF 3
ENDMDL
MODEL 5
REMARK VINA RESULT:    -2.855      9.893     11.537
REMARK INTER + INTRA:          -3.387
REMARK INTER:                  -3.328
REMARK INTRA:                  -0.059
REMARK UNBOUND:                -0.032
REMARK SMILES CCCCC(=O)[O-]
REMARK SMILES IDX 4 1 5 2 6 3 7 4 3 5 2 6 1 7
REMARK H PARENT
REMARK Flexibility Score: inf
ROOT
ATOM      1  C   UNL     1      -3.820  -7.396   7.257  1.00  0.00     0.053 C 
ENDROOT
BRANCH   1   2
ATOM      2  C   UNL     1      -2.632  -7.457   6.350  1.00  0.00     0.041 C 
ATOM      3  O   UNL     1      -2.692  -6.962   5.194  1.00  0.00    -0.550 OA
ATOM      4  O   UNL     1      -1.474  -8.105   6.762  1.00  0.00    -0.550 OA
ENDBRANCH   1   2
BRANCH   1   5
ATOM      5  C   UNL     1      -3.430  -6.778   8.607  1.00  0.00     0.006 C 
BRANCH   5   6
ATOM      6  C   UNL     1      -4.204  -5.486   8.908  1.00  0.00    -0.003 C 
ATOM      7  C   UNL     1      -4.947  -4.942   7.688  1.00  0.00     0.004 C 
ENDBRANCH   5   6
ENDBRANCH   1   5
TORSDOF 3
ENDMDL
MODEL 6
REMARK VINA RESULT:    -2.801     16.761     17.606
REMARK INTER + INTRA:          -3.325
REMARK INTER:                  -3.291
REMARK INTRA:                  -0.034
REMARK UNBOUND:                -0.032
REMARK SMILES CCCCC(=O)[O-]
REMARK SMILES IDX 4 1 5 2 6 3 7 4 3 5 2 6 1 7
REMARK H PARENT
REMARK Flexibility Score: inf
ROOT
ATOM      1  C   UNL     1      -9.444  -0.219  -5.068  1.00  0.00     0.053 C 
ENDROOT
BRANCH   1   2
ATOM      2  C   UNL     1      -9.237   1.234  -4.784  1.00  0.00     0.041 C 
ATOM      3  O   UNL     1      -8.833   1.607  -3.651  1.00  0.00    -0.550 OA
ATOM      4  O   UNL     1      -9.537   2.183  -5.753  1.00  0.00    -0.550 OA
ENDBRANCH   1   2
BRANCH   1   5
ATOM      5  C   UNL     1      -9.782  -0.974  -3.776  1.00  0.00     0.006 C 
BRANCH   5   6
ATOM      6  C   UNL     1      -9.353  -2.449  -3.826  1.00  0.00    -0.003 C 
ATOM      7  C   UNL     1      -9.667  -3.112  -5.167  1.00  0.00     0.004 C 
ENDBRANCH   5   6
ENDBRANCH   1   5
TORSDOF 3
ENDMDL
MODEL 7
REMARK VINA RESULT:    -2.696     13.604     14.903
REMARK INTER + INTRA:          -3.201
REMARK INTER:                  -3.153
REMARK INTRA:                  -0.048
REMARK UNBOUND:                -0.032
REMARK SMILES CCCCC(=O)[O-]
REMARK SMILES IDX 4 1 5 2 6 3 7 4 3 5 2 6 1 7
REMARK H PARENT
REMARK Flexibility Score: inf
ROOT
ATOM      1  C   UNL     1      -7.443  -4.877   6.799  1.00  0.00     0.053 C 
ENDROOT
BRANCH   1   2
ATOM      2  C   UNL     1      -6.283  -3.933   6.814  1.00  0.00     0.041 C 
ATOM      3  O   UNL     1      -5.367  -4.040   5.958  1.00  0.00    -0.550 OA
ATOM      4  O   UNL     1      -6.188  -2.963   7.805  1.00  0.00    -0.550 OA
ENDBRANCH   1   2
BRANCH   1   5
ATOM      5  C   UNL     1      -8.761  -4.106   6.953  1.00  0.00     0.006 C 
BRANCH   5   6
ATOM      6  C   UNL     1      -9.628  -4.164   5.685  1.00  0.00    -0.003 C 
ATOM      7  C   UNL     1      -8.925  -4.857   4.519  1.00  0.00     0.004 C 
ENDBRANCH   5   6
ENDBRANCH   1   5
TORSDOF 3
ENDMDL
MODEL 8
REMARK VINA RESULT:    -2.674     10.189     11.420
REMARK INTER + INTRA:          -3.175
REMARK INTER:                  -3.156
REMARK INTRA:                  -0.019
REMARK UNBOUND:                -0.032
REMARK SMILES CCCCC(=O)[O-]
REMARK SMILES IDX 4 1 5 2 6 3 7 4 3 5 2 6 1 7
REMARK H PARENT
REMARK Flexibility Score: inf
ROOT
ATOM      1  C   UNL     1       6.516   0.161  -6.812  1.00  0.00     0.053 C 
ENDROOT
BRANCH   1   2
ATOM      2  C   UNL     1       6.199  -1.272  -6.525  1.00  0.00     0.041 C 
ATOM      3  O   UNL     1       5.275  -1.855  -7.152  1.00  0.00    -0.550 OA
ATOM      4  O   UNL     1       6.889  -1.951  -5.528  1.00  0.00    -0.550 OA
ENDBRANCH   1   2
BRANCH   1   5
ATOM      5  C   UNL     1       5.668   1.085  -5.928  1.00  0.00     0.006 C 
BRANCH   5   6
ATOM      6  C   UNL     1       5.315   2.407  -6.626  1.00  0.00    -0.003 C 
ATOM      7  C   UNL     1       4.281   3.227  -5.854  1.00  0.00     0.004 C 
ENDBRANCH   5   6
ENDBRANCH   1   5
TORSDOF 3
ENDMDL
MODEL 9
REMARK VINA RESULT:    -2.624     16.231     16.896
REMARK INTER + INTRA:          -3.117
REMARK INTER:                  -3.011
REMARK INTRA:                  -0.106
REMARK UNBOUND:                -0.032
REMARK SMILES CCCCC(=O)[O-]
REMARK SMILES IDX 4 1 5 2 6 3 7 4 3 5 2 6 1 7
REMARK H PARENT
REMARK Flexibility Score: inf
ROOT
ATOM      1  C   UNL     1       6.325   9.438  -1.458  1.00  0.00     0.053 C 
ENDROOT
BRANCH   1   2
ATOM      2  C   UNL     1       5.987   8.260  -2.315  1.00  0.00     0.041 C 
ATOM      3  O   UNL     1       6.438   7.119  -2.031  1.00  0.00    -0.550 OA
ATOM      4  O   UNL     1       5.213   8.430  -3.456  1.00  0.00    -0.550 OA
ENDBRANCH   1   2
BRANCH   1   5
ATOM      5  C   UNL     1       5.617   9.332  -0.100  1.00  0.00     0.006 C 
BRANCH   5   6
ATOM      6  C   UNL     1       6.575   8.934   1.034  1.00  0.00    -0.003 C 
ATOM      7  C   UNL     1       8.037   9.243   0.710  1.00  0.00     0.004 C 
ENDBRANCH   5   6
ENDBRANCH   1   5
TORSDOF 3
ENDMDL
