MODEL 1
REMARK VINA RESULT:    -3.350      0.000      0.000
REMARK INTER + INTRA:          -3.286
REMARK INTER:                  -4.134
REMARK INTRA:                   0.848
REMARK UNBOUND:                 0.848
REMARK SMILES CC1=CC=CC(C)(C)CC1=O
REMARK SMILES IDX 1 1 2 2 3 3 10 4 11 5 9 6 4 8 5 9 6 10 7 11 8 12
REMARK H PARENT
REMARK Flexibility Score: 80.00
ROOT
ATOM      1  C   UNL     1     101.502 137.375 124.849  1.00  0.00     0.048 C 
ATOM      2  C   UNL     1     101.271 135.884 124.763  1.00  0.00    -0.008 C 
ATOM      3  C   UNL     1     100.766 135.260 125.849  1.00  0.00     0.007 C 
ENDROOT
BRANCH   2   4
ATOM      4  C   UNL     1     101.575 135.236 123.459  1.00  0.00     0.159 C 
ATOM      5  O   UNL     1     102.088 135.935 122.543  1.00  0.00    -0.295 OA
BRANCH   4   6
ATOM      6  C   UNL     1     101.271 133.802 123.143  1.00  0.00     0.091 CG0
ATOM      7  G   UNL     1     101.823 132.800 124.181  1.00  0.00     0.000 G0
ENDBRANCH   4   6
ENDBRANCH   2   4
BRANCH   3   8
ATOM      8  C   UNL     1     100.451 133.828 126.057  1.00  0.00    -0.003 C 
ATOM      9  C   UNL     1     100.908 132.766 125.383  1.00  0.00    -0.020 C 
BRANCH   9  10
ATOM     10  C   UNL     1     101.823 132.801 124.182  1.00  0.00    -0.010 CG0
ATOM     11  C   UNL     1     101.821 131.398 123.532  1.00  0.00     0.016 C 
ATOM     12  C   UNL     1     103.272 133.119 124.619  1.00  0.00     0.016 C 
ATOM     13  G   UNL     1     101.276 133.811 123.148  1.00  0.00     0.000 G0
ENDBRANCH   9  10
ENDBRANCH   3   8
TORSDOF 0
ENDMDL
MODEL 2
REMARK VINA RESULT:    -3.235      1.751      2.504
REMARK INTER + INTRA:          -3.143
REMARK INTER:                  -3.978
REMARK INTRA:                   0.835
REMARK UNBOUND:                 0.848
REMARK SMILES CC1=CC=CC(C)(C)CC1=O
REMARK SMILES IDX 1 1 2 2 3 3 10 4 11 5 9 6 4 8 5 9 6 10 7 11 8 12
REMARK H PARENT
REMARK Flexibility Score: 80.00
ROOT
ATOM      1  C   UNL     1      98.737 135.550 125.243  1.00  0.00     0.048 C 
ATOM      2  C   UNL     1     100.158 135.036 125.179  1.00  0.00    -0.008 C 
ATOM      3  C   UNL     1     101.154 135.898 125.479  1.00  0.00     0.007 C 
ENDROOT
BRANCH   2   4
ATOM      4  C   UNL     1     100.333 133.599 124.840  1.00  0.00     0.159 C 
ATOM      5  O   UNL     1      99.312 132.920 124.541  1.00  0.00    -0.295 OA
BRANCH   4   6
ATOM      6  C   UNL     1     101.650 132.884 124.868  1.00  0.00     0.091 CG0
ATOM      7  G   UNL     1     102.767 133.594 124.072  1.00  0.00     0.000 G0
ENDBRANCH   4   6
ENDBRANCH   2   4
BRANCH   3   8
ATOM      8  C   UNL     1     102.619 135.683 125.490  1.00  0.00    -0.003 C 
ATOM      9  C   UNL     1     103.328 134.728 124.877  1.00  0.00    -0.020 C 
BRANCH   9  10
ATOM     10  C   UNL     1     102.765 133.583 124.068  1.00  0.00    -0.010 CG0
ATOM     11  C   UNL     1     103.891 132.546 123.849  1.00  0.00     0.016 C 
ATOM     12  C   UNL     1     102.304 134.083 122.679  1.00  0.00     0.016 C 
ATOM     13  G   UNL     1     101.630 132.900 124.863  1.00  0.00     0.000 G0
ENDBRANCH   9  10
ENDBRANCH   3   8
TORSDOF 0
ENDMDL
MODEL 3
REMARK VINA RESULT:    -3.112     13.180     14.697
REMARK INTER + INTRA:          -2.991
REMARK INTER:                  -3.842
REMARK INTRA:                   0.850
REMARK UNBOUND:                 0.848
REMARK SMILES CC1=CC=CC(C)(C)CC1=O
REMARK SMILES IDX 1 1 2 2 3 3 10 4 11 5 9 6 4 8 5 9 6 10 7 11 8 12
REMARK H PARENT
REMARK Flexibility Score: 80.00
ROOT
ATOM      1  C   UNL     1      96.429 138.008 136.400  1.00  0.00     0.048 C 
ATOM      2  C   UNL     1      96.612 139.371 135.774  1.00  0.00    -0.008 C 
ATOM      3  C   UNL     1      97.507 139.489 134.769  1.00  0.00     0.007 C 
ENDROOT
BRANCH   2   4
ATOM      4  C   UNL     1      95.744 140.464 136.289  1.00  0.00     0.159 C 
ATOM      5  O   UNL     1      94.974 140.218 137.258  1.00  0.00    -0.295 OA
BRANCH   4   6
ATOM      6  C   UNL     1      95.693 141.843 135.703  1.00  0.00     0.091 CG0
ATOM      7  G   UNL     1      97.078 142.507 135.537  1.00  0.00     0.000 G0
ENDBRANCH   4   6
ENDBRANCH   2   4
BRANCH   3   8
ATOM      8  C   UNL     1      97.900 140.683 133.987  1.00  0.00    -0.003 C 
ATOM      9  C   UNL     1      97.753 141.975 134.305  1.00  0.00    -0.020 C 
BRANCH   9  10
ATOM     10  C   UNL     1      97.072 142.516 135.540  1.00  0.00    -0.010 CG0
ATOM     11  C   UNL     1      96.838 144.031 135.339  1.00  0.00     0.016 C 
ATOM     12  C   UNL     1      97.984 142.337 136.777  1.00  0.00     0.016 C 
ATOM     13  G   UNL     1      95.696 141.835 135.710  1.00  0.00     0.000 G0
ENDBRANCH   9  10
ENDBRANCH   3   8
TORSDOF 0
ENDMDL
MODEL 4
REMARK VINA RESULT:    -3.022     12.808     14.038
REMARK INTER + INTRA:          -2.881
REMARK INTER:                  -3.731
REMARK INTRA:                   0.850
REMARK UNBOUND:                 0.848
REMARK SMILES CC1=CC=CC(C)(C)CC1=O
REMARK SMILES IDX 1 1 2 2 3 3 10 4 11 5 9 6 4 8 5 9 6 10 7 11 8 12
REMARK H PARENT
REMARK Flexibility Score: 80.00
ROOT
ATOM      1  C   UNL     1      98.125 141.493 133.509  1.00  0.00     0.048 C 
ATOM      2  C   UNL     1      98.178 140.570 134.704  1.00  0.00    -0.008 C 
ATOM      3  C   UNL     1      97.219 139.626 134.815  1.00  0.00     0.007 C 
ENDROOT
BRANCH   2   4
ATOM      4  C   UNL     1      99.324 140.749 135.635  1.00  0.00     0.159 C 
ATOM      5  O   UNL     1     100.125 141.703 135.432  1.00  0.00    -0.295 OA
BRANCH   4   6
ATOM      6  C   UNL     1      99.619 139.838 136.790  1.00  0.00     0.091 CG0
ATOM      7  G   UNL     1      98.412 139.599 137.724  1.00  0.00     0.000 G0
ENDBRANCH   4   6
ENDBRANCH   2   4
BRANCH   3   8
ATOM      8  C   UNL     1      97.012 138.605 135.868  1.00  0.00    -0.003 C 
ATOM      9  C   UNL     1      97.482 138.591 137.121  1.00  0.00    -0.020 C 
BRANCH   9  10
ATOM     10  C   UNL     1      98.411 139.613 137.735  1.00  0.00    -0.010 CG0
ATOM     11  C   UNL     1      98.951 139.037 139.064  1.00  0.00     0.016 C 
ATOM     12  C   UNL     1      97.639 140.913 138.059  1.00  0.00     0.016 C 
ATOM     13  G   UNL     1      99.610 139.850 136.790  1.00  0.00     0.000 G0
ENDBRANCH   9  10
ENDBRANCH   3   8
TORSDOF 0
ENDMDL
MODEL 5
REMARK VINA RESULT:    -2.984      1.852      3.340
REMARK INTER + INTRA:          -2.833
REMARK INTER:                  -3.681
REMARK INTRA:                   0.848
REMARK UNBOUND:                 0.848
REMARK SMILES CC1=CC=CC(C)(C)CC1=O
REMARK SMILES IDX 1 1 2 2 3 3 10 4 11 5 9 6 4 8 5 9 6 10 7 11 8 12
REMARK H PARENT
REMARK Flexibility Score: 80.00
ROOT
ATOM      1  C   UNL     1     101.112 131.386 126.874  1.00  0.00     0.048 C 
ATOM      2  C   UNL     1     101.344 132.656 126.088  1.00  0.00    -0.008 C 
ATOM      3  C   UNL     1     100.459 133.665 126.243  1.00  0.00     0.007 C 
ENDROOT
BRANCH   2   4
ATOM      4  C   UNL     1     102.569 132.704 125.244  1.00  0.00     0.159 C 
ATOM      5  O   UNL     1     103.288 131.671 125.165  1.00  0.00    -0.295 OA
BRANCH   4   6
ATOM      6  C   UNL     1     103.032 133.924 124.506  1.00  0.00     0.091 CG0
ATOM      7  G   UNL     1     101.942 134.579 123.629  1.00  0.00     0.000 G0
ENDBRANCH   4   6
ENDBRANCH   2   4
BRANCH   3   8
ATOM      8  C   UNL     1     100.425 135.000 125.604  1.00  0.00    -0.003 C 
ATOM      9  C   UNL     1     101.025 135.402 124.477  1.00  0.00    -0.020 C 
BRANCH   9  10
ATOM     10  C   UNL     1     101.953 134.576 123.619  1.00  0.00    -0.010 CG0
ATOM     11  C   UNL     1     102.668 135.524 122.628  1.00  0.00     0.016 C 
ATOM     12  C   UNL     1     101.146 133.547 122.793  1.00  0.00     0.016 C 
ATOM     13  G   UNL     1     103.027 133.914 124.511  1.00  0.00     0.000 G0
ENDBRANCH   9  10
ENDBRANCH   3   8
TORSDOF 0
ENDMDL
MODEL 6
REMARK VINA RESULT:    -2.915     13.245     14.691
REMARK INTER + INTRA:          -2.749
REMARK INTER:                  -3.597
REMARK INTRA:                   0.848
REMARK UNBOUND:                 0.848
REMARK SMILES CC1=CC=CC(C)(C)CC1=O
REMARK SMILES IDX 1 1 2 2 3 3 10 4 11 5 9 6 4 8 5 9 6 10 7 11 8 12
REMARK H PARENT
REMARK Flexibility Score: 80.00
ROOT
ATOM      1  C   UNL     1      98.147 141.797 133.403  1.00  0.00     0.048 C 
ATOM      2  C   UNL     1      97.672 141.046 134.626  1.00  0.00    -0.008 C 
ATOM      3  C   UNL     1      97.353 139.742 134.480  1.00  0.00     0.007 C 
ENDROOT
BRANCH   2   4
ATOM      4  C   UNL     1      97.649 141.803 135.906  1.00  0.00     0.159 C 
ATOM      5  O   UNL     1      97.931 143.032 135.886  1.00  0.00    -0.295 OA
BRANCH   4   6
ATOM      6  C   UNL     1      97.350 141.187 137.240  1.00  0.00     0.091 CG0
ATOM      7  G   UNL     1      96.034 140.378 137.277  1.00  0.00     0.000 G0
ENDBRANCH   4   6
ENDBRANCH   2   4
BRANCH   3   8
ATOM      8  C   UNL     1      96.856 138.772 135.482  1.00  0.00    -0.003 C 
ATOM      9  C   UNL     1      96.267 139.015 136.660  1.00  0.00    -0.020 C 
BRANCH   9  10
ATOM     10  C   UNL     1      96.034 140.375 137.274  1.00  0.00    -0.010 CG0
ATOM     11  C   UNL     1      95.643 140.175 138.757  1.00  0.00     0.016 C 
ATOM     12  C   UNL     1      94.860 141.089 136.566  1.00  0.00     0.016 C 
ATOM     13  G   UNL     1      97.345 141.192 137.228  1.00  0.00     0.000 G0
ENDBRANCH   9  10
ENDBRANCH   3   8
TORSDOF 0
ENDMDL
MODEL 7
REMARK VINA RESULT:    -2.899     13.109     14.471
REMARK INTER + INTRA:          -2.729
REMARK INTER:                  -3.583
REMARK INTRA:                   0.854
REMARK UNBOUND:                 0.848
REMARK SMILES CC1=CC=CC(C)(C)CC1=O
REMARK SMILES IDX 1 1 2 2 3 3 10 4 11 5 9 6 4 8 5 9 6 10 7 11 8 12
REMARK H PARENT
REMARK Flexibility Score: 80.00
ROOT
ATOM      1  C   UNL     1      96.204 138.131 135.772  1.00  0.00     0.048 C 
ATOM      2  C   UNL     1      97.108 139.342 135.744  1.00  0.00    -0.008 C 
ATOM      3  C   UNL     1      97.695 139.664 134.571  1.00  0.00     0.007 C 
ENDROOT
BRANCH   2   4
ATOM      4  C   UNL     1      97.230 140.112 137.010  1.00  0.00     0.159 C 
ATOM      5  O   UNL     1      96.643 139.680 138.039  1.00  0.00    -0.295 OA
BRANCH   4   6
ATOM      6  C   UNL     1      97.980 141.405 137.137  1.00  0.00     0.091 CG0
ATOM      7  G   UNL     1      99.427 141.347 136.599  1.00  0.00     0.000 G0
ENDBRANCH   4   6
ENDBRANCH   2   4
BRANCH   3   8
ATOM      8  C   UNL     1      98.624 140.771 134.250  1.00  0.00    -0.003 C 
ATOM      9  C   UNL     1      99.393 141.484 135.082  1.00  0.00    -0.020 C 
BRANCH   9  10
ATOM     10  C   UNL     1      99.433 141.355 136.586  1.00  0.00    -0.010 CG0
ATOM     11  C   UNL     1     100.201 142.571 137.155  1.00  0.00     0.016 C 
ATOM     12  C   UNL     1     100.200 140.076 136.995  1.00  0.00     0.016 C 
ATOM     13  G   UNL     1      97.993 141.392 137.144  1.00  0.00     0.000 G0
ENDBRANCH   9  10
ENDBRANCH   3   8
TORSDOF 0
ENDMDL
MODEL 8
REMARK VINA RESULT:    -2.890     13.265     14.603
REMARK INTER + INTRA:          -2.718
REMARK INTER:                  -3.562
REMARK INTRA:                   0.843
REMARK UNBOUND:                 0.848
REMARK SMILES CC1=CC=CC(C)(C)CC1=O
REMARK SMILES IDX 1 1 2 2 3 3 10 4 11 5 9 6 4 8 5 9 6 10 7 11 8 12
REMARK H PARENT
REMARK Flexibility Score: 80.00
ROOT
ATOM      1  C   UNL     1      96.626 143.753 133.839  1.00  0.00     0.048 C 
ATOM      2  C   UNL     1      97.092 142.574 134.662  1.00  0.00    -0.008 C 
ATOM      3  C   UNL     1      97.791 141.604 134.034  1.00  0.00     0.007 C 
ENDROOT
BRANCH   2   4
ATOM      4  C   UNL     1      96.782 142.610 136.116  1.00  0.00     0.159 C 
ATOM      5  O   UNL     1      96.095 143.570 136.563  1.00  0.00    -0.295 OA
BRANCH   4   6
ATOM      6  C   UNL     1      97.270 141.594 137.105  1.00  0.00     0.091 CG0
ATOM      7  G   UNL     1      96.995 140.132 136.689  1.00  0.00     0.000 G0
ENDBRANCH   4   6
ENDBRANCH   2   4
BRANCH   3   8
ATOM      8  C   UNL     1      98.357 140.346 134.572  1.00  0.00    -0.003 C 
ATOM      9  C   UNL     1      98.014 139.684 135.684  1.00  0.00    -0.020 C 
BRANCH   9  10
ATOM     10  C   UNL     1      96.989 140.125 136.701  1.00  0.00    -0.010 CG0
ATOM     11  C   UNL     1      97.157 139.252 137.966  1.00  0.00     0.016 C 
ATOM     12  C   UNL     1      95.560 139.899 136.155  1.00  0.00     0.016 C 
ATOM     13  G   UNL     1      97.253 141.596 137.093  1.00  0.00     0.000 G0
ENDBRANCH   9  10
ENDBRANCH   3   8
TORSDOF 0
ENDMDL
MODEL 9
REMARK VINA RESULT:    -2.825     13.949     15.525
REMARK INTER + INTRA:          -2.637
REMARK INTER:                  -3.489
REMARK INTRA:                   0.852
REMARK UNBOUND:                 0.848
REMARK SMILES CC1=CC=CC(C)(C)CC1=O
REMARK SMILES IDX 1 1 2 2 3 3 10 4 11 5 9 6 4 8 5 9 6 10 7 11 8 12
REMARK H PARENT
REMARK Flexibility Score: 80.00
ROOT
ATOM      1  C   UNL     1      98.487 141.139 133.875  1.00  0.00     0.048 C 
ATOM      2  C   UNL     1      97.326 141.809 134.574  1.00  0.00    -0.008 C 
ATOM      3  C   UNL     1      96.987 143.056 134.181  1.00  0.00     0.007 C 
ENDROOT
BRANCH   2   4
ATOM      4  C   UNL     1      96.618 141.008 135.608  1.00  0.00     0.159 C 
ATOM      5  O   UNL     1      97.083 139.877 135.920  1.00  0.00    -0.295 OA
BRANCH   4   6
ATOM      6  C   UNL     1      95.351 141.441 136.283  1.00  0.00     0.091 CG0
ATOM      7  G   UNL     1      95.430 142.843 136.927  1.00  0.00     0.000 G0
ENDBRANCH   4   6
ENDBRANCH   2   4
BRANCH   3   8
ATOM      8  C   UNL     1      95.919 143.949 134.683  1.00  0.00    -0.003 C 
ATOM      9  C   UNL     1      95.265 143.895 135.850  1.00  0.00    -0.020 C 
BRANCH   9  10
ATOM     10  C   UNL     1      95.432 142.837 136.916  1.00  0.00    -0.010 CG0
ATOM     11  C   UNL     1      94.262 142.972 137.917  1.00  0.00     0.016 C 
ATOM     12  C   UNL     1      96.750 143.062 137.693  1.00  0.00     0.016 C 
ATOM     13  G   UNL     1      95.353 141.437 136.268  1.00  0.00     0.000 G0
ENDBRANCH   9  10
ENDBRANCH   3   8
TORSDOF 0
ENDMDL
