MODEL 1
REMARK VINA RESULT:    -6.674      0.000      0.000
REMARK INTER + INTRA:          -7.329
REMARK INTER:                  -7.064
REMARK INTRA:                  -0.265
REMARK UNBOUND:                -0.265
REMARK SMILES O=c1cc(-c2ccccc2)oc2ccccc12
REMARK SMILES IDX 4 1 3 2 2 3 1 4 17 5 16 6 15 7 14 8 13 9 12 10 11 11 5 12
REMARK SMILES IDX 8 13 7 14 9 15 6 16 10 17
REMARK H PARENT
REMARK Flexibility Score: inf
ROOT
ATOM      1  C   UNL     1      20.179  -1.004 -19.255  1.00  0.00     0.138 A 
ATOM      2  C   UNL     1      19.826  -0.180 -18.166  1.00  0.00     0.100 A 
ATOM      3  C   UNL     1      19.176  -0.737 -17.063  1.00  0.00     0.193 A 
ATOM      4  O   UNL     1      18.860   0.001 -16.090  1.00  0.00    -0.289 OA
ATOM      5  C   UNL     1      18.883  -2.108 -17.053  1.00  0.00     0.065 A 
ATOM      6  C   UNL     1      18.230  -2.732 -15.975  1.00  0.00     0.016 A 
ATOM      7  C   UNL     1      17.963  -4.103 -16.018  1.00  0.00     0.001 A 
ATOM      8  C   UNL     1      18.341  -4.860 -17.130  1.00  0.00     0.004 A 
ATOM      9  C   UNL     1      18.990  -4.247 -18.207  1.00  0.00     0.048 A 
ATOM     10  C   UNL     1      19.264  -2.876 -18.175  1.00  0.00     0.138 A 
ATOM     11  O   UNL     1      19.881  -2.303 -19.203  1.00  0.00    -0.456 OA
ENDROOT
BRANCH   1  12
ATOM     12  C   UNL     1      20.877  -0.489 -20.473  1.00  0.00     0.017 A 
ATOM     13  C   UNL     1      22.210   0.569 -22.726  1.00  0.00     0.000 A 
ATOM     14  C   UNL     1      21.708  -0.732 -22.758  1.00  0.00     0.001 A 
ATOM     15  C   UNL     1      22.051   1.346 -21.580  1.00  0.00     0.001 A 
ATOM     16  C   UNL     1      21.047  -1.262 -21.645  1.00  0.00     0.012 A 
ATOM     17  C   UNL     1      21.392   0.825 -20.462  1.00  0.00     0.012 A 
ENDBRANCH   1  12
TORSDOF 1
ENDMDL
MODEL 2
REMARK VINA RESULT:    -6.622      1.248      2.708
REMARK INTER + INTRA:          -7.274
REMARK INTER:                  -7.008
REMARK INTRA:                  -0.266
REMARK UNBOUND:                -0.265
REMARK SMILES O=c1cc(-c2ccccc2)oc2ccccc12
REMARK SMILES IDX 4 1 3 2 2 3 1 4 17 5 16 6 15 7 14 8 13 9 12 10 11 11 5 12
REMARK SMILES IDX 8 13 7 14 9 15 6 16 10 17
REMARK H PARENT
REMARK Flexibility Score: inf
ROOT
ATOM      1  C   UNL     1      20.317  -0.975 -19.705  1.00  0.00     0.138 A 
ATOM      2  C   UNL     1      19.910  -2.326 -19.720  1.00  0.00     0.100 A 
ATOM      3  C   UNL     1      19.250  -2.859 -18.611  1.00  0.00     0.193 A 
ATOM      4  O   UNL     1      18.888  -4.067 -18.625  1.00  0.00    -0.289 OA
ATOM      5  C   UNL     1      18.999  -2.044 -17.499  1.00  0.00     0.065 A 
ATOM      6  C   UNL     1      18.340  -2.517 -16.350  1.00  0.00     0.016 A 
ATOM      7  C   UNL     1      18.116  -1.660 -15.269  1.00  0.00     0.001 A 
ATOM      8  C   UNL     1      18.546  -0.332 -15.323  1.00  0.00     0.004 A 
ATOM      9  C   UNL     1      19.203   0.147 -16.460  1.00  0.00     0.048 A 
ATOM     10  C   UNL     1      19.432  -0.700 -17.549  1.00  0.00     0.138 A 
ATOM     11  O   UNL     1      20.057  -0.236 -18.626  1.00  0.00    -0.456 OA
ENDROOT
BRANCH   1  12
ATOM     12  C   UNL     1      21.028  -0.326 -20.850  1.00  0.00     0.017 A 
ATOM     13  C   UNL     1      22.360   0.815 -23.062  1.00  0.00     0.000 A 
ATOM     14  C   UNL     1      22.160   1.565 -21.903  1.00  0.00     0.001 A 
ATOM     15  C   UNL     1      21.902  -0.500 -23.125  1.00  0.00     0.001 A 
ATOM     16  C   UNL     1      21.501   1.006 -20.804  1.00  0.00     0.012 A 
ATOM     17  C   UNL     1      21.241  -1.068 -22.032  1.00  0.00     0.012 A 
ENDBRANCH   1  12
TORSDOF 1
ENDMDL
MODEL 3
REMARK VINA RESULT:    -6.300      1.684      2.721
REMARK INTER + INTRA:          -6.933
REMARK INTER:                  -6.708
REMARK INTRA:                  -0.225
REMARK UNBOUND:                -0.265
REMARK SMILES O=c1cc(-c2ccccc2)oc2ccccc12
REMARK SMILES IDX 4 1 3 2 2 3 1 4 17 5 16 6 15 7 14 8 13 9 12 10 11 11 5 12
REMARK SMILES IDX 8 13 7 14 9 15 6 16 10 17
REMARK H PARENT
REMARK Flexibility Score: inf
ROOT
ATOM      1  C   UNL     1      18.889  -1.408 -17.147  1.00  0.00     0.138 A 
ATOM      2  C   UNL     1      18.146  -0.634 -16.230  1.00  0.00     0.100 A 
ATOM      3  C   UNL     1      17.401  -1.272 -15.236  1.00  0.00     0.193 A 
ATOM      4  O   UNL     1      16.737  -0.580 -14.418  1.00  0.00    -0.289 OA
ATOM      5  C   UNL     1      17.401  -2.672 -15.164  1.00  0.00     0.065 A 
ATOM      6  C   UNL     1      16.672  -3.376 -14.189  1.00  0.00     0.016 A 
ATOM      7  C   UNL     1      16.707  -4.774 -14.162  1.00  0.00     0.001 A 
ATOM      8  C   UNL     1      17.466  -5.476 -15.103  1.00  0.00     0.004 A 
ATOM      9  C   UNL     1      18.193  -4.784 -16.076  1.00  0.00     0.048 A 
ATOM     10  C   UNL     1      18.166  -3.386 -16.112  1.00  0.00     0.138 A 
ATOM     11  O   UNL     1      18.860  -2.737 -17.040  1.00  0.00    -0.456 OA
ENDROOT
BRANCH   1  12
ATOM     12  C   UNL     1      19.714  -0.805 -18.240  1.00  0.00     0.017 A 
ATOM     13  C   UNL     1      21.200   0.307 -20.366  1.00  0.00     0.000 A 
ATOM     14  C   UNL     1      21.702   0.348 -19.066  1.00  0.00     0.001 A 
ATOM     15  C   UNL     1      19.962  -0.285 -20.614  1.00  0.00     0.001 A 
ATOM     16  C   UNL     1      20.971  -0.201 -18.008  1.00  0.00     0.012 A 
ATOM     17  C   UNL     1      19.224  -0.837 -19.563  1.00  0.00     0.012 A 
ENDBRANCH   1  12
TORSDOF 1
ENDMDL
MODEL 4
REMARK VINA RESULT:    -5.826      2.144      3.480
REMARK INTER + INTRA:          -6.432
REMARK INTER:                  -6.207
REMARK INTRA:                  -0.225
REMARK UNBOUND:                -0.265
REMARK SMILES O=c1cc(-c2ccccc2)oc2ccccc12
REMARK SMILES IDX 4 1 3 2 2 3 1 4 17 5 16 6 15 7 14 8 13 9 12 10 11 11 5 12
REMARK SMILES IDX 8 13 7 14 9 15 6 16 10 17
REMARK H PARENT
REMARK Flexibility Score: inf
ROOT
ATOM      1  C   UNL     1      18.883  -1.362 -17.367  1.00  0.00     0.138 A 
ATOM      2  C   UNL     1      18.894  -2.745 -17.086  1.00  0.00     0.100 A 
ATOM      3  C   UNL     1      18.131  -3.239 -16.026  1.00  0.00     0.193 A 
ATOM      4  O   UNL     1      18.142  -4.474 -15.775  1.00  0.00    -0.289 OA
ATOM      5  C   UNL     1      17.364  -2.353 -15.257  1.00  0.00     0.065 A 
ATOM      6  C   UNL     1      16.573  -2.784 -14.176  1.00  0.00     0.016 A 
ATOM      7  C   UNL     1      15.827  -1.857 -13.441  1.00  0.00     0.001 A 
ATOM      8  C   UNL     1      15.864  -0.501 -13.776  1.00  0.00     0.004 A 
ATOM      9  C   UNL     1      16.647  -0.064 -14.849  1.00  0.00     0.048 A 
ATOM     10  C   UNL     1      17.397  -0.981 -15.591  1.00  0.00     0.138 A 
ATOM     11  O   UNL     1      18.138  -0.557 -16.609  1.00  0.00    -0.456 OA
ENDROOT
BRANCH   1  12
ATOM     12  C   UNL     1      19.671  -0.752 -18.483  1.00  0.00     0.017 A 
ATOM     13  C   UNL     1      21.225   0.427 -20.523  1.00  0.00     0.000 A 
ATOM     14  C   UNL     1      20.021  -0.201 -20.837  1.00  0.00     0.001 A 
ATOM     15  C   UNL     1      21.660   0.472 -19.199  1.00  0.00     0.001 A 
ATOM     16  C   UNL     1      19.246  -0.788 -19.831  1.00  0.00     0.012 A 
ATOM     17  C   UNL     1      20.893  -0.111 -18.187  1.00  0.00     0.012 A 
ENDBRANCH   1  12
TORSDOF 1
ENDMDL
MODEL 5
REMARK VINA RESULT:    -5.768     11.699     15.318
REMARK INTER + INTRA:          -6.371
REMARK INTER:                  -6.106
REMARK INTRA:                  -0.265
REMARK UNBOUND:                -0.265
REMARK SMILES O=c1cc(-c2ccccc2)oc2ccccc12
REMARK SMILES IDX 4 1 3 2 2 3 1 4 17 5 16 6 15 7 14 8 13 9 12 10 11 11 5 12
REMARK SMILES IDX 8 13 7 14 9 15 6 16 10 17
REMARK H PARENT
REMARK Flexibility Score: inf
ROOT
ATOM      1  C   UNL     1      10.751  -6.753  -8.958  1.00  0.00     0.138 A 
ATOM      2  C   UNL     1       9.855  -7.842  -8.999  1.00  0.00     0.100 A 
ATOM      3  C   UNL     1       8.854  -7.949  -8.031  1.00  0.00     0.193 A 
ATOM      4  O   UNL     1       8.055  -8.923  -8.069  1.00  0.00    -0.289 OA
ATOM      5  C   UNL     1       8.754  -6.972  -7.031  1.00  0.00     0.065 A 
ATOM      6  C   UNL     1       7.770  -7.019  -6.026  1.00  0.00     0.016 A 
ATOM      7  C   UNL     1       7.716  -6.017  -5.053  1.00  0.00     0.001 A 
ATOM      8  C   UNL     1       8.636  -4.966  -5.073  1.00  0.00     0.004 A 
ATOM      9  C   UNL     1       9.617  -4.911  -6.067  1.00  0.00     0.048 A 
ATOM     10  C   UNL     1       9.682  -5.907  -7.047  1.00  0.00     0.138 A 
ATOM     11  O   UNL     1      10.618  -5.846  -7.988  1.00  0.00    -0.456 OA
ENDROOT
BRANCH   1  12
ATOM     12  C   UNL     1      11.849  -6.563  -9.955  1.00  0.00     0.017 A 
ATOM     13  C   UNL     1      13.902  -6.295 -11.874  1.00  0.00     0.000 A 
ATOM     14  C   UNL     1      13.641  -5.257 -10.980  1.00  0.00     0.001 A 
ATOM     15  C   UNL     1      13.147  -7.466 -11.817  1.00  0.00     0.001 A 
ATOM     16  C   UNL     1      12.625  -5.384 -10.027  1.00  0.00     0.012 A 
ATOM     17  C   UNL     1      12.130  -7.602 -10.869  1.00  0.00     0.012 A 
ENDBRANCH   1  12
TORSDOF 1
ENDMDL
MODEL 6
REMARK VINA RESULT:    -5.682     10.224     11.828
REMARK INTER + INTRA:          -6.280
REMARK INTER:                  -6.059
REMARK INTRA:                  -0.221
REMARK UNBOUND:                -0.265
REMARK SMILES O=c1cc(-c2ccccc2)oc2ccccc12
REMARK SMILES IDX 4 1 3 2 2 3 1 4 17 5 16 6 15 7 14 8 13 9 12 10 11 11 5 12
REMARK SMILES IDX 8 13 7 14 9 15 6 16 10 17
REMARK H PARENT
REMARK Flexibility Score: inf
ROOT
ATOM      1  C   UNL     1      20.616  -1.556  -7.623  1.00  0.00     0.138 A 
ATOM      2  C   UNL     1      20.376  -0.201  -7.307  1.00  0.00     0.100 A 
ATOM      3  C   UNL     1      19.202   0.412  -7.748  1.00  0.00     0.193 A 
ATOM      4  O   UNL     1      18.989   1.622  -7.466  1.00  0.00    -0.289 OA
ATOM      5  C   UNL     1      18.277  -0.327  -8.498  1.00  0.00     0.065 A 
ATOM      6  C   UNL     1      17.075   0.229  -8.974  1.00  0.00     0.016 A 
ATOM      7  C   UNL     1      16.188  -0.554  -9.718  1.00  0.00     0.001 A 
ATOM      8  C   UNL     1      16.489  -1.890  -9.993  1.00  0.00     0.004 A 
ATOM      9  C   UNL     1      17.681  -2.451  -9.525  1.00  0.00     0.048 A 
ATOM     10  C   UNL     1      18.577  -1.678  -8.779  1.00  0.00     0.138 A 
ATOM     11  O   UNL     1      19.707  -2.220  -8.339  1.00  0.00    -0.456 OA
ENDROOT
BRANCH   1  12
ATOM     12  C   UNL     1      21.845  -2.288  -7.189  1.00  0.00     0.017 A 
ATOM     13  C   UNL     1      24.125  -3.685  -6.284  1.00  0.00     0.000 A 
ATOM     14  C   UNL     1      24.088  -3.175  -7.581  1.00  0.00     0.001 A 
ATOM     15  C   UNL     1      23.035  -3.502  -5.434  1.00  0.00     0.001 A 
ATOM     16  C   UNL     1      22.961  -2.482  -8.036  1.00  0.00     0.012 A 
ATOM     17  C   UNL     1      21.904  -2.811  -5.880  1.00  0.00     0.012 A 
ENDBRANCH   1  12
TORSDOF 1
ENDMDL
MODEL 7
REMARK VINA RESULT:    -5.665     18.124     19.872
REMARK INTER + INTRA:          -6.261
REMARK INTER:                  -6.026
REMARK INTRA:                  -0.235
REMARK UNBOUND:                -0.265
REMARK SMILES O=c1cc(-c2ccccc2)oc2ccccc12
REMARK SMILES IDX 4 1 3 2 2 3 1 4 17 5 16 6 15 7 14 8 13 9 12 10 11 11 5 12
REMARK SMILES IDX 8 13 7 14 9 15 6 16 10 17
REMARK H PARENT
REMARK Flexibility Score: inf
ROOT
ATOM      1  C   UNL     1       4.901   6.800 -10.240  1.00  0.00     0.138 A 
ATOM      2  C   UNL     1       4.983   8.171  -9.912  1.00  0.00     0.100 A 
ATOM      3  C   UNL     1       4.998   9.123 -10.932  1.00  0.00     0.193 A 
ATOM      4  O   UNL     1       5.072  10.347 -10.639  1.00  0.00    -0.289 OA
ATOM      5  C   UNL     1       4.930   8.705 -12.269  1.00  0.00     0.065 A 
ATOM      6  C   UNL     1       4.940   9.612 -13.344  1.00  0.00     0.016 A 
ATOM      7  C   UNL     1       4.870   9.140 -14.658  1.00  0.00     0.001 A 
ATOM      8  C   UNL     1       4.790   7.768 -14.910  1.00  0.00     0.004 A 
ATOM      9  C   UNL     1       4.780   6.859 -13.847  1.00  0.00     0.048 A 
ATOM     10  C   UNL     1       4.849   7.320 -12.528  1.00  0.00     0.138 A 
ATOM     11  O   UNL     1       4.838   6.448 -11.525  1.00  0.00    -0.456 OA
ENDROOT
BRANCH   1  12
ATOM     12  C   UNL     1       4.880   5.717  -9.209  1.00  0.00     0.017 A 
ATOM     13  C   UNL     1       4.921   3.633  -7.305  1.00  0.00     0.000 A 
ATOM     14  C   UNL     1       3.923   4.605  -7.256  1.00  0.00     0.001 A 
ATOM     15  C   UNL     1       5.898   3.691  -8.298  1.00  0.00     0.001 A 
ATOM     16  C   UNL     1       3.897   5.640  -8.196  1.00  0.00     0.012 A 
ATOM     17  C   UNL     1       5.881   4.722  -9.242  1.00  0.00     0.012 A 
ENDBRANCH   1  12
TORSDOF 1
ENDMDL
MODEL 8
REMARK VINA RESULT:    -5.636     12.124     14.573
REMARK INTER + INTRA:          -6.231
REMARK INTER:                  -6.002
REMARK INTRA:                  -0.228
REMARK UNBOUND:                -0.265
REMARK SMILES O=c1cc(-c2ccccc2)oc2ccccc12
REMARK SMILES IDX 4 1 3 2 2 3 1 4 17 5 16 6 15 7 14 8 13 9 12 10 11 11 5 12
REMARK SMILES IDX 8 13 7 14 9 15 6 16 10 17
REMARK H PARENT
REMARK Flexibility Score: inf
ROOT
ATOM      1  C   UNL     1      10.234  -6.639 -10.738  1.00  0.00     0.138 A 
ATOM      2  C   UNL     1       9.366  -5.677 -11.297  1.00  0.00     0.100 A 
ATOM      3  C   UNL     1       8.444  -5.023 -10.478  1.00  0.00     0.193 A 
ATOM      4  O   UNL     1       7.668  -4.164 -10.979  1.00  0.00    -0.289 OA
ATOM      5  C   UNL     1       8.393  -5.331  -9.112  1.00  0.00     0.065 A 
ATOM      6  C   UNL     1       7.489  -4.710  -8.232  1.00  0.00     0.016 A 
ATOM      7  C   UNL     1       7.481  -5.055  -6.877  1.00  0.00     0.001 A 
ATOM      8  C   UNL     1       8.370  -6.018  -6.391  1.00  0.00     0.004 A 
ATOM      9  C   UNL     1       9.272  -6.641  -7.259  1.00  0.00     0.048 A 
ATOM     10  C   UNL     1       9.290  -6.303  -8.616  1.00  0.00     0.138 A 
ATOM     11  O   UNL     1      10.151  -6.900  -9.433  1.00  0.00    -0.456 OA
ENDROOT
BRANCH   1  12
ATOM     12  C   UNL     1      11.250  -7.385 -11.544  1.00  0.00     0.017 A 
ATOM     13  C   UNL     1      13.095  -8.838 -13.110  1.00  0.00     0.000 A 
ATOM     14  C   UNL     1      13.551  -7.908 -12.177  1.00  0.00     0.001 A 
ATOM     15  C   UNL     1      11.726  -9.050 -13.267  1.00  0.00     0.001 A 
ATOM     16  C   UNL     1      12.642  -7.184 -11.398  1.00  0.00     0.012 A 
ATOM     17  C   UNL     1      10.810  -8.332 -12.493  1.00  0.00     0.012 A 
ENDBRANCH   1  12
TORSDOF 1
ENDMDL
MODEL 9
REMARK VINA RESULT:    -5.600     14.358     17.093
REMARK INTER + INTRA:          -6.192
REMARK INTER:                  -5.939
REMARK INTRA:                  -0.254
REMARK UNBOUND:                -0.265
REMARK SMILES O=c1cc(-c2ccccc2)oc2ccccc12
REMARK SMILES IDX 4 1 3 2 2 3 1 4 17 5 16 6 15 7 14 8 13 9 12 10 11 11 5 12
REMARK SMILES IDX 8 13 7 14 9 15 6 16 10 17
REMARK H PARENT
REMARK Flexibility Score: inf
ROOT
ATOM      1  C   UNL     1       8.239  -6.188  -8.225  1.00  0.00     0.138 A 
ATOM      2  C   UNL     1       7.981  -5.046  -9.013  1.00  0.00     0.100 A 
ATOM      3  C   UNL     1       8.097  -5.127 -10.402  1.00  0.00     0.193 A 
ATOM      4  O   UNL     1       7.867  -4.107 -11.106  1.00  0.00    -0.289 OA
ATOM      5  C   UNL     1       8.467  -6.343 -10.995  1.00  0.00     0.065 A 
ATOM      6  C   UNL     1       8.603  -6.493 -12.387  1.00  0.00     0.016 A 
ATOM      7  C   UNL     1       8.975  -7.728 -12.925  1.00  0.00     0.001 A 
ATOM      8  C   UNL     1       9.215  -8.818 -12.084  1.00  0.00     0.004 A 
ATOM      9  C   UNL     1       9.083  -8.678 -10.699  1.00  0.00     0.048 A 
ATOM     10  C   UNL     1       8.711  -7.447 -10.149  1.00  0.00     0.138 A 
ATOM     11  O   UNL     1       8.588  -7.324  -8.832  1.00  0.00    -0.456 OA
ENDROOT
BRANCH   1  12
ATOM     12  C   UNL     1       8.137  -6.188  -6.733  1.00  0.00     0.017 A 
ATOM     13  C   UNL     1       7.973  -6.092  -3.917  1.00  0.00     0.000 A 
ATOM     14  C   UNL     1       7.653  -7.267  -4.596  1.00  0.00     0.001 A 
ATOM     15  C   UNL     1       8.376  -4.965  -4.632  1.00  0.00     0.001 A 
ATOM     16  C   UNL     1       7.731  -7.321  -5.991  1.00  0.00     0.012 A 
ATOM     17  C   UNL     1       8.457  -5.009  -6.026  1.00  0.00     0.012 A 
ENDBRANCH   1  12
TORSDOF 1
ENDMDL
