MODEL 1
REMARK VINA RESULT:    -2.552      0.000      0.000
REMARK INTER + INTRA:          -3.532
REMARK INTER:                  -3.149
REMARK INTRA:                  -0.383
REMARK UNBOUND:                -0.383
REMARK SMILES Oc1cc(O)c2cc(O)c(-c3cc(O)c(O)c(O)c3)[o+]c2c1.[Cl-]
REMARK SMILES IDX 10 1 20 2 21 3 22 4 2 5 3 6 4 7 6 8 7 9 8 10 11 11 12 12
REMARK SMILES IDX 13 13 19 14 15 15 17 16 14 17 16 19 18 21 9 23 1 25 5 27
REMARK H PARENT 14 18 16 20 18 22 9 24 1 26 5 28
REMARK Flexibility Score: inf
ROOT
ATOM      1  C   UNL     1      23.980  24.991  14.477  1.00  0.00     0.402 A 
ATOM      2  O   UNL     1      24.308  25.502  15.661  1.00  0.00    -0.202 OA
ATOM      3  C   UNL     1      24.379  26.807  15.900  1.00  0.00     0.368 A 
ATOM      4  C   UNL     1      24.736  27.247  17.176  1.00  0.00     0.162 A 
ATOM      5  C   UNL     1      24.822  28.615  17.453  1.00  0.00     0.128 A 
ATOM      6  C   UNL     1      24.549  29.546  16.449  1.00  0.00     0.093 A 
ATOM      7  C   UNL     1      24.189  29.130  15.161  1.00  0.00     0.136 A 
ATOM      8  C   UNL     1      24.099  27.744  14.875  1.00  0.00     0.125 A 
ATOM      9  C   UNL     1      23.733  27.236  13.617  1.00  0.00     0.078 A 
ATOM     10  C   UNL     1      23.660  25.855  13.413  1.00  0.00     0.223 A 
ENDROOT
BRANCH   1  11
ATOM     11  C   UNL     1      23.946  23.517  14.334  1.00  0.00     0.091 A 
ATOM     12  C   UNL     1      25.059  22.803  13.860  1.00  0.00     0.068 A 
ATOM     13  C   UNL     1      25.015  21.405  13.753  1.00  0.00     0.162 A 
ATOM     14  C   UNL     1      22.800  22.813  14.733  1.00  0.00     0.068 A 
ATOM     15  C   UNL     1      23.855  20.709  14.134  1.00  0.00     0.200 A 
ATOM     16  C   UNL     1      22.747  21.419  14.628  1.00  0.00     0.162 A 
BRANCH  13  17
ATOM     17  O   UNL     1      26.123  20.707  13.275  1.00  0.00    -0.504 OA
ATOM     18  H   UNL     1      27.048  21.120  13.266  1.00  0.00     0.293 HD
ENDBRANCH  13  17
BRANCH  15  19
ATOM     19  O   UNL     1      23.793  19.319  14.030  1.00  0.00    -0.502 OA
ATOM     20  H   UNL     1      23.731  18.719  14.843  1.00  0.00     0.293 HD
ENDBRANCH  15  19
BRANCH  16  21
ATOM     21  O   UNL     1      21.585  20.756  15.021  1.00  0.00    -0.504 OA
ATOM     22  H   UNL     1      20.694  21.232  15.105  1.00  0.00     0.293 HD
ENDBRANCH  16  21
ENDBRANCH   1  11
BRANCH  10  23
ATOM     23  O   UNL     1      23.249  25.351  12.179  1.00  0.00    -0.500 OA
ATOM     24  H   UNL     1      23.564  24.449  11.839  1.00  0.00     0.294 HD
ENDBRANCH  10  23
BRANCH   5  25
ATOM     25  O   UNL     1      25.177  29.060  18.724  1.00  0.00    -0.507 OA
ATOM     26  H   UNL     1      24.745  28.681  19.559  1.00  0.00     0.293 HD
ENDBRANCH   5  25
BRANCH   7  27
ATOM     27  O   UNL     1      23.935  30.125  14.211  1.00  0.00    -0.507 OA
ATOM     28  H   UNL     1      23.321  30.013  13.418  1.00  0.00     0.293 HD
ENDBRANCH   7  27
TORSDOF 7
ENDMDL
MODEL 2
REMARK VINA RESULT:    -2.530      0.430      1.825
REMARK INTER + INTRA:          -3.504
REMARK INTER:                  -3.127
REMARK INTRA:                  -0.377
REMARK UNBOUND:                -0.383
REMARK SMILES Oc1cc(O)c2cc(O)c(-c3cc(O)c(O)c(O)c3)[o+]c2c1.[Cl-]
REMARK SMILES IDX 10 1 20 2 21 3 22 4 2 5 3 6 4 7 6 8 7 9 8 10 11 11 12 12
REMARK SMILES IDX 13 13 19 14 15 15 17 16 14 17 16 19 18 21 9 23 1 25 5 27
REMARK H PARENT 14 18 16 20 18 22 9 24 1 26 5 28
REMARK Flexibility Score: inf
ROOT
ATOM      1  C   UNL     1      23.794  24.991  14.227  1.00  0.00     0.402 A 
ATOM      2  O   UNL     1      24.041  25.482  15.439  1.00  0.00    -0.202 OA
ATOM      3  C   UNL     1      24.155  26.782  15.692  1.00  0.00     0.368 A 
ATOM      4  C   UNL     1      24.418  27.201  16.998  1.00  0.00     0.162 A 
ATOM      5  C   UNL     1      24.546  28.562  17.290  1.00  0.00     0.128 A 
ATOM      6  C   UNL     1      24.411  29.507  16.272  1.00  0.00     0.093 A 
ATOM      7  C   UNL     1      24.147  29.113  14.954  1.00  0.00     0.136 A 
ATOM      8  C   UNL     1      24.015  27.733  14.652  1.00  0.00     0.125 A 
ATOM      9  C   UNL     1      23.738  27.248  13.363  1.00  0.00     0.078 A 
ATOM     10  C   UNL     1      23.615  25.872  13.145  1.00  0.00     0.223 A 
ENDROOT
BRANCH   1  11
ATOM     11  C   UNL     1      23.700  23.521  14.072  1.00  0.00     0.091 A 
ATOM     12  C   UNL     1      22.465  22.855  14.158  1.00  0.00     0.068 A 
ATOM     13  C   UNL     1      22.393  21.465  13.987  1.00  0.00     0.162 A 
ATOM     14  C   UNL     1      24.856  22.783  13.778  1.00  0.00     0.068 A 
ATOM     15  C   UNL     1      23.559  20.730  13.715  1.00  0.00     0.200 A 
ATOM     16  C   UNL     1      24.793  21.396  13.607  1.00  0.00     0.162 A 
BRANCH  13  17
ATOM     17  O   UNL     1      21.164  20.814  14.081  1.00  0.00    -0.504 OA
ATOM     18  H   UNL     1      20.661  20.505  13.257  1.00  0.00     0.293 HD
ENDBRANCH  13  17
BRANCH  15  19
ATOM     19  O   UNL     1      23.506  19.346  13.546  1.00  0.00    -0.502 OA
ATOM     20  H   UNL     1      22.954  18.913  12.816  1.00  0.00     0.293 HD
ENDBRANCH  15  19
BRANCH  16  21
ATOM     21  O   UNL     1      25.967  20.697  13.330  1.00  0.00    -0.504 OA
ATOM     22  H   UNL     1      26.110  19.741  13.635  1.00  0.00     0.293 HD
ENDBRANCH  16  21
ENDBRANCH   1  11
BRANCH  10  23
ATOM     23  O   UNL     1      23.291  25.392  11.875  1.00  0.00    -0.500 OA
ATOM     24  H   UNL     1      22.755  24.541  11.748  1.00  0.00     0.294 HD
ENDBRANCH  10  23
BRANCH   5  25
ATOM     25  O   UNL     1      24.808  28.986  18.591  1.00  0.00    -0.507 OA
ATOM     26  H   UNL     1      25.703  29.384  18.850  1.00  0.00     0.293 HD
ENDBRANCH   5  25
BRANCH   7  27
ATOM     27  O   UNL     1      24.030  30.121  13.992  1.00  0.00    -0.507 OA
ATOM     28  H   UNL     1      23.891  29.955  13.006  1.00  0.00     0.293 HD
ENDBRANCH   7  27
TORSDOF 7
ENDMDL
MODEL 3
REMARK VINA RESULT:    -2.492      3.282      5.991
REMARK INTER + INTRA:          -3.457
REMARK INTER:                  -3.078
REMARK INTRA:                  -0.379
REMARK UNBOUND:                -0.383
REMARK SMILES Oc1cc(O)c2cc(O)c(-c3cc(O)c(O)c(O)c3)[o+]c2c1.[Cl-]
REMARK SMILES IDX 10 1 20 2 21 3 22 4 2 5 3 6 4 7 6 8 7 9 8 10 11 11 12 12
REMARK SMILES IDX 13 13 19 14 15 15 17 16 14 17 16 19 18 21 9 23 1 25 5 27
REMARK H PARENT 14 18 16 20 18 22 9 24 1 26 5 28
REMARK Flexibility Score: inf
ROOT
ATOM      1  C   UNL     1      24.886  26.500  16.646  1.00  0.00     0.402 A 
ATOM      2  O   UNL     1      25.078  27.178  17.774  1.00  0.00    -0.202 OA
ATOM      3  C   UNL     1      25.398  26.601  18.928  1.00  0.00     0.368 A 
ATOM      4  C   UNL     1      25.576  27.398  20.061  1.00  0.00     0.162 A 
ATOM      5  C   UNL     1      25.910  26.817  21.288  1.00  0.00     0.128 A 
ATOM      6  C   UNL     1      26.066  25.432  21.381  1.00  0.00     0.093 A 
ATOM      7  C   UNL     1      25.893  24.611  20.259  1.00  0.00     0.136 A 
ATOM      8  C   UNL     1      25.556  25.197  19.012  1.00  0.00     0.125 A 
ATOM      9  C   UNL     1      25.376  24.453  17.833  1.00  0.00     0.078 A 
ATOM     10  C   UNL     1      25.050  25.103  16.639  1.00  0.00     0.223 A 
ENDROOT
BRANCH   1  11
ATOM     11  C   UNL     1      24.522  27.258  15.426  1.00  0.00     0.091 A 
ATOM     12  C   UNL     1      25.505  27.782  14.570  1.00  0.00     0.068 A 
ATOM     13  C   UNL     1      25.141  28.477  13.409  1.00  0.00     0.162 A 
ATOM     14  C   UNL     1      23.169  27.410  15.087  1.00  0.00     0.068 A 
ATOM     15  C   UNL     1      23.783  28.644  13.088  1.00  0.00     0.200 A 
ATOM     16  C   UNL     1      22.796  28.104  13.931  1.00  0.00     0.162 A 
BRANCH  13  17
ATOM     17  O   UNL     1      26.125  28.999  12.569  1.00  0.00    -0.504 OA
ATOM     18  H   UNL     1      25.954  29.813  11.991  1.00  0.00     0.293 HD
ENDBRANCH  13  17
BRANCH  15  19
ATOM     19  O   UNL     1      23.402  29.338  11.938  1.00  0.00    -0.502 OA
ATOM     20  H   UNL     1      23.542  28.959  11.009  1.00  0.00     0.293 HD
ENDBRANCH  15  19
BRANCH  16  21
ATOM     21  O   UNL     1      21.441  28.245  13.636  1.00  0.00    -0.504 OA
ATOM     22  H   UNL     1      20.782  27.483  13.745  1.00  0.00     0.293 HD
ENDBRANCH  16  21
ENDBRANCH   1  11
BRANCH  10  23
ATOM     23  O   UNL     1      24.919  24.371  15.458  1.00  0.00    -0.500 OA
ATOM     24  H   UNL     1      24.436  23.480  15.434  1.00  0.00     0.294 HD
ENDBRANCH  10  23
BRANCH   5  25
ATOM     25  O   UNL     1      26.090  27.606  22.421  1.00  0.00    -0.507 OA
ATOM     26  H   UNL     1      26.069  28.618  22.372  1.00  0.00     0.293 HD
ENDBRANCH   5  25
BRANCH   7  27
ATOM     27  O   UNL     1      26.064  23.235  20.437  1.00  0.00    -0.507 OA
ATOM     28  H   UNL     1      26.566  22.635  19.799  1.00  0.00     0.293 HD
ENDBRANCH   7  27
TORSDOF 7
ENDMDL
MODEL 4
REMARK VINA RESULT:    -2.403      1.344      3.213
REMARK INTER + INTRA:          -3.348
REMARK INTER:                  -3.011
REMARK INTRA:                  -0.337
REMARK UNBOUND:                -0.383
REMARK SMILES Oc1cc(O)c2cc(O)c(-c3cc(O)c(O)c(O)c3)[o+]c2c1.[Cl-]
REMARK SMILES IDX 10 1 20 2 21 3 22 4 2 5 3 6 4 7 6 8 7 9 8 10 11 11 12 12
REMARK SMILES IDX 13 13 19 14 15 15 17 16 14 17 16 19 18 21 9 23 1 25 5 27
REMARK H PARENT 14 18 16 20 18 22 9 24 1 26 5 28
REMARK Flexibility Score: inf
ROOT
ATOM      1  C   UNL     1      24.946  24.276  15.530  1.00  0.00     0.402 A 
ATOM      2  O   UNL     1      24.538  25.388  14.925  1.00  0.00    -0.202 OA
ATOM      3  C   UNL     1      24.667  26.600  15.456  1.00  0.00     0.368 A 
ATOM      4  C   UNL     1      24.204  27.708  14.744  1.00  0.00     0.162 A 
ATOM      5  C   UNL     1      24.324  28.993  15.282  1.00  0.00     0.128 A 
ATOM      6  C   UNL     1      24.909  29.169  16.538  1.00  0.00     0.093 A 
ATOM      7  C   UNL     1      25.381  28.074  17.271  1.00  0.00     0.136 A 
ATOM      8  C   UNL     1      25.263  26.768  16.730  1.00  0.00     0.125 A 
ATOM      9  C   UNL     1      25.720  25.614  17.388  1.00  0.00     0.078 A 
ATOM     10  C   UNL     1      25.573  24.360  16.786  1.00  0.00     0.223 A 
ENDROOT
BRANCH   1  11
ATOM     11  C   UNL     1      24.736  22.984  14.838  1.00  0.00     0.091 A 
ATOM     12  C   UNL     1      23.737  22.087  15.251  1.00  0.00     0.068 A 
ATOM     13  C   UNL     1      23.540  20.878  14.569  1.00  0.00     0.162 A 
ATOM     14  C   UNL     1      25.512  22.672  13.712  1.00  0.00     0.068 A 
ATOM     15  C   UNL     1      24.336  20.562  13.455  1.00  0.00     0.200 A 
ATOM     16  C   UNL     1      25.323  21.467  13.026  1.00  0.00     0.162 A 
BRANCH  13  17
ATOM     17  O   UNL     1      22.549  19.992  14.992  1.00  0.00    -0.504 OA
ATOM     18  H   UNL     1      22.181  20.017  15.935  1.00  0.00     0.293 HD
ENDBRANCH  13  17
BRANCH  15  19
ATOM     19  O   UNL     1      24.156  19.362  12.767  1.00  0.00    -0.502 OA
ATOM     20  H   UNL     1      24.224  18.462  13.226  1.00  0.00     0.293 HD
ENDBRANCH  15  19
BRANCH  16  21
ATOM     21  O   UNL     1      26.124  21.187  11.919  1.00  0.00    -0.504 OA
ATOM     22  H   UNL     1      27.128  21.073  11.995  1.00  0.00     0.293 HD
ENDBRANCH  16  21
ENDBRANCH   1  11
BRANCH  10  23
ATOM     23  O   UNL     1      26.071  23.220  17.418  1.00  0.00    -0.500 OA
ATOM     24  H   UNL     1      26.139  23.157  18.427  1.00  0.00     0.294 HD
ENDBRANCH  10  23
BRANCH   5  25
ATOM     25  O   UNL     1      23.865  30.103  14.576  1.00  0.00    -0.507 OA
ATOM     26  H   UNL     1      23.927  30.153  13.566  1.00  0.00     0.293 HD
ENDBRANCH   5  25
BRANCH   7  27
ATOM     27  O   UNL     1      25.951  28.335  18.522  1.00  0.00    -0.507 OA
ATOM     28  H   UNL     1      26.409  29.199  18.771  1.00  0.00     0.293 HD
ENDBRANCH   7  27
TORSDOF 7
ENDMDL
MODEL 5
REMARK VINA RESULT:    -2.400      2.388      6.566
REMARK INTER + INTRA:          -3.344
REMARK INTER:                  -2.973
REMARK INTRA:                  -0.371
REMARK UNBOUND:                -0.383
REMARK SMILES Oc1cc(O)c2cc(O)c(-c3cc(O)c(O)c(O)c3)[o+]c2c1.[Cl-]
REMARK SMILES IDX 10 1 20 2 21 3 22 4 2 5 3 6 4 7 6 8 7 9 8 10 11 11 12 12
REMARK SMILES IDX 13 13 19 14 15 15 17 16 14 17 16 19 18 21 9 23 1 25 5 27
REMARK H PARENT 14 18 16 20 18 22 9 24 1 26 5 28
REMARK Flexibility Score: inf
ROOT
ATOM      1  C   UNL     1      23.793  24.870  14.954  1.00  0.00     0.402 A 
ATOM      2  O   UNL     1      24.228  24.289  16.069  1.00  0.00    -0.202 OA
ATOM      3  C   UNL     1      24.731  23.060  16.105  1.00  0.00     0.368 A 
ATOM      4  C   UNL     1      25.159  22.535  17.326  1.00  0.00     0.162 A 
ATOM      5  C   UNL     1      25.689  21.242  17.392  1.00  0.00     0.128 A 
ATOM      6  C   UNL     1      25.791  20.473  16.231  1.00  0.00     0.093 A 
ATOM      7  C   UNL     1      25.369  20.977  14.995  1.00  0.00     0.136 A 
ATOM      8  C   UNL     1      24.832  22.287  14.922  1.00  0.00     0.125 A 
ATOM      9  C   UNL     1      24.396  22.879  13.724  1.00  0.00     0.078 A 
ATOM     10  C   UNL     1      23.883  24.180  13.732  1.00  0.00     0.223 A 
ENDROOT
BRANCH   1  11
ATOM     11  C   UNL     1      23.244  26.242  15.047  1.00  0.00     0.091 A 
ATOM     12  C   UNL     1      24.047  27.369  14.803  1.00  0.00     0.068 A 
ATOM     13  C   UNL     1      23.503  28.659  14.874  1.00  0.00     0.162 A 
ATOM     14  C   UNL     1      21.881  26.421  15.329  1.00  0.00     0.068 A 
ATOM     15  C   UNL     1      22.142  28.831  15.179  1.00  0.00     0.200 A 
ATOM     16  C   UNL     1      21.331  27.705  15.403  1.00  0.00     0.162 A 
BRANCH  13  17
ATOM     17  O   UNL     1      24.310  29.771  14.637  1.00  0.00    -0.504 OA
ATOM     18  H   UNL     1      25.319  29.724  14.726  1.00  0.00     0.293 HD
ENDBRANCH  13  17
BRANCH  15  19
ATOM     19  O   UNL     1      21.585  30.109  15.258  1.00  0.00    -0.502 OA
ATOM     20  H   UNL     1      20.779  30.380  14.709  1.00  0.00     0.293 HD
ENDBRANCH  15  19
BRANCH  16  21
ATOM     21  O   UNL     1      19.975  27.842  15.700  1.00  0.00    -0.504 OA
ATOM     22  H   UNL     1      19.577  27.511  16.570  1.00  0.00     0.293 HD
ENDBRANCH  16  21
ENDBRANCH   1  11
BRANCH  10  23
ATOM     23  O   UNL     1      23.496  24.785  12.536  1.00  0.00    -0.500 OA
ATOM     24  H   UNL     1      23.157  25.740  12.507  1.00  0.00     0.294 HD
ENDBRANCH  10  23
BRANCH   5  25
ATOM     25  O   UNL     1      26.118  20.713  18.607  1.00  0.00    -0.507 OA
ATOM     26  H   UNL     1      25.911  21.169  19.488  1.00  0.00     0.293 HD
ENDBRANCH   5  25
BRANCH   7  27
ATOM     27  O   UNL     1      25.501  20.141  13.881  1.00  0.00    -0.507 OA
ATOM     28  H   UNL     1      24.732  19.671  13.426  1.00  0.00     0.293 HD
ENDBRANCH   7  27
TORSDOF 7
ENDMDL
MODEL 6
REMARK VINA RESULT:    -2.359     20.532     23.829
REMARK INTER + INTRA:          -3.294
REMARK INTER:                  -2.911
REMARK INTRA:                  -0.383
REMARK UNBOUND:                -0.383
REMARK SMILES Oc1cc(O)c2cc(O)c(-c3cc(O)c(O)c(O)c3)[o+]c2c1.[Cl-]
REMARK SMILES IDX 10 1 20 2 21 3 22 4 2 5 3 6 4 7 6 8 7 9 8 10 11 11 12 12
REMARK SMILES IDX 13 13 19 14 15 15 17 16 14 17 16 19 18 21 9 23 1 25 5 27
REMARK H PARENT 14 18 16 20 18 22 9 24 1 26 5 28
REMARK Flexibility Score: inf
ROOT
ATOM      1  C   UNL     1       8.111  14.858  27.731  1.00  0.00     0.402 A 
ATOM      2  O   UNL     1       9.149  14.118  28.113  1.00  0.00    -0.202 OA
ATOM      3  C   UNL     1       9.153  12.790  28.073  1.00  0.00     0.368 A 
ATOM      4  C   UNL     1      10.290  12.100  28.499  1.00  0.00     0.162 A 
ATOM      5  C   UNL     1      10.320  10.702  28.471  1.00  0.00     0.128 A 
ATOM      6  C   UNL     1       9.208   9.992  28.015  1.00  0.00     0.093 A 
ATOM      7  C   UNL     1       8.055  10.661  27.582  1.00  0.00     0.136 A 
ATOM      8  C   UNL     1       8.021  12.079  27.607  1.00  0.00     0.125 A 
ATOM      9  C   UNL     1       6.914  12.832  27.181  1.00  0.00     0.078 A 
ATOM     10  C   UNL     1       6.957  14.229  27.230  1.00  0.00     0.223 A 
ENDROOT
BRANCH   1  11
ATOM     11  C   UNL     1       8.226  16.331  27.833  1.00  0.00     0.091 A 
ATOM     12  C   UNL     1       7.763  17.023  28.965  1.00  0.00     0.068 A 
ATOM     13  C   UNL     1       7.900  18.416  29.052  1.00  0.00     0.162 A 
ATOM     14  C   UNL     1       8.859  17.046  26.806  1.00  0.00     0.068 A 
ATOM     15  C   UNL     1       8.516  19.128  28.009  1.00  0.00     0.200 A 
ATOM     16  C   UNL     1       8.999  18.436  26.885  1.00  0.00     0.162 A 
BRANCH  13  17
ATOM     17  O   UNL     1       7.431  19.094  30.178  1.00  0.00    -0.504 OA
ATOM     18  H   UNL     1       8.030  19.283  30.972  1.00  0.00     0.293 HD
ENDBRANCH  13  17
BRANCH  15  19
ATOM     19  O   UNL     1       8.657  20.515  28.078  1.00  0.00    -0.502 OA
ATOM     20  H   UNL     1       8.228  21.134  27.402  1.00  0.00     0.293 HD
ENDBRANCH  15  19
BRANCH  16  21
ATOM     21  O   UNL     1       9.621  19.112  25.836  1.00  0.00    -0.504 OA
ATOM     22  H   UNL     1       9.633  20.123  25.777  1.00  0.00     0.293 HD
ENDBRANCH  16  21
ENDBRANCH   1  11
BRANCH  10  23
ATOM     23  O   UNL     1       5.877  14.978  26.761  1.00  0.00    -0.500 OA
ATOM     24  H   UNL     1       5.046  14.537  26.384  1.00  0.00     0.294 HD
ENDBRANCH  10  23
BRANCH   5  25
ATOM     25  O   UNL     1      11.452  10.009  28.894  1.00  0.00    -0.507 OA
ATOM     26  H   UNL     1      12.049  10.365  29.630  1.00  0.00     0.293 HD
ENDBRANCH   5  25
BRANCH   7  27
ATOM     27  O   UNL     1       6.983   9.877  27.143  1.00  0.00    -0.507 OA
ATOM     28  H   UNL     1       6.072   9.863  27.578  1.00  0.00     0.293 HD
ENDBRANCH   7  27
TORSDOF 7
ENDMDL
MODEL 7
REMARK VINA RESULT:    -2.346     21.933     24.151
REMARK INTER + INTRA:          -3.277
REMARK INTER:                  -2.897
REMARK INTRA:                  -0.380
REMARK UNBOUND:                -0.383
REMARK SMILES Oc1cc(O)c2cc(O)c(-c3cc(O)c(O)c(O)c3)[o+]c2c1.[Cl-]
REMARK SMILES IDX 10 1 20 2 21 3 22 4 2 5 3 6 4 7 6 8 7 9 8 10 11 11 12 12
REMARK SMILES IDX 13 13 19 14 15 15 17 16 14 17 16 19 18 21 9 23 1 25 5 27
REMARK H PARENT 14 18 16 20 18 22 9 24 1 26 5 28
REMARK Flexibility Score: inf
ROOT
ATOM      1  C   UNL     1       7.277  15.878  27.607  1.00  0.00     0.402 A 
ATOM      2  O   UNL     1       7.383  14.603  27.971  1.00  0.00    -0.202 OA
ATOM      3  C   UNL     1       7.090  13.587  27.165  1.00  0.00     0.368 A 
ATOM      4  C   UNL     1       7.229  12.281  27.638  1.00  0.00     0.162 A 
ATOM      5  C   UNL     1       6.925  11.194  26.813  1.00  0.00     0.128 A 
ATOM      6  C   UNL     1       6.478  11.416  25.508  1.00  0.00     0.093 A 
ATOM      7  C   UNL     1       6.331  12.717  25.010  1.00  0.00     0.136 A 
ATOM      8  C   UNL     1       6.640  13.822  25.843  1.00  0.00     0.125 A 
ATOM      9  C   UNL     1       6.533  15.159  25.424  1.00  0.00     0.078 A 
ATOM     10  C   UNL     1       6.863  16.197  26.302  1.00  0.00     0.223 A 
ENDROOT
BRANCH   1  11
ATOM     11  C   UNL     1       7.624  16.920  28.601  1.00  0.00     0.091 A 
ATOM     12  C   UNL     1       8.937  17.406  28.723  1.00  0.00     0.068 A 
ATOM     13  C   UNL     1       9.241  18.409  29.655  1.00  0.00     0.162 A 
ATOM     14  C   UNL     1       6.613  17.475  29.400  1.00  0.00     0.068 A 
ATOM     15  C   UNL     1       8.227  18.944  30.467  1.00  0.00     0.200 A 
ATOM     16  C   UNL     1       6.908  18.475  30.333  1.00  0.00     0.162 A 
BRANCH  13  17
ATOM     17  O   UNL     1      10.549  18.879  29.772  1.00  0.00    -0.504 OA
ATOM     18  H   UNL     1      10.920  19.582  29.144  1.00  0.00     0.293 HD
ENDBRANCH  13  17
BRANCH  15  19
ATOM     19  O   UNL     1       8.513  19.939  31.402  1.00  0.00    -0.502 OA
ATOM     20  H   UNL     1       7.787  20.494  31.838  1.00  0.00     0.293 HD
ENDBRANCH  15  19
BRANCH  16  21
ATOM     21  O   UNL     1       5.877  18.991  31.117  1.00  0.00    -0.504 OA
ATOM     22  H   UNL     1       5.699  19.986  31.187  1.00  0.00     0.293 HD
ENDBRANCH  16  21
ENDBRANCH   1  11
BRANCH  10  23
ATOM     23  O   UNL     1       6.804  17.522  25.870  1.00  0.00    -0.500 OA
ATOM     24  H   UNL     1       5.979  18.093  26.012  1.00  0.00     0.294 HD
ENDBRANCH  10  23
BRANCH   5  25
ATOM     25  O   UNL     1       7.063   9.889  27.279  1.00  0.00    -0.507 OA
ATOM     26  H   UNL     1       7.958   9.415  27.273  1.00  0.00     0.293 HD
ENDBRANCH   5  25
BRANCH   7  27
ATOM     27  O   UNL     1       5.875  12.854  23.695  1.00  0.00    -0.507 OA
ATOM     28  H   UNL     1       6.101  12.217  22.944  1.00  0.00     0.293 HD
ENDBRANCH   7  27
TORSDOF 7
ENDMDL
MODEL 8
REMARK VINA RESULT:    -2.312      3.415      7.311
REMARK INTER + INTRA:          -3.235
REMARK INTER:                  -2.859
REMARK INTRA:                  -0.376
REMARK UNBOUND:                -0.383
REMARK SMILES Oc1cc(O)c2cc(O)c(-c3cc(O)c(O)c(O)c3)[o+]c2c1.[Cl-]
REMARK SMILES IDX 10 1 20 2 21 3 22 4 2 5 3 6 4 7 6 8 7 9 8 10 11 11 12 12
REMARK SMILES IDX 13 13 19 14 15 15 17 16 14 17 16 19 18 21 9 23 1 25 5 27
REMARK H PARENT 14 18 16 20 18 22 9 24 1 26 5 28
REMARK Flexibility Score: inf
ROOT
ATOM      1  C   UNL     1      23.594  27.744  17.321  1.00  0.00     0.402 A 
ATOM      2  O   UNL     1      23.864  28.648  16.383  1.00  0.00    -0.202 OA
ATOM      3  C   UNL     1      23.895  28.367  15.084  1.00  0.00     0.368 A 
ATOM      4  C   UNL     1      24.192  29.384  14.175  1.00  0.00     0.162 A 
ATOM      5  C   UNL     1      24.235  29.114  12.803  1.00  0.00     0.128 A 
ATOM      6  C   UNL     1      23.980  27.822  12.341  1.00  0.00     0.093 A 
ATOM      7  C   UNL     1      23.680  26.785  13.233  1.00  0.00     0.136 A 
ATOM      8  C   UNL     1      23.633  27.053  14.625  1.00  0.00     0.125 A 
ATOM      9  C   UNL     1      23.328  26.079  15.590  1.00  0.00     0.078 A 
ATOM     10  C   UNL     1      23.296  26.422  16.945  1.00  0.00     0.223 A 
ENDROOT
BRANCH   1  11
ATOM     11  C   UNL     1      23.599  28.180  18.736  1.00  0.00     0.091 A 
ATOM     12  C   UNL     1      22.420  28.597  19.377  1.00  0.00     0.068 A 
ATOM     13  C   UNL     1      22.442  28.986  20.725  1.00  0.00     0.162 A 
ATOM     14  C   UNL     1      24.793  28.124  19.470  1.00  0.00     0.068 A 
ATOM     15  C   UNL     1      23.647  28.947  21.447  1.00  0.00     0.200 A 
ATOM     16  C   UNL     1      24.824  28.511  20.814  1.00  0.00     0.162 A 
BRANCH  13  17
ATOM     17  O   UNL     1      21.268  29.404  21.349  1.00  0.00    -0.504 OA
ATOM     18  H   UNL     1      21.284  30.021  22.153  1.00  0.00     0.293 HD
ENDBRANCH  13  17
BRANCH  15  19
ATOM     19  O   UNL     1      23.687  29.334  22.787  1.00  0.00    -0.502 OA
ATOM     20  H   UNL     1      24.364  28.956  23.437  1.00  0.00     0.293 HD
ENDBRANCH  15  19
BRANCH  16  21
ATOM     21  O   UNL     1      26.034  28.453  21.505  1.00  0.00    -0.504 OA
ATOM     22  H   UNL     1      26.197  27.791  22.254  1.00  0.00     0.293 HD
ENDBRANCH  16  21
ENDBRANCH   1  11
BRANCH  10  23
ATOM     23  O   UNL     1      22.945  25.467  17.900  1.00  0.00    -0.500 OA
ATOM     24  H   UNL     1      23.645  24.967  18.436  1.00  0.00     0.294 HD
ENDBRANCH  10  23
BRANCH   5  25
ATOM     25  O   UNL     1      24.530  30.125  11.891  1.00  0.00    -0.507 OA
ATOM     26  H   UNL     1      24.761  31.063  12.194  1.00  0.00     0.293 HD
ENDBRANCH   5  25
BRANCH   7  27
ATOM     27  O   UNL     1      23.440  25.518  12.690  1.00  0.00    -0.507 OA
ATOM     28  H   UNL     1      22.526  25.098  12.604  1.00  0.00     0.293 HD
ENDBRANCH   7  27
TORSDOF 7
ENDMDL
MODEL 9
REMARK VINA RESULT:    -2.282      1.634      3.107
REMARK INTER + INTRA:          -3.199
REMARK INTER:                  -2.816
REMARK INTRA:                  -0.383
REMARK UNBOUND:                -0.383
REMARK SMILES Oc1cc(O)c2cc(O)c(-c3cc(O)c(O)c(O)c3)[o+]c2c1.[Cl-]
REMARK SMILES IDX 10 1 20 2 21 3 22 4 2 5 3 6 4 7 6 8 7 9 8 10 11 11 12 12
REMARK SMILES IDX 13 13 19 14 15 15 17 16 14 17 16 19 18 21 9 23 1 25 5 27
REMARK H PARENT 14 18 16 20 18 22 9 24 1 26 5 28
REMARK Flexibility Score: inf
ROOT
ATOM      1  C   UNL     1      23.437  24.864  14.562  1.00  0.00     0.402 A 
ATOM      2  O   UNL     1      23.853  25.736  13.648  1.00  0.00    -0.202 OA
ATOM      3  C   UNL     1      23.793  27.053  13.814  1.00  0.00     0.368 A 
ATOM      4  C   UNL     1      24.253  27.889  12.794  1.00  0.00     0.162 A 
ATOM      5  C   UNL     1      24.198  29.279  12.941  1.00  0.00     0.128 A 
ATOM      6  C   UNL     1      23.681  29.833  14.114  1.00  0.00     0.093 A 
ATOM      7  C   UNL     1      23.213  29.016  15.151  1.00  0.00     0.136 A 
ATOM      8  C   UNL     1      23.268  27.606  15.007  1.00  0.00     0.125 A 
ATOM      9  C   UNL     1      22.835  26.711  15.999  1.00  0.00     0.078 A 
ATOM     10  C   UNL     1      22.927  25.332  15.787  1.00  0.00     0.223 A 
ENDROOT
BRANCH   1  11
ATOM     11  C   UNL     1      23.547  23.419  14.254  1.00  0.00     0.091 A 
ATOM     12  C   UNL     1      22.475  22.708  13.689  1.00  0.00     0.068 A 
ATOM     13  C   UNL     1      22.606  21.346  13.384  1.00  0.00     0.162 A 
ATOM     14  C   UNL     1      24.764  22.758  14.477  1.00  0.00     0.068 A 
ATOM     15  C   UNL     1      23.822  20.686  13.631  1.00  0.00     0.200 A 
ATOM     16  C   UNL     1      24.903  21.399  14.177  1.00  0.00     0.162 A 
BRANCH  13  17
ATOM     17  O   UNL     1      21.534  20.648  12.829  1.00  0.00    -0.504 OA
ATOM     18  H   UNL     1      21.203  20.840  11.891  1.00  0.00     0.293 HD
ENDBRANCH  13  17
BRANCH  15  19
ATOM     19  O   UNL     1      23.968  19.329  13.337  1.00  0.00    -0.502 OA
ATOM     20  H   UNL     1      24.434  18.688  13.968  1.00  0.00     0.293 HD
ENDBRANCH  15  19
BRANCH  16  21
ATOM     21  O   UNL     1      26.125  20.774  14.426  1.00  0.00    -0.504 OA
ATOM     22  H   UNL     1      26.436  20.554  15.365  1.00  0.00     0.293 HD
ENDBRANCH  16  21
ENDBRANCH   1  11
BRANCH  10  23
ATOM     23  O   UNL     1      22.542  24.443  16.791  1.00  0.00    -0.500 OA
ATOM     24  H   UNL     1      23.224  23.956  17.361  1.00  0.00     0.294 HD
ENDBRANCH  10  23
BRANCH   5  25
ATOM     25  O   UNL     1      24.656  30.118  11.928  1.00  0.00    -0.507 OA
ATOM     26  H   UNL     1      24.040  30.450  11.195  1.00  0.00     0.293 HD
ENDBRANCH   5  25
BRANCH   7  27
ATOM     27  O   UNL     1      22.707  29.650  16.291  1.00  0.00    -0.507 OA
ATOM     28  H   UNL     1      21.788  30.064  16.352  1.00  0.00     0.293 HD
ENDBRANCH   7  27
TORSDOF 7
ENDMDL
