MODEL 1
REMARK VINA RESULT:    -6.489      0.000      0.000
REMARK INTER + INTRA:         -10.830
REMARK INTER:                  -9.713
REMARK INTRA:                  -1.117
REMARK UNBOUND:                -1.117
REMARK SMILES COC(=O)C1=CO[C@H](O[C@H]2O[C@H](CO)[C@@H](O)[C@H](O)[C@@H]2O)[C@H]2C(CO)=CC[C@@H]12
REMARK SMILES IDX 9 1 8 2 5 3 6 4 27 5 7 6 21 7 26 8 22 9 25 10 3 11 4 12 2 13
REMARK SMILES IDX 1 14 23 15 24 16 10 18 19 19 11 20 17 21 12 22 15 23 20 24
REMARK SMILES IDX 18 26 13 28 14 29 16 31
REMARK H PARENT 24 17 20 25 18 27 14 30 16 32
REMARK Flexibility Score: inf
ROOT
ATOM      1  O   UNL     1      43.605   0.768  18.623  1.00  0.00    -0.310 OA
ENDROOT
BRANCH   1   2
ATOM      2  C   UNL     1      44.211   0.736  19.907  1.00  0.00     0.316 C 
ATOM      3  C   UNL     1      43.346   3.297  20.886  1.00  0.00     0.076 C 
ATOM      4  C   UNL     1      44.497   3.155  20.223  1.00  0.00     0.202 C 
ATOM      5  C   UNL     1      42.750   2.107  21.605  1.00  0.00     0.047 C 
ATOM      6  O   UNL     1      45.039   1.888  20.031  1.00  0.00    -0.471 OA
ATOM      7  C   UNL     1      43.105   0.715  21.006  1.00  0.00     0.094 C 
ATOM      8  C   UNL     1      43.224   2.062  23.068  1.00  0.00     0.037 C 
ATOM      9  C   UNL     1      43.532  -0.082  22.199  1.00  0.00    -0.039 C 
ATOM     10  C   UNL     1      43.598   0.646  23.303  1.00  0.00    -0.024 C 
BRANCH   3  11
ATOM     11  C   UNL     1      42.763   4.640  21.096  1.00  0.00     0.337 C 
ATOM     12  O   UNL     1      43.115   5.337  22.089  1.00  0.00    -0.246 OA
BRANCH  11  13
ATOM     13  O   UNL     1      41.778   5.109  20.217  1.00  0.00    -0.466 OA
ATOM     14  C   UNL     1      42.031   6.120  19.249  1.00  0.00     0.282 C 
ENDBRANCH  11  13
ENDBRANCH   3  11
BRANCH   9  15
ATOM     15  C   UNL     1      43.819  -1.557  22.168  1.00  0.00     0.187 C 
BRANCH  15  16
ATOM     16  O   UNL     1      44.578  -1.927  23.291  1.00  0.00    -0.392 OA
ATOM     17  H   UNL     1      45.284  -2.553  22.968  1.00  0.00     0.211 HD
ENDBRANCH  15  16
ENDBRANCH   9  15
ENDBRANCH   1   2
BRANCH   1  18
ATOM     18  C   UNL     1      42.270   0.278  18.645  1.00  0.00     0.286 C 
ATOM     19  C   UNL     1      42.135  -1.050  17.866  1.00  0.00     0.202 C 
ATOM     20  O   UNL     1      41.383   1.252  18.117  1.00  0.00    -0.341 OA
ATOM     21  C   UNL     1      42.415  -0.809  16.374  1.00  0.00     0.179 C 
ATOM     22  C   UNL     1      41.687   1.584  16.768  1.00  0.00     0.178 C 
ATOM     23  C   UNL     1      41.552   0.343  15.845  1.00  0.00     0.177 C 
BRANCH  19  24
ATOM     24  O   UNL     1      40.832  -1.550  18.042  1.00  0.00    -0.385 OA
ATOM     25  H   UNL     1      40.254  -0.780  18.282  1.00  0.00     0.211 HD
ENDBRANCH  19  24
BRANCH  21  26
ATOM     26  O   UNL     1      42.143  -1.973  15.634  1.00  0.00    -0.387 OA
ATOM     27  H   UNL     1      43.019  -2.332  15.331  1.00  0.00     0.211 HD
ENDBRANCH  21  26
BRANCH  22  28
ATOM     28  C   UNL     1      40.718   2.700  16.337  1.00  0.00     0.191 C 
BRANCH  28  29
ATOM     29  O   UNL     1      39.866   2.275  15.306  1.00  0.00    -0.394 OA
ATOM     30  H   UNL     1      39.101   1.814  15.736  1.00  0.00     0.210 HD
ENDBRANCH  28  29
ENDBRANCH  22  28
BRANCH  23  31
ATOM     31  O   UNL     1      41.983   0.661  14.545  1.00  0.00    -0.387 OA
ATOM     32  H   UNL     1      41.355   0.236  13.909  1.00  0.00     0.211 HD
ENDBRANCH  23  31
ENDBRANCH   1  18
TORSDOF 11
ENDMDL
MODEL 2
REMARK VINA RESULT:    -6.472      3.096      5.867
REMARK INTER + INTRA:         -10.806
REMARK INTER:                  -9.650
REMARK INTRA:                  -1.155
REMARK UNBOUND:                -1.117
REMARK SMILES COC(=O)C1=CO[C@H](O[C@H]2O[C@H](CO)[C@@H](O)[C@H](O)[C@@H]2O)[C@H]2C(CO)=CC[C@@H]12
REMARK SMILES IDX 9 1 8 2 5 3 6 4 27 5 7 6 21 7 26 8 22 9 25 10 3 11 4 12 2 13
REMARK SMILES IDX 1 14 23 15 24 16 10 18 19 19 11 20 17 21 12 22 15 23 20 24
REMARK SMILES IDX 18 26 13 28 14 29 16 31
REMARK H PARENT 24 17 20 25 18 27 14 30 16 32
REMARK Flexibility Score: inf
ROOT
ATOM      1  O   UNL     1      44.004   4.423  21.178  1.00  0.00    -0.310 OA
ENDROOT
BRANCH   1   2
ATOM      2  C   UNL     1      43.720   5.799  21.387  1.00  0.00     0.316 C 
ATOM      3  C   UNL     1      45.785   6.948  19.751  1.00  0.00     0.076 C 
ATOM      4  C   UNL     1      45.984   6.685  21.045  1.00  0.00     0.202 C 
ATOM      5  C   UNL     1      44.376   7.170  19.246  1.00  0.00     0.047 C 
ATOM      6  O   UNL     1      44.901   6.422  21.879  1.00  0.00    -0.471 OA
ATOM      7  C   UNL     1      43.255   6.446  20.047  1.00  0.00     0.094 C 
ATOM      8  C   UNL     1      44.014   8.666  19.284  1.00  0.00     0.037 C 
ATOM      9  C   UNL     1      42.240   7.521  20.279  1.00  0.00    -0.039 C 
ATOM     10  C   UNL     1      42.652   8.711  19.872  1.00  0.00    -0.024 C 
BRANCH   3  11
ATOM     11  C   UNL     1      46.931   7.229  18.858  1.00  0.00     0.337 C 
ATOM     12  O   UNL     1      47.937   6.465  18.857  1.00  0.00    -0.246 OA
BRANCH  11  13
ATOM     13  O   UNL     1      46.914   8.378  18.057  1.00  0.00    -0.466 OA
ATOM     14  C   UNL     1      47.987   8.723  17.188  1.00  0.00     0.282 C 
ENDBRANCH  11  13
ENDBRANCH   3  11
BRANCH   9  15
ATOM     15  C   UNL     1      40.880   7.280  20.872  1.00  0.00     0.187 C 
BRANCH  15  16
ATOM     16  O   UNL     1      40.334   6.089  20.366  1.00  0.00    -0.392 OA
ATOM     17  H   UNL     1      39.402   6.297  20.080  1.00  0.00     0.211 HD
ENDBRANCH  15  16
ENDBRANCH   9  15
ENDBRANCH   1   2
BRANCH   1  18
ATOM     18  C   UNL     1      42.935   3.583  21.598  1.00  0.00     0.286 C 
ATOM     19  C   UNL     1      43.439   2.184  22.017  1.00  0.00     0.202 C 
ATOM     20  O   UNL     1      41.968   3.470  20.565  1.00  0.00    -0.341 OA
ATOM     21  C   UNL     1      44.025   1.454  20.797  1.00  0.00     0.179 C 
ATOM     22  C   UNL     1      42.508   2.902  19.378  1.00  0.00     0.178 C 
ATOM     23  C   UNL     1      43.024   1.461  19.636  1.00  0.00     0.177 C 
BRANCH  19  24
ATOM     24  O   UNL     1      42.362   1.453  22.550  1.00  0.00    -0.385 OA
ATOM     25  H   UNL     1      41.623   1.498  21.888  1.00  0.00     0.211 HD
ENDBRANCH  19  24
BRANCH  21  26
ATOM     26  O   UNL     1      44.343   0.125  21.132  1.00  0.00    -0.387 OA
ATOM     27  H   UNL     1      44.315  -0.397  20.287  1.00  0.00     0.211 HD
ENDBRANCH  21  26
BRANCH  22  28
ATOM     28  C   UNL     1      41.396   2.908  18.315  1.00  0.00     0.191 C 
BRANCH  28  29
ATOM     29  O   UNL     1      40.201   3.445  18.819  1.00  0.00    -0.394 OA
ATOM     30  H   UNL     1      40.411   3.831  19.708  1.00  0.00     0.210 HD
ENDBRANCH  28  29
ENDBRANCH  22  28
BRANCH  23  31
ATOM     31  O   UNL     1      43.671   0.969  18.489  1.00  0.00    -0.387 OA
ATOM     32  H   UNL     1      43.071   0.304  18.068  1.00  0.00     0.211 HD
ENDBRANCH  23  31
ENDBRANCH   1  18
TORSDOF 11
ENDMDL
MODEL 3
REMARK VINA RESULT:    -6.421      2.753      6.469
REMARK INTER + INTRA:         -10.728
REMARK INTER:                  -9.811
REMARK INTRA:                  -0.917
REMARK UNBOUND:                -1.117
REMARK SMILES COC(=O)C1=CO[C@H](O[C@H]2O[C@H](CO)[C@@H](O)[C@H](O)[C@@H]2O)[C@H]2C(CO)=CC[C@@H]12
REMARK SMILES IDX 9 1 8 2 5 3 6 4 27 5 7 6 21 7 26 8 22 9 25 10 3 11 4 12 2 13
REMARK SMILES IDX 1 14 23 15 24 16 10 18 19 19 11 20 17 21 12 22 15 23 20 24
REMARK SMILES IDX 18 26 13 28 14 29 16 31
REMARK H PARENT 24 17 20 25 18 27 14 30 16 32
REMARK Flexibility Score: inf
ROOT
ATOM      1  O   UNL     1      44.043   4.582  20.104  1.00  0.00    -0.310 OA
ENDROOT
BRANCH   1   2
ATOM      2  C   UNL     1      43.551   3.411  20.740  1.00  0.00     0.316 C 
ATOM      3  C   UNL     1      42.147   2.240  18.521  1.00  0.00     0.076 C 
ATOM      4  C   UNL     1      41.542   3.080  19.366  1.00  0.00     0.202 C 
ATOM      5  C   UNL     1      43.363   1.468  18.984  1.00  0.00     0.047 C 
ATOM      6  O   UNL     1      42.135   3.390  20.586  1.00  0.00    -0.471 OA
ATOM      7  C   UNL     1      44.209   2.153  20.097  1.00  0.00     0.094 C 
ATOM      8  C   UNL     1      42.952   0.100  19.557  1.00  0.00     0.037 C 
ATOM      9  C   UNL     1      44.409   1.064  21.105  1.00  0.00    -0.039 C 
ATOM     10  C   UNL     1      43.731  -0.035  20.813  1.00  0.00    -0.024 C 
BRANCH   3  11
ATOM     11  C   UNL     1      41.524   1.905  17.222  1.00  0.00     0.337 C 
ATOM     12  O   UNL     1      41.705   0.766  16.706  1.00  0.00    -0.246 OA
BRANCH  11  13
ATOM     13  O   UNL     1      40.779   2.878  16.544  1.00  0.00    -0.466 OA
ATOM     14  C   UNL     1      40.350   2.716  15.197  1.00  0.00     0.282 C 
ENDBRANCH  11  13
ENDBRANCH   3  11
BRANCH   9  15
ATOM     15  C   UNL     1      45.313   1.179  22.300  1.00  0.00     0.187 C 
BRANCH  15  16
ATOM     16  O   UNL     1      46.009  -0.025  22.500  1.00  0.00    -0.392 OA
ATOM     17  H   UNL     1      46.795  -0.008  21.886  1.00  0.00     0.211 HD
ENDBRANCH  15  16
ENDBRANCH   9  15
ENDBRANCH   1   2
BRANCH   1  18
ATOM     18  C   UNL     1      44.507   5.548  21.041  1.00  0.00     0.286 C 
ATOM     19  C   UNL     1      44.534   6.968  20.432  1.00  0.00     0.202 C 
ATOM     20  O   UNL     1      45.796   5.189  21.513  1.00  0.00    -0.341 OA
ATOM     21  C   UNL     1      45.568   7.028  19.295  1.00  0.00     0.179 C 
ATOM     22  C   UNL     1      46.757   5.123  20.466  1.00  0.00     0.178 C 
ATOM     23  C   UNL     1      46.926   6.504  19.778  1.00  0.00     0.177 C 
BRANCH  19  24
ATOM     24  O   UNL     1      44.866   7.889  21.441  1.00  0.00    -0.385 OA
ATOM     25  H   UNL     1      44.268   8.673  21.328  1.00  0.00     0.211 HD
ENDBRANCH  19  24
BRANCH  21  26
ATOM     26  O   UNL     1      45.714   8.350  18.840  1.00  0.00    -0.387 OA
ATOM     27  H   UNL     1      46.686   8.497  18.691  1.00  0.00     0.211 HD
ENDBRANCH  21  26
BRANCH  22  28
ATOM     28  C   UNL     1      48.084   4.649  21.085  1.00  0.00     0.191 C 
BRANCH  28  29
ATOM     29  O   UNL     1      48.983   4.204  20.103  1.00  0.00    -0.394 OA
ATOM     30  H   UNL     1      49.795   4.767  20.180  1.00  0.00     0.210 HD
ENDBRANCH  28  29
ENDBRANCH  22  28
BRANCH  23  31
ATOM     31  O   UNL     1      47.777   6.386  18.665  1.00  0.00    -0.387 OA
ATOM     32  H   UNL     1      47.215   6.425  17.852  1.00  0.00     0.211 HD
ENDBRANCH  23  31
ENDBRANCH   1  18
TORSDOF 11
ENDMDL
MODEL 4
REMARK VINA RESULT:    -6.228      2.486      6.340
REMARK INTER + INTRA:         -10.440
REMARK INTER:                  -9.595
REMARK INTRA:                  -0.844
REMARK UNBOUND:                -1.117
REMARK SMILES COC(=O)C1=CO[C@H](O[C@H]2O[C@H](CO)[C@@H](O)[C@H](O)[C@@H]2O)[C@H]2C(CO)=CC[C@@H]12
REMARK SMILES IDX 9 1 8 2 5 3 6 4 27 5 7 6 21 7 26 8 22 9 25 10 3 11 4 12 2 13
REMARK SMILES IDX 1 14 23 15 24 16 10 18 19 19 11 20 17 21 12 22 15 23 20 24
REMARK SMILES IDX 18 26 13 28 14 29 16 31
REMARK H PARENT 24 17 20 25 18 27 14 30 16 32
REMARK Flexibility Score: inf
ROOT
ATOM      1  O   UNL     1      44.072   4.774  20.129  1.00  0.00    -0.310 OA
ENDROOT
BRANCH   1   2
ATOM      2  C   UNL     1      43.607   3.617  20.809  1.00  0.00     0.316 C 
ATOM      3  C   UNL     1      42.186   2.356  18.652  1.00  0.00     0.076 C 
ATOM      4  C   UNL     1      41.583   3.214  19.479  1.00  0.00     0.202 C 
ATOM      5  C   UNL     1      43.421   1.616  19.120  1.00  0.00     0.047 C 
ATOM      6  O   UNL     1      42.190   3.571  20.679  1.00  0.00    -0.471 OA
ATOM      7  C   UNL     1      44.273   2.348  20.197  1.00  0.00     0.094 C 
ATOM      8  C   UNL     1      43.039   0.261  19.742  1.00  0.00     0.037 C 
ATOM      9  C   UNL     1      44.506   1.295  21.235  1.00  0.00    -0.039 C 
ATOM     10  C   UNL     1      43.839   0.178  20.989  1.00  0.00    -0.024 C 
BRANCH   3  11
ATOM     11  C   UNL     1      41.548   1.970  17.374  1.00  0.00     0.337 C 
ATOM     12  O   UNL     1      41.712   0.807  16.908  1.00  0.00    -0.246 OA
BRANCH  11  13
ATOM     13  O   UNL     1      40.807   2.920  16.660  1.00  0.00    -0.466 OA
ATOM     14  C   UNL     1      40.407   2.724  15.309  1.00  0.00     0.282 C 
ENDBRANCH  11  13
ENDBRANCH   3  11
BRANCH   9  15
ATOM     15  C   UNL     1      45.426   1.462  22.412  1.00  0.00     0.187 C 
BRANCH  15  16
ATOM     16  O   UNL     1      46.239   0.324  22.556  1.00  0.00    -0.392 OA
ATOM     17  H   UNL     1      46.415   0.219  23.532  1.00  0.00     0.211 HD
ENDBRANCH  15  16
ENDBRANCH   9  15
ENDBRANCH   1   2
BRANCH   1  18
ATOM     18  C   UNL     1      44.446   5.813  21.027  1.00  0.00     0.286 C 
ATOM     19  C   UNL     1      43.213   6.565  21.576  1.00  0.00     0.202 C 
ATOM     20  O   UNL     1      45.331   6.717  20.386  1.00  0.00    -0.341 OA
ATOM     21  C   UNL     1      42.502   7.305  20.431  1.00  0.00     0.179 C 
ATOM     22  C   UNL     1      44.742   7.337  19.249  1.00  0.00     0.178 C 
ATOM     23  C   UNL     1      43.498   8.174  19.654  1.00  0.00     0.177 C 
BRANCH  19  24
ATOM     24  O   UNL     1      43.638   7.479  22.556  1.00  0.00    -0.385 OA
ATOM     25  H   UNL     1      44.624   7.557  22.475  1.00  0.00     0.211 HD
ENDBRANCH  19  24
BRANCH  21  26
ATOM     26  O   UNL     1      41.474   8.118  20.941  1.00  0.00    -0.387 OA
ATOM     27  H   UNL     1      40.969   8.466  20.159  1.00  0.00     0.211 HD
ENDBRANCH  21  26
BRANCH  22  28
ATOM     28  C   UNL     1      45.816   8.224  18.596  1.00  0.00     0.191 C 
BRANCH  28  29
ATOM     29  O   UNL     1      45.503   9.587  18.717  1.00  0.00    -0.394 OA
ATOM     30  H   UNL     1      45.285   9.750  19.670  1.00  0.00     0.210 HD
ENDBRANCH  28  29
ENDBRANCH  22  28
BRANCH  23  31
ATOM     31  O   UNL     1      42.855   8.667  18.504  1.00  0.00    -0.387 OA
ATOM     32  H   UNL     1      43.028   9.640  18.459  1.00  0.00     0.211 HD
ENDBRANCH  23  31
ENDBRANCH   1  18
TORSDOF 11
ENDMDL
MODEL 5
REMARK VINA RESULT:    -6.103      2.325      6.389
REMARK INTER + INTRA:         -10.252
REMARK INTER:                  -9.286
REMARK INTRA:                  -0.966
REMARK UNBOUND:                -1.117
REMARK SMILES COC(=O)C1=CO[C@H](O[C@H]2O[C@H](CO)[C@@H](O)[C@H](O)[C@@H]2O)[C@H]2C(CO)=CC[C@@H]12
REMARK SMILES IDX 9 1 8 2 5 3 6 4 27 5 7 6 21 7 26 8 22 9 25 10 3 11 4 12 2 13
REMARK SMILES IDX 1 14 23 15 24 16 10 18 19 19 11 20 17 21 12 22 15 23 20 24
REMARK SMILES IDX 18 26 13 28 14 29 16 31
REMARK H PARENT 24 17 20 25 18 27 14 30 16 32
REMARK Flexibility Score: inf
ROOT
ATOM      1  O   UNL     1      42.821   4.672  20.519  1.00  0.00    -0.310 OA
ENDROOT
BRANCH   1   2
ATOM      2  C   UNL     1      43.424   3.512  19.966  1.00  0.00     0.316 C 
ATOM      3  C   UNL     1      44.146   2.163  22.400  1.00  0.00     0.076 C 
ATOM      4  C   UNL     1      44.982   3.013  21.798  1.00  0.00     0.202 C 
ATOM      5  C   UNL     1      43.072   1.476  21.585  1.00  0.00     0.047 C 
ATOM      6  O   UNL     1      44.746   3.413  20.485  1.00  0.00    -0.471 OA
ATOM      7  C   UNL     1      42.577   2.256  20.333  1.00  0.00     0.094 C 
ATOM      8  C   UNL     1      43.573   0.119  21.058  1.00  0.00     0.037 C 
ATOM      9  C   UNL     1      42.614   1.231  19.243  1.00  0.00    -0.039 C 
ATOM     10  C   UNL     1      43.153   0.087  19.635  1.00  0.00    -0.024 C 
BRANCH   3  11
ATOM     11  C   UNL     1      44.389   1.732  23.793  1.00  0.00     0.337 C 
ATOM     12  O   UNL     1      43.457   1.210  24.469  1.00  0.00    -0.246 OA
BRANCH  11  13
ATOM     13  O   UNL     1      45.643   1.959  24.375  1.00  0.00    -0.466 OA
ATOM     14  C   UNL     1      45.825   2.820  25.493  1.00  0.00     0.282 C 
ENDBRANCH  11  13
ENDBRANCH   3  11
BRANCH   9  15
ATOM     15  C   UNL     1      42.066   1.451  17.861  1.00  0.00     0.187 C 
BRANCH  15  16
ATOM     16  O   UNL     1      40.873   2.191  17.924  1.00  0.00    -0.392 OA
ATOM     17  H   UNL     1      40.155   1.613  17.545  1.00  0.00     0.211 HD
ENDBRANCH  15  16
ENDBRANCH   9  15
ENDBRANCH   1   2
BRANCH   1  18
ATOM     18  C   UNL     1      42.397   5.589  19.517  1.00  0.00     0.286 C 
ATOM     19  C   UNL     1      43.427   6.721  19.306  1.00  0.00     0.202 C 
ATOM     20  O   UNL     1      41.131   6.131  19.856  1.00  0.00    -0.341 OA
ATOM     21  C   UNL     1      43.524   7.581  20.576  1.00  0.00     0.179 C 
ATOM     22  C   UNL     1      41.158   6.840  21.089  1.00  0.00     0.178 C 
ATOM     23  C   UNL     1      42.131   8.047  21.016  1.00  0.00     0.177 C 
BRANCH  19  24
ATOM     24  O   UNL     1      43.019   7.509  18.215  1.00  0.00    -0.385 OA
ATOM     25  H   UNL     1      42.791   6.887  17.475  1.00  0.00     0.211 HD
ENDBRANCH  19  24
BRANCH  21  26
ATOM     26  O   UNL     1      44.339   8.704  20.343  1.00  0.00    -0.387 OA
ATOM     27  H   UNL     1      45.130   8.383  19.833  1.00  0.00     0.211 HD
ENDBRANCH  21  26
BRANCH  22  28
ATOM     28  C   UNL     1      39.722   7.306  21.387  1.00  0.00     0.191 C 
BRANCH  28  29
ATOM     29  O   UNL     1      38.772   6.496  20.746  1.00  0.00    -0.394 OA
ATOM     30  H   UNL     1      38.948   5.564  21.032  1.00  0.00     0.210 HD
ENDBRANCH  28  29
ENDBRANCH  22  28
BRANCH  23  31
ATOM     31  O   UNL     1      42.244   8.652  22.280  1.00  0.00    -0.387 OA
ATOM     32  H   UNL     1      42.818   8.071  22.840  1.00  0.00     0.211 HD
ENDBRANCH  23  31
ENDBRANCH   1  18
TORSDOF 11
ENDMDL
MODEL 6
REMARK VINA RESULT:    -6.088      2.724      5.753
REMARK INTER + INTRA:         -10.230
REMARK INTER:                  -9.241
REMARK INTRA:                  -0.990
REMARK UNBOUND:                -1.117
REMARK SMILES COC(=O)C1=CO[C@H](O[C@H]2O[C@H](CO)[C@@H](O)[C@H](O)[C@@H]2O)[C@H]2C(CO)=CC[C@@H]12
REMARK SMILES IDX 9 1 8 2 5 3 6 4 27 5 7 6 21 7 26 8 22 9 25 10 3 11 4 12 2 13
REMARK SMILES IDX 1 14 23 15 24 16 10 18 19 19 11 20 17 21 12 22 15 23 20 24
REMARK SMILES IDX 18 26 13 28 14 29 16 31
REMARK H PARENT 24 17 20 25 18 27 14 30 16 32
REMARK Flexibility Score: inf
ROOT
ATOM      1  O   UNL     1      43.935   4.506  21.755  1.00  0.00    -0.310 OA
ENDROOT
BRANCH   1   2
ATOM      2  C   UNL     1      44.451   3.197  21.564  1.00  0.00     0.316 C 
ATOM      3  C   UNL     1      43.956   2.121  24.183  1.00  0.00     0.076 C 
ATOM      4  C   UNL     1      45.106   2.733  23.885  1.00  0.00     0.202 C 
ATOM      5  C   UNL     1      43.136   1.500  23.074  1.00  0.00     0.047 C 
ATOM      6  O   UNL     1      45.447   2.969  22.556  1.00  0.00    -0.471 OA
ATOM      7  C   UNL     1      43.295   2.157  21.673  1.00  0.00     0.094 C 
ATOM      8  C   UNL     1      43.511   0.019  22.884  1.00  0.00     0.037 C 
ATOM      9  C   UNL     1      43.518   0.991  20.762  1.00  0.00    -0.039 C 
ATOM     10  C   UNL     1      43.637  -0.154  21.416  1.00  0.00    -0.024 C 
BRANCH   3  11
ATOM     11  C   UNL     1      43.586   1.866  25.593  1.00  0.00     0.337 C 
ATOM     12  O   UNL     1      44.218   1.006  26.269  1.00  0.00    -0.246 OA
BRANCH  11  13
ATOM     13  O   UNL     1      42.496   2.544  26.152  1.00  0.00    -0.466 OA
ATOM     14  C   UNL     1      42.585   3.884  26.623  1.00  0.00     0.282 C 
ENDBRANCH  11  13
ENDBRANCH   3  11
BRANCH   9  15
ATOM     15  C   UNL     1      43.564   1.090  19.262  1.00  0.00     0.187 C 
BRANCH  15  16
ATOM     16  O   UNL     1      44.647   1.891  18.863  1.00  0.00    -0.392 OA
ATOM     17  H   UNL     1      44.272   2.620  18.295  1.00  0.00     0.211 HD
ENDBRANCH  15  16
ENDBRANCH   9  15
ENDBRANCH   1   2
BRANCH   1  18
ATOM     18  C   UNL     1      44.119   5.329  20.609  1.00  0.00     0.286 C 
ATOM     19  C   UNL     1      43.676   6.786  20.875  1.00  0.00     0.202 C 
ATOM     20  O   UNL     1      43.410   4.792  19.503  1.00  0.00    -0.341 OA
ATOM     21  C   UNL     1      42.160   6.832  21.123  1.00  0.00     0.179 C 
ATOM     22  C   UNL     1      42.010   4.714  19.744  1.00  0.00     0.178 C 
ATOM     23  C   UNL     1      41.408   6.124  19.990  1.00  0.00     0.177 C 
BRANCH  19  24
ATOM     24  O   UNL     1      44.011   7.573  19.759  1.00  0.00    -0.385 OA
ATOM     25  H   UNL     1      43.545   7.181  18.975  1.00  0.00     0.211 HD
ENDBRANCH  19  24
BRANCH  21  26
ATOM     26  O   UNL     1      41.722   8.166  21.211  1.00  0.00    -0.387 OA
ATOM     27  H   UNL     1      40.751   8.164  20.994  1.00  0.00     0.211 HD
ENDBRANCH  21  26
BRANCH  22  28
ATOM     28  C   UNL     1      41.366   4.046  18.516  1.00  0.00     0.191 C 
BRANCH  28  29
ATOM     29  O   UNL     1      40.179   3.378  18.854  1.00  0.00    -0.394 OA
ATOM     30  H   UNL     1      39.794   3.030  18.010  1.00  0.00     0.210 HD
ENDBRANCH  28  29
ENDBRANCH  22  28
BRANCH  23  31
ATOM     31  O   UNL     1      40.055   6.011  20.356  1.00  0.00    -0.387 OA
ATOM     32  H   UNL     1      39.738   6.914  20.608  1.00  0.00     0.211 HD
ENDBRANCH  23  31
ENDBRANCH   1  18
TORSDOF 11
ENDMDL
MODEL 7
REMARK VINA RESULT:    -6.054      1.735      5.855
REMARK INTER + INTRA:         -10.179
REMARK INTER:                  -9.660
REMARK INTRA:                  -0.519
REMARK UNBOUND:                -1.117
REMARK SMILES COC(=O)C1=CO[C@H](O[C@H]2O[C@H](CO)[C@@H](O)[C@H](O)[C@@H]2O)[C@H]2C(CO)=CC[C@@H]12
REMARK SMILES IDX 9 1 8 2 5 3 6 4 27 5 7 6 21 7 26 8 22 9 25 10 3 11 4 12 2 13
REMARK SMILES IDX 1 14 23 15 24 16 10 18 19 19 11 20 17 21 12 22 15 23 20 24
REMARK SMILES IDX 18 26 13 28 14 29 16 31
REMARK H PARENT 24 17 20 25 18 27 14 30 16 32
REMARK Flexibility Score: inf
ROOT
ATOM      1  O   UNL     1      43.794   1.402  18.826  1.00  0.00    -0.310 OA
ENDROOT
BRANCH   1   2
ATOM      2  C   UNL     1      42.665   0.541  18.852  1.00  0.00     0.316 C 
ATOM      3  C   UNL     1      41.467   1.279  16.345  1.00  0.00     0.076 C 
ATOM      4  C   UNL     1      41.149   1.904  17.483  1.00  0.00     0.202 C 
ATOM      5  C   UNL     1      42.011  -0.132  16.400  1.00  0.00     0.047 C 
ATOM      6  O   UNL     1      41.498   1.343  18.708  1.00  0.00    -0.471 OA
ATOM      7  C   UNL     1      42.779  -0.505  17.701  1.00  0.00     0.094 C 
ATOM      8  C   UNL     1      40.872  -1.160  16.279  1.00  0.00     0.037 C 
ATOM      9  C   UNL     1      42.182  -1.820  18.095  1.00  0.00    -0.039 C 
ATOM     10  C   UNL     1      41.157  -2.166  17.332  1.00  0.00    -0.024 C 
BRANCH   3  11
ATOM     11  C   UNL     1      41.099   1.867  15.039  1.00  0.00     0.337 C 
ATOM     12  O   UNL     1      41.547   1.366  13.968  1.00  0.00    -0.246 OA
BRANCH  11  13
ATOM     13  O   UNL     1      40.298   3.015  15.001  1.00  0.00    -0.466 OA
ATOM     14  C   UNL     1      39.844   3.595  13.784  1.00  0.00     0.282 C 
ENDBRANCH  11  13
ENDBRANCH   3  11
BRANCH   9  15
ATOM     15  C   UNL     1      42.707  -2.683  19.208  1.00  0.00     0.187 C 
BRANCH  15  16
ATOM     16  O   UNL     1      42.103  -3.951  19.164  1.00  0.00    -0.392 OA
ATOM     17  H   UNL     1      41.448  -3.933  18.412  1.00  0.00     0.211 HD
ENDBRANCH  15  16
ENDBRANCH   9  15
ENDBRANCH   1   2
BRANCH   1  18
ATOM     18  C   UNL     1      44.685   1.155  19.908  1.00  0.00     0.286 C 
ATOM     19  C   UNL     1      43.937   0.633  21.155  1.00  0.00     0.202 C 
ATOM     20  O   UNL     1      45.407   2.335  20.224  1.00  0.00    -0.341 OA
ATOM     21  C   UNL     1      42.995   1.722  21.692  1.00  0.00     0.179 C 
ATOM     22  C   UNL     1      44.554   3.403  20.616  1.00  0.00     0.178 C 
ATOM     23  C   UNL     1      43.758   3.036  21.898  1.00  0.00     0.177 C 
BRANCH  19  24
ATOM     24  O   UNL     1      44.881   0.278  22.135  1.00  0.00    -0.385 OA
ATOM     25  H   UNL     1      45.309   1.118  22.445  1.00  0.00     0.211 HD
ENDBRANCH  19  24
BRANCH  21  26
ATOM     26  O   UNL     1      42.429   1.316  22.914  1.00  0.00    -0.387 OA
ATOM     27  H   UNL     1      41.724   0.649  22.696  1.00  0.00     0.211 HD
ENDBRANCH  21  26
BRANCH  22  28
ATOM     28  C   UNL     1      45.439   4.640  20.852  1.00  0.00     0.191 C 
BRANCH  28  29
ATOM     29  O   UNL     1      45.284   5.589  19.830  1.00  0.00    -0.394 OA
ATOM     30  H   UNL     1      46.194   5.845  19.533  1.00  0.00     0.210 HD
ENDBRANCH  28  29
ENDBRANCH  22  28
BRANCH  23  31
ATOM     31  O   UNL     1      42.827   4.049  22.191  1.00  0.00    -0.387 OA
ATOM     32  H   UNL     1      43.226   4.911  21.914  1.00  0.00     0.211 HD
ENDBRANCH  23  31
ENDBRANCH   1  18
TORSDOF 11
ENDMDL
MODEL 8
REMARK VINA RESULT:    -5.801      3.171      6.653
REMARK INTER + INTRA:          -9.801
REMARK INTER:                  -8.585
REMARK INTRA:                  -1.216
REMARK UNBOUND:                -1.117
REMARK SMILES COC(=O)C1=CO[C@H](O[C@H]2O[C@H](CO)[C@@H](O)[C@H](O)[C@@H]2O)[C@H]2C(CO)=CC[C@@H]12
REMARK SMILES IDX 9 1 8 2 5 3 6 4 27 5 7 6 21 7 26 8 22 9 25 10 3 11 4 12 2 13
REMARK SMILES IDX 1 14 23 15 24 16 10 18 19 19 11 20 17 21 12 22 15 23 20 24
REMARK SMILES IDX 18 26 13 28 14 29 16 31
REMARK H PARENT 24 17 20 25 18 27 14 30 16 32
REMARK Flexibility Score: inf
ROOT
ATOM      1  O   UNL     1      44.515   4.412  22.421  1.00  0.00    -0.310 OA
ENDROOT
BRANCH   1   2
ATOM      2  C   UNL     1      43.995   5.609  21.859  1.00  0.00     0.316 C 
ATOM      3  C   UNL     1      46.440   6.749  20.866  1.00  0.00     0.076 C 
ATOM      4  C   UNL     1      45.998   7.010  22.099  1.00  0.00     0.202 C 
ATOM      5  C   UNL     1      45.456   6.323  19.798  1.00  0.00     0.047 C 
ATOM      6  O   UNL     1      44.685   6.706  22.449  1.00  0.00    -0.471 OA
ATOM      7  C   UNL     1      44.186   5.586  20.313  1.00  0.00     0.094 C 
ATOM      8  C   UNL     1      44.941   7.544  19.016  1.00  0.00     0.037 C 
ATOM      9  C   UNL     1      43.065   6.289  19.611  1.00  0.00    -0.039 C 
ATOM     10  C   UNL     1      43.474   7.341  18.920  1.00  0.00    -0.024 C 
BRANCH   3  11
ATOM     11  C   UNL     1      47.833   7.070  20.486  1.00  0.00     0.337 C 
ATOM     12  O   UNL     1      48.270   8.249  20.611  1.00  0.00    -0.246 OA
BRANCH  11  13
ATOM     13  O   UNL     1      48.644   6.070  19.934  1.00  0.00    -0.466 OA
ATOM     14  C   UNL     1      49.061   4.926  20.671  1.00  0.00     0.282 C 
ENDBRANCH  11  13
ENDBRANCH   3  11
BRANCH   9  15
ATOM     15  C   UNL     1      41.633   5.835  19.648  1.00  0.00     0.187 C 
BRANCH  15  16
ATOM     16  O   UNL     1      41.569   4.446  19.858  1.00  0.00    -0.392 OA
ATOM     17  H   UNL     1      41.956   4.015  19.047  1.00  0.00     0.211 HD
ENDBRANCH  15  16
ENDBRANCH   9  15
ENDBRANCH   1   2
BRANCH   1  18
ATOM     18  C   UNL     1      43.491   3.472  22.725  1.00  0.00     0.286 C 
ATOM     19  C   UNL     1      43.809   2.676  24.010  1.00  0.00     0.202 C 
ATOM     20  O   UNL     1      43.301   2.587  21.632  1.00  0.00    -0.341 OA
ATOM     21  C   UNL     1      45.057   1.805  23.789  1.00  0.00     0.179 C 
ATOM     22  C   UNL     1      44.475   1.846  21.325  1.00  0.00     0.178 C 
ATOM     23  C   UNL     1      44.899   0.955  22.524  1.00  0.00     0.177 C 
BRANCH  19  24
ATOM     24  O   UNL     1      42.703   1.869  24.331  1.00  0.00    -0.385 OA
ATOM     25  H   UNL     1      42.024   2.459  24.751  1.00  0.00     0.211 HD
ENDBRANCH  19  24
BRANCH  21  26
ATOM     26  O   UNL     1      45.263   0.962  24.895  1.00  0.00    -0.387 OA
ATOM     27  H   UNL     1      44.444   1.017  25.455  1.00  0.00     0.211 HD
ENDBRANCH  21  26
BRANCH  22  28
ATOM     28  C   UNL     1      44.171   0.991  20.082  1.00  0.00     0.191 C 
BRANCH  28  29
ATOM     29  O   UNL     1      44.688   1.573  18.914  1.00  0.00    -0.394 OA
ATOM     30  H   UNL     1      45.069   0.838  18.370  1.00  0.00     0.210 HD
ENDBRANCH  28  29
ENDBRANCH  22  28
BRANCH  23  31
ATOM     31  O   UNL     1      46.131   0.334  22.249  1.00  0.00    -0.387 OA
ATOM     32  H   UNL     1      46.848   0.964  22.511  1.00  0.00     0.211 HD
ENDBRANCH  23  31
ENDBRANCH   1  18
TORSDOF 11
ENDMDL
MODEL 9
REMARK VINA RESULT:    -5.752      4.337      7.279
REMARK INTER + INTRA:          -9.727
REMARK INTER:                  -8.670
REMARK INTRA:                  -1.057
REMARK UNBOUND:                -1.117
REMARK SMILES COC(=O)C1=CO[C@H](O[C@H]2O[C@H](CO)[C@@H](O)[C@H](O)[C@@H]2O)[C@H]2C(CO)=CC[C@@H]12
REMARK SMILES IDX 9 1 8 2 5 3 6 4 27 5 7 6 21 7 26 8 22 9 25 10 3 11 4 12 2 13
REMARK SMILES IDX 1 14 23 15 24 16 10 18 19 19 11 20 17 21 12 22 15 23 20 24
REMARK SMILES IDX 18 26 13 28 14 29 16 31
REMARK H PARENT 24 17 20 25 18 27 14 30 16 32
REMARK Flexibility Score: inf
ROOT
ATOM      1  O   UNL     1      45.576   5.400  20.383  1.00  0.00    -0.310 OA
ENDROOT
BRANCH   1   2
ATOM      2  C   UNL     1      45.492   6.817  20.423  1.00  0.00     0.316 C 
ATOM      3  C   UNL     1      48.097   7.461  19.393  1.00  0.00     0.076 C 
ATOM      4  C   UNL     1      47.882   7.306  20.702  1.00  0.00     0.202 C 
ATOM      5  C   UNL     1      46.943   7.842  18.491  1.00  0.00     0.047 C 
ATOM      6  O   UNL     1      46.583   7.300  21.201  1.00  0.00    -0.471 OA
ATOM      7  C   UNL     1      45.536   7.384  18.972  1.00  0.00     0.094 C 
ATOM      8  C   UNL     1      46.854   9.371  18.338  1.00  0.00     0.037 C 
ATOM      9  C   UNL     1      44.701   8.620  18.840  1.00  0.00    -0.039 C 
ATOM     10  C   UNL     1      45.413   9.685  18.504  1.00  0.00    -0.024 C 
BRANCH   3  11
ATOM     11  C   UNL     1      49.475   7.470  18.855  1.00  0.00     0.337 C 
ATOM     12  O   UNL     1      50.401   6.870  19.471  1.00  0.00    -0.246 OA
BRANCH  11  13
ATOM     13  O   UNL     1      49.755   8.194  17.689  1.00  0.00    -0.466 OA
ATOM     14  C   UNL     1      50.829   9.122  17.602  1.00  0.00     0.282 C 
ENDBRANCH  11  13
ENDBRANCH   3  11
BRANCH   9  15
ATOM     15  C   UNL     1      43.210   8.653  19.028  1.00  0.00     0.187 C 
BRANCH  15  16
ATOM     16  O   UNL     1      42.634   7.468  18.541  1.00  0.00    -0.392 OA
ATOM     17  H   UNL     1      42.648   7.528  17.546  1.00  0.00     0.211 HD
ENDBRANCH  15  16
ENDBRANCH   9  15
ENDBRANCH   1   2
BRANCH   1  18
ATOM     18  C   UNL     1      44.733   4.783  21.349  1.00  0.00     0.286 C 
ATOM     19  C   UNL     1      45.192   3.344  21.673  1.00  0.00     0.202 C 
ATOM     20  O   UNL     1      43.389   4.781  20.893  1.00  0.00    -0.341 OA
ATOM     21  C   UNL     1      45.039   2.455  20.428  1.00  0.00     0.179 C 
ATOM     22  C   UNL     1      43.231   4.061  19.677  1.00  0.00     0.178 C 
ATOM     23  C   UNL     1      43.621   2.569  19.859  1.00  0.00     0.177 C 
BRANCH  19  24
ATOM     24  O   UNL     1      44.408   2.843  22.728  1.00  0.00    -0.385 OA
ATOM     25  H   UNL     1      44.762   1.943  22.952  1.00  0.00     0.211 HD
ENDBRANCH  19  24
BRANCH  21  26
ATOM     26  O   UNL     1      45.305   1.113  20.753  1.00  0.00    -0.387 OA
ATOM     27  H   UNL     1      44.803   0.916  21.588  1.00  0.00     0.211 HD
ENDBRANCH  21  26
BRANCH  22  28
ATOM     28  C   UNL     1      41.761   4.199  19.244  1.00  0.00     0.191 C 
BRANCH  28  29
ATOM     29  O   UNL     1      41.141   5.296  19.862  1.00  0.00    -0.394 OA
ATOM     30  H   UNL     1      40.877   5.003  20.772  1.00  0.00     0.210 HD
ENDBRANCH  28  29
ENDBRANCH  22  28
BRANCH  23  31
ATOM     31  O   UNL     1      43.585   1.908  18.618  1.00  0.00    -0.387 OA
ATOM     32  H   UNL     1      42.664   1.985  18.265  1.00  0.00     0.211 HD
ENDBRANCH  23  31
ENDBRANCH   1  18
TORSDOF 11
ENDMDL
