MODEL 1
REMARK VINA RESULT:    -5.827      0.000      0.000
REMARK INTER + INTRA:         -14.396
REMARK INTER:                 -12.641
REMARK INTRA:                  -1.755
REMARK UNBOUND:                -1.755
REMARK SMILES C[C@@H]1O[C@H](OC[C@H]2O[C@H](Oc3c(-c4ccc(OCCO)c(OCCO)c4)oc4cc(OCCO)cc(O)c4c3=O)[C@@H](O)[C@H](O)[C@H]2O)[C@@H](O)[C@@H](O)[C@H]1O
REMARK SMILES IDX 11 1 12 2 27 3 28 4 29 5 30 6 35 7 36 8 38 9 39 10 40 11
REMARK SMILES IDX 10 12 9 13 7 14 45 15 8 16 43 17 41 18 6 19 5 20 4 21 1 22
REMARK SMILES IDX 2 23 51 24 3 25 49 26 47 27 52 28 50 30 48 32 46 34 44 36
REMARK SMILES IDX 42 38 13 40 26 41 14 42 21 43 15 44 16 45 22 46 23 47 24 48
REMARK SMILES IDX 25 49 17 51 18 52 19 53 20 54 37 56 31 58 32 59 33 60 34 61
REMARK H PARENT 52 29 50 31 48 33 46 35 44 37 42 39 25 50 20 55 37 57 34 62
REMARK Flexibility Score: inf
ROOT
ATOM      1  C   UNL     1      18.215  42.547  76.214  1.00  0.00     0.214 A 
ATOM      2  C   UNL     1      18.666  42.342  77.560  1.00  0.00     0.180 A 
ATOM      3  O   UNL     1      18.996  41.100  78.044  1.00  0.00    -0.452 OA
ATOM      4  C   UNL     1      18.916  40.043  77.265  1.00  0.00     0.146 A 
ATOM      5  C   UNL     1      19.334  38.870  77.857  1.00  0.00     0.094 A 
ATOM      6  C   UNL     1      19.395  37.675  77.090  1.00  0.00     0.126 A 
ATOM      7  C   UNL     1      18.799  37.684  75.824  1.00  0.00     0.093 A 
ATOM      8  C   UNL     1      18.375  38.863  75.231  1.00  0.00     0.134 A 
ATOM      9  C   UNL     1      18.529  40.137  75.906  1.00  0.00     0.111 A 
ATOM     10  C   UNL     1      18.351  41.398  75.357  1.00  0.00     0.239 A 
ATOM     11  O   UNL     1      18.456  41.545  74.044  1.00  0.00    -0.285 OA
ENDROOT
BRANCH   1  12
ATOM     12  O   UNL     1      17.569  43.769  75.872  1.00  0.00    -0.454 OA
BRANCH  12  13
ATOM     13  C   UNL     1      17.214  44.158  74.519  1.00  0.00     0.339 C 
ATOM     14  C   UNL     1      17.259  46.434  75.121  1.00  0.00     0.180 C 
ATOM     15  C   UNL     1      18.622  46.773  74.308  1.00  0.00     0.177 C 
ATOM     16  O   UNL     1      16.542  45.447  74.402  1.00  0.00    -0.332 OA
ATOM     17  C   UNL     1      19.479  45.447  74.149  1.00  0.00     0.180 C 
ATOM     18  C   UNL     1      18.560  44.256  73.715  1.00  0.00     0.214 C 
BRANCH  14  19
ATOM     19  C   UNL     1      16.425  47.781  75.339  1.00  0.00     0.198 C 
BRANCH  19  20
ATOM     20  O   UNL     1      15.808  48.217  74.062  1.00  0.00    -0.347 OA
BRANCH  20  21
ATOM     21  C   UNL     1      14.349  48.442  73.896  1.00  0.00     0.281 C 
ATOM     22  C   UNL     1      11.512  48.415  71.408  1.00  0.00     0.041 C 
ATOM     23  C   UNL     1      12.247  48.159  72.816  1.00  0.00     0.150 C 
ATOM     24  C   UNL     1      11.609  47.119  73.738  1.00  0.00     0.174 C 
ATOM     25  O   UNL     1      13.679  47.792  72.780  1.00  0.00    -0.344 OA
ATOM     26  C   UNL     1      12.722  46.760  74.807  1.00  0.00     0.179 C 
ATOM     27  C   UNL     1      13.642  48.114  75.302  1.00  0.00     0.202 C 
BRANCH  24  28
ATOM     28  O   UNL     1      10.507  47.597  74.441  1.00  0.00    -0.388 OA
ATOM     29  H   UNL     1      10.306  48.592  74.181  1.00  0.00     0.211 HD
ENDBRANCH  24  28
BRANCH  26  30
ATOM     30  O   UNL     1      12.006  46.168  75.892  1.00  0.00    -0.387 OA
ATOM     31  H   UNL     1      12.564  45.881  76.701  1.00  0.00     0.211 HD
ENDBRANCH  26  30
BRANCH  27  32
ATOM     32  O   UNL     1      13.102  49.327  75.914  1.00  0.00    -0.385 OA
ATOM     33  H   UNL     1      13.041  49.289  76.915  1.00  0.00     0.211 HD
ENDBRANCH  27  32
ENDBRANCH  20  21
ENDBRANCH  19  20
ENDBRANCH  14  19
BRANCH  15  34
ATOM     34  O   UNL     1      18.289  47.252  73.103  1.00  0.00    -0.387 OA
ATOM     35  H   UNL     1      18.818  46.629  72.489  1.00  0.00     0.211 HD
ENDBRANCH  15  34
BRANCH  17  36
ATOM     36  O   UNL     1      20.113  45.100  75.395  1.00  0.00    -0.387 OA
ATOM     37  H   UNL     1      19.476  45.421  76.142  1.00  0.00     0.211 HD
ENDBRANCH  17  36
BRANCH  18  38
ATOM     38  O   UNL     1      18.314  44.146  72.330  1.00  0.00    -0.384 OA
ATOM     39  H   UNL     1      18.407  45.043  71.880  1.00  0.00     0.211 HD
ENDBRANCH  18  38
ENDBRANCH  12  13
ENDBRANCH   1  12
BRANCH   2  40
ATOM     40  C   UNL     1      18.743  43.393  78.611  1.00  0.00     0.025 A 
ATOM     41  C   UNL     1      17.926  43.291  79.749  1.00  0.00     0.062 A 
ATOM     42  C   UNL     1      19.763  44.358  78.637  1.00  0.00     0.016 A 
ATOM     43  C   UNL     1      17.905  44.243  80.753  1.00  0.00     0.162 A 
ATOM     44  C   UNL     1      19.732  45.355  79.636  1.00  0.00     0.051 A 
ATOM     45  C   UNL     1      18.784  45.343  80.665  1.00  0.00     0.161 A 
BRANCH  43  46
ATOM     46  O   UNL     1      17.094  44.164  81.891  1.00  0.00    -0.487 OA
BRANCH  46  47
ATOM     47  C   UNL     1      16.047  45.097  82.217  1.00  0.00     0.258 C 
BRANCH  47  48
ATOM     48  C   UNL     1      16.028  45.370  83.713  1.00  0.00     0.197 C 
BRANCH  48  49
ATOM     49  O   UNL     1      16.641  46.558  84.025  1.00  0.00    -0.393 OA
ATOM     50  H   UNL     1      17.380  46.347  84.683  1.00  0.00     0.210 HD
ENDBRANCH  48  49
ENDBRANCH  47  48
ENDBRANCH  46  47
ENDBRANCH  43  46
BRANCH  45  51
ATOM     51  O   UNL     1      18.649  46.358  81.623  1.00  0.00    -0.487 OA
BRANCH  51  52
ATOM     52  C   UNL     1      18.627  47.752  81.361  1.00  0.00     0.258 C 
BRANCH  52  53
ATOM     53  C   UNL     1      17.250  48.204  80.840  1.00  0.00     0.197 C 
BRANCH  53  54
ATOM     54  O   UNL     1      16.459  48.586  81.938  1.00  0.00    -0.393 OA
ATOM     55  H   UNL     1      17.011  48.441  82.748  1.00  0.00     0.210 HD
ENDBRANCH  53  54
ENDBRANCH  52  53
ENDBRANCH  51  52
ENDBRANCH  45  51
ENDBRANCH   2  40
BRANCH   8  56
ATOM     56  O   UNL     1      17.801  38.850  73.929  1.00  0.00    -0.507 OA
ATOM     57  H   UNL     1      18.318  39.006  73.087  1.00  0.00     0.293 HD
ENDBRANCH   8  56
BRANCH   6  58
ATOM     58  O   UNL     1      20.070  36.709  77.786  1.00  0.00    -0.491 OA
BRANCH  58  59
ATOM     59  C   UNL     1      19.680  35.360  78.219  1.00  0.00     0.257 C 
BRANCH  59  60
ATOM     60  C   UNL     1      20.124  34.306  77.200  1.00  0.00     0.197 C 
BRANCH  60  61
ATOM     61  O   UNL     1      19.744  34.595  75.882  1.00  0.00    -0.393 OA
ATOM     62  H   UNL     1      18.736  34.600  75.827  1.00  0.00     0.210 HD
ENDBRANCH  60  61
ENDBRANCH  59  60
ENDBRANCH  58  59
ENDBRANCH   6  58
TORSDOF 25
ENDMDL
MODEL 2
REMARK VINA RESULT:    -5.639      1.341      2.346
REMARK INTER + INTRA:         -13.987
REMARK INTER:                 -12.052
REMARK INTRA:                  -1.935
REMARK UNBOUND:                -1.755
REMARK SMILES C[C@@H]1O[C@H](OC[C@H]2O[C@H](Oc3c(-c4ccc(OCCO)c(OCCO)c4)oc4cc(OCCO)cc(O)c4c3=O)[C@@H](O)[C@H](O)[C@H]2O)[C@@H](O)[C@@H](O)[C@H]1O
REMARK SMILES IDX 11 1 12 2 27 3 28 4 29 5 30 6 35 7 36 8 38 9 39 10 40 11
REMARK SMILES IDX 10 12 9 13 7 14 45 15 8 16 43 17 41 18 6 19 5 20 4 21 1 22
REMARK SMILES IDX 2 23 51 24 3 25 49 26 47 27 52 28 50 30 48 32 46 34 44 36
REMARK SMILES IDX 42 38 13 40 26 41 14 42 21 43 15 44 16 45 22 46 23 47 24 48
REMARK SMILES IDX 25 49 17 51 18 52 19 53 20 54 37 56 31 58 32 59 33 60 34 61
REMARK H PARENT 52 29 50 31 48 33 46 35 44 37 42 39 25 50 20 55 37 57 34 62
REMARK Flexibility Score: inf
ROOT
ATOM      1  C   UNL     1      18.569  43.015  76.560  1.00  0.00     0.214 A 
ATOM      2  C   UNL     1      18.668  42.680  77.951  1.00  0.00     0.180 A 
ATOM      3  O   UNL     1      18.748  41.381  78.390  1.00  0.00    -0.452 OA
ATOM      4  C   UNL     1      18.745  40.389  77.528  1.00  0.00     0.146 A 
ATOM      5  C   UNL     1      18.890  39.142  78.098  1.00  0.00     0.094 A 
ATOM      6  C   UNL     1      19.007  37.995  77.267  1.00  0.00     0.126 A 
ATOM      7  C   UNL     1      18.729  38.148  75.904  1.00  0.00     0.093 A 
ATOM      8  C   UNL     1      18.579  39.403  75.332  1.00  0.00     0.134 A 
ATOM      9  C   UNL     1      18.698  40.608  76.130  1.00  0.00     0.111 A 
ATOM     10  C   UNL     1      18.784  41.911  75.662  1.00  0.00     0.239 A 
ATOM     11  O   UNL     1      19.209  42.120  74.424  1.00  0.00    -0.285 OA
ENDROOT
BRANCH   1  12
ATOM     12  O   UNL     1      18.150  44.324  76.185  1.00  0.00    -0.454 OA
BRANCH  12  13
ATOM     13  C   UNL     1      17.095  44.603  75.227  1.00  0.00     0.339 C 
ATOM     14  C   UNL     1      17.726  46.870  75.139  1.00  0.00     0.180 C 
ATOM     15  C   UNL     1      18.353  46.789  73.644  1.00  0.00     0.177 C 
ATOM     16  O   UNL     1      16.624  45.983  75.212  1.00  0.00    -0.332 OA
ATOM     17  C   UNL     1      18.801  45.297  73.346  1.00  0.00     0.180 C 
ATOM     18  C   UNL     1      17.690  44.294  73.806  1.00  0.00     0.214 C 
BRANCH  14  19
ATOM     19  C   UNL     1      17.332  48.386  75.465  1.00  0.00     0.198 C 
BRANCH  19  20
ATOM     20  O   UNL     1      16.218  48.829  74.592  1.00  0.00    -0.347 OA
BRANCH  20  21
ATOM     21  C   UNL     1      14.895  48.152  74.549  1.00  0.00     0.281 C 
ATOM     22  C   UNL     1      11.500  47.963  76.183  1.00  0.00     0.041 C 
ATOM     23  C   UNL     1      12.560  47.986  74.973  1.00  0.00     0.150 C 
ATOM     24  C   UNL     1      12.009  48.346  73.593  1.00  0.00     0.174 C 
ATOM     25  O   UNL     1      13.754  48.843  75.130  1.00  0.00    -0.344 OA
ATOM     26  C   UNL     1      13.276  48.709  72.712  1.00  0.00     0.179 C 
ATOM     27  C   UNL     1      14.625  47.708  73.027  1.00  0.00     0.202 C 
BRANCH  24  28
ATOM     28  O   UNL     1      11.361  47.290  72.957  1.00  0.00    -0.388 OA
ATOM     29  H   UNL     1      12.056  46.632  72.532  1.00  0.00     0.211 HD
ENDBRANCH  24  28
BRANCH  26  30
ATOM     30  O   UNL     1      12.824  48.597  71.362  1.00  0.00    -0.387 OA
ATOM     31  H   UNL     1      12.268  49.378  71.004  1.00  0.00     0.211 HD
ENDBRANCH  26  30
BRANCH  27  32
ATOM     32  O   UNL     1      14.650  46.252  72.895  1.00  0.00    -0.385 OA
ATOM     33  H   UNL     1      14.206  45.908  72.063  1.00  0.00     0.211 HD
ENDBRANCH  27  32
ENDBRANCH  20  21
ENDBRANCH  19  20
ENDBRANCH  14  19
BRANCH  15  34
ATOM     34  O   UNL     1      17.413  47.171  72.769  1.00  0.00    -0.387 OA
ATOM     35  H   UNL     1      17.749  46.725  71.912  1.00  0.00     0.211 HD
ENDBRANCH  15  34
BRANCH  17  36
ATOM     36  O   UNL     1      20.016  44.981  74.051  1.00  0.00    -0.387 OA
ATOM     37  H   UNL     1      19.846  44.083  74.531  1.00  0.00     0.211 HD
ENDBRANCH  17  36
BRANCH  18  38
ATOM     38  O   UNL     1      16.651  44.064  72.879  1.00  0.00    -0.384 OA
ATOM     39  H   UNL     1      16.754  44.661  72.074  1.00  0.00     0.211 HD
ENDBRANCH  18  38
ENDBRANCH  12  13
ENDBRANCH   1  12
BRANCH   2  40
ATOM     40  C   UNL     1      18.604  43.652  79.076  1.00  0.00     0.025 A 
ATOM     41  C   UNL     1      19.317  44.860  78.985  1.00  0.00     0.062 A 
ATOM     42  C   UNL     1      17.677  43.532  80.123  1.00  0.00     0.016 A 
ATOM     43  C   UNL     1      19.345  45.800  79.999  1.00  0.00     0.162 A 
ATOM     44  C   UNL     1      17.720  44.465  81.182  1.00  0.00     0.051 A 
ATOM     45  C   UNL     1      18.579  45.569  81.161  1.00  0.00     0.161 A 
BRANCH  43  46
ATOM     46  O   UNL     1      20.053  47.005  79.930  1.00  0.00    -0.487 OA
BRANCH  46  47
ATOM     47  C   UNL     1      19.742  48.088  79.033  1.00  0.00     0.258 C 
BRANCH  47  48
ATOM     48  C   UNL     1      19.058  49.220  79.787  1.00  0.00     0.197 C 
BRANCH  48  49
ATOM     49  O   UNL     1      19.219  49.102  81.145  1.00  0.00    -0.393 OA
ATOM     50  H   UNL     1      19.570  48.169  81.322  1.00  0.00     0.210 HD
ENDBRANCH  48  49
ENDBRANCH  47  48
ENDBRANCH  46  47
ENDBRANCH  43  46
BRANCH  45  51
ATOM     51  O   UNL     1      18.730  46.471  82.225  1.00  0.00    -0.487 OA
BRANCH  51  52
ATOM     52  C   UNL     1      17.874  46.578  83.351  1.00  0.00     0.258 C 
BRANCH  52  53
ATOM     53  C   UNL     1      16.467  47.057  82.943  1.00  0.00     0.197 C 
BRANCH  53  54
ATOM     54  O   UNL     1      16.553  48.400  82.537  1.00  0.00    -0.393 OA
ATOM     55  H   UNL     1      15.631  48.688  82.312  1.00  0.00     0.210 HD
ENDBRANCH  53  54
ENDBRANCH  52  53
ENDBRANCH  51  52
ENDBRANCH  45  51
ENDBRANCH   2  40
BRANCH   8  56
ATOM     56  O   UNL     1      18.327  39.534  73.937  1.00  0.00    -0.507 OA
ATOM     57  H   UNL     1      17.495  39.210  73.486  1.00  0.00     0.293 HD
ENDBRANCH   8  56
BRANCH   6  58
ATOM     58  O   UNL     1      19.398  36.917  78.014  1.00  0.00    -0.491 OA
BRANCH  58  59
ATOM     59  C   UNL     1      19.779  35.549  77.636  1.00  0.00     0.257 C 
BRANCH  59  60
ATOM     60  C   UNL     1      19.787  34.624  78.857  1.00  0.00     0.197 C 
BRANCH  60  61
ATOM     61  O   UNL     1      20.125  33.296  78.562  1.00  0.00    -0.393 OA
ATOM     62  H   UNL     1      20.526  33.261  77.636  1.00  0.00     0.210 HD
ENDBRANCH  60  61
ENDBRANCH  59  60
ENDBRANCH  58  59
ENDBRANCH   6  58
TORSDOF 25
ENDMDL
MODEL 3
REMARK VINA RESULT:    -5.393      1.474      1.958
REMARK INTER + INTRA:         -13.454
REMARK INTER:                 -12.115
REMARK INTRA:                  -1.338
REMARK UNBOUND:                -1.755
REMARK SMILES C[C@@H]1O[C@H](OC[C@H]2O[C@H](Oc3c(-c4ccc(OCCO)c(OCCO)c4)oc4cc(OCCO)cc(O)c4c3=O)[C@@H](O)[C@H](O)[C@H]2O)[C@@H](O)[C@@H](O)[C@H]1O
REMARK SMILES IDX 11 1 12 2 27 3 28 4 29 5 30 6 35 7 36 8 38 9 39 10 40 11
REMARK SMILES IDX 10 12 9 13 7 14 45 15 8 16 43 17 41 18 6 19 5 20 4 21 1 22
REMARK SMILES IDX 2 23 51 24 3 25 49 26 47 27 52 28 50 30 48 32 46 34 44 36
REMARK SMILES IDX 42 38 13 40 26 41 14 42 21 43 15 44 16 45 22 46 23 47 24 48
REMARK SMILES IDX 25 49 17 51 18 52 19 53 20 54 37 56 31 58 32 59 33 60 34 61
REMARK H PARENT 52 29 50 31 48 33 46 35 44 37 42 39 25 50 20 55 37 57 34 62
REMARK Flexibility Score: inf
ROOT
ATOM      1  C   UNL     1      18.337  43.829  75.827  1.00  0.00     0.214 A 
ATOM      2  C   UNL     1      18.729  43.586  77.184  1.00  0.00     0.180 A 
ATOM      3  O   UNL     1      18.837  42.319  77.702  1.00  0.00    -0.452 OA
ATOM      4  C   UNL     1      18.588  41.271  76.948  1.00  0.00     0.146 A 
ATOM      5  C   UNL     1      18.793  40.060  77.575  1.00  0.00     0.094 A 
ATOM      6  C   UNL     1      18.658  38.853  76.837  1.00  0.00     0.126 A 
ATOM      7  C   UNL     1      18.088  38.929  75.562  1.00  0.00     0.093 A 
ATOM      8  C   UNL     1      17.878  40.148  74.933  1.00  0.00     0.134 A 
ATOM      9  C   UNL     1      18.238  41.395  75.581  1.00  0.00     0.111 A 
ATOM     10  C   UNL     1      18.285  42.652  74.999  1.00  0.00     0.239 A 
ATOM     11  O   UNL     1      18.430  42.744  73.685  1.00  0.00    -0.285 OA
ENDROOT
BRANCH   1  12
ATOM     12  O   UNL     1      17.913  45.135  75.445  1.00  0.00    -0.454 OA
BRANCH  12  13
ATOM     13  C   UNL     1      17.639  45.541  74.078  1.00  0.00     0.339 C 
ATOM     14  C   UNL     1      16.839  47.628  74.819  1.00  0.00     0.180 C 
ATOM     15  C   UNL     1      18.110  48.474  74.269  1.00  0.00     0.177 C 
ATOM     16  O   UNL     1      16.599  46.551  73.930  1.00  0.00    -0.332 OA
ATOM     17  C   UNL     1      19.373  47.519  74.175  1.00  0.00     0.180 C 
ATOM     18  C   UNL     1      18.974  46.154  73.519  1.00  0.00     0.214 C 
BRANCH  14  19
ATOM     19  C   UNL     1      15.582  48.603  74.976  1.00  0.00     0.198 C 
BRANCH  19  20
ATOM     20  O   UNL     1      14.570  48.313  73.931  1.00  0.00    -0.347 OA
BRANCH  20  21
ATOM     21  C   UNL     1      13.575  47.215  74.042  1.00  0.00     0.281 C 
ATOM     22  C   UNL     1      13.122  43.571  74.910  1.00  0.00     0.041 C 
ATOM     23  C   UNL     1      12.759  45.138  74.870  1.00  0.00     0.150 C 
ATOM     24  C   UNL     1      11.779  45.637  75.932  1.00  0.00     0.174 C 
ATOM     25  O   UNL     1      13.883  46.098  74.922  1.00  0.00    -0.344 OA
ATOM     26  C   UNL     1      11.932  47.215  75.941  1.00  0.00     0.179 C 
ATOM     27  C   UNL     1      12.150  47.880  74.382  1.00  0.00     0.202 C 
BRANCH  24  28
ATOM     28  O   UNL     1      10.447  45.359  75.637  1.00  0.00    -0.388 OA
ATOM     29  H   UNL     1      10.014  46.148  75.102  1.00  0.00     0.211 HD
ENDBRANCH  24  28
BRANCH  26  30
ATOM     30  O   UNL     1      10.741  47.691  76.569  1.00  0.00    -0.387 OA
ATOM     31  H   UNL     1       9.919  47.791  75.965  1.00  0.00     0.211 HD
ENDBRANCH  26  30
BRANCH  27  32
ATOM     32  O   UNL     1      11.223  47.735  73.260  1.00  0.00    -0.385 OA
ATOM     33  H   UNL     1      10.262  47.642  73.533  1.00  0.00     0.211 HD
ENDBRANCH  27  32
ENDBRANCH  20  21
ENDBRANCH  19  20
ENDBRANCH  14  19
BRANCH  15  34
ATOM     34  O   UNL     1      17.806  48.956  73.057  1.00  0.00    -0.387 OA
ATOM     35  H   UNL     1      18.498  48.478  72.475  1.00  0.00     0.211 HD
ENDBRANCH  15  34
BRANCH  17  36
ATOM     36  O   UNL     1      19.907  47.253  75.485  1.00  0.00    -0.387 OA
ATOM     37  H   UNL     1      20.868  46.905  75.339  1.00  0.00     0.211 HD
ENDBRANCH  17  36
BRANCH  18  38
ATOM     38  O   UNL     1      18.972  46.130  72.108  1.00  0.00    -0.384 OA
ATOM     39  H   UNL     1      18.289  46.774  71.742  1.00  0.00     0.211 HD
ENDBRANCH  18  38
ENDBRANCH  12  13
ENDBRANCH   1  12
BRANCH   2  40
ATOM     40  C   UNL     1      18.972  44.636  78.210  1.00  0.00     0.025 A 
ATOM     41  C   UNL     1      18.329  44.544  79.456  1.00  0.00     0.062 A 
ATOM     42  C   UNL     1      19.996  45.588  78.086  1.00  0.00     0.016 A 
ATOM     43  C   UNL     1      18.466  45.495  80.451  1.00  0.00     0.162 A 
ATOM     44  C   UNL     1      20.124  46.586  79.077  1.00  0.00     0.051 A 
ATOM     45  C   UNL     1      19.337  46.585  80.233  1.00  0.00     0.161 A 
BRANCH  43  46
ATOM     46  O   UNL     1      17.829  45.426  81.695  1.00  0.00    -0.487 OA
BRANCH  46  47
ATOM     47  C   UNL     1      16.737  44.541  82.007  1.00  0.00     0.258 C 
BRANCH  47  48
ATOM     48  C   UNL     1      16.047  44.983  83.290  1.00  0.00     0.197 C 
BRANCH  48  49
ATOM     49  O   UNL     1      15.601  46.278  83.211  1.00  0.00    -0.393 OA
ATOM     50  H   UNL     1      14.590  46.247  83.250  1.00  0.00     0.210 HD
ENDBRANCH  48  49
ENDBRANCH  47  48
ENDBRANCH  46  47
ENDBRANCH  43  46
BRANCH  45  51
ATOM     51  O   UNL     1      19.355  47.601  81.200  1.00  0.00    -0.487 OA
BRANCH  51  52
ATOM     52  C   UNL     1      19.085  48.974  80.967  1.00  0.00     0.258 C 
BRANCH  52  53
ATOM     53  C   UNL     1      17.688  49.176  80.350  1.00  0.00     0.197 C 
BRANCH  53  54
ATOM     54  O   UNL     1      17.835  49.364  78.964  1.00  0.00    -0.393 OA
ATOM     55  H   UNL     1      18.516  48.713  78.660  1.00  0.00     0.210 HD
ENDBRANCH  53  54
ENDBRANCH  52  53
ENDBRANCH  51  52
ENDBRANCH  45  51
ENDBRANCH   2  40
BRANCH   8  56
ATOM     56  O   UNL     1      17.326  40.198  73.623  1.00  0.00    -0.507 OA
ATOM     57  H   UNL     1      17.014  39.394  73.116  1.00  0.00     0.293 HD
ENDBRANCH   8  56
BRANCH   6  58
ATOM     58  O   UNL     1      19.150  37.804  77.567  1.00  0.00    -0.491 OA
BRANCH  58  59
ATOM     59  C   UNL     1      19.549  36.444  77.182  1.00  0.00     0.257 C 
BRANCH  59  60
ATOM     60  C   UNL     1      19.752  36.338  75.667  1.00  0.00     0.197 C 
BRANCH  60  61
ATOM     61  O   UNL     1      19.329  35.119  75.121  1.00  0.00    -0.393 OA
ATOM     62  H   UNL     1      19.660  34.367  75.708  1.00  0.00     0.210 HD
ENDBRANCH  60  61
ENDBRANCH  59  60
ENDBRANCH  58  59
ENDBRANCH   6  58
TORSDOF 25
ENDMDL
MODEL 4
REMARK VINA RESULT:    -5.010      2.205      7.469
REMARK INTER + INTRA:         -12.622
REMARK INTER:                 -10.185
REMARK INTRA:                  -2.438
REMARK UNBOUND:                -1.755
REMARK SMILES C[C@@H]1O[C@H](OC[C@H]2O[C@H](Oc3c(-c4ccc(OCCO)c(OCCO)c4)oc4cc(OCCO)cc(O)c4c3=O)[C@@H](O)[C@H](O)[C@H]2O)[C@@H](O)[C@@H](O)[C@H]1O
REMARK SMILES IDX 11 1 12 2 27 3 28 4 29 5 30 6 35 7 36 8 38 9 39 10 40 11
REMARK SMILES IDX 10 12 9 13 7 14 45 15 8 16 43 17 41 18 6 19 5 20 4 21 1 22
REMARK SMILES IDX 2 23 51 24 3 25 49 26 47 27 52 28 50 30 48 32 46 34 44 36
REMARK SMILES IDX 42 38 13 40 26 41 14 42 21 43 15 44 16 45 22 46 23 47 24 48
REMARK SMILES IDX 25 49 17 51 18 52 19 53 20 54 37 56 31 58 32 59 33 60 34 61
REMARK H PARENT 52 29 50 31 48 33 46 35 44 37 42 39 25 50 20 55 37 57 34 62
REMARK Flexibility Score: inf
ROOT
ATOM      1  C   UNL     1      17.589  45.492  75.437  1.00  0.00     0.214 A 
ATOM      2  C   UNL     1      16.543  45.165  74.512  1.00  0.00     0.180 A 
ATOM      3  O   UNL     1      16.331  43.884  74.066  1.00  0.00    -0.452 OA
ATOM      4  C   UNL     1      17.091  42.899  74.491  1.00  0.00     0.146 A 
ATOM      5  C   UNL     1      16.732  41.658  74.012  1.00  0.00     0.094 A 
ATOM      6  C   UNL     1      17.410  40.498  74.477  1.00  0.00     0.126 A 
ATOM      7  C   UNL     1      18.579  40.684  75.225  1.00  0.00     0.093 A 
ATOM      8  C   UNL     1      18.942  41.934  75.704  1.00  0.00     0.134 A 
ATOM      9  C   UNL     1      18.123  43.102  75.440  1.00  0.00     0.111 A 
ATOM     10  C   UNL     1      18.246  44.353  76.025  1.00  0.00     0.239 A 
ATOM     11  O   UNL     1      18.847  44.454  77.201  1.00  0.00    -0.285 OA
ENDROOT
BRANCH   1  12
ATOM     12  O   UNL     1      17.980  46.853  75.597  1.00  0.00    -0.454 OA
BRANCH  12  13
ATOM     13  C   UNL     1      17.403  47.762  76.571  1.00  0.00     0.339 C 
ATOM     14  C   UNL     1      19.397  47.746  77.823  1.00  0.00     0.180 C 
ATOM     15  C   UNL     1      19.828  49.260  77.431  1.00  0.00     0.177 C 
ATOM     16  O   UNL     1      17.984  47.689  77.906  1.00  0.00    -0.332 OA
ATOM     17  C   UNL     1      19.159  49.652  76.047  1.00  0.00     0.180 C 
ATOM     18  C   UNL     1      17.655  49.215  76.028  1.00  0.00     0.214 C 
BRANCH  14  19
ATOM     19  C   UNL     1      20.122  47.325  79.185  1.00  0.00     0.198 C 
BRANCH  19  20
ATOM     20  O   UNL     1      19.389  47.877  80.351  1.00  0.00    -0.347 OA
BRANCH  20  21
ATOM     21  C   UNL     1      18.157  47.260  80.908  1.00  0.00     0.281 C 
ATOM     22  C   UNL     1      16.697  44.082  82.322  1.00  0.00     0.041 C 
ATOM     23  C   UNL     1      16.959  45.665  82.204  1.00  0.00     0.150 C 
ATOM     24  C   UNL     1      16.663  46.498  83.452  1.00  0.00     0.174 C 
ATOM     25  O   UNL     1      18.305  46.103  81.777  1.00  0.00    -0.344 OA
ATOM     26  C   UNL     1      17.390  47.887  83.215  1.00  0.00     0.179 C 
ATOM     27  C   UNL     1      17.296  48.430  81.597  1.00  0.00     0.202 C 
BRANCH  24  28
ATOM     28  O   UNL     1      15.310  46.772  83.633  1.00  0.00    -0.388 OA
ATOM     29  H   UNL     1      15.048  47.669  83.159  1.00  0.00     0.211 HD
ENDBRANCH  24  28
BRANCH  26  30
ATOM     30  O   UNL     1      16.756  48.787  84.125  1.00  0.00    -0.387 OA
ATOM     31  H   UNL     1      15.923  48.435  84.605  1.00  0.00     0.211 HD
ENDBRANCH  26  30
BRANCH  27  32
ATOM     32  O   UNL     1      16.060  48.677  80.856  1.00  0.00    -0.385 OA
ATOM     33  H   UNL     1      15.501  49.423  81.227  1.00  0.00     0.211 HD
ENDBRANCH  27  32
ENDBRANCH  20  21
ENDBRANCH  19  20
ENDBRANCH  14  19
BRANCH  15  34
ATOM     34  O   UNL     1      19.404  50.085  78.397  1.00  0.00    -0.387 OA
ATOM     35  H   UNL     1      19.567  49.514  79.230  1.00  0.00     0.211 HD
ENDBRANCH  15  34
BRANCH  17  36
ATOM     36  O   UNL     1      19.834  49.001  74.954  1.00  0.00    -0.387 OA
ATOM     37  H   UNL     1      20.839  49.204  75.075  1.00  0.00     0.211 HD
ENDBRANCH  17  36
BRANCH  18  38
ATOM     38  O   UNL     1      16.747  50.123  76.613  1.00  0.00    -0.384 OA
ATOM     39  H   UNL     1      17.236  50.902  77.023  1.00  0.00     0.211 HD
ENDBRANCH  18  38
ENDBRANCH  12  13
ENDBRANCH   1  12
BRANCH   2  40
ATOM     40  C   UNL     1      15.636  46.147  73.858  1.00  0.00     0.025 A 
ATOM     41  C   UNL     1      14.373  46.399  74.421  1.00  0.00     0.062 A 
ATOM     42  C   UNL     1      16.070  47.011  72.841  1.00  0.00     0.016 A 
ATOM     43  C   UNL     1      13.453  47.265  73.857  1.00  0.00     0.162 A 
ATOM     44  C   UNL     1      15.131  47.874  72.233  1.00  0.00     0.051 A 
ATOM     45  C   UNL     1      13.814  47.975  72.691  1.00  0.00     0.161 A 
BRANCH  43  46
ATOM     46  O   UNL     1      12.189  47.525  74.397  1.00  0.00    -0.487 OA
BRANCH  46  47
ATOM     47  C   UNL     1      11.220  46.515  74.738  1.00  0.00     0.258 C 
BRANCH  47  48
ATOM     48  C   UNL     1      11.170  46.316  76.245  1.00  0.00     0.197 C 
BRANCH  48  49
ATOM     49  O   UNL     1      10.205  45.411  76.611  1.00  0.00    -0.393 OA
ATOM     50  H   UNL     1      10.174  45.401  77.622  1.00  0.00     0.210 HD
ENDBRANCH  48  49
ENDBRANCH  47  48
ENDBRANCH  46  47
ENDBRANCH  43  46
BRANCH  45  51
ATOM     51  O   UNL     1      12.818  48.741  72.067  1.00  0.00    -0.487 OA
BRANCH  51  52
ATOM     52  C   UNL     1      11.846  48.256  71.155  1.00  0.00     0.258 C 
BRANCH  52  53
ATOM     53  C   UNL     1      10.544  49.076  71.233  1.00  0.00     0.197 C 
BRANCH  53  54
ATOM     54  O   UNL     1       9.529  48.254  71.755  1.00  0.00    -0.393 OA
ATOM     55  H   UNL     1       9.927  47.763  72.518  1.00  0.00     0.210 HD
ENDBRANCH  53  54
ENDBRANCH  52  53
ENDBRANCH  51  52
ENDBRANCH  45  51
ENDBRANCH   2  40
BRANCH   8  56
ATOM     56  O   UNL     1      20.118  42.092  76.488  1.00  0.00    -0.507 OA
ATOM     57  H   UNL     1      20.183  41.843  77.455  1.00  0.00     0.293 HD
ENDBRANCH   8  56
BRANCH   6  58
ATOM     58  O   UNL     1      16.737  39.374  74.081  1.00  0.00    -0.491 OA
BRANCH  58  59
ATOM     59  C   UNL     1      16.979  37.947  74.330  1.00  0.00     0.257 C 
BRANCH  59  60
ATOM     60  C   UNL     1      18.370  37.532  73.838  1.00  0.00     0.197 C 
BRANCH  60  61
ATOM     61  O   UNL     1      19.283  37.273  74.868  1.00  0.00    -0.393 OA
ATOM     62  H   UNL     1      18.773  37.012  75.699  1.00  0.00     0.210 HD
ENDBRANCH  60  61
ENDBRANCH  59  60
ENDBRANCH  58  59
ENDBRANCH   6  58
TORSDOF 25
ENDMDL
MODEL 5
REMARK VINA RESULT:    -3.791      3.075      7.651
REMARK INTER + INTRA:          -9.978
REMARK INTER:                  -6.962
REMARK INTRA:                  -3.016
REMARK UNBOUND:                -1.755
REMARK SMILES C[C@@H]1O[C@H](OC[C@H]2O[C@H](Oc3c(-c4ccc(OCCO)c(OCCO)c4)oc4cc(OCCO)cc(O)c4c3=O)[C@@H](O)[C@H](O)[C@H]2O)[C@@H](O)[C@@H](O)[C@H]1O
REMARK SMILES IDX 11 1 12 2 27 3 28 4 29 5 30 6 35 7 36 8 38 9 39 10 40 11
REMARK SMILES IDX 10 12 9 13 7 14 45 15 8 16 43 17 41 18 6 19 5 20 4 21 1 22
REMARK SMILES IDX 2 23 51 24 3 25 49 26 47 27 52 28 50 30 48 32 46 34 44 36
REMARK SMILES IDX 42 38 13 40 26 41 14 42 21 43 15 44 16 45 22 46 23 47 24 48
REMARK SMILES IDX 25 49 17 51 18 52 19 53 20 54 37 56 31 58 32 59 33 60 34 61
REMARK H PARENT 52 29 50 31 48 33 46 35 44 37 42 39 25 50 20 55 37 57 34 62
REMARK Flexibility Score: inf
ROOT
ATOM      1  C   UNL     1      19.144  45.203  76.618  1.00  0.00     0.214 A 
ATOM      2  C   UNL     1      19.089  46.628  76.471  1.00  0.00     0.180 A 
ATOM      3  O   UNL     1      18.955  47.474  77.545  1.00  0.00    -0.452 OA
ATOM      4  C   UNL     1      18.883  46.989  78.765  1.00  0.00     0.146 A 
ATOM      5  C   UNL     1      18.811  47.948  79.752  1.00  0.00     0.094 A 
ATOM      6  C   UNL     1      18.833  47.556  81.119  1.00  0.00     0.126 A 
ATOM      7  C   UNL     1      18.683  46.196  81.408  1.00  0.00     0.093 A 
ATOM      8  C   UNL     1      18.751  45.231  80.414  1.00  0.00     0.134 A 
ATOM      9  C   UNL     1      18.974  45.600  79.028  1.00  0.00     0.111 A 
ATOM     10  C   UNL     1      19.273  44.747  77.978  1.00  0.00     0.239 A 
ATOM     11  O   UNL     1      19.816  43.568  78.245  1.00  0.00    -0.285 OA
ENDROOT
BRANCH   1  12
ATOM     12  O   UNL     1      18.938  44.374  75.478  1.00  0.00    -0.454 OA
BRANCH  12  13
ATOM     13  C   UNL     1      18.067  43.212  75.455  1.00  0.00     0.339 C 
ATOM     14  C   UNL     1      16.266  44.532  74.707  1.00  0.00     0.180 C 
ATOM     15  C   UNL     1      16.256  43.925  73.202  1.00  0.00     0.177 C 
ATOM     16  O   UNL     1      16.646  43.502  75.603  1.00  0.00    -0.332 OA
ATOM     17  C   UNL     1      17.701  43.370  72.853  1.00  0.00     0.180 C 
ATOM     18  C   UNL     1      18.265  42.535  74.051  1.00  0.00     0.214 C 
BRANCH  14  19
ATOM     19  C   UNL     1      14.829  45.150  75.037  1.00  0.00     0.198 C 
BRANCH  19  20
ATOM     20  O   UNL     1      14.677  46.477  74.391  1.00  0.00    -0.347 OA
BRANCH  20  21
ATOM     21  C   UNL     1      13.390  47.218  74.340  1.00  0.00     0.281 C 
ATOM     22  C   UNL     1      10.559  48.284  72.085  1.00  0.00     0.041 C 
ATOM     23  C   UNL     1      11.254  47.741  73.431  1.00  0.00     0.150 C 
ATOM     24  C   UNL     1      10.353  46.977  74.401  1.00  0.00     0.174 C 
ATOM     25  O   UNL     1      12.449  46.884  73.282  1.00  0.00    -0.344 OA
ATOM     26  C   UNL     1      11.337  46.211  75.379  1.00  0.00     0.179 C 
ATOM     27  C   UNL     1      12.718  47.128  75.799  1.00  0.00     0.202 C 
BRANCH  24  28
ATOM     28  O   UNL     1       9.554  47.801  75.189  1.00  0.00    -0.388 OA
ATOM     29  H   UNL     1       8.847  47.236  75.716  1.00  0.00     0.211 HD
ENDBRANCH  24  28
BRANCH  26  30
ATOM     30  O   UNL     1      10.538  45.888  76.518  1.00  0.00    -0.387 OA
ATOM     31  H   UNL     1       9.682  46.437  76.641  1.00  0.00     0.211 HD
ENDBRANCH  26  30
BRANCH  27  32
ATOM     32  O   UNL     1      12.701  48.437  76.450  1.00  0.00    -0.385 OA
ATOM     33  H   UNL     1      13.559  48.675  76.914  1.00  0.00     0.211 HD
ENDBRANCH  27  32
ENDBRANCH  20  21
ENDBRANCH  19  20
ENDBRANCH  14  19
BRANCH  15  34
ATOM     34  O   UNL     1      15.357  42.933  73.150  1.00  0.00    -0.387 OA
ATOM     35  H   UNL     1      15.864  42.182  73.624  1.00  0.00     0.211 HD
ENDBRANCH  15  34
BRANCH  17  36
ATOM     36  O   UNL     1      18.611  44.454  72.587  1.00  0.00    -0.387 OA
ATOM     37  H   UNL     1      18.043  45.316  72.601  1.00  0.00     0.211 HD
ENDBRANCH  17  36
BRANCH  18  38
ATOM     38  O   UNL     1      17.863  41.183  74.098  1.00  0.00    -0.384 OA
ATOM     39  H   UNL     1      18.409  40.627  73.459  1.00  0.00     0.211 HD
ENDBRANCH  18  38
ENDBRANCH  12  13
ENDBRANCH   1  12
BRANCH   2  40
ATOM     40  C   UNL     1      19.073  47.359  75.174  1.00  0.00     0.025 A 
ATOM     41  C   UNL     1      18.103  48.352  74.955  1.00  0.00     0.062 A 
ATOM     42  C   UNL     1      20.124  47.273  74.249  1.00  0.00     0.016 A 
ATOM     43  C   UNL     1      17.991  49.051  73.766  1.00  0.00     0.162 A 
ATOM     44  C   UNL     1      20.006  47.953  73.017  1.00  0.00     0.051 A 
ATOM     45  C   UNL     1      18.927  48.800  72.740  1.00  0.00     0.161 A 
BRANCH  43  46
ATOM     46  O   UNL     1      17.030  50.039  73.526  1.00  0.00    -0.487 OA
BRANCH  46  47
ATOM     47  C   UNL     1      15.621  49.788  73.361  1.00  0.00     0.258 C 
BRANCH  47  48
ATOM     48  C   UNL     1      15.346  49.200  71.984  1.00  0.00     0.197 C 
BRANCH  48  49
ATOM     49  O   UNL     1      15.738  47.887  71.901  1.00  0.00    -0.393 OA
ATOM     50  H   UNL     1      14.951  47.323  72.199  1.00  0.00     0.210 HD
ENDBRANCH  48  49
ENDBRANCH  47  48
ENDBRANCH  46  47
ENDBRANCH  43  46
BRANCH  45  51
ATOM     51  O   UNL     1      18.711  49.422  71.501  1.00  0.00    -0.487 OA
BRANCH  51  52
ATOM     52  C   UNL     1      18.732  48.783  70.235  1.00  0.00     0.258 C 
BRANCH  52  53
ATOM     53  C   UNL     1      19.988  49.172  69.432  1.00  0.00     0.197 C 
BRANCH  53  54
ATOM     54  O   UNL     1      19.588  49.578  68.146  1.00  0.00    -0.393 OA
ATOM     55  H   UNL     1      18.648  49.880  68.224  1.00  0.00     0.210 HD
ENDBRANCH  53  54
ENDBRANCH  52  53
ENDBRANCH  51  52
ENDBRANCH  45  51
ENDBRANCH   2  40
BRANCH   8  56
ATOM     56  O   UNL     1      18.628  43.851  80.737  1.00  0.00    -0.507 OA
ATOM     57  H   UNL     1      18.997  43.437  81.569  1.00  0.00     0.293 HD
ENDBRANCH   8  56
BRANCH   6  58
ATOM     58  O   UNL     1      19.013  48.655  81.915  1.00  0.00    -0.491 OA
BRANCH  58  59
ATOM     59  C   UNL     1      19.117  48.803  83.373  1.00  0.00     0.257 C 
BRANCH  59  60
ATOM     60  C   UNL     1      17.738  49.019  84.003  1.00  0.00     0.197 C 
BRANCH  60  61
ATOM     61  O   UNL     1      16.767  48.104  83.574  1.00  0.00    -0.393 OA
ATOM     62  H   UNL     1      16.265  48.504  82.795  1.00  0.00     0.210 HD
ENDBRANCH  60  61
ENDBRANCH  59  60
ENDBRANCH  58  59
ENDBRANCH   6  58
TORSDOF 25
ENDMDL
MODEL 6
REMARK VINA RESULT:    -3.650      4.347     11.263
REMARK INTER + INTRA:          -9.673
REMARK INTER:                  -7.385
REMARK INTRA:                  -2.288
REMARK UNBOUND:                -1.755
REMARK SMILES C[C@@H]1O[C@H](OC[C@H]2O[C@H](Oc3c(-c4ccc(OCCO)c(OCCO)c4)oc4cc(OCCO)cc(O)c4c3=O)[C@@H](O)[C@H](O)[C@H]2O)[C@@H](O)[C@@H](O)[C@H]1O
REMARK SMILES IDX 11 1 12 2 27 3 28 4 29 5 30 6 35 7 36 8 38 9 39 10 40 11
REMARK SMILES IDX 10 12 9 13 7 14 45 15 8 16 43 17 41 18 6 19 5 20 4 21 1 22
REMARK SMILES IDX 2 23 51 24 3 25 49 26 47 27 52 28 50 30 48 32 46 34 44 36
REMARK SMILES IDX 42 38 13 40 26 41 14 42 21 43 15 44 16 45 22 46 23 47 24 48
REMARK SMILES IDX 25 49 17 51 18 52 19 53 20 54 37 56 31 58 32 59 33 60 34 61
REMARK H PARENT 52 29 50 31 48 33 46 35 44 37 42 39 25 50 20 55 37 57 34 62
REMARK Flexibility Score: inf
ROOT
ATOM      1  C   UNL     1      14.344  48.026  73.436  1.00  0.00     0.214 A 
ATOM      2  C   UNL     1      14.241  48.482  72.080  1.00  0.00     0.180 A 
ATOM      3  O   UNL     1      15.341  48.827  71.335  1.00  0.00    -0.452 OA
ATOM      4  C   UNL     1      16.547  48.738  71.853  1.00  0.00     0.146 A 
ATOM      5  C   UNL     1      17.564  49.057  70.979  1.00  0.00     0.094 A 
ATOM      6  C   UNL     1      18.917  48.901  71.385  1.00  0.00     0.126 A 
ATOM      7  C   UNL     1      19.167  48.657  72.739  1.00  0.00     0.093 A 
ATOM      8  C   UNL     1      18.142  48.340  73.619  1.00  0.00     0.134 A 
ATOM      9  C   UNL     1      16.767  48.256  73.166  1.00  0.00     0.111 A 
ATOM     10  C   UNL     1      15.687  47.748  73.873  1.00  0.00     0.239 A 
ATOM     11  O   UNL     1      15.913  46.891  74.858  1.00  0.00    -0.285 OA
ENDROOT
BRANCH   1  12
ATOM     12  O   UNL     1      13.181  48.012  74.259  1.00  0.00    -0.454 OA
BRANCH  12  13
ATOM     13  C   UNL     1      11.981  47.247  73.970  1.00  0.00     0.339 C 
ATOM     14  C   UNL     1      12.652  45.560  75.469  1.00  0.00     0.180 C 
ATOM     15  C   UNL     1      11.535  45.910  76.593  1.00  0.00     0.177 C 
ATOM     16  O   UNL     1      12.096  45.811  74.191  1.00  0.00    -0.332 OA
ATOM     17  C   UNL     1      11.106  47.430  76.446  1.00  0.00     0.180 C 
ATOM     18  C   UNL     1      10.867  47.784  74.940  1.00  0.00     0.214 C 
BRANCH  14  19
ATOM     19  C   UNL     1      13.134  44.046  75.657  1.00  0.00     0.198 C 
BRANCH  19  20
ATOM     20  O   UNL     1      14.060  43.660  74.565  1.00  0.00    -0.347 OA
BRANCH  20  21
ATOM     21  C   UNL     1      15.380  43.018  74.802  1.00  0.00     0.281 C 
ATOM     22  C   UNL     1      17.306  39.787  74.517  1.00  0.00     0.041 C 
ATOM     23  C   UNL     1      17.059  41.374  74.431  1.00  0.00     0.150 C 
ATOM     24  C   UNL     1      18.017  42.164  73.538  1.00  0.00     0.174 C 
ATOM     25  O   UNL     1      15.713  41.833  74.027  1.00  0.00    -0.344 OA
ATOM     26  C   UNL     1      17.313  43.564  73.296  1.00  0.00     0.179 C 
ATOM     27  C   UNL     1      16.506  44.160  74.679  1.00  0.00     0.202 C 
BRANCH  24  28
ATOM     28  O   UNL     1      19.249  42.424  74.132  1.00  0.00    -0.388 OA
ATOM     29  H   UNL     1      19.414  41.777  74.939  1.00  0.00     0.211 HD
ENDBRANCH  24  28
BRANCH  26  30
ATOM     30  O   UNL     1      18.366  44.430  72.870  1.00  0.00    -0.387 OA
ATOM     31  H   UNL     1      19.257  43.981  72.640  1.00  0.00     0.211 HD
ENDBRANCH  26  30
BRANCH  27  32
ATOM     32  O   UNL     1      17.127  44.424  75.976  1.00  0.00    -0.385 OA
ATOM     33  H   UNL     1      17.157  45.396  76.226  1.00  0.00     0.211 HD
ENDBRANCH  27  32
ENDBRANCH  20  21
ENDBRANCH  19  20
ENDBRANCH  14  19
BRANCH  15  34
ATOM     34  O   UNL     1      10.476  45.113  76.403  1.00  0.00    -0.387 OA
ATOM     35  H   UNL     1      10.847  44.214  76.718  1.00  0.00     0.211 HD
ENDBRANCH  15  34
BRANCH  17  36
ATOM     36  O   UNL     1      12.133  48.300  76.958  1.00  0.00    -0.387 OA
ATOM     37  H   UNL     1      12.004  49.209  76.485  1.00  0.00     0.211 HD
ENDBRANCH  17  36
BRANCH  18  38
ATOM     38  O   UNL     1       9.586  47.474  74.434  1.00  0.00    -0.384 OA
ATOM     39  H   UNL     1       9.620  46.646  73.862  1.00  0.00     0.211 HD
ENDBRANCH  18  38
ENDBRANCH  12  13
ENDBRANCH   1  12
BRANCH   2  40
ATOM     40  C   UNL     1      12.967  48.727  71.350  1.00  0.00     0.025 A 
ATOM     41  C   UNL     1      12.278  47.641  70.783  1.00  0.00     0.062 A 
ATOM     42  C   UNL     1      12.294  49.957  71.402  1.00  0.00     0.016 A 
ATOM     43  C   UNL     1      11.111  47.782  70.055  1.00  0.00     0.162 A 
ATOM     44  C   UNL     1      11.120  50.125  70.635  1.00  0.00     0.051 A 
ATOM     45  C   UNL     1      10.548  49.069  69.918  1.00  0.00     0.161 A 
BRANCH  43  46
ATOM     46  O   UNL     1      10.414  46.715  69.478  1.00  0.00    -0.487 OA
BRANCH  46  47
ATOM     47  C   UNL     1      10.450  46.375  68.078  1.00  0.00     0.258 C 
BRANCH  47  48
ATOM     48  C   UNL     1       9.043  46.371  67.498  1.00  0.00     0.197 C 
BRANCH  48  49
ATOM     49  O   UNL     1       8.876  47.352  66.553  1.00  0.00    -0.393 OA
ATOM     50  H   UNL     1       8.808  48.232  67.048  1.00  0.00     0.210 HD
ENDBRANCH  48  49
ENDBRANCH  47  48
ENDBRANCH  46  47
ENDBRANCH  43  46
BRANCH  45  51
ATOM     51  O   UNL     1       9.441  49.203  69.066  1.00  0.00    -0.487 OA
BRANCH  51  52
ATOM     52  C   UNL     1       8.083  49.266  69.471  1.00  0.00     0.258 C 
BRANCH  52  53
ATOM     53  C   UNL     1       7.212  49.960  68.407  1.00  0.00     0.197 C 
BRANCH  53  54
ATOM     54  O   UNL     1       7.882  49.902  67.172  1.00  0.00    -0.393 OA
ATOM     55  H   UNL     1       7.536  50.652  66.626  1.00  0.00     0.210 HD
ENDBRANCH  53  54
ENDBRANCH  52  53
ENDBRANCH  51  52
ENDBRANCH  45  51
ENDBRANCH   2  40
BRANCH   8  56
ATOM     56  O   UNL     1      18.425  48.065  74.986  1.00  0.00    -0.507 OA
ATOM     57  H   UNL     1      18.961  48.666  75.579  1.00  0.00     0.293 HD
ENDBRANCH   8  56
BRANCH   6  58
ATOM     58  O   UNL     1      19.745  49.022  70.301  1.00  0.00    -0.491 OA
BRANCH  58  59
ATOM     59  C   UNL     1      19.969  50.125  69.357  1.00  0.00     0.257 C 
BRANCH  59  60
ATOM     60  C   UNL     1      20.094  49.604  67.921  1.00  0.00     0.197 C 
BRANCH  60  61
ATOM     61  O   UNL     1      18.961  49.840  67.131  1.00  0.00    -0.393 OA
ATOM     62  H   UNL     1      18.697  48.978  66.675  1.00  0.00     0.210 HD
ENDBRANCH  60  61
ENDBRANCH  59  60
ENDBRANCH  58  59
ENDBRANCH   6  58
TORSDOF 25
ENDMDL
MODEL 7
REMARK VINA RESULT:    -3.177      2.621      8.752
REMARK INTER + INTRA:          -8.647
REMARK INTER:                  -6.273
REMARK INTRA:                  -2.374
REMARK UNBOUND:                -1.755
REMARK SMILES C[C@@H]1O[C@H](OC[C@H]2O[C@H](Oc3c(-c4ccc(OCCO)c(OCCO)c4)oc4cc(OCCO)cc(O)c4c3=O)[C@@H](O)[C@H](O)[C@H]2O)[C@@H](O)[C@@H](O)[C@H]1O
REMARK SMILES IDX 11 1 12 2 27 3 28 4 29 5 30 6 35 7 36 8 38 9 39 10 40 11
REMARK SMILES IDX 10 12 9 13 7 14 45 15 8 16 43 17 41 18 6 19 5 20 4 21 1 22
REMARK SMILES IDX 2 23 51 24 3 25 49 26 47 27 52 28 50 30 48 32 46 34 44 36
REMARK SMILES IDX 42 38 13 40 26 41 14 42 21 43 15 44 16 45 22 46 23 47 24 48
REMARK SMILES IDX 25 49 17 51 18 52 19 53 20 54 37 56 31 58 32 59 33 60 34 61
REMARK H PARENT 52 29 50 31 48 33 46 35 44 37 42 39 25 50 20 55 37 57 34 62
REMARK Flexibility Score: inf
ROOT
ATOM      1  C   UNL     1      15.973  46.706  72.943  1.00  0.00     0.214 A 
ATOM      2  C   UNL     1      15.756  45.805  74.038  1.00  0.00     0.180 A 
ATOM      3  O   UNL     1      14.603  45.820  74.785  1.00  0.00    -0.452 OA
ATOM      4  C   UNL     1      13.643  46.674  74.505  1.00  0.00     0.146 A 
ATOM      5  C   UNL     1      12.520  46.542  75.293  1.00  0.00     0.094 A 
ATOM      6  C   UNL     1      11.372  47.335  75.023  1.00  0.00     0.126 A 
ATOM      7  C   UNL     1      11.510  48.393  74.117  1.00  0.00     0.093 A 
ATOM      8  C   UNL     1      12.642  48.527  73.328  1.00  0.00     0.134 A 
ATOM      9  C   UNL     1      13.733  47.576  73.417  1.00  0.00     0.111 A 
ATOM     10  C   UNL     1      14.813  47.464  72.553  1.00  0.00     0.239 A 
ATOM     11  O   UNL     1      14.698  47.937  71.321  1.00  0.00    -0.285 OA
ENDROOT
BRANCH   1  12
ATOM     12  O   UNL     1      17.292  46.880  72.433  1.00  0.00    -0.454 OA
BRANCH  12  13
ATOM     13  C   UNL     1      17.854  48.158  72.035  1.00  0.00     0.339 C 
ATOM     14  C   UNL     1      17.992  48.839  74.285  1.00  0.00     0.180 C 
ATOM     15  C   UNL     1      19.609  48.738  74.370  1.00  0.00     0.177 C 
ATOM     16  O   UNL     1      17.636  49.250  72.977  1.00  0.00    -0.332 OA
ATOM     17  C   UNL     1      20.125  47.701  73.286  1.00  0.00     0.180 C 
ATOM     18  C   UNL     1      19.407  47.944  71.917  1.00  0.00     0.214 C 
BRANCH  14  19
ATOM     19  C   UNL     1      17.465  49.836  75.420  1.00  0.00     0.198 C 
BRANCH  19  20
ATOM     20  O   UNL     1      18.400  49.849  76.571  1.00  0.00    -0.347 OA
BRANCH  20  21
ATOM     21  C   UNL     1      18.303  48.903  77.713  1.00  0.00     0.281 C 
ATOM     22  C   UNL     1      19.427  45.541  79.008  1.00  0.00     0.041 C 
ATOM     23  C   UNL     1      19.061  47.107  79.078  1.00  0.00     0.150 C 
ATOM     24  C   UNL     1      19.646  47.890  80.253  1.00  0.00     0.174 C 
ATOM     25  O   UNL     1      19.372  47.933  77.891  1.00  0.00    -0.344 OA
ATOM     26  C   UNL     1      19.503  49.418  79.857  1.00  0.00     0.179 C 
ATOM     27  C   UNL     1      18.042  49.769  79.042  1.00  0.00     0.202 C 
BRANCH  24  28
ATOM     28  O   UNL     1      18.950  47.711  81.446  1.00  0.00    -0.388 OA
ATOM     29  H   UNL     1      19.512  47.139  82.119  1.00  0.00     0.211 HD
ENDBRANCH  24  28
BRANCH  26  30
ATOM     30  O   UNL     1      19.615  50.125  81.093  1.00  0.00    -0.387 OA
ATOM     31  H   UNL     1      18.896  49.926  81.795  1.00  0.00     0.211 HD
ENDBRANCH  26  30
BRANCH  27  32
ATOM     32  O   UNL     1      16.699  49.530  79.568  1.00  0.00    -0.385 OA
ATOM     33  H   UNL     1      16.021  49.289  78.868  1.00  0.00     0.211 HD
ENDBRANCH  27  32
ENDBRANCH  20  21
ENDBRANCH  19  20
ENDBRANCH  14  19
BRANCH  15  34
ATOM     34  O   UNL     1      20.123  49.951  74.127  1.00  0.00    -0.387 OA
ATOM     35  H   UNL     1      19.991  50.022  73.115  1.00  0.00     0.211 HD
ENDBRANCH  15  34
BRANCH  17  36
ATOM     36  O   UNL     1      19.854  46.350  73.707  1.00  0.00    -0.387 OA
ATOM     37  H   UNL     1      19.911  45.767  72.857  1.00  0.00     0.211 HD
ENDBRANCH  17  36
BRANCH  18  38
ATOM     38  O   UNL     1      19.978  48.939  71.094  1.00  0.00    -0.384 OA
ATOM     39  H   UNL     1      20.737  48.559  70.552  1.00  0.00     0.211 HD
ENDBRANCH  18  38
ENDBRANCH  12  13
ENDBRANCH   1  12
BRANCH   2  40
ATOM     40  C   UNL     1      16.751  44.828  74.558  1.00  0.00     0.025 A 
ATOM     41  C   UNL     1      16.852  43.562  73.956  1.00  0.00     0.062 A 
ATOM     42  C   UNL     1      17.759  45.190  75.464  1.00  0.00     0.016 A 
ATOM     43  C   UNL     1      17.720  42.580  74.400  1.00  0.00     0.162 A 
ATOM     44  C   UNL     1      18.629  44.190  75.952  1.00  0.00     0.051 A 
ATOM     45  C   UNL     1      18.589  42.877  75.473  1.00  0.00     0.161 A 
BRANCH  43  46
ATOM     46  O   UNL     1      17.832  41.312  73.820  1.00  0.00    -0.487 OA
BRANCH  46  47
ATOM     47  C   UNL     1      17.286  40.104  74.383  1.00  0.00     0.258 C 
BRANCH  47  48
ATOM     48  C   UNL     1      18.187  38.919  74.067  1.00  0.00     0.197 C 
BRANCH  48  49
ATOM     49  O   UNL     1      17.467  37.812  73.693  1.00  0.00    -0.393 OA
ATOM     50  H   UNL     1      16.601  37.830  74.217  1.00  0.00     0.210 HD
ENDBRANCH  48  49
ENDBRANCH  47  48
ENDBRANCH  46  47
ENDBRANCH  43  46
BRANCH  45  51
ATOM     51  O   UNL     1      19.361  41.826  75.988  1.00  0.00    -0.487 OA
BRANCH  51  52
ATOM     52  C   UNL     1      19.383  41.396  77.340  1.00  0.00     0.258 C 
BRANCH  52  53
ATOM     53  C   UNL     1      17.966  41.376  77.946  1.00  0.00     0.197 C 
BRANCH  53  54
ATOM     54  O   UNL     1      18.007  40.660  79.155  1.00  0.00    -0.393 OA
ATOM     55  H   UNL     1      17.567  41.229  79.836  1.00  0.00     0.210 HD
ENDBRANCH  53  54
ENDBRANCH  52  53
ENDBRANCH  51  52
ENDBRANCH  45  51
ENDBRANCH   2  40
BRANCH   8  56
ATOM     56  O   UNL     1      12.746  49.594  72.391  1.00  0.00    -0.507 OA
ATOM     57  H   UNL     1      12.242  49.630  71.528  1.00  0.00     0.293 HD
ENDBRANCH   8  56
BRANCH   6  58
ATOM     58  O   UNL     1      10.305  46.869  75.742  1.00  0.00    -0.491 OA
BRANCH  58  59
ATOM     59  C   UNL     1       9.589  47.418  76.901  1.00  0.00     0.257 C 
BRANCH  59  60
ATOM     60  C   UNL     1      10.449  48.449  77.641  1.00  0.00     0.197 C 
BRANCH  60  61
ATOM     61  O   UNL     1      10.210  48.503  79.021  1.00  0.00    -0.393 OA
ATOM     62  H   UNL     1       9.962  49.449  79.271  1.00  0.00     0.210 HD
ENDBRANCH  60  61
ENDBRANCH  59  60
ENDBRANCH  58  59
ENDBRANCH   6  58
TORSDOF 25
ENDMDL
MODEL 8
REMARK VINA RESULT:    -3.068      1.589      2.752
REMARK INTER + INTRA:          -8.410
REMARK INTER:                  -8.239
REMARK INTRA:                  -0.170
REMARK UNBOUND:                -1.755
REMARK SMILES C[C@@H]1O[C@H](OC[C@H]2O[C@H](Oc3c(-c4ccc(OCCO)c(OCCO)c4)oc4cc(OCCO)cc(O)c4c3=O)[C@@H](O)[C@H](O)[C@H]2O)[C@@H](O)[C@@H](O)[C@H]1O
REMARK SMILES IDX 11 1 12 2 27 3 28 4 29 5 30 6 35 7 36 8 38 9 39 10 40 11
REMARK SMILES IDX 10 12 9 13 7 14 45 15 8 16 43 17 41 18 6 19 5 20 4 21 1 22
REMARK SMILES IDX 2 23 51 24 3 25 49 26 47 27 52 28 50 30 48 32 46 34 44 36
REMARK SMILES IDX 42 38 13 40 26 41 14 42 21 43 15 44 16 45 22 46 23 47 24 48
REMARK SMILES IDX 25 49 17 51 18 52 19 53 20 54 37 56 31 58 32 59 33 60 34 61
REMARK H PARENT 52 29 50 31 48 33 46 35 44 37 42 39 25 50 20 55 37 57 34 62
REMARK Flexibility Score: inf
ROOT
ATOM      1  C   UNL     1      18.747  43.706  76.197  1.00  0.00     0.214 A 
ATOM      2  C   UNL     1      19.029  43.522  77.591  1.00  0.00     0.180 A 
ATOM      3  O   UNL     1      19.242  42.281  78.140  1.00  0.00    -0.452 OA
ATOM      4  C   UNL     1      19.201  41.206  77.384  1.00  0.00     0.146 A 
ATOM      5  C   UNL     1      19.491  40.034  78.049  1.00  0.00     0.094 A 
ATOM      6  C   UNL     1      19.581  38.815  77.324  1.00  0.00     0.126 A 
ATOM      7  C   UNL     1      19.135  38.812  75.998  1.00  0.00     0.093 A 
ATOM      8  C   UNL     1      18.840  39.991  75.330  1.00  0.00     0.134 A 
ATOM      9  C   UNL     1      18.976  41.277  75.987  1.00  0.00     0.111 A 
ATOM     10  C   UNL     1      18.924  42.527  75.390  1.00  0.00     0.239 A 
ATOM     11  O   UNL     1      19.186  42.629  74.095  1.00  0.00    -0.285 OA
ENDROOT
BRANCH   1  12
ATOM     12  O   UNL     1      18.204  44.946  75.752  1.00  0.00    -0.454 OA
BRANCH  12  13
ATOM     13  C   UNL     1      16.809  45.326  75.888  1.00  0.00     0.339 C 
ATOM     14  C   UNL     1      16.956  46.688  73.973  1.00  0.00     0.180 C 
ATOM     15  C   UNL     1      16.062  45.713  73.032  1.00  0.00     0.177 C 
ATOM     16  O   UNL     1      16.459  46.612  75.297  1.00  0.00    -0.332 OA
ATOM     17  C   UNL     1      16.145  44.230  73.589  1.00  0.00     0.180 C 
ATOM     18  C   UNL     1      15.972  44.224  75.145  1.00  0.00     0.214 C 
BRANCH  14  19
ATOM     19  C   UNL     1      16.925  48.171  73.376  1.00  0.00     0.198 C 
BRANCH  19  20
ATOM     20  O   UNL     1      16.010  49.028  74.170  1.00  0.00    -0.347 OA
BRANCH  20  21
ATOM     21  C   UNL     1      14.550  49.123  73.909  1.00  0.00     0.281 C 
ATOM     22  C   UNL     1      11.892  48.841  71.245  1.00  0.00     0.041 C 
ATOM     23  C   UNL     1      12.555  48.653  72.700  1.00  0.00     0.150 C 
ATOM     24  C   UNL     1      11.952  47.563  73.586  1.00  0.00     0.174 C 
ATOM     25  O   UNL     1      14.013  48.414  72.757  1.00  0.00    -0.344 OA
ATOM     26  C   UNL     1      13.022  47.306  74.728  1.00  0.00     0.179 C 
ATOM     27  C   UNL     1      13.785  48.737  75.270  1.00  0.00     0.202 C 
BRANCH  24  28
ATOM     28  O   UNL     1      10.770  47.945  74.215  1.00  0.00    -0.388 OA
ATOM     29  H   UNL     1      10.548  47.298  75.008  1.00  0.00     0.211 HD
ENDBRANCH  24  28
BRANCH  26  30
ATOM     30  O   UNL     1      12.292  46.657  75.769  1.00  0.00    -0.387 OA
ATOM     31  H   UNL     1      12.826  46.022  76.369  1.00  0.00     0.211 HD
ENDBRANCH  26  30
BRANCH  27  32
ATOM     32  O   UNL     1      13.104  49.900  75.836  1.00  0.00    -0.385 OA
ATOM     33  H   UNL     1      12.120  49.932  75.643  1.00  0.00     0.211 HD
ENDBRANCH  27  32
ENDBRANCH  20  21
ENDBRANCH  19  20
ENDBRANCH  14  19
BRANCH  15  34
ATOM     34  O   UNL     1      14.794  46.144  73.059  1.00  0.00    -0.387 OA
ATOM     35  H   UNL     1      14.312  45.317  73.419  1.00  0.00     0.211 HD
ENDBRANCH  15  34
BRANCH  17  36
ATOM     36  O   UNL     1      17.420  43.640  73.272  1.00  0.00    -0.387 OA
ATOM     37  H   UNL     1      17.805  43.289  74.164  1.00  0.00     0.211 HD
ENDBRANCH  17  36
BRANCH  18  38
ATOM     38  O   UNL     1      14.640  44.220  75.613  1.00  0.00    -0.384 OA
ATOM     39  H   UNL     1      14.075  43.585  75.072  1.00  0.00     0.211 HD
ENDBRANCH  18  38
ENDBRANCH  12  13
ENDBRANCH   1  12
BRANCH   2  40
ATOM     40  C   UNL     1      19.037  44.600  78.617  1.00  0.00     0.025 A 
ATOM     41  C   UNL     1      19.032  45.943  78.204  1.00  0.00     0.062 A 
ATOM     42  C   UNL     1      18.807  44.346  79.978  1.00  0.00     0.016 A 
ATOM     43  C   UNL     1      19.079  47.007  79.087  1.00  0.00     0.162 A 
ATOM     44  C   UNL     1      18.887  45.418  80.894  1.00  0.00     0.051 A 
ATOM     45  C   UNL     1      19.074  46.739  80.473  1.00  0.00     0.161 A 
BRANCH  43  46
ATOM     46  O   UNL     1      19.081  48.350  78.697  1.00  0.00    -0.487 OA
BRANCH  46  47
ATOM     47  C   UNL     1      19.595  48.837  77.442  1.00  0.00     0.258 C 
BRANCH  47  48
ATOM     48  C   UNL     1      18.655  49.881  76.855  1.00  0.00     0.197 C 
BRANCH  48  49
ATOM     49  O   UNL     1      17.421  49.354  76.567  1.00  0.00    -0.393 OA
ATOM     50  H   UNL     1      17.382  48.438  76.995  1.00  0.00     0.210 HD
ENDBRANCH  48  49
ENDBRANCH  47  48
ENDBRANCH  46  47
ENDBRANCH  43  46
BRANCH  45  51
ATOM     51  O   UNL     1      19.256  47.825  81.342  1.00  0.00    -0.487 OA
BRANCH  51  52
ATOM     52  C   UNL     1      18.234  48.489  82.068  1.00  0.00     0.258 C 
BRANCH  52  53
ATOM     53  C   UNL     1      17.756  47.644  83.265  1.00  0.00     0.197 C 
BRANCH  53  54
ATOM     54  O   UNL     1      16.827  48.400  84.003  1.00  0.00    -0.393 OA
ATOM     55  H   UNL     1      16.695  47.926  84.862  1.00  0.00     0.210 HD
ENDBRANCH  53  54
ENDBRANCH  52  53
ENDBRANCH  51  52
ENDBRANCH  45  51
ENDBRANCH   2  40
BRANCH   8  56
ATOM     56  O   UNL     1      18.418  39.964  73.971  1.00  0.00    -0.507 OA
ATOM     57  H   UNL     1      18.931  40.379  73.219  1.00  0.00     0.293 HD
ENDBRANCH   8  56
BRANCH   6  58
ATOM     58  O   UNL     1      20.125  37.840  78.118  1.00  0.00    -0.491 OA
BRANCH  58  59
ATOM     59  C   UNL     1      19.518  36.901  79.070  1.00  0.00     0.257 C 
BRANCH  59  60
ATOM     60  C   UNL     1      19.773  35.450  78.649  1.00  0.00     0.197 C 
BRANCH  60  61
ATOM     61  O   UNL     1      19.633  35.225  77.273  1.00  0.00    -0.393 OA
ATOM     62  H   UNL     1      20.120  34.374  77.030  1.00  0.00     0.210 HD
ENDBRANCH  60  61
ENDBRANCH  59  60
ENDBRANCH  58  59
ENDBRANCH   6  58
TORSDOF 25
ENDMDL
