MODEL 1
REMARK VINA RESULT:    -5.343      0.000      0.000
REMARK INTER + INTRA:          -8.244
REMARK INTER:                  -7.217
REMARK INTRA:                  -1.027
REMARK UNBOUND:                -1.027
REMARK SMILES CC(=O)CCC=C(C)CCC=C(C)C
REMARK SMILES IDX 7 1 6 2 8 3 9 4 10 5 11 6 13 7 12 8 14 9 5 10 4 11 2 12 3 13
REMARK SMILES IDX 1 14
REMARK H PARENT
REMARK Flexibility Score: inf
ROOT
ATOM      1  C   UNL     1      17.743 -11.200  64.944  1.00  0.00    -0.077 C 
ATOM      2  C   UNL     1      17.525 -10.079  65.669  1.00  0.00    -0.028 C 
ATOM      3  C   UNL     1      17.882 -12.556  65.596  1.00  0.00     0.039 C 
ENDROOT
BRANCH   1   4
ATOM      4  C   UNL     1      17.799 -11.114  63.432  1.00  0.00     0.034 C 
BRANCH   4   5
ATOM      5  C   UNL     1      16.500 -11.609  62.782  1.00  0.00     0.032 C 
BRANCH   5   6
ATOM      6  C   UNL     1      15.529 -10.482  62.511  1.00  0.00    -0.028 C 
ATOM      7  C   UNL     1      14.000 -11.241  64.334  1.00  0.00     0.039 C 
ATOM      8  C   UNL     1      14.388 -10.308  63.211  1.00  0.00    -0.080 C 
ATOM      9  C   UNL     1      13.491  -9.152  62.856  1.00  0.00     0.039 C 
ENDBRANCH   5   6
ENDBRANCH   4   5
ENDBRANCH   1   4
BRANCH   2  10
ATOM     10  C   UNL     1      17.462 -10.037  67.175  1.00  0.00     0.035 C 
BRANCH  10  11
ATOM     11  C   UNL     1      18.752  -9.448  67.756  1.00  0.00     0.079 C 
BRANCH  11  12
ATOM     12  C   UNL     1      19.172 -10.203  68.989  1.00  0.00     0.130 C 
ATOM     13  O   UNL     1      19.338  -9.598  70.038  1.00  0.00    -0.300 OA
ATOM     14  C   UNL     1      19.400 -11.686  68.958  1.00  0.00     0.087 C 
ENDBRANCH  11  12
ENDBRANCH  10  11
ENDBRANCH   2  10
TORSDOF 6
ENDMDL
MODEL 2
REMARK VINA RESULT:    -5.271      1.177      1.777
REMARK INTER + INTRA:          -8.146
REMARK INTER:                  -7.244
REMARK INTRA:                  -0.902
REMARK UNBOUND:                -1.027
REMARK SMILES CC(=O)CCC=C(C)CCC=C(C)C
REMARK SMILES IDX 7 1 6 2 8 3 9 4 10 5 11 6 13 7 12 8 14 9 5 10 4 11 2 12 3 13
REMARK SMILES IDX 1 14
REMARK H PARENT
REMARK Flexibility Score: inf
ROOT
ATOM      1  C   UNL     1      16.510 -11.631  65.406  1.00  0.00    -0.077 C 
ATOM      2  C   UNL     1      16.989 -10.651  66.206  1.00  0.00    -0.028 C 
ATOM      3  C   UNL     1      17.386 -12.760  64.916  1.00  0.00     0.039 C 
ENDROOT
BRANCH   1   4
ATOM      4  C   UNL     1      15.042 -11.636  65.027  1.00  0.00     0.034 C 
BRANCH   4   5
ATOM      5  C   UNL     1      14.832 -11.280  63.548  1.00  0.00     0.032 C 
BRANCH   5   6
ATOM      6  C   UNL     1      14.522  -9.814  63.350  1.00  0.00    -0.028 C 
ATOM      7  C   UNL     1      16.873  -9.318  62.666  1.00  0.00     0.039 C 
ATOM      8  C   UNL     1      15.445  -8.914  62.951  1.00  0.00    -0.080 C 
ATOM      9  C   UNL     1      15.029  -7.475  62.786  1.00  0.00     0.039 C 
ENDBRANCH   5   6
ENDBRANCH   4   5
ENDBRANCH   1   4
BRANCH   2  10
ATOM     10  C   UNL     1      18.429 -10.533  66.639  1.00  0.00     0.035 C 
BRANCH  10  11
ATOM     11  C   UNL     1      18.566  -9.557  67.812  1.00  0.00     0.079 C 
BRANCH  11  12
ATOM     12  C   UNL     1      19.199 -10.235  68.997  1.00  0.00     0.130 C 
ATOM     13  O   UNL     1      19.446  -9.585  70.002  1.00  0.00    -0.300 OA
ATOM     14  C   UNL     1      19.542 -11.696  68.970  1.00  0.00     0.087 C 
ENDBRANCH  11  12
ENDBRANCH  10  11
ENDBRANCH   2  10
TORSDOF 6
ENDMDL
MODEL 3
REMARK VINA RESULT:    -5.266      1.003      1.581
REMARK INTER + INTRA:          -8.140
REMARK INTER:                  -7.090
REMARK INTRA:                  -1.050
REMARK UNBOUND:                -1.027
REMARK SMILES CC(=O)CCC=C(C)CCC=C(C)C
REMARK SMILES IDX 7 1 6 2 8 3 9 4 10 5 11 6 13 7 12 8 14 9 5 10 4 11 2 12 3 13
REMARK SMILES IDX 1 14
REMARK H PARENT
REMARK Flexibility Score: inf
ROOT
ATOM      1  C   UNL     1      17.490 -11.083  65.025  1.00  0.00    -0.077 C 
ATOM      2  C   UNL     1      17.247 -10.009  65.809  1.00  0.00    -0.028 C 
ATOM      3  C   UNL     1      17.865 -12.426  65.607  1.00  0.00     0.039 C 
ENDROOT
BRANCH   1   4
ATOM      4  C   UNL     1      17.332 -10.964  63.522  1.00  0.00     0.034 C 
BRANCH   4   5
ATOM      5  C   UNL     1      15.863 -10.798  63.112  1.00  0.00     0.032 C 
BRANCH   5   6
ATOM      6  C   UNL     1      15.150 -12.125  62.984  1.00  0.00    -0.028 C 
ATOM      7  C   UNL     1      13.974 -11.806  65.164  1.00  0.00     0.039 C 
ATOM      8  C   UNL     1      14.291 -12.592  63.914  1.00  0.00    -0.080 C 
ATOM      9  C   UNL     1      13.636 -13.930  63.687  1.00  0.00     0.039 C 
ENDBRANCH   5   6
ENDBRANCH   4   5
ENDBRANCH   1   4
BRANCH   2  10
ATOM     10  C   UNL     1      17.383 -10.001  67.310  1.00  0.00     0.035 C 
BRANCH  10  11
ATOM     11  C   UNL     1      18.770  -9.503  67.728  1.00  0.00     0.079 C 
BRANCH  11  12
ATOM     12  C   UNL     1      19.226 -10.194  68.986  1.00  0.00     0.130 C 
ATOM     13  O   UNL     1      19.417  -9.536  69.999  1.00  0.00    -0.300 OA
ATOM     14  C   UNL     1      19.460 -11.675  69.024  1.00  0.00     0.087 C 
ENDBRANCH  11  12
ENDBRANCH  10  11
ENDBRANCH   2  10
TORSDOF 6
ENDMDL
MODEL 4
REMARK VINA RESULT:    -5.167      1.200      1.947
REMARK INTER + INTRA:          -8.006
REMARK INTER:                  -7.084
REMARK INTRA:                  -0.923
REMARK UNBOUND:                -1.027
REMARK SMILES CC(=O)CCC=C(C)CCC=C(C)C
REMARK SMILES IDX 7 1 6 2 8 3 9 4 10 5 11 6 13 7 12 8 14 9 5 10 4 11 2 12 3 13
REMARK SMILES IDX 1 14
REMARK H PARENT
REMARK Flexibility Score: inf
ROOT
ATOM      1  C   UNL     1      17.362  -9.642  64.506  1.00  0.00    -0.077 C 
ATOM      2  C   UNL     1      17.161  -9.973  65.802  1.00  0.00    -0.028 C 
ATOM      3  C   UNL     1      18.674  -9.912  63.808  1.00  0.00     0.039 C 
ENDROOT
BRANCH   1   4
ATOM      4  C   UNL     1      16.228  -9.033  63.705  1.00  0.00     0.034 C 
BRANCH   4   5
ATOM      5  C   UNL     1      15.535 -10.071  62.813  1.00  0.00     0.032 C 
BRANCH   5   6
ATOM      6  C   UNL     1      14.417 -10.791  63.533  1.00  0.00    -0.028 C 
ATOM      7  C   UNL     1      15.775 -12.877  63.742  1.00  0.00     0.039 C 
ATOM      8  C   UNL     1      14.518 -12.068  63.958  1.00  0.00    -0.080 C 
ATOM      9  C   UNL     1      13.342 -12.691  64.664  1.00  0.00     0.039 C 
ENDBRANCH   5   6
ENDBRANCH   4   5
ENDBRANCH   1   4
BRANCH   2  10
ATOM     10  C   UNL     1      18.214 -10.571  66.701  1.00  0.00     0.035 C 
BRANCH  10  11
ATOM     11  C   UNL     1      18.724  -9.533  67.706  1.00  0.00     0.079 C 
BRANCH  11  12
ATOM     12  C   UNL     1      19.229 -10.205  68.955  1.00  0.00     0.130 C 
ATOM     13  O   UNL     1      19.418  -9.540  69.962  1.00  0.00    -0.300 OA
ATOM     14  C   UNL     1      19.513 -11.678  68.989  1.00  0.00     0.087 C 
ENDBRANCH  11  12
ENDBRANCH  10  11
ENDBRANCH   2  10
TORSDOF 6
ENDMDL
MODEL 5
REMARK VINA RESULT:    -5.103      1.942      3.590
REMARK INTER + INTRA:          -7.919
REMARK INTER:                  -6.847
REMARK INTRA:                  -1.073
REMARK UNBOUND:                -1.027
REMARK SMILES CC(=O)CCC=C(C)CCC=C(C)C
REMARK SMILES IDX 7 1 6 2 8 3 9 4 10 5 11 6 13 7 12 8 14 9 5 10 4 11 2 12 3 13
REMARK SMILES IDX 1 14
REMARK H PARENT
REMARK Flexibility Score: inf
ROOT
ATOM      1  C   UNL     1      16.951 -11.927  65.373  1.00  0.00    -0.077 C 
ATOM      2  C   UNL     1      17.112 -11.602  66.675  1.00  0.00    -0.028 C 
ATOM      3  C   UNL     1      17.306 -13.297  64.844  1.00  0.00     0.039 C 
ENDROOT
BRANCH   1   4
ATOM      4  C   UNL     1      16.350 -10.916  64.418  1.00  0.00     0.034 C 
BRANCH   4   5
ATOM      5  C   UNL     1      17.185  -9.630  64.345  1.00  0.00     0.032 C 
BRANCH   5   6
ATOM      6  C   UNL     1      18.536  -9.860  63.706  1.00  0.00    -0.028 C 
ATOM      7  C   UNL     1      19.734  -9.304  65.826  1.00  0.00     0.039 C 
ATOM      8  C   UNL     1      19.701  -9.711  64.372  1.00  0.00    -0.080 C 
ATOM      9  C   UNL     1      20.991  -9.963  63.637  1.00  0.00     0.039 C 
ENDBRANCH   5   6
ENDBRANCH   4   5
ENDBRANCH   1   4
BRANCH   2  10
ATOM     10  C   UNL     1      17.710 -12.517  67.714  1.00  0.00     0.035 C 
BRANCH  10  11
ATOM     11  C   UNL     1      19.234 -12.363  67.761  1.00  0.00     0.079 C 
BRANCH  11  12
ATOM     12  C   UNL     1      19.652 -11.572  68.972  1.00  0.00     0.130 C 
ATOM     13  O   UNL     1      20.441 -12.060  69.768  1.00  0.00    -0.300 OA
ATOM     14  C   UNL     1      19.113 -10.195  69.230  1.00  0.00     0.087 C 
ENDBRANCH  11  12
ENDBRANCH  10  11
ENDBRANCH   2  10
TORSDOF 6
ENDMDL
MODEL 6
REMARK VINA RESULT:    -5.060      1.475      1.955
REMARK INTER + INTRA:          -7.861
REMARK INTER:                  -7.318
REMARK INTRA:                  -0.543
REMARK UNBOUND:                -1.027
REMARK SMILES CC(=O)CCC=C(C)CCC=C(C)C
REMARK SMILES IDX 7 1 6 2 8 3 9 4 10 5 11 6 13 7 12 8 14 9 5 10 4 11 2 12 3 13
REMARK SMILES IDX 1 14
REMARK H PARENT
REMARK Flexibility Score: inf
ROOT
ATOM      1  C   UNL     1      16.464 -10.807  64.974  1.00  0.00    -0.077 C 
ATOM      2  C   UNL     1      17.384 -10.139  65.707  1.00  0.00    -0.028 C 
ATOM      3  C   UNL     1      15.348 -11.594  65.621  1.00  0.00     0.039 C 
ENDROOT
BRANCH   1   4
ATOM      4  C   UNL     1      16.511 -10.727  63.461  1.00  0.00     0.034 C 
BRANCH   4   5
ATOM      5  C   UNL     1      16.870  -9.317  62.973  1.00  0.00     0.032 C 
BRANCH   5   6
ATOM      6  C   UNL     1      15.743  -8.333  63.184  1.00  0.00    -0.028 C 
ATOM      7  C   UNL     1      14.972  -8.573  60.820  1.00  0.00     0.039 C 
ATOM      8  C   UNL     1      14.876  -7.987  62.209  1.00  0.00    -0.080 C 
ATOM      9  C   UNL     1      13.789  -6.993  62.527  1.00  0.00     0.039 C 
ENDBRANCH   5   6
ENDBRANCH   4   5
ENDBRANCH   1   4
BRANCH   2  10
ATOM     10  C   UNL     1      17.447 -10.153  67.213  1.00  0.00     0.035 C 
BRANCH  10  11
ATOM     11  C   UNL     1      18.732  -9.484  67.710  1.00  0.00     0.079 C 
BRANCH  11  12
ATOM     12  C   UNL     1      19.209 -10.127  68.984  1.00  0.00     0.130 C 
ATOM     13  O   UNL     1      19.393  -9.437  69.976  1.00  0.00    -0.300 OA
ATOM     14  C   UNL     1      19.472 -11.603  69.064  1.00  0.00     0.087 C 
ENDBRANCH  11  12
ENDBRANCH  10  11
ENDBRANCH   2  10
TORSDOF 6
ENDMDL
MODEL 7
REMARK VINA RESULT:    -4.865      3.156      5.744
REMARK INTER + INTRA:          -7.598
REMARK INTER:                  -6.406
REMARK INTRA:                  -1.193
REMARK UNBOUND:                -1.027
REMARK SMILES CC(=O)CCC=C(C)CCC=C(C)C
REMARK SMILES IDX 7 1 6 2 8 3 9 4 10 5 11 6 13 7 12 8 14 9 5 10 4 11 2 12 3 13
REMARK SMILES IDX 1 14
REMARK H PARENT
REMARK Flexibility Score: inf
ROOT
ATOM      1  C   UNL     1      17.458 -11.109  66.934  1.00  0.00    -0.077 C 
ATOM      2  C   UNL     1      16.654 -10.743  65.910  1.00  0.00    -0.028 C 
ATOM      3  C   UNL     1      17.658 -12.558  67.311  1.00  0.00     0.039 C 
ENDROOT
BRANCH   1   4
ATOM      4  C   UNL     1      18.228 -10.049  67.696  1.00  0.00     0.034 C 
BRANCH   4   5
ATOM      5  C   UNL     1      19.190  -9.274  66.785  1.00  0.00     0.032 C 
BRANCH   5   6
ATOM      6  C   UNL     1      20.419 -10.080  66.431  1.00  0.00    -0.028 C 
ATOM      7  C   UNL     1      19.855 -10.040  63.998  1.00  0.00     0.039 C 
ATOM      8  C   UNL     1      20.728 -10.435  65.166  1.00  0.00    -0.080 C 
ATOM      9  C   UNL     1      21.977 -11.241  64.925  1.00  0.00     0.039 C 
ENDBRANCH   5   6
ENDBRANCH   4   5
ENDBRANCH   1   4
BRANCH   2  10
ATOM     10  C   UNL     1      15.829 -11.702  65.090  1.00  0.00     0.035 C 
BRANCH  10  11
ATOM     11  C   UNL     1      16.114 -11.522  63.595  1.00  0.00     0.079 C 
BRANCH  11  12
ATOM     12  C   UNL     1      16.759 -12.757  63.024  1.00  0.00     0.130 C 
ATOM     13  O   UNL     1      17.114 -12.765  61.855  1.00  0.00    -0.300 OA
ATOM     14  C   UNL     1      16.970 -13.986  63.859  1.00  0.00     0.087 C 
ENDBRANCH  11  12
ENDBRANCH  10  11
ENDBRANCH   2  10
TORSDOF 6
ENDMDL
MODEL 8
REMARK VINA RESULT:    -4.682      2.841      5.542
REMARK INTER + INTRA:          -7.351
REMARK INTER:                  -6.077
REMARK INTRA:                  -1.273
REMARK UNBOUND:                -1.027
REMARK SMILES CC(=O)CCC=C(C)CCC=C(C)C
REMARK SMILES IDX 7 1 6 2 8 3 9 4 10 5 11 6 13 7 12 8 14 9 5 10 4 11 2 12 3 13
REMARK SMILES IDX 1 14
REMARK H PARENT
REMARK Flexibility Score: inf
ROOT
ATOM      1  C   UNL     1      16.846 -11.958  65.852  1.00  0.00    -0.077 C 
ATOM      2  C   UNL     1      15.581 -11.490  65.763  1.00  0.00    -0.028 C 
ATOM      3  C   UNL     1      17.379 -13.002  64.898  1.00  0.00     0.039 C 
ENDROOT
BRANCH   1   4
ATOM      4  C   UNL     1      17.782 -11.390  66.900  1.00  0.00     0.034 C 
BRANCH   4   5
ATOM      5  C   UNL     1      18.285  -9.991  66.519  1.00  0.00     0.032 C 
BRANCH   5   6
ATOM      6  C   UNL     1      19.574 -10.040  65.731  1.00  0.00    -0.028 C 
ATOM      7  C   UNL     1      18.386  -9.563  63.587  1.00  0.00     0.039 C 
ATOM      8  C   UNL     1      19.629  -9.849  64.396  1.00  0.00    -0.080 C 
ATOM      9  C   UNL     1      20.967  -9.922  63.709  1.00  0.00     0.039 C 
ENDBRANCH   5   6
ENDBRANCH   4   5
ENDBRANCH   1   4
BRANCH   2  10
ATOM     10  C   UNL     1      14.557 -11.985  64.773  1.00  0.00     0.035 C 
BRANCH  10  11
ATOM     11  C   UNL     1      13.968 -10.821  63.970  1.00  0.00     0.079 C 
BRANCH  11  12
ATOM     12  C   UNL     1      14.852 -10.481  62.800  1.00  0.00     0.130 C 
ATOM     13  O   UNL     1      15.032  -9.310  62.501  1.00  0.00    -0.300 OA
ATOM     14  C   UNL     1      15.515 -11.552  61.984  1.00  0.00     0.087 C 
ENDBRANCH  11  12
ENDBRANCH  10  11
ENDBRANCH   2  10
TORSDOF 6
ENDMDL
MODEL 9
REMARK VINA RESULT:    -4.666      1.977      2.709
REMARK INTER + INTRA:          -7.330
REMARK INTER:                  -6.209
REMARK INTRA:                  -1.121
REMARK UNBOUND:                -1.027
REMARK SMILES CC(=O)CCC=C(C)CCC=C(C)C
REMARK SMILES IDX 7 1 6 2 8 3 9 4 10 5 11 6 13 7 12 8 14 9 5 10 4 11 2 12 3 13
REMARK SMILES IDX 1 14
REMARK H PARENT
REMARK Flexibility Score: inf
ROOT
ATOM      1  C   UNL     1      16.449 -11.642  65.556  1.00  0.00    -0.077 C 
ATOM      2  C   UNL     1      16.900 -10.882  66.580  1.00  0.00    -0.028 C 
ATOM      3  C   UNL     1      17.345 -12.622  64.836  1.00  0.00     0.039 C 
ENDROOT
BRANCH   1   4
ATOM      4  C   UNL     1      14.993 -11.555  65.145  1.00  0.00     0.034 C 
BRANCH   4   5
ATOM      5  C   UNL     1      14.838 -11.245  63.649  1.00  0.00     0.032 C 
BRANCH   5   6
ATOM      6  C   UNL     1      14.539  -9.785  63.394  1.00  0.00    -0.028 C 
ATOM      7  C   UNL     1      16.919  -9.308  62.808  1.00  0.00     0.039 C 
ATOM      8  C   UNL     1      15.480  -8.896  63.013  1.00  0.00    -0.080 C 
ATOM      9  C   UNL     1      15.074  -7.464  62.787  1.00  0.00     0.039 C 
ENDBRANCH   5   6
ENDBRANCH   4   5
ENDBRANCH   1   4
BRANCH   2  10
ATOM     10  C   UNL     1      18.326 -10.872  67.070  1.00  0.00     0.035 C 
BRANCH  10  11
ATOM     11  C   UNL     1      19.057  -9.615  66.589  1.00  0.00     0.079 C 
BRANCH  11  12
ATOM     12  C   UNL     1      20.284  -9.983  65.798  1.00  0.00     0.130 C 
ATOM     13  O   UNL     1      21.303 -10.314  66.386  1.00  0.00    -0.300 OA
ATOM     14  C   UNL     1      20.287  -9.944  64.298  1.00  0.00     0.087 C 
ENDBRANCH  11  12
ENDBRANCH  10  11
ENDBRANCH   2  10
TORSDOF 6
ENDMDL
