MODEL 1
REMARK VINA RESULT:    -5.099      0.000      0.000
REMARK INTER + INTRA:         -10.573
REMARK INTER:                  -9.422
REMARK INTRA:                  -1.151
REMARK UNBOUND:                -1.151
REMARK SMILES CCCCCCCCCCCCCCCCO
REMARK SMILES IDX 9 1 8 2 7 3 6 4 5 5 4 6 3 7 2 8 1 9 10 10 11 11 12 12 13 13
REMARK SMILES IDX 14 14 15 15 16 16 17 17
REMARK H PARENT 17 18
REMARK Flexibility Score: inf
ROOT
ATOM      1  C   UNL     1      -8.524  -4.803  -4.946  1.00  0.00     0.000 C 
ENDROOT
BRANCH   1   2
ATOM      2  C   UNL     1      -7.664  -5.942  -5.535  1.00  0.00    -0.000 C 
BRANCH   2   3
ATOM      3  C   UNL     1      -7.390  -5.743  -7.037  1.00  0.00    -0.000 C 
BRANCH   3   4
ATOM      4  C   UNL     1      -5.935  -6.060  -7.426  1.00  0.00    -0.000 C 
BRANCH   4   5
ATOM      5  C   UNL     1      -5.109  -6.738  -6.316  1.00  0.00    -0.000 C 
BRANCH   5   6
ATOM      6  C   UNL     1      -3.961  -5.853  -5.798  1.00  0.00    -0.000 C 
BRANCH   6   7
ATOM      7  C   UNL     1      -4.228  -4.352  -6.042  1.00  0.00    -0.000 C 
BRANCH   7   8
ATOM      8  C   UNL     1      -3.037  -3.449  -5.678  1.00  0.00    -0.003 C 
ATOM      9  C   UNL     1      -3.287  -1.977  -5.999  1.00  0.00     0.004 C 
ENDBRANCH   7   8
ENDBRANCH   6   7
ENDBRANCH   5   6
ENDBRANCH   4   5
ENDBRANCH   3   4
ENDBRANCH   2   3
ENDBRANCH   1   2
BRANCH   1  10
ATOM     10  C   UNL     1     -10.027  -5.135  -4.873  1.00  0.00     0.000 C 
BRANCH  10  11
ATOM     11  C   UNL     1     -10.964  -3.921  -5.001  1.00  0.00     0.000 C 
BRANCH  11  12
ATOM     12  C   UNL     1     -10.962  -3.032  -3.749  1.00  0.00     0.000 C 
BRANCH  12  13
ATOM     13  C   UNL     1     -11.078  -3.881  -2.477  1.00  0.00     0.000 C 
BRANCH  13  14
ATOM     14  C   UNL     1     -10.209  -3.306  -1.349  1.00  0.00     0.002 C 
BRANCH  14  15
ATOM     15  C   UNL     1      -8.705  -3.363  -1.667  1.00  0.00     0.028 C 
BRANCH  15  16
ATOM     16  C   UNL     1      -8.047  -1.986  -1.818  1.00  0.00     0.156 C 
BRANCH  16  17
ATOM     17  O   UNL     1      -7.408  -1.869  -3.061  1.00  0.00    -0.396 OA
ATOM     18  H   UNL     1      -6.452  -1.676  -2.877  1.00  0.00     0.210 HD
ENDBRANCH  16  17
ENDBRANCH  15  16
ENDBRANCH  14  15
ENDBRANCH  13  14
ENDBRANCH  12  13
ENDBRANCH  11  12
ENDBRANCH  10  11
ENDBRANCH   1  10
TORSDOF 15
ENDMDL
MODEL 2
REMARK VINA RESULT:    -4.827      1.325      2.047
REMARK INTER + INTRA:         -10.069
REMARK INTER:                  -8.786
REMARK INTRA:                  -1.283
REMARK UNBOUND:                -1.151
REMARK SMILES CCCCCCCCCCCCCCCCO
REMARK SMILES IDX 9 1 8 2 7 3 6 4 5 5 4 6 3 7 2 8 1 9 10 10 11 11 12 12 13 13
REMARK SMILES IDX 14 14 15 15 16 16 17 17
REMARK H PARENT 17 18
REMARK Flexibility Score: inf
ROOT
ATOM      1  C   UNL     1      -7.773  -5.534  -7.468  1.00  0.00     0.000 C 
ENDROOT
BRANCH   1   2
ATOM      2  C   UNL     1      -7.244  -5.189  -6.058  1.00  0.00    -0.000 C 
BRANCH   2   3
ATOM      3  C   UNL     1      -6.792  -6.442  -5.287  1.00  0.00    -0.000 C 
BRANCH   3   4
ATOM      4  C   UNL     1      -5.436  -6.985  -5.772  1.00  0.00    -0.000 C 
BRANCH   4   5
ATOM      5  C   UNL     1      -4.503  -5.923  -6.383  1.00  0.00    -0.000 C 
BRANCH   5   6
ATOM      6  C   UNL     1      -3.159  -5.808  -5.642  1.00  0.00    -0.000 C 
BRANCH   6   7
ATOM      7  C   UNL     1      -2.731  -4.339  -5.438  1.00  0.00    -0.000 C 
BRANCH   7   8
ATOM      8  C   UNL     1      -3.791  -3.322  -5.894  1.00  0.00    -0.003 C 
ATOM      9  C   UNL     1      -3.240  -1.903  -6.016  1.00  0.00     0.004 C 
ENDBRANCH   7   8
ENDBRANCH   6   7
ENDBRANCH   5   6
ENDBRANCH   4   5
ENDBRANCH   3   4
ENDBRANCH   2   3
ENDBRANCH   1   2
BRANCH   1  10
ATOM     10  C   UNL     1      -9.294  -5.775  -7.518  1.00  0.00     0.000 C 
BRANCH  10  11
ATOM     11  C   UNL     1     -10.099  -5.058  -6.420  1.00  0.00     0.000 C 
BRANCH  11  12
ATOM     12  C   UNL     1     -10.753  -6.032  -5.430  1.00  0.00     0.000 C 
BRANCH  12  13
ATOM     13  C   UNL     1     -11.005  -5.350  -4.079  1.00  0.00     0.000 C 
BRANCH  13  14
ATOM     14  C   UNL     1     -10.139  -4.091  -3.928  1.00  0.00     0.002 C 
BRANCH  14  15
ATOM     15  C   UNL     1     -10.132  -3.541  -2.492  1.00  0.00     0.028 C 
BRANCH  15  16
ATOM     16  C   UNL     1      -8.728  -3.289  -1.927  1.00  0.00     0.156 C 
BRANCH  16  17
ATOM     17  O   UNL     1      -8.067  -4.499  -1.671  1.00  0.00    -0.396 OA
ATOM     18  H   UNL     1      -7.810  -4.491  -0.713  1.00  0.00     0.210 HD
ENDBRANCH  16  17
ENDBRANCH  15  16
ENDBRANCH  14  15
ENDBRANCH  13  14
ENDBRANCH  12  13
ENDBRANCH  11  12
ENDBRANCH  10  11
ENDBRANCH   1  10
TORSDOF 15
ENDMDL
MODEL 3
REMARK VINA RESULT:    -4.686      1.583      2.391
REMARK INTER + INTRA:          -9.808
REMARK INTER:                  -8.131
REMARK INTRA:                  -1.677
REMARK UNBOUND:                -1.151
REMARK SMILES CCCCCCCCCCCCCCCCO
REMARK SMILES IDX 9 1 8 2 7 3 6 4 5 5 4 6 3 7 2 8 1 9 10 10 11 11 12 12 13 13
REMARK SMILES IDX 14 14 15 15 16 16 17 17
REMARK H PARENT 17 18
REMARK Flexibility Score: inf
ROOT
ATOM      1  C   UNL     1      -8.961  -4.761  -5.281  1.00  0.00     0.000 C 
ENDROOT
BRANCH   1   2
ATOM      2  C   UNL     1      -9.204  -4.403  -6.764  1.00  0.00    -0.000 C 
BRANCH   2   3
ATOM      3  C   UNL     1      -9.584  -5.636  -7.603  1.00  0.00    -0.000 C 
BRANCH   3   4
ATOM      4  C   UNL     1      -8.545  -5.962  -8.691  1.00  0.00    -0.000 C 
BRANCH   4   5
ATOM      5  C   UNL     1      -7.337  -5.006  -8.728  1.00  0.00    -0.000 C 
BRANCH   5   6
ATOM      6  C   UNL     1      -6.037  -5.664  -8.228  1.00  0.00    -0.000 C 
BRANCH   6   7
ATOM      7  C   UNL     1      -5.590  -5.101  -6.862  1.00  0.00    -0.000 C 
BRANCH   7   8
ATOM      8  C   UNL     1      -5.014  -6.169  -5.917  1.00  0.00    -0.003 C 
ATOM      9  C   UNL     1      -6.079  -7.122  -5.377  1.00  0.00     0.004 C 
ENDBRANCH   7   8
ENDBRANCH   6   7
ENDBRANCH   5   6
ENDBRANCH   4   5
ENDBRANCH   3   4
ENDBRANCH   2   3
ENDBRANCH   1   2
BRANCH   1  10
ATOM     10  C   UNL     1     -10.055  -5.660  -4.673  1.00  0.00     0.000 C 
BRANCH  10  11
ATOM     11  C   UNL     1     -11.125  -4.914  -3.857  1.00  0.00     0.000 C 
BRANCH  11  12
ATOM     12  C   UNL     1     -10.758  -3.446  -3.594  1.00  0.00     0.000 C 
BRANCH  12  13
ATOM     13  C   UNL     1     -11.051  -3.063  -2.138  1.00  0.00     0.000 C 
BRANCH  13  14
ATOM     14  C   UNL     1      -9.956  -3.590  -1.199  1.00  0.00     0.002 C 
BRANCH  14  15
ATOM     15  C   UNL     1      -8.543  -3.440  -1.787  1.00  0.00     0.028 C 
BRANCH  15  16
ATOM     16  C   UNL     1      -8.006  -2.003  -1.761  1.00  0.00     0.156 C 
BRANCH  16  17
ATOM     17  O   UNL     1      -7.344  -1.695  -2.959  1.00  0.00    -0.396 OA
ATOM     18  H   UNL     1      -7.066  -0.744  -2.898  1.00  0.00     0.210 HD
ENDBRANCH  16  17
ENDBRANCH  15  16
ENDBRANCH  14  15
ENDBRANCH  13  14
ENDBRANCH  12  13
ENDBRANCH  11  12
ENDBRANCH  10  11
ENDBRANCH   1  10
TORSDOF 15
ENDMDL
MODEL 4
REMARK VINA RESULT:    -4.640      1.544      2.631
REMARK INTER + INTRA:          -9.724
REMARK INTER:                  -7.789
REMARK INTRA:                  -1.934
REMARK UNBOUND:                -1.151
REMARK SMILES CCCCCCCCCCCCCCCCO
REMARK SMILES IDX 9 1 8 2 7 3 6 4 5 5 4 6 3 7 2 8 1 9 10 10 11 11 12 12 13 13
REMARK SMILES IDX 14 14 15 15 16 16 17 17
REMARK H PARENT 17 18
REMARK Flexibility Score: inf
ROOT
ATOM      1  C   UNL     1      -8.897  -4.671  -4.876  1.00  0.00     0.000 C 
ENDROOT
BRANCH   1   2
ATOM      2  C   UNL     1      -9.231  -5.950  -5.676  1.00  0.00    -0.000 C 
BRANCH   2   3
ATOM      3  C   UNL     1     -10.099  -5.650  -6.911  1.00  0.00    -0.000 C 
BRANCH   3   4
ATOM      4  C   UNL     1      -9.321  -5.774  -8.233  1.00  0.00    -0.000 C 
BRANCH   4   5
ATOM      5  C   UNL     1      -8.481  -4.536  -8.599  1.00  0.00    -0.000 C 
BRANCH   5   6
ATOM      6  C   UNL     1      -6.973  -4.836  -8.675  1.00  0.00    -0.000 C 
BRANCH   6   7
ATOM      7  C   UNL     1      -6.657  -6.313  -8.356  1.00  0.00    -0.000 C 
BRANCH   7   8
ATOM      8  C   UNL     1      -5.678  -6.492  -7.184  1.00  0.00    -0.003 C 
ATOM      9  C   UNL     1      -5.465  -5.208  -6.385  1.00  0.00     0.004 C 
ENDBRANCH   7   8
ENDBRANCH   6   7
ENDBRANCH   5   6
ENDBRANCH   4   5
ENDBRANCH   3   4
ENDBRANCH   2   3
ENDBRANCH   1   2
BRANCH   1  10
ATOM     10  C   UNL     1      -9.807  -3.474  -5.213  1.00  0.00     0.000 C 
BRANCH  10  11
ATOM     11  C   UNL     1     -11.096  -3.386  -4.379  1.00  0.00     0.000 C 
BRANCH  11  12
ATOM     12  C   UNL     1     -10.987  -4.120  -3.034  1.00  0.00     0.000 C 
BRANCH  12  13
ATOM     13  C   UNL     1     -11.125  -3.137  -1.865  1.00  0.00     0.000 C 
BRANCH  13  14
ATOM     14  C   UNL     1      -9.994  -3.333  -0.844  1.00  0.00     0.002 C 
BRANCH  14  15
ATOM     15  C   UNL     1      -8.612  -3.469  -1.506  1.00  0.00     0.028 C 
BRANCH  15  16
ATOM     16  C   UNL     1      -7.867  -2.139  -1.676  1.00  0.00     0.156 C 
BRANCH  16  17
ATOM     17  O   UNL     1      -7.684  -1.837  -3.033  1.00  0.00    -0.396 OA
ATOM     18  H   UNL     1      -7.828  -2.679  -3.538  1.00  0.00     0.210 HD
ENDBRANCH  16  17
ENDBRANCH  15  16
ENDBRANCH  14  15
ENDBRANCH  13  14
ENDBRANCH  12  13
ENDBRANCH  11  12
ENDBRANCH  10  11
ENDBRANCH   1  10
TORSDOF 15
ENDMDL
MODEL 5
REMARK VINA RESULT:    -4.590      2.365      6.227
REMARK INTER + INTRA:          -9.632
REMARK INTER:                  -8.329
REMARK INTRA:                  -1.303
REMARK UNBOUND:                -1.151
REMARK SMILES CCCCCCCCCCCCCCCCO
REMARK SMILES IDX 9 1 8 2 7 3 6 4 5 5 4 6 3 7 2 8 1 9 10 10 11 11 12 12 13 13
REMARK SMILES IDX 14 14 15 15 16 16 17 17
REMARK H PARENT 17 18
REMARK Flexibility Score: inf
ROOT
ATOM      1  C   UNL     1      -9.379  -5.259  -5.476  1.00  0.00     0.000 C 
ENDROOT
BRANCH   1   2
ATOM      2  C   UNL     1      -9.598  -3.756  -5.195  1.00  0.00    -0.000 C 
BRANCH   2   3
ATOM      3  C   UNL     1     -10.974  -3.479  -4.564  1.00  0.00    -0.000 C 
BRANCH   3   4
ATOM      4  C   UNL     1     -11.115  -4.074  -3.152  1.00  0.00    -0.000 C 
BRANCH   4   5
ATOM      5  C   UNL     1     -11.057  -3.039  -2.012  1.00  0.00    -0.000 C 
BRANCH   5   6
ATOM      6  C   UNL     1     -10.069  -3.428  -0.898  1.00  0.00    -0.000 C 
BRANCH   6   7
ATOM      7  C   UNL     1      -8.646  -3.675  -1.442  1.00  0.00    -0.000 C 
BRANCH   7   8
ATOM      8  C   UNL     1      -8.087  -2.496  -2.257  1.00  0.00    -0.003 C 
ATOM      9  C   UNL     1      -7.716  -1.296  -1.389  1.00  0.00     0.004 C 
ENDBRANCH   7   8
ENDBRANCH   6   7
ENDBRANCH   5   6
ENDBRANCH   4   5
ENDBRANCH   3   4
ENDBRANCH   2   3
ENDBRANCH   1   2
BRANCH   1  10
ATOM     10  C   UNL     1      -9.476  -5.631  -6.968  1.00  0.00     0.000 C 
BRANCH  10  11
ATOM     11  C   UNL     1      -8.972  -4.550  -7.939  1.00  0.00     0.000 C 
BRANCH  11  12
ATOM     12  C   UNL     1      -7.794  -5.026  -8.801  1.00  0.00     0.000 C 
BRANCH  12  13
ATOM     13  C   UNL     1      -6.500  -5.073  -7.979  1.00  0.00     0.000 C 
BRANCH  13  14
ATOM     14  C   UNL     1      -5.903  -6.489  -7.972  1.00  0.00     0.002 C 
BRANCH  14  15
ATOM     15  C   UNL     1      -5.731  -7.055  -6.553  1.00  0.00     0.028 C 
BRANCH  15  16
ATOM     16  C   UNL     1      -4.723  -6.283  -5.691  1.00  0.00     0.156 C 
BRANCH  16  17
ATOM     17  O   UNL     1      -3.556  -7.034  -5.491  1.00  0.00    -0.396 OA
ATOM     18  H   UNL     1      -3.789  -7.769  -4.866  1.00  0.00     0.210 HD
ENDBRANCH  16  17
ENDBRANCH  15  16
ENDBRANCH  14  15
ENDBRANCH  13  14
ENDBRANCH  12  13
ENDBRANCH  11  12
ENDBRANCH  10  11
ENDBRANCH   1  10
TORSDOF 15
ENDMDL
MODEL 6
REMARK VINA RESULT:    -4.479      1.897      3.377
REMARK INTER + INTRA:          -9.427
REMARK INTER:                  -7.649
REMARK INTRA:                  -1.778
REMARK UNBOUND:                -1.151
REMARK SMILES CCCCCCCCCCCCCCCCO
REMARK SMILES IDX 9 1 8 2 7 3 6 4 5 5 4 6 3 7 2 8 1 9 10 10 11 11 12 12 13 13
REMARK SMILES IDX 14 14 15 15 16 16 17 17
REMARK H PARENT 17 18
REMARK Flexibility Score: inf
ROOT
ATOM      1  C   UNL     1      -7.082  -4.464  -9.124  1.00  0.00     0.000 C 
ENDROOT
BRANCH   1   2
ATOM      2  C   UNL     1      -6.853  -5.888  -9.675  1.00  0.00    -0.000 C 
BRANCH   2   3
ATOM      3  C   UNL     1      -6.322  -6.848  -8.595  1.00  0.00    -0.000 C 
BRANCH   3   4
ATOM      4  C   UNL     1      -6.253  -6.200  -7.201  1.00  0.00    -0.000 C 
BRANCH   4   5
ATOM      5  C   UNL     1      -5.364  -6.950  -6.190  1.00  0.00    -0.000 C 
BRANCH   5   6
ATOM      6  C   UNL     1      -4.229  -6.077  -5.626  1.00  0.00    -0.000 C 
BRANCH   6   7
ATOM      7  C   UNL     1      -4.281  -4.633  -6.171  1.00  0.00    -0.000 C 
BRANCH   7   8
ATOM      8  C   UNL     1      -3.125  -3.748  -5.674  1.00  0.00    -0.003 C 
ATOM      9  C   UNL     1      -3.461  -2.259  -5.707  1.00  0.00     0.004 C 
ENDBRANCH   7   8
ENDBRANCH   6   7
ENDBRANCH   5   6
ENDBRANCH   4   5
ENDBRANCH   3   4
ENDBRANCH   2   3
ENDBRANCH   1   2
BRANCH   1  10
ATOM     10  C   UNL     1      -8.427  -3.844  -9.547  1.00  0.00     0.000 C 
BRANCH  10  11
ATOM     11  C   UNL     1      -9.644  -4.773  -9.396  1.00  0.00     0.000 C 
BRANCH  11  12
ATOM     12  C   UNL     1     -10.309  -4.664  -8.017  1.00  0.00     0.000 C 
BRANCH  12  13
ATOM     13  C   UNL     1     -10.081  -5.941  -7.198  1.00  0.00     0.000 C 
BRANCH  13  14
ATOM     14  C   UNL     1      -9.621  -5.606  -5.772  1.00  0.00     0.002 C 
BRANCH  14  15
ATOM     15  C   UNL     1      -9.105  -4.164  -5.635  1.00  0.00     0.028 C 
BRANCH  15  16
ATOM     16  C   UNL     1      -9.385  -3.528  -4.268  1.00  0.00     0.156 C 
BRANCH  16  17
ATOM     17  O   UNL     1      -8.244  -2.878  -3.774  1.00  0.00    -0.396 OA
ATOM     18  H   UNL     1      -7.944  -2.247  -4.479  1.00  0.00     0.210 HD
ENDBRANCH  16  17
ENDBRANCH  15  16
ENDBRANCH  14  15
ENDBRANCH  13  14
ENDBRANCH  12  13
ENDBRANCH  11  12
ENDBRANCH  10  11
ENDBRANCH   1  10
TORSDOF 15
ENDMDL
MODEL 7
REMARK VINA RESULT:    -4.419      2.179      5.982
REMARK INTER + INTRA:          -9.315
REMARK INTER:                  -7.756
REMARK INTRA:                  -1.559
REMARK UNBOUND:                -1.151
REMARK SMILES CCCCCCCCCCCCCCCCO
REMARK SMILES IDX 9 1 8 2 7 3 6 4 5 5 4 6 3 7 2 8 1 9 10 10 11 11 12 12 13 13
REMARK SMILES IDX 14 14 15 15 16 16 17 17
REMARK H PARENT 17 18
REMARK Flexibility Score: inf
ROOT
ATOM      1  C   UNL     1     -10.683  -5.682  -6.631  1.00  0.00     0.000 C 
ENDROOT
BRANCH   1   2
ATOM      2  C   UNL     1      -9.479  -5.808  -5.672  1.00  0.00    -0.000 C 
BRANCH   2   3
ATOM      3  C   UNL     1      -9.413  -4.641  -4.669  1.00  0.00    -0.000 C 
BRANCH   3   4
ATOM      4  C   UNL     1     -10.525  -3.600  -4.890  1.00  0.00    -0.000 C 
BRANCH   4   5
ATOM      5  C   UNL     1     -11.114  -3.010  -3.595  1.00  0.00    -0.000 C 
BRANCH   5   6
ATOM      6  C   UNL     1     -10.694  -3.789  -2.335  1.00  0.00    -0.000 C 
BRANCH   6   7
ATOM      7  C   UNL     1      -9.839  -2.930  -1.379  1.00  0.00    -0.000 C 
BRANCH   7   8
ATOM      8  C   UNL     1      -8.351  -2.880  -1.762  1.00  0.00    -0.003 C 
ATOM      9  C   UNL     1      -7.744  -1.487  -1.612  1.00  0.00     0.004 C 
ENDBRANCH   7   8
ENDBRANCH   6   7
ENDBRANCH   5   6
ENDBRANCH   4   5
ENDBRANCH   3   4
ENDBRANCH   2   3
ENDBRANCH   1   2
BRANCH   1  10
ATOM     10  C   UNL     1     -10.285  -5.585  -8.116  1.00  0.00     0.000 C 
BRANCH  10  11
ATOM     11  C   UNL     1      -8.795  -5.840  -8.404  1.00  0.00     0.000 C 
BRANCH  11  12
ATOM     12  C   UNL     1      -8.001  -4.544  -8.625  1.00  0.00     0.000 C 
BRANCH  12  13
ATOM     13  C   UNL     1      -6.548  -4.710  -8.165  1.00  0.00     0.000 C 
BRANCH  13  14
ATOM     14  C   UNL     1      -6.288  -6.138  -7.663  1.00  0.00     0.002 C 
BRANCH  14  15
ATOM     15  C   UNL     1      -5.535  -6.170  -6.322  1.00  0.00     0.028 C 
BRANCH  15  16
ATOM     16  C   UNL     1      -5.945  -7.329  -5.404  1.00  0.00     0.156 C 
BRANCH  16  17
ATOM     17  O   UNL     1      -6.378  -6.852  -4.159  1.00  0.00    -0.396 OA
ATOM     18  H   UNL     1      -5.605  -6.919  -3.539  1.00  0.00     0.210 HD
ENDBRANCH  16  17
ENDBRANCH  15  16
ENDBRANCH  14  15
ENDBRANCH  13  14
ENDBRANCH  12  13
ENDBRANCH  11  12
ENDBRANCH  10  11
ENDBRANCH   1  10
TORSDOF 15
ENDMDL
MODEL 8
REMARK VINA RESULT:    -4.418      1.579      5.964
REMARK INTER + INTRA:          -9.314
REMARK INTER:                  -8.406
REMARK INTRA:                  -0.908
REMARK UNBOUND:                -1.151
REMARK SMILES CCCCCCCCCCCCCCCCO
REMARK SMILES IDX 9 1 8 2 7 3 6 4 5 5 4 6 3 7 2 8 1 9 10 10 11 11 12 12 13 13
REMARK SMILES IDX 14 14 15 15 16 16 17 17
REMARK H PARENT 17 18
REMARK Flexibility Score: inf
ROOT
ATOM      1  C   UNL     1      -8.880  -5.446  -5.380  1.00  0.00     0.000 C 
ENDROOT
BRANCH   1   2
ATOM      2  C   UNL     1     -10.264  -4.764  -5.297  1.00  0.00    -0.000 C 
BRANCH   2   3
ATOM      3  C   UNL     1     -10.215  -3.449  -4.499  1.00  0.00    -0.000 C 
BRANCH   3   4
ATOM      4  C   UNL     1     -11.020  -3.514  -3.190  1.00  0.00    -0.000 C 
BRANCH   4   5
ATOM      5  C   UNL     1     -10.173  -3.384  -1.910  1.00  0.00    -0.000 C 
BRANCH   5   6
ATOM      6  C   UNL     1      -8.684  -3.119  -2.201  1.00  0.00    -0.000 C 
BRANCH   6   7
ATOM      7  C   UNL     1      -8.078  -2.080  -1.234  1.00  0.00    -0.000 C 
BRANCH   7   8
ATOM      8  C   UNL     1      -7.352  -0.927  -1.946  1.00  0.00    -0.003 C 
ATOM      9  C   UNL     1      -7.581   0.425  -1.276  1.00  0.00     0.004 C 
ENDBRANCH   7   8
ENDBRANCH   6   7
ENDBRANCH   5   6
ENDBRANCH   4   5
ENDBRANCH   3   4
ENDBRANCH   2   3
ENDBRANCH   1   2
BRANCH   1  10
ATOM     10  C   UNL     1      -8.367  -5.634  -6.821  1.00  0.00     0.000 C 
BRANCH  10  11
ATOM     11  C   UNL     1      -6.897  -5.237  -7.041  1.00  0.00     0.000 C 
BRANCH  11  12
ATOM     12  C   UNL     1      -5.917  -6.371  -6.704  1.00  0.00     0.000 C 
BRANCH  12  13
ATOM     13  C   UNL     1      -4.639  -5.815  -6.066  1.00  0.00     0.000 C 
BRANCH  13  14
ATOM     14  C   UNL     1      -4.621  -4.280  -6.113  1.00  0.00     0.002 C 
BRANCH  14  15
ATOM     15  C   UNL     1      -3.257  -3.687  -5.724  1.00  0.00     0.028 C 
BRANCH  15  16
ATOM     16  C   UNL     1      -3.264  -2.162  -5.557  1.00  0.00     0.156 C 
BRANCH  16  17
ATOM     17  O   UNL     1      -3.676  -1.531  -6.739  1.00  0.00    -0.396 OA
ATOM     18  H   UNL     1      -4.104  -0.675  -6.475  1.00  0.00     0.210 HD
ENDBRANCH  16  17
ENDBRANCH  15  16
ENDBRANCH  14  15
ENDBRANCH  13  14
ENDBRANCH  12  13
ENDBRANCH  11  12
ENDBRANCH  10  11
ENDBRANCH   1  10
TORSDOF 15
ENDMDL
MODEL 9
REMARK VINA RESULT:    -4.390      1.626      6.454
REMARK INTER + INTRA:          -9.262
REMARK INTER:                  -8.274
REMARK INTRA:                  -0.988
REMARK UNBOUND:                -1.151
REMARK SMILES CCCCCCCCCCCCCCCCO
REMARK SMILES IDX 9 1 8 2 7 3 6 4 5 5 4 6 3 7 2 8 1 9 10 10 11 11 12 12 13 13
REMARK SMILES IDX 14 14 15 15 16 16 17 17
REMARK H PARENT 17 18
REMARK Flexibility Score: inf
ROOT
ATOM      1  C   UNL     1      -8.086  -5.325  -6.302  1.00  0.00     0.000 C 
ENDROOT
BRANCH   1   2
ATOM      2  C   UNL     1      -9.625  -5.241  -6.210  1.00  0.00    -0.000 C 
BRANCH   2   3
ATOM      3  C   UNL     1     -10.127  -3.786  -6.211  1.00  0.00    -0.000 C 
BRANCH   3   4
ATOM      4  C   UNL     1     -10.919  -3.426  -4.941  1.00  0.00    -0.000 C 
BRANCH   4   5
ATOM      5  C   UNL     1     -10.595  -4.301  -3.715  1.00  0.00    -0.000 C 
BRANCH   5   6
ATOM      6  C   UNL     1      -9.407  -3.767  -2.894  1.00  0.00    -0.000 C 
BRANCH   6   7
ATOM      7  C   UNL     1      -9.833  -2.650  -1.916  1.00  0.00    -0.000 C 
BRANCH   7   8
ATOM      8  C   UNL     1     -11.098  -2.989  -1.111  1.00  0.00    -0.003 C 
ATOM      9  C   UNL     1     -10.826  -3.940   0.052  1.00  0.00     0.004 C 
ENDBRANCH   7   8
ENDBRANCH   6   7
ENDBRANCH   5   6
ENDBRANCH   4   5
ENDBRANCH   3   4
ENDBRANCH   2   3
ENDBRANCH   1   2
BRANCH   1  10
ATOM     10  C   UNL     1      -7.558  -5.483  -7.741  1.00  0.00     0.000 C 
BRANCH  10  11
ATOM     11  C   UNL     1      -6.027  -5.573  -7.862  1.00  0.00     0.000 C 
BRANCH  11  12
ATOM     12  C   UNL     1      -5.410  -6.582  -6.882  1.00  0.00     0.000 C 
BRANCH  12  13
ATOM     13  C   UNL     1      -4.375  -5.902  -5.978  1.00  0.00     0.000 C 
BRANCH  13  14
ATOM     14  C   UNL     1      -4.445  -4.374  -6.114  1.00  0.00     0.002 C 
BRANCH  14  15
ATOM     15  C   UNL     1      -3.169  -3.673  -5.615  1.00  0.00     0.028 C 
BRANCH  15  16
ATOM     16  C   UNL     1      -3.298  -2.148  -5.504  1.00  0.00     0.156 C 
BRANCH  16  17
ATOM     17  O   UNL     1      -3.691  -1.588  -6.728  1.00  0.00    -0.396 OA
ATOM     18  H   UNL     1      -3.145  -0.770  -6.860  1.00  0.00     0.210 HD
ENDBRANCH  16  17
ENDBRANCH  15  16
ENDBRANCH  14  15
ENDBRANCH  13  14
ENDBRANCH  12  13
ENDBRANCH  11  12
ENDBRANCH  10  11
ENDBRANCH   1  10
TORSDOF 15
ENDMDL
