MODEL 1
REMARK VINA RESULT:    -5.207      0.000      0.000
REMARK INTER + INTRA:         -10.414
REMARK INTER:                  -9.468
REMARK INTRA:                  -0.946
REMARK UNBOUND:                -0.946
REMARK SMILES CCCCCCCCCCCCCC[C@@H](C)C(=O)[O-]
REMARK SMILES IDX 9 1 10 2 11 3 12 4 13 5 14 6 15 7 16 8 17 9 18 10 19 11 8 12
REMARK SMILES IDX 7 13 6 14 5 15 4 16 3 17 2 18 1 19
REMARK H PARENT
REMARK Flexibility Score: inf
ROOT
ATOM      1  C   UNL     1      18.723   8.808  51.570  1.00  0.00     0.000 C 
ENDROOT
BRANCH   1   2
ATOM      2  C   UNL     1      18.807  10.257  51.065  1.00  0.00     0.000 C 
BRANCH   2   3
ATOM      3  C   UNL     1      19.194  10.344  49.577  1.00  0.00     0.000 C 
BRANCH   3   4
ATOM      4  C   UNL     1      20.716  10.297  49.363  1.00  0.00     0.000 C 
BRANCH   4   5
ATOM      5  C   UNL     1      21.402  11.625  49.727  1.00  0.00     0.001 C 
BRANCH   5   6
ATOM      6  C   UNL     1      22.189  12.250  48.556  1.00  0.00     0.009 C 
BRANCH   6   7
ATOM      7  C   UNL     1      23.021  13.521  48.873  1.00  0.00     0.032 C 
ATOM      8  C   UNL     1      23.027  13.868  50.369  1.00  0.00     0.014 C 
BRANCH   7   9
ATOM      9  C   UNL     1      24.413  13.457  48.293  1.00  0.00     0.044 C 
ATOM     10  O   UNL     1      24.605  12.876  47.192  1.00  0.00    -0.550 OA
ATOM     11  O   UNL     1      25.490  14.050  48.943  1.00  0.00    -0.550 OA
ENDBRANCH   7   9
ENDBRANCH   6   7
ENDBRANCH   5   6
ENDBRANCH   4   5
ENDBRANCH   3   4
ENDBRANCH   2   3
ENDBRANCH   1   2
BRANCH   1  12
ATOM     12  C   UNL     1      18.186   7.839  50.500  1.00  0.00     0.000 C 
BRANCH  12  13
ATOM     13  C   UNL     1      16.705   8.085  50.159  1.00  0.00    -0.000 C 
BRANCH  13  14
ATOM     14  C   UNL     1      15.843   6.815  50.030  1.00  0.00    -0.000 C 
BRANCH  14  15
ATOM     15  C   UNL     1      14.490   7.075  49.351  1.00  0.00    -0.000 C 
BRANCH  15  16
ATOM     16  C   UNL     1      14.560   6.772  47.851  1.00  0.00    -0.000 C 
BRANCH  16  17
ATOM     17  C   UNL     1      14.578   8.069  47.028  1.00  0.00    -0.000 C 
BRANCH  17  18
ATOM     18  C   UNL     1      15.950   8.352  46.399  1.00  0.00    -0.003 C 
ATOM     19  C   UNL     1      16.926   7.188  46.562  1.00  0.00     0.004 C 
ENDBRANCH  17  18
ENDBRANCH  16  17
ENDBRANCH  15  16
ENDBRANCH  14  15
ENDBRANCH  13  14
ENDBRANCH  12  13
ENDBRANCH   1  12
TORSDOF 14
ENDMDL
MODEL 2
REMARK VINA RESULT:    -5.127      3.483      9.040
REMARK INTER + INTRA:         -10.270
REMARK INTER:                  -9.416
REMARK INTRA:                  -0.853
REMARK UNBOUND:                -0.946
REMARK SMILES CCCCCCCCCCCCCC[C@@H](C)C(=O)[O-]
REMARK SMILES IDX 9 1 10 2 11 3 12 4 13 5 14 6 15 7 16 8 17 9 18 10 19 11 8 12
REMARK SMILES IDX 7 13 6 14 5 15 4 16 3 17 2 18 1 19
REMARK H PARENT
REMARK Flexibility Score: inf
ROOT
ATOM      1  C   UNL     1      20.648  10.334  49.037  1.00  0.00     0.000 C 
ENDROOT
BRANCH   1   2
ATOM      2  C   UNL     1      19.943   9.377  50.012  1.00  0.00     0.000 C 
BRANCH   2   3
ATOM      3  C   UNL     1      18.954  10.103  50.942  1.00  0.00     0.000 C 
BRANCH   3   4
ATOM      4  C   UNL     1      17.571   9.430  50.967  1.00  0.00     0.000 C 
BRANCH   4   5
ATOM      5  C   UNL     1      17.359   8.478  49.778  1.00  0.00     0.001 C 
BRANCH   5   6
ATOM      6  C   UNL     1      16.017   7.719  49.831  1.00  0.00     0.009 C 
BRANCH   6   7
ATOM      7  C   UNL     1      15.638   6.883  48.580  1.00  0.00     0.032 C 
ATOM      8  C   UNL     1      14.172   6.426  48.593  1.00  0.00     0.014 C 
BRANCH   7   9
ATOM      9  C   UNL     1      16.011   7.576  47.291  1.00  0.00     0.044 C 
ATOM     10  O   UNL     1      15.352   8.578  46.907  1.00  0.00    -0.550 OA
ATOM     11  O   UNL     1      17.089   7.139  46.528  1.00  0.00    -0.550 OA
ENDBRANCH   7   9
ENDBRANCH   6   7
ENDBRANCH   5   6
ENDBRANCH   4   5
ENDBRANCH   3   4
ENDBRANCH   2   3
ENDBRANCH   1   2
BRANCH   1  12
ATOM     12  C   UNL     1      21.378  11.482  49.759  1.00  0.00     0.000 C 
BRANCH  12  13
ATOM     13  C   UNL     1      22.214  12.354  48.804  1.00  0.00    -0.000 C 
BRANCH  13  14
ATOM     14  C   UNL     1      23.036  13.465  49.482  1.00  0.00    -0.000 C 
BRANCH  14  15
ATOM     15  C   UNL     1      24.527  13.417  49.116  1.00  0.00    -0.000 C 
BRANCH  15  16
ATOM     16  C   UNL     1      24.828  12.233  48.190  1.00  0.00    -0.000 C 
BRANCH  16  17
ATOM     17  C   UNL     1      25.398  12.714  46.848  1.00  0.00    -0.000 C 
BRANCH  17  18
ATOM     18  C   UNL     1      25.409  14.246  46.726  1.00  0.00    -0.003 C 
ATOM     19  C   UNL     1      26.791  14.801  46.384  1.00  0.00     0.004 C 
ENDBRANCH  17  18
ENDBRANCH  16  17
ENDBRANCH  15  16
ENDBRANCH  14  15
ENDBRANCH  13  14
ENDBRANCH  12  13
ENDBRANCH   1  12
TORSDOF 14
ENDMDL
MODEL 3
REMARK VINA RESULT:    -5.080      4.464      9.858
REMARK INTER + INTRA:         -10.183
REMARK INTER:                  -9.540
REMARK INTRA:                  -0.643
REMARK UNBOUND:                -0.946
REMARK SMILES CCCCCCCCCCCCCC[C@@H](C)C(=O)[O-]
REMARK SMILES IDX 9 1 10 2 11 3 12 4 13 5 14 6 15 7 16 8 17 9 18 10 19 11 8 12
REMARK SMILES IDX 7 13 6 14 5 15 4 16 3 17 2 18 1 19
REMARK H PARENT
REMARK Flexibility Score: inf
ROOT
ATOM      1  C   UNL     1      21.598  11.528  49.695  1.00  0.00     0.000 C 
ENDROOT
BRANCH   1   2
ATOM      2  C   UNL     1      20.580  10.427  49.359  1.00  0.00     0.000 C 
BRANCH   2   3
ATOM      3  C   UNL     1      19.439  10.341  50.390  1.00  0.00     0.000 C 
BRANCH   3   4
ATOM      4  C   UNL     1      18.067  10.120  49.731  1.00  0.00     0.000 C 
BRANCH   4   5
ATOM      5  C   UNL     1      17.463   8.749  50.077  1.00  0.00     0.001 C 
BRANCH   5   6
ATOM      6  C   UNL     1      17.150   7.885  48.837  1.00  0.00     0.009 C 
BRANCH   6   7
ATOM      7  C   UNL     1      15.671   7.845  48.371  1.00  0.00     0.032 C 
ATOM      8  C   UNL     1      15.511   8.158  46.876  1.00  0.00     0.014 C 
BRANCH   7   9
ATOM      9  C   UNL     1      14.978   6.563  48.766  1.00  0.00     0.044 C 
ATOM     10  O   UNL     1      13.737   6.442  48.588  1.00  0.00    -0.550 OA
ATOM     11  O   UNL     1      15.692   5.498  49.306  1.00  0.00    -0.550 OA
ENDBRANCH   7   9
ENDBRANCH   6   7
ENDBRANCH   5   6
ENDBRANCH   4   5
ENDBRANCH   3   4
ENDBRANCH   2   3
ENDBRANCH   1   2
BRANCH   1  12
ATOM     12  C   UNL     1      22.074  12.294  48.447  1.00  0.00     0.000 C 
BRANCH  12  13
ATOM     13  C   UNL     1      23.161  13.337  48.764  1.00  0.00    -0.000 C 
BRANCH  13  14
ATOM     14  C   UNL     1      23.857  13.166  50.127  1.00  0.00    -0.000 C 
BRANCH  14  15
ATOM     15  C   UNL     1      24.276  14.502  50.758  1.00  0.00    -0.000 C 
BRANCH  15  16
ATOM     16  C   UNL     1      25.224  14.277  51.941  1.00  0.00    -0.000 C 
BRANCH  16  17
ATOM     17  C   UNL     1      24.458  13.776  53.174  1.00  0.00    -0.000 C 
BRANCH  17  18
ATOM     18  C   UNL     1      25.391  13.371  54.325  1.00  0.00    -0.003 C 
ATOM     19  C   UNL     1      26.858  13.305  53.902  1.00  0.00     0.004 C 
ENDBRANCH  17  18
ENDBRANCH  16  17
ENDBRANCH  15  16
ENDBRANCH  14  15
ENDBRANCH  13  14
ENDBRANCH  12  13
ENDBRANCH   1  12
TORSDOF 14
ENDMDL
MODEL 4
REMARK VINA RESULT:    -5.017      2.718      4.634
REMARK INTER + INTRA:         -10.069
REMARK INTER:                  -9.489
REMARK INTRA:                  -0.580
REMARK UNBOUND:                -0.946
REMARK SMILES CCCCCCCCCCCCCC[C@@H](C)C(=O)[O-]
REMARK SMILES IDX 9 1 10 2 11 3 12 4 13 5 14 6 15 7 16 8 17 9 18 10 19 11 8 12
REMARK SMILES IDX 7 13 6 14 5 15 4 16 3 17 2 18 1 19
REMARK H PARENT
REMARK Flexibility Score: inf
ROOT
ATOM      1  C   UNL     1      21.554  11.864  49.723  1.00  0.00     0.000 C 
ENDROOT
BRANCH   1   2
ATOM      2  C   UNL     1      22.553  12.387  48.679  1.00  0.00     0.000 C 
BRANCH   2   3
ATOM      3  C   UNL     1      23.891  12.821  49.306  1.00  0.00     0.000 C 
BRANCH   3   4
ATOM      4  C   UNL     1      23.800  14.197  49.987  1.00  0.00     0.000 C 
BRANCH   4   5
ATOM      5  C   UNL     1      24.761  14.326  51.181  1.00  0.00     0.001 C 
BRANCH   5   6
ATOM      6  C   UNL     1      24.210  13.705  52.482  1.00  0.00     0.009 C 
BRANCH   6   7
ATOM      7  C   UNL     1      24.978  14.030  53.790  1.00  0.00     0.032 C 
ATOM      8  C   UNL     1      24.053  14.127  55.012  1.00  0.00     0.014 C 
BRANCH   7   9
ATOM      9  C   UNL     1      26.141  13.096  54.022  1.00  0.00     0.044 C 
ATOM     10  O   UNL     1      25.961  12.021  54.653  1.00  0.00    -0.550 OA
ATOM     11  O   UNL     1      27.408  13.390  53.531  1.00  0.00    -0.550 OA
ENDBRANCH   7   9
ENDBRANCH   6   7
ENDBRANCH   5   6
ENDBRANCH   4   5
ENDBRANCH   3   4
ENDBRANCH   2   3
ENDBRANCH   1   2
BRANCH   1  12
ATOM     12  C   UNL     1      20.954  10.500  49.336  1.00  0.00     0.000 C 
BRANCH  12  13
ATOM     13  C   UNL     1      19.507  10.321  49.830  1.00  0.00    -0.000 C 
BRANCH  13  14
ATOM     14  C   UNL     1      19.186   8.940  50.432  1.00  0.00    -0.000 C 
BRANCH  14  15
ATOM     15  C   UNL     1      18.273   8.092  49.534  1.00  0.00    -0.000 C 
BRANCH  15  16
ATOM     16  C   UNL     1      16.816   8.167  50.004  1.00  0.00    -0.000 C 
BRANCH  16  17
ATOM     17  C   UNL     1      16.095   6.830  49.779  1.00  0.00    -0.000 C 
BRANCH  17  18
ATOM     18  C   UNL     1      14.877   6.963  48.854  1.00  0.00    -0.003 C 
ATOM     19  C   UNL     1      15.168   7.801  47.609  1.00  0.00     0.004 C 
ENDBRANCH  17  18
ENDBRANCH  16  17
ENDBRANCH  15  16
ENDBRANCH  14  15
ENDBRANCH  13  14
ENDBRANCH  12  13
ENDBRANCH   1  12
TORSDOF 14
ENDMDL
MODEL 5
REMARK VINA RESULT:    -5.017      3.736      8.765
REMARK INTER + INTRA:         -10.069
REMARK INTER:                  -9.282
REMARK INTRA:                  -0.787
REMARK UNBOUND:                -0.946
REMARK SMILES CCCCCCCCCCCCCC[C@@H](C)C(=O)[O-]
REMARK SMILES IDX 9 1 10 2 11 3 12 4 13 5 14 6 15 7 16 8 17 9 18 10 19 11 8 12
REMARK SMILES IDX 7 13 6 14 5 15 4 16 3 17 2 18 1 19
REMARK H PARENT
REMARK Flexibility Score: inf
ROOT
ATOM      1  C   UNL     1      21.558  11.332  49.001  1.00  0.00     0.000 C 
ENDROOT
BRANCH   1   2
ATOM      2  C   UNL     1      20.397  10.663  49.753  1.00  0.00     0.000 C 
BRANCH   2   3
ATOM      3  C   UNL     1      20.265   9.164  49.425  1.00  0.00     0.000 C 
BRANCH   3   4
ATOM      4  C   UNL     1      19.385   8.416  50.440  1.00  0.00     0.000 C 
BRANCH   4   5
ATOM      5  C   UNL     1      18.144   9.226  50.852  1.00  0.00     0.001 C 
BRANCH   5   6
ATOM      6  C   UNL     1      16.943   9.034  49.902  1.00  0.00     0.009 C 
BRANCH   6   7
ATOM      7  C   UNL     1      16.795   7.640  49.238  1.00  0.00     0.032 C 
ATOM      8  C   UNL     1      15.758   6.753  49.944  1.00  0.00     0.014 C 
BRANCH   7   9
ATOM      9  C   UNL     1      16.551   7.735  47.751  1.00  0.00     0.044 C 
ATOM     10  O   UNL     1      17.182   6.978  46.966  1.00  0.00    -0.550 OA
ATOM     11  O   UNL     1      15.623   8.630  47.231  1.00  0.00    -0.550 OA
ENDBRANCH   7   9
ENDBRANCH   6   7
ENDBRANCH   5   6
ENDBRANCH   4   5
ENDBRANCH   3   4
ENDBRANCH   2   3
ENDBRANCH   1   2
BRANCH   1  12
ATOM     12  C   UNL     1      22.119  12.555  49.749  1.00  0.00     0.000 C 
BRANCH  12  13
ATOM     13  C   UNL     1      22.850  13.542  48.819  1.00  0.00    -0.000 C 
BRANCH  13  14
ATOM     14  C   UNL     1      23.847  12.900  47.837  1.00  0.00    -0.000 C 
BRANCH  14  15
ATOM     15  C   UNL     1      24.899  13.892  47.317  1.00  0.00    -0.000 C 
BRANCH  15  16
ATOM     16  C   UNL     1      25.772  13.249  46.233  1.00  0.00    -0.000 C 
BRANCH  16  17
ATOM     17  C   UNL     1      25.519  11.737  46.149  1.00  0.00    -0.000 C 
BRANCH  17  18
ATOM     18  C   UNL     1      25.270  11.258  44.711  1.00  0.00    -0.003 C 
ATOM     19  C   UNL     1      26.262  10.185  44.264  1.00  0.00     0.004 C 
ENDBRANCH  17  18
ENDBRANCH  16  17
ENDBRANCH  15  16
ENDBRANCH  14  15
ENDBRANCH  13  14
ENDBRANCH  12  13
ENDBRANCH   1  12
TORSDOF 14
ENDMDL
MODEL 6
REMARK VINA RESULT:    -4.975      9.632     12.996
REMARK INTER + INTRA:          -9.993
REMARK INTER:                  -8.715
REMARK INTRA:                  -1.278
REMARK UNBOUND:                -0.946
REMARK SMILES CCCCCCCCCCCCCC[C@@H](C)C(=O)[O-]
REMARK SMILES IDX 9 1 10 2 11 3 12 4 13 5 14 6 15 7 16 8 17 9 18 10 19 11 8 12
REMARK SMILES IDX 7 13 6 14 5 15 4 16 3 17 2 18 1 19
REMARK H PARENT
REMARK Flexibility Score: inf
ROOT
ATOM      1  C   UNL     1      20.825   0.638  47.240  1.00  0.00     0.000 C 
ENDROOT
BRANCH   1   2
ATOM      2  C   UNL     1      19.510   0.083  47.810  1.00  0.00     0.000 C 
BRANCH   2   3
ATOM      3  C   UNL     1      19.058  -1.208  47.104  1.00  0.00     0.000 C 
BRANCH   3   4
ATOM      4  C   UNL     1      17.875  -1.884  47.818  1.00  0.00     0.000 C 
BRANCH   4   5
ATOM      5  C   UNL     1      16.541  -1.664  47.083  1.00  0.00     0.001 C 
BRANCH   5   6
ATOM      6  C   UNL     1      15.371  -1.316  48.026  1.00  0.00     0.009 C 
BRANCH   6   7
ATOM      7  C   UNL     1      14.869   0.152  48.002  1.00  0.00     0.032 C 
ATOM      8  C   UNL     1      15.936   1.136  47.500  1.00  0.00     0.014 C 
BRANCH   7   9
ATOM      9  C   UNL     1      13.559   0.301  47.267  1.00  0.00     0.044 C 
ATOM     10  O   UNL     1      12.691   1.107  47.693  1.00  0.00    -0.550 OA
ATOM     11  O   UNL     1      13.300  -0.423  46.108  1.00  0.00    -0.550 OA
ENDBRANCH   7   9
ENDBRANCH   6   7
ENDBRANCH   5   6
ENDBRANCH   4   5
ENDBRANCH   3   4
ENDBRANCH   2   3
ENDBRANCH   1   2
BRANCH   1  12
ATOM     12  C   UNL     1      21.857   0.959  48.336  1.00  0.00     0.000 C 
BRANCH  12  13
ATOM     13  C   UNL     1      23.202   0.241  48.122  1.00  0.00    -0.000 C 
BRANCH  13  14
ATOM     14  C   UNL     1      24.393   0.836  48.895  1.00  0.00    -0.000 C 
BRANCH  14  15
ATOM     15  C   UNL     1      25.661   0.965  48.038  1.00  0.00    -0.000 C 
BRANCH  15  16
ATOM     16  C   UNL     1      25.445   1.946  46.880  1.00  0.00    -0.000 C 
BRANCH  16  17
ATOM     17  C   UNL     1      25.053   3.336  47.402  1.00  0.00    -0.000 C 
BRANCH  17  18
ATOM     18  C   UNL     1      24.184   4.118  46.407  1.00  0.00    -0.003 C 
ATOM     19  C   UNL     1      23.123   3.246  45.736  1.00  0.00     0.004 C 
ENDBRANCH  17  18
ENDBRANCH  16  17
ENDBRANCH  15  16
ENDBRANCH  14  15
ENDBRANCH  13  14
ENDBRANCH  12  13
ENDBRANCH   1  12
TORSDOF 14
ENDMDL
MODEL 7
REMARK VINA RESULT:    -4.944      1.600      3.296
REMARK INTER + INTRA:          -9.937
REMARK INTER:                  -9.077
REMARK INTRA:                  -0.860
REMARK UNBOUND:                -0.946
REMARK SMILES CCCCCCCCCCCCCC[C@@H](C)C(=O)[O-]
REMARK SMILES IDX 9 1 10 2 11 3 12 4 13 5 14 6 15 7 16 8 17 9 18 10 19 11 8 12
REMARK SMILES IDX 7 13 6 14 5 15 4 16 3 17 2 18 1 19
REMARK H PARENT
REMARK Flexibility Score: inf
ROOT
ATOM      1  C   UNL     1      20.606  10.498  49.277  1.00  0.00     0.000 C 
ENDROOT
BRANCH   1   2
ATOM      2  C   UNL     1      21.656  11.547  49.675  1.00  0.00     0.000 C 
BRANCH   2   3
ATOM      3  C   UNL     1      22.176  12.351  48.469  1.00  0.00     0.000 C 
BRANCH   3   4
ATOM      4  C   UNL     1      22.958  13.606  48.894  1.00  0.00     0.000 C 
BRANCH   4   5
ATOM      5  C   UNL     1      24.458  13.326  49.084  1.00  0.00     0.001 C 
BRANCH   5   6
ATOM      6  C   UNL     1      25.065  12.447  47.971  1.00  0.00     0.009 C 
BRANCH   6   7
ATOM      7  C   UNL     1      25.227  13.103  46.574  1.00  0.00     0.032 C 
ATOM      8  C   UNL     1      25.889  14.487  46.641  1.00  0.00     0.014 C 
BRANCH   7   9
ATOM      9  C   UNL     1      25.907  12.188  45.584  1.00  0.00     0.044 C 
ATOM     10  O   UNL     1      27.134  12.333  45.341  1.00  0.00    -0.550 OA
ATOM     11  O   UNL     1      25.206  11.168  44.950  1.00  0.00    -0.550 OA
ENDBRANCH   7   9
ENDBRANCH   6   7
ENDBRANCH   5   6
ENDBRANCH   4   5
ENDBRANCH   3   4
ENDBRANCH   2   3
ENDBRANCH   1   2
BRANCH   1  12
ATOM     12  C   UNL     1      19.417  10.450  50.253  1.00  0.00     0.000 C 
BRANCH  12  13
ATOM     13  C   UNL     1      18.287   9.520  49.776  1.00  0.00    -0.000 C 
BRANCH  13  14
ATOM     14  C   UNL     1      18.584   8.014  49.895  1.00  0.00    -0.000 C 
BRANCH  14  15
ATOM     15  C   UNL     1      17.462   7.134  49.322  1.00  0.00    -0.000 C 
BRANCH  15  16
ATOM     16  C   UNL     1      16.151   7.350  50.085  1.00  0.00    -0.000 C 
BRANCH  16  17
ATOM     17  C   UNL     1      14.943   7.249  49.142  1.00  0.00    -0.000 C 
BRANCH  17  18
ATOM     18  C   UNL     1      15.344   7.296  47.660  1.00  0.00    -0.003 C 
ATOM     19  C   UNL     1      15.058   8.650  47.013  1.00  0.00     0.004 C 
ENDBRANCH  17  18
ENDBRANCH  16  17
ENDBRANCH  15  16
ENDBRANCH  14  15
ENDBRANCH  13  14
ENDBRANCH  12  13
ENDBRANCH   1  12
TORSDOF 14
ENDMDL
MODEL 8
REMARK VINA RESULT:    -4.882     10.643     13.449
REMARK INTER + INTRA:          -9.824
REMARK INTER:                  -9.083
REMARK INTRA:                  -0.741
REMARK UNBOUND:                -0.946
REMARK SMILES CCCCCCCCCCCCCC[C@@H](C)C(=O)[O-]
REMARK SMILES IDX 9 1 10 2 11 3 12 4 13 5 14 6 15 7 16 8 17 9 18 10 19 11 8 12
REMARK SMILES IDX 7 13 6 14 5 15 4 16 3 17 2 18 1 19
REMARK H PARENT
REMARK Flexibility Score: inf
ROOT
ATOM      1  C   UNL     1      16.613   0.687  47.143  1.00  0.00     0.000 C 
ENDROOT
BRANCH   1   2
ATOM      2  C   UNL     1      15.577   1.330  48.080  1.00  0.00     0.000 C 
BRANCH   2   3
ATOM      3  C   UNL     1      14.305   0.477  48.231  1.00  0.00     0.000 C 
BRANCH   3   4
ATOM      4  C   UNL     1      13.743   0.017  46.875  1.00  0.00     0.000 C 
BRANCH   4   5
ATOM      5  C   UNL     1      12.540   0.862  46.421  1.00  0.00     0.001 C 
BRANCH   5   6
ATOM      6  C   UNL     1      12.869   1.824  45.260  1.00  0.00     0.009 C 
BRANCH   6   7
ATOM      7  C   UNL     1      12.000   1.697  43.981  1.00  0.00     0.032 C 
ATOM      8  C   UNL     1      12.541   0.650  42.997  1.00  0.00     0.014 C 
BRANCH   7   9
ATOM      9  C   UNL     1      10.539   1.486  44.298  1.00  0.00     0.044 C 
ATOM     10  O   UNL     1      10.003   0.371  44.060  1.00  0.00    -0.550 OA
ATOM     11  O   UNL     1       9.775   2.497  44.870  1.00  0.00    -0.550 OA
ENDBRANCH   7   9
ENDBRANCH   6   7
ENDBRANCH   5   6
ENDBRANCH   4   5
ENDBRANCH   3   4
ENDBRANCH   2   3
ENDBRANCH   1   2
BRANCH   1  12
ATOM     12  C   UNL     1      17.027  -0.723  47.599  1.00  0.00     0.000 C 
BRANCH  12  13
ATOM     13  C   UNL     1      18.515  -1.023  47.340  1.00  0.00    -0.000 C 
BRANCH  13  14
ATOM     14  C   UNL     1      19.498   0.044  47.855  1.00  0.00    -0.000 C 
BRANCH  14  15
ATOM     15  C   UNL     1      20.840   0.036  47.106  1.00  0.00    -0.000 C 
BRANCH  15  16
ATOM     16  C   UNL     1      21.736   1.189  47.570  1.00  0.00    -0.000 C 
BRANCH  16  17
ATOM     17  C   UNL     1      23.220   0.816  47.448  1.00  0.00    -0.000 C 
BRANCH  17  18
ATOM     18  C   UNL     1      23.916   0.706  48.813  1.00  0.00    -0.003 C 
ATOM     19  C   UNL     1      24.569  -0.658  49.035  1.00  0.00     0.004 C 
ENDBRANCH  17  18
ENDBRANCH  16  17
ENDBRANCH  15  16
ENDBRANCH  14  15
ENDBRANCH  13  14
ENDBRANCH  12  13
ENDBRANCH   1  12
TORSDOF 14
ENDMDL
MODEL 9
REMARK VINA RESULT:    -4.868     10.508     13.727
REMARK INTER + INTRA:          -9.798
REMARK INTER:                  -8.974
REMARK INTRA:                  -0.824
REMARK UNBOUND:                -0.946
REMARK SMILES CCCCCCCCCCCCCC[C@@H](C)C(=O)[O-]
REMARK SMILES IDX 9 1 10 2 11 3 12 4 13 5 14 6 15 7 16 8 17 9 18 10 19 11 8 12
REMARK SMILES IDX 7 13 6 14 5 15 4 16 3 17 2 18 1 19
REMARK H PARENT
REMARK Flexibility Score: inf
ROOT
ATOM      1  C   UNL     1      21.007   0.203  47.385  1.00  0.00     0.000 C 
ENDROOT
BRANCH   1   2
ATOM      2  C   UNL     1      19.558   0.254  47.894  1.00  0.00     0.000 C 
BRANCH   2   3
ATOM      3  C   UNL     1      18.597  -0.583  47.031  1.00  0.00     0.000 C 
BRANCH   3   4
ATOM      4  C   UNL     1      18.072  -1.824  47.773  1.00  0.00     0.000 C 
BRANCH   4   5
ATOM      5  C   UNL     1      16.537  -1.912  47.758  1.00  0.00     0.001 C 
BRANCH   5   6
ATOM      6  C   UNL     1      15.866  -0.786  46.944  1.00  0.00     0.009 C 
BRANCH   6   7
ATOM      7  C   UNL     1      14.846   0.108  47.698  1.00  0.00     0.032 C 
ATOM      8  C   UNL     1      15.496   1.351  48.323  1.00  0.00     0.014 C 
BRANCH   7   9
ATOM      9  C   UNL     1      13.646   0.452  46.850  1.00  0.00     0.044 C 
ATOM     10  O   UNL     1      12.893  -0.466  46.430  1.00  0.00    -0.550 OA
ATOM     11  O   UNL     1      13.341   1.773  46.540  1.00  0.00    -0.550 OA
ENDBRANCH   7   9
ENDBRANCH   6   7
ENDBRANCH   5   6
ENDBRANCH   4   5
ENDBRANCH   3   4
ENDBRANCH   2   3
ENDBRANCH   1   2
BRANCH   1  12
ATOM     12  C   UNL     1      21.995   0.895  48.341  1.00  0.00     0.000 C 
BRANCH  12  13
ATOM     13  C   UNL     1      23.218   1.485  47.615  1.00  0.00    -0.000 C 
BRANCH  13  14
ATOM     14  C   UNL     1      24.575   1.210  48.288  1.00  0.00    -0.000 C 
BRANCH  14  15
ATOM     15  C   UNL     1      25.006  -0.261  48.190  1.00  0.00    -0.000 C 
BRANCH  15  16
ATOM     16  C   UNL     1      25.099  -0.900  49.580  1.00  0.00    -0.000 C 
BRANCH  16  17
ATOM     17  C   UNL     1      25.173  -2.430  49.479  1.00  0.00    -0.000 C 
BRANCH  17  18
ATOM     18  C   UNL     1      26.541  -2.925  48.986  1.00  0.00    -0.003 C 
ATOM     19  C   UNL     1      27.698  -2.065  49.493  1.00  0.00     0.004 C 
ENDBRANCH  17  18
ENDBRANCH  16  17
ENDBRANCH  15  16
ENDBRANCH  14  15
ENDBRANCH  13  14
ENDBRANCH  12  13
ENDBRANCH   1  12
TORSDOF 14
ENDMDL
