MODEL 1
REMARK VINA RESULT:    -4.403      0.000      0.000
REMARK INTER + INTRA:          -4.403
REMARK INTER:                  -4.403
REMARK INTRA:                   0.000
REMARK UNBOUND:                 0.000
REMARK SMILES O=c1ccc2ccccc2o1
REMARK SMILES IDX 7 1 8 2 9 3 10 4 5 5 6 6 4 7 3 8 2 9 1 10 11 11
REMARK H PARENT
REMARK Flexibility Score: inf
ROOT
ATOM      1  C   UNL     1       2.620 -14.177  16.514  1.00  0.00     0.001 A 
ATOM      2  C   UNL     1       2.365 -14.159  15.139  1.00  0.00     0.004 A 
ATOM      3  C   UNL     1       2.880 -15.166  14.315  1.00  0.00     0.048 A 
ATOM      4  C   UNL     1       3.653 -16.195  14.864  1.00  0.00     0.138 A 
ATOM      5  C   UNL     1       3.910 -16.213  16.254  1.00  0.00     0.018 A 
ATOM      6  C   UNL     1       3.390 -15.202  17.074  1.00  0.00     0.012 A 
ATOM      7  C   UNL     1       4.685 -17.254  16.774  1.00  0.00     0.019 A 
ATOM      8  C   UNL     1       5.177 -18.236  15.915  1.00  0.00     0.094 A 
ATOM      9  C   UNL     1       4.882 -18.153  14.550  1.00  0.00     0.336 A 
ATOM     10  O   UNL     1       5.318 -19.030  13.759  1.00  0.00    -0.246 OA
ATOM     11  O   UNL     1       4.142 -17.152  14.080  1.00  0.00    -0.423 OA
ENDROOT
TORSDOF 0
ENDMDL
MODEL 2
REMARK VINA RESULT:    -4.285      2.178      2.470
REMARK INTER + INTRA:          -4.285
REMARK INTER:                  -4.285
REMARK INTRA:                   0.000
REMARK UNBOUND:                 0.000
REMARK SMILES O=c1ccc2ccccc2o1
REMARK SMILES IDX 7 1 8 2 9 3 10 4 5 5 6 6 4 7 3 8 2 9 1 10 11 11
REMARK H PARENT
REMARK Flexibility Score: inf
ROOT
ATOM      1  C   UNL     1       2.156 -14.502  15.294  1.00  0.00     0.001 A 
ATOM      2  C   UNL     1       2.902 -13.322  15.194  1.00  0.00     0.004 A 
ATOM      3  C   UNL     1       4.267 -13.378  14.891  1.00  0.00     0.048 A 
ATOM      4  C   UNL     1       4.891 -14.614  14.687  1.00  0.00     0.138 A 
ATOM      5  C   UNL     1       4.137 -15.805  14.788  1.00  0.00     0.018 A 
ATOM      6  C   UNL     1       2.769 -15.743  15.091  1.00  0.00     0.012 A 
ATOM      7  C   UNL     1       4.787 -17.024  14.579  1.00  0.00     0.019 A 
ATOM      8  C   UNL     1       6.149 -17.031  14.280  1.00  0.00     0.094 A 
ATOM      9  C   UNL     1       6.832 -15.812  14.195  1.00  0.00     0.336 A 
ATOM     10  O   UNL     1       8.061 -15.798  13.926  1.00  0.00    -0.246 OA
ATOM     11  O   UNL     1       6.189 -14.665  14.399  1.00  0.00    -0.423 OA
ENDROOT
TORSDOF 0
ENDMDL
MODEL 3
REMARK VINA RESULT:    -4.263      1.303      3.817
REMARK INTER + INTRA:          -4.263
REMARK INTER:                  -4.263
REMARK INTRA:                   0.000
REMARK UNBOUND:                 0.000
REMARK SMILES O=c1ccc2ccccc2o1
REMARK SMILES IDX 7 1 8 2 9 3 10 4 5 5 6 6 4 7 3 8 2 9 1 10 11 11
REMARK H PARENT
REMARK Flexibility Score: inf
ROOT
ATOM      1  C   UNL     1       6.001 -19.166  16.115  1.00  0.00     0.001 A 
ATOM      2  C   UNL     1       5.980 -19.230  14.718  1.00  0.00     0.004 A 
ATOM      3  C   UNL     1       5.234 -18.302  13.982  1.00  0.00     0.048 A 
ATOM      4  C   UNL     1       4.507 -17.306  14.643  1.00  0.00     0.138 A 
ATOM      5  C   UNL     1       4.530 -17.240  16.054  1.00  0.00     0.018 A 
ATOM      6  C   UNL     1       5.279 -18.173  16.785  1.00  0.00     0.012 A 
ATOM      7  C   UNL     1       3.794 -16.233  16.686  1.00  0.00     0.019 A 
ATOM      8  C   UNL     1       3.065 -15.331  15.912  1.00  0.00     0.094 A 
ATOM      9  C   UNL     1       3.091 -15.456  14.518  1.00  0.00     0.336 A 
ATOM     10  O   UNL     1       2.439 -14.651  13.804  1.00  0.00    -0.246 OA
ATOM     11  O   UNL     1       3.799 -16.423  13.942  1.00  0.00    -0.423 OA
ENDROOT
TORSDOF 0
ENDMDL
MODEL 4
REMARK VINA RESULT:    -4.254      1.497      1.717
REMARK INTER + INTRA:          -4.254
REMARK INTER:                  -4.254
REMARK INTRA:                   0.000
REMARK UNBOUND:                 0.000
REMARK SMILES O=c1ccc2ccccc2o1
REMARK SMILES IDX 7 1 8 2 9 3 10 4 5 5 6 6 4 7 3 8 2 9 1 10 11 11
REMARK H PARENT
REMARK Flexibility Score: inf
ROOT
ATOM      1  C   UNL     1       3.638 -13.132  15.297  1.00  0.00     0.001 A 
ATOM      2  C   UNL     1       2.497 -13.896  15.027  1.00  0.00     0.004 A 
ATOM      3  C   UNL     1       2.621 -15.238  14.651  1.00  0.00     0.048 A 
ATOM      4  C   UNL     1       3.889 -15.821  14.544  1.00  0.00     0.138 A 
ATOM      5  C   UNL     1       5.041 -15.050  14.818  1.00  0.00     0.018 A 
ATOM      6  C   UNL     1       4.909 -13.706  15.195  1.00  0.00     0.012 A 
ATOM      7  C   UNL     1       6.293 -15.660  14.703  1.00  0.00     0.019 A 
ATOM      8  C   UNL     1       6.370 -17.000  14.325  1.00  0.00     0.094 A 
ATOM      9  C   UNL     1       5.185 -17.702  14.070  1.00  0.00     0.336 A 
ATOM     10  O   UNL     1       5.234 -18.912  13.728  1.00  0.00    -0.246 OA
ATOM     11  O   UNL     1       4.006 -17.097  14.187  1.00  0.00    -0.423 OA
ENDROOT
TORSDOF 0
ENDMDL
MODEL 5
REMARK VINA RESULT:    -4.253      2.080      4.126
REMARK INTER + INTRA:          -4.253
REMARK INTER:                  -4.253
REMARK INTRA:                   0.000
REMARK UNBOUND:                 0.000
REMARK SMILES O=c1ccc2ccccc2o1
REMARK SMILES IDX 7 1 8 2 9 3 10 4 5 5 6 6 4 7 3 8 2 9 1 10 11 11
REMARK H PARENT
REMARK Flexibility Score: inf
ROOT
ATOM      1  C   UNL     1       7.117 -16.998  14.740  1.00  0.00     0.001 A 
ATOM      2  C   UNL     1       6.160 -17.988  14.485  1.00  0.00     0.004 A 
ATOM      3  C   UNL     1       4.812 -17.643  14.343  1.00  0.00     0.048 A 
ATOM      4  C   UNL     1       4.415 -16.305  14.455  1.00  0.00     0.138 A 
ATOM      5  C   UNL     1       5.381 -15.306  14.712  1.00  0.00     0.018 A 
ATOM      6  C   UNL     1       6.730 -15.659  14.852  1.00  0.00     0.012 A 
ATOM      7  C   UNL     1       4.954 -13.979  14.818  1.00  0.00     0.019 A 
ATOM      8  C   UNL     1       3.600 -13.682  14.670  1.00  0.00     0.094 A 
ATOM      9  C   UNL     1       2.700 -14.724  14.416  1.00  0.00     0.336 A 
ATOM     10  O   UNL     1       1.474 -14.475  14.280  1.00  0.00    -0.246 OA
ATOM     11  O   UNL     1       3.132 -15.978  14.319  1.00  0.00    -0.423 OA
ENDROOT
TORSDOF 0
ENDMDL
MODEL 6
REMARK VINA RESULT:    -4.054      2.507      4.406
REMARK INTER + INTRA:          -4.054
REMARK INTER:                  -4.054
REMARK INTRA:                   0.000
REMARK UNBOUND:                 0.000
REMARK SMILES O=c1ccc2ccccc2o1
REMARK SMILES IDX 7 1 8 2 9 3 10 4 5 5 6 6 4 7 3 8 2 9 1 10 11 11
REMARK H PARENT
REMARK Flexibility Score: inf
ROOT
ATOM      1  C   UNL     1       5.836 -17.295  14.281  1.00  0.00     0.001 A 
ATOM      2  C   UNL     1       6.715 -16.215  14.416  1.00  0.00     0.004 A 
ATOM      3  C   UNL     1       6.222 -14.939  14.712  1.00  0.00     0.048 A 
ATOM      4  C   UNL     1       4.847 -14.739  14.873  1.00  0.00     0.138 A 
ATOM      5  C   UNL     1       3.959 -15.830  14.737  1.00  0.00     0.018 A 
ATOM      6  C   UNL     1       4.459 -17.106  14.441  1.00  0.00     0.012 A 
ATOM      7  C   UNL     1       2.590 -15.600  14.904  1.00  0.00     0.019 A 
ATOM      8  C   UNL     1       2.144 -14.312  15.197  1.00  0.00     0.094 A 
ATOM      9  C   UNL     1       3.082 -13.279  15.318  1.00  0.00     0.336 A 
ATOM     10  O   UNL     1       2.698 -12.111  15.583  1.00  0.00    -0.246 OA
ATOM     11  O   UNL     1       4.379 -13.526  15.155  1.00  0.00    -0.423 OA
ENDROOT
TORSDOF 0
ENDMDL
MODEL 7
REMARK VINA RESULT:    -3.964      2.820      4.339
REMARK INTER + INTRA:          -3.964
REMARK INTER:                  -3.964
REMARK INTRA:                   0.000
REMARK UNBOUND:                 0.000
REMARK SMILES O=c1ccc2ccccc2o1
REMARK SMILES IDX 7 1 8 2 9 3 10 4 5 5 6 6 4 7 3 8 2 9 1 10 11 11
REMARK H PARENT
REMARK Flexibility Score: inf
ROOT
ATOM      1  C   UNL     1       4.000 -17.297  15.417  1.00  0.00     0.001 A 
ATOM      2  C   UNL     1       5.377 -17.468  15.235  1.00  0.00     0.004 A 
ATOM      3  C   UNL     1       6.181 -16.378  14.887  1.00  0.00     0.048 A 
ATOM      4  C   UNL     1       5.611 -15.111  14.718  1.00  0.00     0.138 A 
ATOM      5  C   UNL     1       4.220 -14.939  14.902  1.00  0.00     0.018 A 
ATOM      6  C   UNL     1       3.420 -16.035  15.252  1.00  0.00     0.012 A 
ATOM      7  C   UNL     1       3.679 -13.662  14.727  1.00  0.00     0.019 A 
ATOM      8  C   UNL     1       4.518 -12.604  14.379  1.00  0.00     0.094 A 
ATOM      9  C   UNL     1       5.887 -12.850  14.214  1.00  0.00     0.336 A 
ATOM     10  O   UNL     1       6.660 -11.908  13.900  1.00  0.00    -0.246 OA
ATOM     11  O   UNL     1       6.376 -14.075  14.387  1.00  0.00    -0.423 OA
ENDROOT
TORSDOF 0
ENDMDL
MODEL 8
REMARK VINA RESULT:    -3.872      3.404      4.620
REMARK INTER + INTRA:          -3.872
REMARK INTER:                  -3.872
REMARK INTRA:                   0.000
REMARK UNBOUND:                 0.000
REMARK SMILES O=c1ccc2ccccc2o1
REMARK SMILES IDX 7 1 8 2 9 3 10 4 5 5 6 6 4 7 3 8 2 9 1 10 11 11
REMARK H PARENT
REMARK Flexibility Score: inf
ROOT
ATOM      1  C   UNL     1       3.725 -16.304  15.247  1.00  0.00     0.001 A 
ATOM      2  C   UNL     1       2.517 -15.613  15.106  1.00  0.00     0.004 A 
ATOM      3  C   UNL     1       2.519 -14.247  14.800  1.00  0.00     0.048 A 
ATOM      4  C   UNL     1       3.731 -13.568  14.635  1.00  0.00     0.138 A 
ATOM      5  C   UNL     1       4.952 -14.266  14.777  1.00  0.00     0.018 A 
ATOM      6  C   UNL     1       4.943 -15.634  15.082  1.00  0.00     0.012 A 
ATOM      7  C   UNL     1       6.146 -13.561  14.605  1.00  0.00     0.019 A 
ATOM      8  C   UNL     1       6.100 -12.201  14.301  1.00  0.00     0.094 A 
ATOM      9  C   UNL     1       4.855 -11.575  14.176  1.00  0.00     0.336 A 
ATOM     10  O   UNL     1       4.793 -10.348  13.902  1.00  0.00    -0.246 OA
ATOM     11  O   UNL     1       3.733 -12.269  14.344  1.00  0.00    -0.423 OA
ENDROOT
TORSDOF 0
ENDMDL
MODEL 9
REMARK VINA RESULT:    -3.797      2.368      4.276
REMARK INTER + INTRA:          -3.797
REMARK INTER:                  -3.797
REMARK INTRA:                   0.000
REMARK UNBOUND:                 0.000
REMARK SMILES O=c1ccc2ccccc2o1
REMARK SMILES IDX 7 1 8 2 9 3 10 4 5 5 6 6 4 7 3 8 2 9 1 10 11 11
REMARK H PARENT
REMARK Flexibility Score: inf
ROOT
ATOM      1  C   UNL     1       4.372 -18.164  16.883  1.00  0.00     0.001 A 
ATOM      2  C   UNL     1       4.452 -17.376  18.037  1.00  0.00     0.004 A 
ATOM      3  C   UNL     1       4.139 -16.013  17.981  1.00  0.00     0.048 A 
ATOM      4  C   UNL     1       3.746 -15.433  16.770  1.00  0.00     0.138 A 
ATOM      5  C   UNL     1       3.665 -16.229  15.605  1.00  0.00     0.018 A 
ATOM      6  C   UNL     1       3.979 -17.594  15.668  1.00  0.00     0.012 A 
ATOM      7  C   UNL     1       3.269 -15.622  14.410  1.00  0.00     0.019 A 
ATOM      8  C   UNL     1       2.967 -14.260  14.402  1.00  0.00     0.094 A 
ATOM      9  C   UNL     1       3.069 -13.535  15.594  1.00  0.00     0.336 A 
ATOM     10  O   UNL     1       2.802 -12.305  15.606  1.00  0.00    -0.246 OA
ATOM     11  O   UNL     1       3.449 -14.137  16.718  1.00  0.00    -0.423 OA
ENDROOT
TORSDOF 0
ENDMDL
