MODEL 1
REMARK VINA RESULT:    -0.742      0.000      0.000
REMARK INTER + INTRA:          -1.098
REMARK INTER:                  -0.959
REMARK INTRA:                  -0.139
REMARK UNBOUND:                -0.139
REMARK SMILES C=CC(=O)CCCCC
REMARK SMILES IDX 6 1 7 2 8 3 9 4 5 5 3 6 4 7 2 8 1 9
REMARK H PARENT
REMARK Flexibility Score: inf
ROOT
ATOM      1  C   UNL     1      93.789  13.842 121.124  1.00  0.00     0.008 C 
ENDROOT
BRANCH   1   2
ATOM      2  C   UNL     1      94.087  12.348 120.958  1.00  0.00     0.000 C 
BRANCH   2   3
ATOM      3  C   UNL     1      92.791  11.532 120.893  1.00  0.00    -0.003 C 
ATOM      4  C   UNL     1      93.083  10.035 120.866  1.00  0.00     0.004 C 
ENDBRANCH   2   3
ENDBRANCH   1   2
BRANCH   1   5
ATOM      5  C   UNL     1      94.505  14.672 120.048  1.00  0.00     0.080 C 
BRANCH   5   6
ATOM      6  C   UNL     1      93.647  15.783 119.489  1.00  0.00     0.155 C 
ATOM      7  O   UNL     1      93.614  15.991 118.245  1.00  0.00    -0.295 OA
BRANCH   6   8
ATOM      8  C   UNL     1      92.833  16.654 120.360  1.00  0.00     0.039 C 
ATOM      9  C   UNL     1      92.105  17.675 119.908  1.00  0.00     0.012 C 
ENDBRANCH   6   8
ENDBRANCH   5   6
ENDBRANCH   1   5
TORSDOF 5
ENDMDL
MODEL 2
REMARK VINA RESULT:    -0.682      1.788      4.855
REMARK INTER + INTRA:          -1.020
REMARK INTER:                  -1.000
REMARK INTRA:                  -0.020
REMARK UNBOUND:                -0.139
REMARK SMILES C=CC(=O)CCCCC
REMARK SMILES IDX 6 1 7 2 8 3 9 4 5 5 3 6 4 7 2 8 1 9
REMARK H PARENT
REMARK Flexibility Score: inf
ROOT
ATOM      1  C   UNL     1      92.555  16.723 119.400  1.00  0.00     0.008 C 
ENDROOT
BRANCH   1   2
ATOM      2  C   UNL     1      92.445  17.319 120.808  1.00  0.00     0.000 C 
BRANCH   2   3
ATOM      3  C   UNL     1      91.442  18.478 120.838  1.00  0.00    -0.003 C 
ATOM      4  C   UNL     1      90.038  18.002 120.480  1.00  0.00     0.004 C 
ENDBRANCH   2   3
ENDBRANCH   1   2
BRANCH   1   5
ATOM      5  C   UNL     1      93.932  16.079 119.178  1.00  0.00     0.080 C 
BRANCH   5   6
ATOM      6  C   UNL     1      94.498  15.446 120.428  1.00  0.00     0.155 C 
ATOM      7  O   UNL     1      95.591  15.858 120.905  1.00  0.00    -0.295 OA
BRANCH   6   8
ATOM      8  C   UNL     1      93.809  14.342 121.125  1.00  0.00     0.039 C 
ATOM      9  C   UNL     1      94.093  13.055 120.927  1.00  0.00     0.012 C 
ENDBRANCH   6   8
ENDBRANCH   5   6
ENDBRANCH   1   5
TORSDOF 5
ENDMDL
MODEL 3
REMARK VINA RESULT:    -0.670      3.043      4.938
REMARK INTER + INTRA:          -1.005
REMARK INTER:                  -0.823
REMARK INTRA:                  -0.182
REMARK UNBOUND:                -0.139
REMARK SMILES C=CC(=O)CCCCC
REMARK SMILES IDX 6 1 7 2 8 3 9 4 5 5 3 6 4 7 2 8 1 9
REMARK H PARENT
REMARK Flexibility Score: inf
ROOT
ATOM      1  C   UNL     1      92.533  16.738 119.419  1.00  0.00     0.008 C 
ENDROOT
BRANCH   1   2
ATOM      2  C   UNL     1      91.692  17.997 119.654  1.00  0.00     0.000 C 
BRANCH   2   3
ATOM      3  C   UNL     1      91.093  18.004 121.065  1.00  0.00    -0.003 C 
ATOM      4  C   UNL     1      89.576  18.160 121.020  1.00  0.00     0.004 C 
ENDBRANCH   2   3
ENDBRANCH   1   2
BRANCH   1   5
ATOM      5  C   UNL     1      93.268  16.318 120.701  1.00  0.00     0.080 C 
BRANCH   5   6
ATOM      6  C   UNL     1      94.654  15.777 120.439  1.00  0.00     0.155 C 
ATOM      7  O   UNL     1      94.820  14.836 119.615  1.00  0.00    -0.295 OA
BRANCH   6   8
ATOM      8  C   UNL     1      95.845  16.317 121.125  1.00  0.00     0.039 C 
ATOM      9  C   UNL     1      96.823  16.971 120.499  1.00  0.00     0.012 C 
ENDBRANCH   6   8
ENDBRANCH   5   6
ENDBRANCH   1   5
TORSDOF 5
ENDMDL
MODEL 4
REMARK VINA RESULT:    -0.666     12.685     13.763
REMARK INTER + INTRA:          -1.000
REMARK INTER:                  -0.858
REMARK INTRA:                  -0.142
REMARK UNBOUND:                -0.139
REMARK SMILES C=CC(=O)CCCCC
REMARK SMILES IDX 6 1 7 2 8 3 9 4 5 5 3 6 4 7 2 8 1 9
REMARK H PARENT
REMARK Flexibility Score: inf
ROOT
ATOM      1  C   UNL     1      88.749   7.911 109.966  1.00  0.00     0.008 C 
ENDROOT
BRANCH   1   2
ATOM      2  C   UNL     1      87.462   7.345 110.575  1.00  0.00     0.000 C 
BRANCH   2   3
ATOM      3  C   UNL     1      87.647   7.038 112.066  1.00  0.00    -0.003 C 
ATOM      4  C   UNL     1      86.496   7.601 112.893  1.00  0.00     0.004 C 
ENDBRANCH   2   3
ENDBRANCH   1   2
BRANCH   1   5
ATOM      5  C   UNL     1      89.424   6.882 109.047  1.00  0.00     0.080 C 
BRANCH   5   6
ATOM      6  C   UNL     1      90.605   7.446 108.293  1.00  0.00     0.155 C 
ATOM      7  O   UNL     1      91.728   6.875 108.359  1.00  0.00    -0.295 OA
BRANCH   6   8
ATOM      8  C   UNL     1      90.494   8.665 107.467  1.00  0.00     0.039 C 
ATOM      9  C   UNL     1      90.387   8.648 106.139  1.00  0.00     0.012 C 
ENDBRANCH   6   8
ENDBRANCH   5   6
ENDBRANCH   1   5
TORSDOF 5
ENDMDL
MODEL 5
REMARK VINA RESULT:     0.186      2.107      3.197
REMARK INTER + INTRA:           0.102
REMARK INTER:                  -1.198
REMARK INTRA:                   1.300
REMARK UNBOUND:                -0.139
REMARK SMILES C=CC(=O)CCCCC
REMARK SMILES IDX 6 1 7 2 8 3 9 4 5 5 3 6 4 7 2 8 1 9
REMARK H PARENT
REMARK Flexibility Score: inf
ROOT
ATOM      1  C   UNL     1      94.380  16.526 118.944  1.00  0.00     0.008 C 
ENDROOT
BRANCH   1   2
ATOM      2  C   UNL     1      95.167  16.054 120.173  1.00  0.00     0.000 C 
BRANCH   2   3
ATOM      3  C   UNL     1      94.273  15.249 121.123  1.00  0.00    -0.003 C 
ATOM      4  C   UNL     1      94.275  13.767 120.759  1.00  0.00     0.004 C 
ENDBRANCH   2   3
ENDBRANCH   1   2
BRANCH   1   5
ATOM      5  C   UNL     1      92.882  16.223 119.098  1.00  0.00     0.080 C 
BRANCH   5   6
ATOM      6  C   UNL     1      92.169  17.203 119.999  1.00  0.00     0.155 C 
ATOM      7  O   UNL     1      92.656  17.497 121.125  1.00  0.00    -0.295 OA
BRANCH   6   8
ATOM      8  C   UNL     1      90.897  17.842 119.605  1.00  0.00     0.039 C 
ATOM      9  C   UNL     1      90.002  18.302 120.479  1.00  0.00     0.012 C 
ENDBRANCH   6   8
ENDBRANCH   5   6
ENDBRANCH   1   5
TORSDOF 5
ENDMDL
MODEL 6
REMARK VINA RESULT:     0.619     14.948     16.442
REMARK INTER + INTRA:           0.661
REMARK INTER:                   1.034
REMARK INTRA:                  -0.374
REMARK UNBOUND:                -0.139
REMARK SMILES C=CC(=O)CCCCC
REMARK SMILES IDX 6 1 7 2 8 3 9 4 5 5 3 6 4 7 2 8 1 9
REMARK H PARENT
REMARK Flexibility Score: inf
ROOT
ATOM      1  C   UNL     1      83.044  24.615 114.078  1.00  0.00     0.008 C 
ENDROOT
BRANCH   1   2
ATOM      2  C   UNL     1      82.053  25.783 114.028  1.00  0.00     0.000 C 
BRANCH   2   3
ATOM      3  C   UNL     1      82.787  27.124 113.925  1.00  0.00    -0.003 C 
ATOM      4  C   UNL     1      83.834  27.096 112.816  1.00  0.00     0.004 C 
ENDBRANCH   2   3
ENDBRANCH   1   2
BRANCH   1   5
ATOM      5  C   UNL     1      83.096  23.994 115.482  1.00  0.00     0.080 C 
BRANCH   5   6
ATOM      6  C   UNL     1      83.474  24.988 116.555  1.00  0.00     0.155 C 
ATOM      7  O   UNL     1      82.613  25.372 117.393  1.00  0.00    -0.295 OA
BRANCH   6   8
ATOM      8  C   UNL     1      84.840  25.540 116.661  1.00  0.00     0.039 C 
ATOM      9  C   UNL     1      85.143  26.811 116.398  1.00  0.00     0.012 C 
ENDBRANCH   6   8
ENDBRANCH   5   6
ENDBRANCH   1   5
TORSDOF 5
ENDMDL
