MODEL 1
REMARK VINA RESULT:     3.287      0.000      0.000
REMARK INTER + INTRA:           4.583
REMARK INTER:                   3.767
REMARK INTRA:                   0.816
REMARK UNBOUND:                 0.816
REMARK SMILES C=C(C)[C@H]1CC[C@@]2(C(=O)[O-])CC[C@@]3(C)[C@H](CC[C@@H]4[C@]5(C)CC[C@H](O)C(C)(C)[C@@H]5CC[C@@]43C)[C@H]12
REMARK SMILES IDX 7 1 6 2 33 3 11 4 5 5 15 6 4 7 12 8 16 9 13 10 17 11 31 12
REMARK SMILES IDX 14 13 18 14 30 15 32 16 19 17 29 18 21 19 20 20 28 21 22 22
REMARK SMILES IDX 25 23 23 24 26 25 27 26 8 27 9 28 10 29 2 30 3 31 1 32 24 33
REMARK H PARENT 24 34
REMARK Flexibility Score: inf
ROOT
ATOM      1  C   UNL     1      97.514 112.503 112.362  1.00  0.00     0.014 C 
ATOM      2  C   UNL     1      97.299 111.819 110.999  1.00  0.00     0.014 C 
ATOM      3  C   UNL     1      99.051 112.536 112.418  1.00  0.00     0.012 C 
ATOM      4  C   UNL     1      97.028 111.692 113.587  1.00  0.00     0.014 C 
ATOM      5  C   UNL     1      98.436 112.350 110.091  1.00  0.00     0.009 C 
ATOM      6  C   UNL     1      99.661 113.173 113.704  1.00  0.00     0.000 C 
ATOM      7  C   UNL     1      99.503 112.979 111.025  1.00  0.00     0.018 C 
ATOM      8  C   UNL     1      97.629 112.231 114.927  1.00  0.00     0.008 C 
ATOM      9  C   UNL     1      99.294 114.654 113.826  1.00  0.00     0.005 C 
ATOM     10  C   UNL     1      99.217 112.378 114.990  1.00  0.00    -0.024 C 
ATOM     11  C   UNL     1     100.081 115.299 114.923  1.00  0.00     0.005 C 
ATOM     12  C   UNL     1      99.754 113.099 116.380  1.00  0.00    -0.024 C 
ATOM     13  C   UNL     1      99.780 110.916 114.910  1.00  0.00     0.012 C 
ATOM     14  C   UNL     1      99.789 114.716 116.333  1.00  0.00     0.002 C 
ATOM     15  C   UNL     1     101.187 112.597 116.854  1.00  0.00     0.008 C 
ATOM     16  C   UNL     1      98.761 112.656 117.513  1.00  0.00     0.012 C 
ATOM     17  C   UNL     1     100.776 115.428 117.388  1.00  0.00    -0.026 C 
ATOM     18  C   UNL     1     102.341 113.520 116.478  1.00  0.00     0.005 C 
ATOM     19  C   UNL     1     100.647 117.002 117.278  1.00  0.00     0.010 C 
ATOM     20  C   UNL     1     100.283 115.134 118.845  1.00  0.00     0.012 C 
ATOM     21  C   UNL     1     102.282 114.870 117.250  1.00  0.00     0.003 C 
ATOM     22  C   UNL     1     101.767 117.703 116.525  1.00  0.00     0.033 C 
ATOM     23  C   UNL     1     103.479 115.862 116.851  1.00  0.00    -0.006 C 
ATOM     24  C   UNL     1     103.107 117.342 117.153  1.00  0.00     0.120 C 
ATOM     25  C   UNL     1     103.948 115.724 115.369  1.00  0.00     0.014 C 
ATOM     26  C   UNL     1     104.723 115.513 117.717  1.00  0.00     0.014 C 
ENDROOT
BRANCH   1  27
ATOM     27  C   UNL     1      96.802 113.862 112.306  1.00  0.00     0.048 C 
ATOM     28  O   UNL     1      96.086 114.178 111.319  1.00  0.00    -0.550 OA
ATOM     29  O   UNL     1      96.872 114.749 113.376  1.00  0.00    -0.550 OA
ENDBRANCH   1  27
BRANCH   7  30
ATOM     30  C   UNL     1     100.938 112.571 110.700  1.00  0.00    -0.077 C 
ATOM     31  C   UNL     1     101.203 111.267 109.994  1.00  0.00     0.039 C 
ATOM     32  C   UNL     1     101.984 113.359 111.004  1.00  0.00     0.008 C 
ENDBRANCH   7  30
BRANCH  24  33
ATOM     33  O   UNL     1     104.084 118.231 116.666  1.00  0.00    -0.393 OA
ATOM     34  H   UNL     1     104.217 118.933 117.354  1.00  0.00     0.210 HD
ENDBRANCH  24  33
TORSDOF 3
ENDMDL
