MODEL 1
REMARK VINA RESULT:    -5.171      0.000      0.000
REMARK INTER + INTRA:         -10.238
REMARK INTER:                  -9.706
REMARK INTRA:                  -0.532
REMARK UNBOUND:                -0.532
REMARK SMILES O=C([O-])CCCCCCCCCCCCCCC(=O)[O-]
REMARK SMILES IDX 10 1 9 2 8 3 7 4 6 5 5 6 4 7 2 8 1 9 3 10 11 11 12 12 13 13
REMARK SMILES IDX 14 14 15 15 16 16 17 17 18 18 19 19 20 20
REMARK H PARENT
REMARK Flexibility Score: inf
ROOT
ATOM      1  C   UNL     1      -8.787 -12.814   7.097  1.00  0.00     0.000 C 
ENDROOT
BRANCH   1   2
ATOM      2  C   UNL     1      -9.821 -11.690   7.282  1.00  0.00     0.000 C 
BRANCH   2   3
ATOM      3  C   UNL     1     -10.828 -11.607   6.121  1.00  0.00     0.000 C 
BRANCH   3   4
ATOM      4  C   UNL     1     -11.360 -10.192   5.810  1.00  0.00     0.000 C 
BRANCH   4   5
ATOM      5  C   UNL     1     -12.463  -9.687   6.755  1.00  0.00     0.000 C 
BRANCH   5   6
ATOM      6  C   UNL     1     -13.549 -10.743   7.025  1.00  0.00     0.006 C 
BRANCH   6   7
ATOM      7  C   UNL     1     -14.921 -10.109   7.283  1.00  0.00     0.053 C 
BRANCH   7   8
ATOM      8  C   UNL     1     -15.172  -9.904   8.745  1.00  0.00     0.041 C 
ATOM      9  O   UNL     1     -16.248  -9.380   9.136  1.00  0.00    -0.550 OA
ATOM     10  O   UNL     1     -14.234 -10.327   9.678  1.00  0.00    -0.550 OA
ENDBRANCH   7   8
ENDBRANCH   6   7
ENDBRANCH   5   6
ENDBRANCH   4   5
ENDBRANCH   3   4
ENDBRANCH   2   3
ENDBRANCH   1   2
BRANCH   1  11
ATOM     11  C   UNL     1      -8.793 -13.388   5.672  1.00  0.00     0.000 C 
BRANCH  11  12
ATOM     12  C   UNL     1      -7.378 -13.701   5.153  1.00  0.00     0.000 C 
BRANCH  12  13
ATOM     13  C   UNL     1      -6.801 -14.997   5.749  1.00  0.00     0.000 C 
BRANCH  13  14
ATOM     14  C   UNL     1      -5.960 -15.845   4.773  1.00  0.00     0.000 C 
BRANCH  14  15
ATOM     15  C   UNL     1      -4.495 -16.068   5.193  1.00  0.00     0.000 C 
BRANCH  15  16
ATOM     16  C   UNL     1      -3.682 -16.832   4.139  1.00  0.00     0.006 C 
BRANCH  16  17
ATOM     17  C   UNL     1      -2.186 -16.789   4.464  1.00  0.00     0.053 C 
BRANCH  17  18
ATOM     18  C   UNL     1      -1.501 -18.014   3.947  1.00  0.00     0.041 C 
ATOM     19  O   UNL     1      -0.897 -18.785   4.741  1.00  0.00    -0.550 OA
ATOM     20  O   UNL     1      -1.485 -18.281   2.585  1.00  0.00    -0.550 OA
ENDBRANCH  17  18
ENDBRANCH  16  17
ENDBRANCH  15  16
ENDBRANCH  14  15
ENDBRANCH  13  14
ENDBRANCH  12  13
ENDBRANCH  11  12
ENDBRANCH   1  11
TORSDOF 15
ENDMDL
MODEL 2
REMARK VINA RESULT:    -4.941      2.571      3.152
REMARK INTER + INTRA:          -9.806
REMARK INTER:                  -8.982
REMARK INTRA:                  -0.824
REMARK UNBOUND:                -0.532
REMARK SMILES O=C([O-])CCCCCCCCCCCCCCC(=O)[O-]
REMARK SMILES IDX 10 1 9 2 8 3 7 4 6 5 5 6 4 7 2 8 1 9 3 10 11 11 12 12 13 13
REMARK SMILES IDX 14 14 15 15 16 16 17 17 18 18 19 19 20 20
REMARK H PARENT
REMARK Flexibility Score: inf
ROOT
ATOM      1  C   UNL     1      -9.353 -13.102   6.221  1.00  0.00     0.000 C 
ENDROOT
BRANCH   1   2
ATOM      2  C   UNL     1     -10.502 -12.130   5.905  1.00  0.00     0.000 C 
BRANCH   2   3
ATOM      3  C   UNL     1     -10.220 -10.694   6.382  1.00  0.00     0.000 C 
BRANCH   3   4
ATOM      4  C   UNL     1     -11.327  -9.665   6.070  1.00  0.00     0.000 C 
BRANCH   4   5
ATOM      5  C   UNL     1     -12.130  -9.180   7.289  1.00  0.00     0.000 C 
BRANCH   5   6
ATOM      6  C   UNL     1     -13.089 -10.250   7.837  1.00  0.00     0.006 C 
BRANCH   6   7
ATOM      7  C   UNL     1     -14.075  -9.673   8.860  1.00  0.00     0.053 C 
BRANCH   7   8
ATOM      8  C   UNL     1     -15.478  -9.662   8.334  1.00  0.00     0.041 C 
ATOM      9  O   UNL     1     -15.715 -10.035   7.156  1.00  0.00    -0.550 OA
ATOM     10  O   UNL     1     -16.527  -9.277   9.159  1.00  0.00    -0.550 OA
ENDBRANCH   7   8
ENDBRANCH   6   7
ENDBRANCH   5   6
ENDBRANCH   4   5
ENDBRANCH   3   4
ENDBRANCH   2   3
ENDBRANCH   1   2
BRANCH   1  11
ATOM     11  C   UNL     1      -8.769 -13.751   4.957  1.00  0.00     0.000 C 
BRANCH  11  12
ATOM     12  C   UNL     1      -7.239 -13.907   5.025  1.00  0.00     0.000 C 
BRANCH  12  13
ATOM     13  C   UNL     1      -6.749 -14.373   6.408  1.00  0.00     0.000 C 
BRANCH  13  14
ATOM     14  C   UNL     1      -5.731 -15.530   6.381  1.00  0.00     0.000 C 
BRANCH  14  15
ATOM     15  C   UNL     1      -5.326 -16.014   4.977  1.00  0.00     0.000 C 
BRANCH  15  16
ATOM     16  C   UNL     1      -5.688 -17.485   4.725  1.00  0.00     0.006 C 
BRANCH  16  17
ATOM     17  C   UNL     1      -7.065 -17.817   5.305  1.00  0.00     0.053 C 
BRANCH  17  18
ATOM     18  C   UNL     1      -7.658 -19.001   4.609  1.00  0.00     0.041 C 
ATOM     19  O   UNL     1      -8.663 -18.860   3.863  1.00  0.00    -0.550 OA
ATOM     20  O   UNL     1      -7.131 -20.268   4.821  1.00  0.00    -0.550 OA
ENDBRANCH  17  18
ENDBRANCH  16  17
ENDBRANCH  15  16
ENDBRANCH  14  15
ENDBRANCH  13  14
ENDBRANCH  12  13
ENDBRANCH  11  12
ENDBRANCH   1  11
TORSDOF 15
ENDMDL
MODEL 3
REMARK VINA RESULT:    -4.940      3.508     10.949
REMARK INTER + INTRA:          -9.803
REMARK INTER:                  -8.982
REMARK INTRA:                  -0.821
REMARK UNBOUND:                -0.532
REMARK SMILES O=C([O-])CCCCCCCCCCCCCCC(=O)[O-]
REMARK SMILES IDX 10 1 9 2 8 3 7 4 6 5 5 6 4 7 2 8 1 9 3 10 11 11 12 12 13 13
REMARK SMILES IDX 14 14 15 15 16 16 17 17 18 18 19 19 20 20
REMARK H PARENT
REMARK Flexibility Score: inf
ROOT
ATOM      1  C   UNL     1      -7.249 -14.285   5.667  1.00  0.00     0.000 C 
ENDROOT
BRANCH   1   2
ATOM      2  C   UNL     1      -6.364 -15.412   5.106  1.00  0.00     0.000 C 
BRANCH   2   3
ATOM      3  C   UNL     1      -6.491 -16.723   5.901  1.00  0.00     0.000 C 
BRANCH   3   4
ATOM      4  C   UNL     1      -7.045 -17.925   5.107  1.00  0.00     0.000 C 
BRANCH   4   5
ATOM      5  C   UNL     1      -8.324 -17.641   4.302  1.00  0.00     0.000 C 
BRANCH   5   6
ATOM      6  C   UNL     1      -8.984 -18.918   3.755  1.00  0.00     0.006 C 
BRANCH   6   7
ATOM      7  C   UNL     1      -7.984 -20.073   3.620  1.00  0.00     0.053 C 
BRANCH   7   8
ATOM      8  C   UNL     1      -8.519 -21.343   4.207  1.00  0.00     0.041 C 
ATOM      9  O   UNL     1      -9.449 -21.306   5.055  1.00  0.00    -0.550 OA
ATOM     10  O   UNL     1      -8.016 -22.568   3.790  1.00  0.00    -0.550 OA
ENDBRANCH   7   8
ENDBRANCH   6   7
ENDBRANCH   5   6
ENDBRANCH   4   5
ENDBRANCH   3   4
ENDBRANCH   2   3
ENDBRANCH   1   2
BRANCH   1  11
ATOM     11  C   UNL     1      -8.449 -13.975   4.759  1.00  0.00     0.000 C 
BRANCH  11  12
ATOM     12  C   UNL     1      -9.550 -13.180   5.483  1.00  0.00     0.000 C 
BRANCH  12  13
ATOM     13  C   UNL     1      -9.006 -12.347   6.657  1.00  0.00     0.000 C 
BRANCH  13  14
ATOM     14  C   UNL     1     -10.029 -11.393   7.308  1.00  0.00     0.000 C 
BRANCH  14  15
ATOM     15  C   UNL     1     -11.378 -11.280   6.573  1.00  0.00     0.000 C 
BRANCH  15  16
ATOM     16  C   UNL     1     -12.235 -10.111   7.078  1.00  0.00     0.006 C 
BRANCH  16  17
ATOM     17  C   UNL     1     -13.715 -10.339   6.758  1.00  0.00     0.053 C 
BRANCH  17  18
ATOM     18  C   UNL     1     -14.563 -10.043   7.954  1.00  0.00     0.041 C 
ATOM     19  O   UNL     1     -14.068 -10.101   9.112  1.00  0.00    -0.550 OA
ATOM     20  O   UNL     1     -15.911  -9.752   7.797  1.00  0.00    -0.550 OA
ENDBRANCH  17  18
ENDBRANCH  16  17
ENDBRANCH  15  16
ENDBRANCH  14  15
ENDBRANCH  13  14
ENDBRANCH  12  13
ENDBRANCH  11  12
ENDBRANCH   1  11
TORSDOF 15
ENDMDL
MODEL 4
REMARK VINA RESULT:    -4.917      0.900     11.868
REMARK INTER + INTRA:          -9.760
REMARK INTER:                  -8.985
REMARK INTRA:                  -0.775
REMARK UNBOUND:                -0.532
REMARK SMILES O=C([O-])CCCCCCCCCCCCCCC(=O)[O-]
REMARK SMILES IDX 10 1 9 2 8 3 7 4 6 5 5 6 4 7 2 8 1 9 3 10 11 11 12 12 13 13
REMARK SMILES IDX 14 14 15 15 16 16 17 17 18 18 19 19 20 20
REMARK H PARENT
REMARK Flexibility Score: inf
ROOT
ATOM      1  C   UNL     1      -8.026 -13.376   5.871  1.00  0.00     0.000 C 
ENDROOT
BRANCH   1   2
ATOM      2  C   UNL     1      -7.190 -14.069   4.781  1.00  0.00     0.000 C 
BRANCH   2   3
ATOM      3  C   UNL     1      -6.730 -15.480   5.188  1.00  0.00     0.000 C 
BRANCH   3   4
ATOM      4  C   UNL     1      -5.403 -15.540   5.973  1.00  0.00     0.000 C 
BRANCH   4   5
ATOM      5  C   UNL     1      -4.520 -16.763   5.669  1.00  0.00     0.000 C 
BRANCH   5   6
ATOM      6  C   UNL     1      -4.025 -16.797   4.213  1.00  0.00     0.006 C 
BRANCH   6   7
ATOM      7  C   UNL     1      -2.530 -16.476   4.103  1.00  0.00     0.053 C 
BRANCH   7   8
ATOM      8  C   UNL     1      -1.708 -17.717   3.930  1.00  0.00     0.041 C 
ATOM      9  O   UNL     1      -1.255 -18.323   4.937  1.00  0.00    -0.550 OA
ATOM     10  O   UNL     1      -1.474 -18.225   2.659  1.00  0.00    -0.550 OA
ENDBRANCH   7   8
ENDBRANCH   6   7
ENDBRANCH   5   6
ENDBRANCH   4   5
ENDBRANCH   3   4
ENDBRANCH   2   3
ENDBRANCH   1   2
BRANCH   1  11
ATOM     11  C   UNL     1      -9.503 -13.228   5.471  1.00  0.00     0.000 C 
BRANCH  11  12
ATOM     12  C   UNL     1     -10.369 -12.655   6.607  1.00  0.00     0.000 C 
BRANCH  12  13
ATOM     13  C   UNL     1      -9.892 -11.269   7.077  1.00  0.00     0.000 C 
BRANCH  13  14
ATOM     14  C   UNL     1     -10.484 -10.078   6.296  1.00  0.00     0.000 C 
BRANCH  14  15
ATOM     15  C   UNL     1     -11.962 -10.230   5.891  1.00  0.00     0.000 C 
BRANCH  15  16
ATOM     16  C   UNL     1     -12.916  -9.457   6.813  1.00  0.00     0.006 C 
BRANCH  16  17
ATOM     17  C   UNL     1     -13.463 -10.364   7.919  1.00  0.00     0.053 C 
BRANCH  17  18
ATOM     18  C   UNL     1     -14.927 -10.129   8.115  1.00  0.00     0.041 C 
ATOM     19  O   UNL     1     -15.690 -10.017   7.118  1.00  0.00    -0.550 OA
ATOM     20  O   UNL     1     -15.444  -9.983   9.395  1.00  0.00    -0.550 OA
ENDBRANCH  17  18
ENDBRANCH  16  17
ENDBRANCH  15  16
ENDBRANCH  14  15
ENDBRANCH  13  14
ENDBRANCH  12  13
ENDBRANCH  11  12
ENDBRANCH   1  11
TORSDOF 15
ENDMDL
MODEL 5
REMARK VINA RESULT:    -4.759     12.325     13.200
REMARK INTER + INTRA:          -9.465
REMARK INTER:                  -7.826
REMARK INTRA:                  -1.639
REMARK UNBOUND:                -0.532
REMARK SMILES O=C([O-])CCCCCCCCCCCCCCC(=O)[O-]
REMARK SMILES IDX 10 1 9 2 8 3 7 4 6 5 5 6 4 7 2 8 1 9 3 10 11 11 12 12 13 13
REMARK SMILES IDX 14 14 15 15 16 16 17 17 18 18 19 19 20 20
REMARK H PARENT
REMARK Flexibility Score: inf
ROOT
ATOM      1  C   UNL     1      -9.694 -18.821  14.034  1.00  0.00     0.000 C 
ENDROOT
BRANCH   1   2
ATOM      2  C   UNL     1     -10.037 -20.259  14.460  1.00  0.00     0.000 C 
BRANCH   2   3
ATOM      3  C   UNL     1     -11.183 -20.321  15.485  1.00  0.00     0.000 C 
BRANCH   3   4
ATOM      4  C   UNL     1     -10.886 -21.143  16.758  1.00  0.00     0.000 C 
BRANCH   4   5
ATOM      5  C   UNL     1     -10.144 -20.380  17.868  1.00  0.00     0.000 C 
BRANCH   5   6
ATOM      6  C   UNL     1     -10.864 -20.449  19.226  1.00  0.00     0.006 C 
BRANCH   6   7
ATOM      7  C   UNL     1     -12.357 -20.121  19.106  1.00  0.00     0.053 C 
BRANCH   7   8
ATOM      8  C   UNL     1     -12.625 -18.665  19.339  1.00  0.00     0.041 C 
ATOM      9  O   UNL     1     -13.754 -18.178  19.068  1.00  0.00    -0.550 OA
ATOM     10  O   UNL     1     -11.641 -17.856  19.892  1.00  0.00    -0.550 OA
ENDBRANCH   7   8
ENDBRANCH   6   7
ENDBRANCH   5   6
ENDBRANCH   4   5
ENDBRANCH   3   4
ENDBRANCH   2   3
ENDBRANCH   1   2
BRANCH   1  11
ATOM     11  C   UNL     1      -8.476 -18.261  14.785  1.00  0.00     0.000 C 
BRANCH  11  12
ATOM     12  C   UNL     1      -7.246 -19.181  14.687  1.00  0.00     0.000 C 
BRANCH  12  13
ATOM     13  C   UNL     1      -6.634 -19.502  16.062  1.00  0.00     0.000 C 
BRANCH  13  14
ATOM     14  C   UNL     1      -6.198 -20.969  16.254  1.00  0.00     0.000 C 
BRANCH  14  15
ATOM     15  C   UNL     1      -7.315 -22.013  16.072  1.00  0.00     0.000 C 
BRANCH  15  16
ATOM     16  C   UNL     1      -6.900 -23.178  15.161  1.00  0.00     0.006 C 
BRANCH  16  17
ATOM     17  C   UNL     1      -5.771 -23.994  15.795  1.00  0.00     0.053 C 
BRANCH  17  18
ATOM     18  C   UNL     1      -5.241 -25.001  14.824  1.00  0.00     0.041 C 
ATOM     19  O   UNL     1      -5.998 -25.490  13.942  1.00  0.00    -0.550 OA
ATOM     20  O   UNL     1      -3.927 -25.438  14.921  1.00  0.00    -0.550 OA
ENDBRANCH  17  18
ENDBRANCH  16  17
ENDBRANCH  15  16
ENDBRANCH  14  15
ENDBRANCH  13  14
ENDBRANCH  12  13
ENDBRANCH  11  12
ENDBRANCH   1  11
TORSDOF 15
ENDMDL
MODEL 6
REMARK VINA RESULT:    -4.697      3.049      3.635
REMARK INTER + INTRA:          -9.347
REMARK INTER:                  -8.112
REMARK INTRA:                  -1.234
REMARK UNBOUND:                -0.532
REMARK SMILES O=C([O-])CCCCCCCCCCCCCCC(=O)[O-]
REMARK SMILES IDX 10 1 9 2 8 3 7 4 6 5 5 6 4 7 2 8 1 9 3 10 11 11 12 12 13 13
REMARK SMILES IDX 14 14 15 15 16 16 17 17 18 18 19 19 20 20
REMARK H PARENT
REMARK Flexibility Score: inf
ROOT
ATOM      1  C   UNL     1      -9.532 -11.573   6.518  1.00  0.00     0.000 C 
ENDROOT
BRANCH   1   2
ATOM      2  C   UNL     1     -10.928 -11.687   5.882  1.00  0.00     0.000 C 
BRANCH   2   3
ATOM      3  C   UNL     1     -11.698 -10.355   5.886  1.00  0.00     0.000 C 
BRANCH   3   4
ATOM      4  C   UNL     1     -13.013 -10.356   6.694  1.00  0.00     0.000 C 
BRANCH   4   5
ATOM      5  C   UNL     1     -13.117  -9.263   7.772  1.00  0.00     0.000 C 
BRANCH   5   6
ATOM      6  C   UNL     1     -11.939  -9.285   8.761  1.00  0.00     0.006 C 
BRANCH   6   7
ATOM      7  C   UNL     1     -11.924 -10.558   9.615  1.00  0.00     0.053 C 
BRANCH   7   8
ATOM      8  C   UNL     1     -10.577 -10.801  10.225  1.00  0.00     0.041 C 
ATOM      9  O   UNL     1     -10.443 -11.646  11.149  1.00  0.00    -0.550 OA
ATOM     10  O   UNL     1      -9.464 -10.123   9.746  1.00  0.00    -0.550 OA
ENDBRANCH   7   8
ENDBRANCH   6   7
ENDBRANCH   5   6
ENDBRANCH   4   5
ENDBRANCH   3   4
ENDBRANCH   2   3
ENDBRANCH   1   2
BRANCH   1  11
ATOM     11  C   UNL     1      -8.835 -12.936   6.652  1.00  0.00     0.000 C 
BRANCH  11  12
ATOM     12  C   UNL     1      -8.608 -13.621   5.292  1.00  0.00     0.000 C 
BRANCH  12  13
ATOM     13  C   UNL     1      -7.166 -14.129   5.117  1.00  0.00     0.000 C 
BRANCH  13  14
ATOM     14  C   UNL     1      -6.484 -14.612   6.412  1.00  0.00     0.000 C 
BRANCH  14  15
ATOM     15  C   UNL     1      -5.370 -15.658   6.216  1.00  0.00     0.000 C 
BRANCH  15  16
ATOM     16  C   UNL     1      -5.300 -16.191   4.777  1.00  0.00     0.006 C 
BRANCH  16  17
ATOM     17  C   UNL     1      -5.433 -17.716   4.751  1.00  0.00     0.053 C 
BRANCH  17  18
ATOM     18  C   UNL     1      -6.777 -18.135   5.257  1.00  0.00     0.041 C 
ATOM     19  O   UNL     1      -6.868 -18.963   6.202  1.00  0.00    -0.550 OA
ATOM     20  O   UNL     1      -7.929 -17.650   4.654  1.00  0.00    -0.550 OA
ENDBRANCH  17  18
ENDBRANCH  16  17
ENDBRANCH  15  16
ENDBRANCH  14  15
ENDBRANCH  13  14
ENDBRANCH  12  13
ENDBRANCH  11  12
ENDBRANCH   1  11
TORSDOF 15
ENDMDL
MODEL 7
REMARK VINA RESULT:    -4.623      5.599      8.100
REMARK INTER + INTRA:          -9.208
REMARK INTER:                  -7.075
REMARK INTRA:                  -2.133
REMARK UNBOUND:                -0.532
REMARK SMILES O=C([O-])CCCCCCCCCCCCCCC(=O)[O-]
REMARK SMILES IDX 10 1 9 2 8 3 7 4 6 5 5 6 4 7 2 8 1 9 3 10 11 11 12 12 13 13
REMARK SMILES IDX 14 14 15 15 16 16 17 17 18 18 19 19 20 20
REMARK H PARENT
REMARK Flexibility Score: inf
ROOT
ATOM      1  C   UNL     1      -1.648 -16.926   4.905  1.00  0.00     0.000 C 
ENDROOT
BRANCH   1   2
ATOM      2  C   UNL     1      -1.612 -15.522   5.533  1.00  0.00     0.000 C 
BRANCH   2   3
ATOM      3  C   UNL     1      -2.167 -15.494   6.969  1.00  0.00     0.000 C 
BRANCH   3   4
ATOM      4  C   UNL     1      -3.522 -16.205   7.166  1.00  0.00     0.000 C 
BRANCH   4   5
ATOM      5  C   UNL     1      -4.761 -15.340   6.880  1.00  0.00     0.000 C 
BRANCH   5   6
ATOM      6  C   UNL     1      -5.346 -15.578   5.477  1.00  0.00     0.006 C 
BRANCH   6   7
ATOM      7  C   UNL     1      -6.879 -15.622   5.489  1.00  0.00     0.053 C 
BRANCH   7   8
ATOM      8  C   UNL     1      -7.473 -14.246   5.500  1.00  0.00     0.041 C 
ATOM      9  O   UNL     1      -7.679 -13.637   4.418  1.00  0.00    -0.550 OA
ATOM     10  O   UNL     1      -7.834 -13.654   6.703  1.00  0.00    -0.550 OA
ENDBRANCH   7   8
ENDBRANCH   6   7
ENDBRANCH   5   6
ENDBRANCH   4   5
ENDBRANCH   3   4
ENDBRANCH   2   3
ENDBRANCH   1   2
BRANCH   1  11
ATOM     11  C   UNL     1      -2.464 -16.966   3.604  1.00  0.00     0.000 C 
BRANCH  11  12
ATOM     12  C   UNL     1      -3.421 -18.170   3.542  1.00  0.00     0.000 C 
BRANCH  12  13
ATOM     13  C   UNL     1      -3.415 -19.001   4.837  1.00  0.00     0.000 C 
BRANCH  13  14
ATOM     14  C   UNL     1      -4.810 -19.330   5.406  1.00  0.00     0.000 C 
BRANCH  14  15
ATOM     15  C   UNL     1      -5.974 -19.192   4.407  1.00  0.00     0.000 C 
BRANCH  15  16
ATOM     16  C   UNL     1      -7.345 -19.124   5.095  1.00  0.00     0.006 C 
BRANCH  16  17
ATOM     17  C   UNL     1      -8.477 -19.289   4.076  1.00  0.00     0.053 C 
BRANCH  17  18
ATOM     18  C   UNL     1      -8.883 -20.725   3.970  1.00  0.00     0.041 C 
ATOM     19  O   UNL     1      -9.597 -21.249   4.866  1.00  0.00    -0.550 OA
ATOM     20  O   UNL     1      -8.432 -21.498   2.909  1.00  0.00    -0.550 OA
ENDBRANCH  17  18
ENDBRANCH  16  17
ENDBRANCH  15  16
ENDBRANCH  14  15
ENDBRANCH  13  14
ENDBRANCH  12  13
ENDBRANCH  11  12
ENDBRANCH   1  11
TORSDOF 15
ENDMDL
MODEL 8
REMARK VINA RESULT:    -4.577      1.809      2.295
REMARK INTER + INTRA:          -9.122
REMARK INTER:                  -8.260
REMARK INTRA:                  -0.862
REMARK UNBOUND:                -0.532
REMARK SMILES O=C([O-])CCCCCCCCCCCCCCC(=O)[O-]
REMARK SMILES IDX 10 1 9 2 8 3 7 4 6 5 5 6 4 7 2 8 1 9 3 10 11 11 12 12 13 13
REMARK SMILES IDX 14 14 15 15 16 16 17 17 18 18 19 19 20 20
REMARK H PARENT
REMARK Flexibility Score: inf
ROOT
ATOM      1  C   UNL     1      -9.239 -11.841   6.952  1.00  0.00     0.000 C 
ENDROOT
BRANCH   1   2
ATOM      2  C   UNL     1      -9.189 -10.338   6.631  1.00  0.00     0.000 C 
BRANCH   2   3
ATOM      3  C   UNL     1      -9.304  -9.454   7.885  1.00  0.00     0.000 C 
BRANCH   3   4
ATOM      4  C   UNL     1     -10.710  -8.882   8.163  1.00  0.00     0.000 C 
BRANCH   4   5
ATOM      5  C   UNL     1     -11.413  -9.455   9.406  1.00  0.00     0.000 C 
BRANCH   5   6
ATOM      6  C   UNL     1     -12.592 -10.378   9.054  1.00  0.00     0.006 C 
BRANCH   6   7
ATOM      7  C   UNL     1     -13.945  -9.749   9.408  1.00  0.00     0.053 C 
BRANCH   7   8
ATOM      8  C   UNL     1     -14.942  -9.917   8.302  1.00  0.00     0.041 C 
ATOM      9  O   UNL     1     -16.157  -9.655   8.499  1.00  0.00    -0.550 OA
ATOM     10  O   UNL     1     -14.521 -10.327   7.043  1.00  0.00    -0.550 OA
ENDBRANCH   7   8
ENDBRANCH   6   7
ENDBRANCH   5   6
ENDBRANCH   4   5
ENDBRANCH   3   4
ENDBRANCH   2   3
ENDBRANCH   1   2
BRANCH   1  11
ATOM     11  C   UNL     1     -10.012 -12.642   5.893  1.00  0.00     0.000 C 
BRANCH  11  12
ATOM     12  C   UNL     1      -9.147 -13.724   5.221  1.00  0.00     0.000 C 
BRANCH  12  13
ATOM     13  C   UNL     1      -7.641 -13.421   5.310  1.00  0.00     0.000 C 
BRANCH  13  14
ATOM     14  C   UNL     1      -6.790 -14.534   5.955  1.00  0.00     0.000 C 
BRANCH  14  15
ATOM     15  C   UNL     1      -6.671 -15.829   5.130  1.00  0.00     0.000 C 
BRANCH  15  16
ATOM     16  C   UNL     1      -5.631 -16.804   5.697  1.00  0.00     0.006 C 
BRANCH  16  17
ATOM     17  C   UNL     1      -4.633 -17.230   4.617  1.00  0.00     0.053 C 
BRANCH  17  18
ATOM     18  C   UNL     1      -3.364 -16.448   4.736  1.00  0.00     0.041 C 
ATOM     19  O   UNL     1      -3.150 -15.738   5.755  1.00  0.00    -0.550 OA
ATOM     20  O   UNL     1      -2.439 -16.461   3.700  1.00  0.00    -0.550 OA
ENDBRANCH  17  18
ENDBRANCH  16  17
ENDBRANCH  15  16
ENDBRANCH  14  15
ENDBRANCH  13  14
ENDBRANCH  12  13
ENDBRANCH  11  12
ENDBRANCH   1  11
TORSDOF 15
ENDMDL
MODEL 9
REMARK VINA RESULT:    -4.576      4.499      7.566
REMARK INTER + INTRA:          -9.121
REMARK INTER:                  -7.577
REMARK INTRA:                  -1.543
REMARK UNBOUND:                -0.532
REMARK SMILES O=C([O-])CCCCCCCCCCCCCCC(=O)[O-]
REMARK SMILES IDX 10 1 9 2 8 3 7 4 6 5 5 6 4 7 2 8 1 9 3 10 11 11 12 12 13 13
REMARK SMILES IDX 14 14 15 15 16 16 17 17 18 18 19 19 20 20
REMARK H PARENT
REMARK Flexibility Score: inf
ROOT
ATOM      1  C   UNL     1      -2.189 -17.998   3.259  1.00  0.00     0.000 C 
ENDROOT
BRANCH   1   2
ATOM      2  C   UNL     1      -2.725 -16.824   4.097  1.00  0.00     0.000 C 
BRANCH   2   3
ATOM      3  C   UNL     1      -4.261 -16.726   4.075  1.00  0.00     0.000 C 
BRANCH   3   4
ATOM      4  C   UNL     1      -4.890 -15.965   5.260  1.00  0.00     0.000 C 
BRANCH   4   5
ATOM      5  C   UNL     1      -6.413 -15.765   5.173  1.00  0.00     0.000 C 
BRANCH   5   6
ATOM      6  C   UNL     1      -6.885 -14.466   5.848  1.00  0.00     0.006 C 
BRANCH   6   7
ATOM      7  C   UNL     1      -8.023 -13.792   5.072  1.00  0.00     0.053 C 
BRANCH   7   8
ATOM      8  C   UNL     1      -9.015 -13.146   5.991  1.00  0.00     0.041 C 
ATOM      9  O   UNL     1      -8.722 -12.946   7.199  1.00  0.00    -0.550 OA
ATOM     10  O   UNL     1     -10.247 -12.731   5.504  1.00  0.00    -0.550 OA
ENDBRANCH   7   8
ENDBRANCH   6   7
ENDBRANCH   5   6
ENDBRANCH   4   5
ENDBRANCH   3   4
ENDBRANCH   2   3
ENDBRANCH   1   2
BRANCH   1  11
ATOM     11  C   UNL     1      -2.204 -19.326   4.032  1.00  0.00     0.000 C 
BRANCH  11  12
ATOM     12  C   UNL     1      -2.130 -19.125   5.556  1.00  0.00     0.000 C 
BRANCH  12  13
ATOM     13  C   UNL     1      -3.218 -19.907   6.312  1.00  0.00     0.000 C 
BRANCH  13  14
ATOM     14  C   UNL     1      -4.570 -20.016   5.579  1.00  0.00     0.000 C 
BRANCH  14  15
ATOM     15  C   UNL     1      -5.768 -19.389   6.316  1.00  0.00     0.000 C 
BRANCH  15  16
ATOM     16  C   UNL     1      -7.120 -19.921   5.819  1.00  0.00     0.006 C 
BRANCH  16  17
ATOM     17  C   UNL     1      -7.678 -19.038   4.700  1.00  0.00     0.053 C 
BRANCH  17  18
ATOM     18  C   UNL     1      -8.501 -19.850   3.750  1.00  0.00     0.041 C 
ATOM     19  O   UNL     1      -9.275 -19.280   2.936  1.00  0.00    -0.550 OA
ATOM     20  O   UNL     1      -8.451 -21.236   3.797  1.00  0.00    -0.550 OA
ENDBRANCH  17  18
ENDBRANCH  16  17
ENDBRANCH  15  16
ENDBRANCH  14  15
ENDBRANCH  13  14
ENDBRANCH  12  13
ENDBRANCH  11  12
ENDBRANCH   1  11
TORSDOF 15
ENDMDL
