MODEL 1
REMARK VINA RESULT:    -2.130      0.000      0.000
REMARK INTER + INTRA:          -3.087
REMARK INTER:                  -2.877
REMARK INTRA:                  -0.209
REMARK UNBOUND:                -0.209
REMARK SMILES CCCCCCC=CC(=O)[O-]
REMARK SMILES IDX 5 1 6 2 7 3 8 4 9 5 10 6 11 7 4 8 3 9 2 10 1 11
REMARK H PARENT
REMARK Flexibility Score: inf
ROOT
ATOM      1  C   UNL     1      -8.266  52.027  -5.029  1.00  0.00     0.004 C 
ENDROOT
BRANCH   1   2
ATOM      2  C   UNL     1      -6.901  52.124  -5.729  1.00  0.00     0.027 C 
BRANCH   2   3
ATOM      3  C   UNL     1      -7.025  52.125  -7.227  1.00  0.00    -0.025 C 
ATOM      4  C   UNL     1      -7.481  51.058  -7.893  1.00  0.00     0.020 C 
BRANCH   4   5
ATOM      5  C   UNL     1      -7.618  51.041  -9.358  1.00  0.00     0.064 C 
ATOM      6  O   UNL     1      -6.739  51.553 -10.100  1.00  0.00    -0.545 OA
ATOM      7  O   UNL     1      -8.735  50.448  -9.933  1.00  0.00    -0.545 OA
ENDBRANCH   4   5
ENDBRANCH   2   3
ENDBRANCH   1   2
BRANCH   1   8
ATOM      8  C   UNL     1      -8.131  52.022  -3.497  1.00  0.00     0.000 C 
BRANCH   8   9
ATOM      9  C   UNL     1      -8.721  50.756  -2.856  1.00  0.00    -0.000 C 
BRANCH   9  10
ATOM     10  C   UNL     1      -8.546  50.729  -1.330  1.00  0.00    -0.003 C 
ATOM     11  C   UNL     1      -7.570  51.808  -0.870  1.00  0.00     0.004 C 
ENDBRANCH   9  10
ENDBRANCH   8   9
ENDBRANCH   1   8
TORSDOF 6
ENDMDL
MODEL 2
REMARK VINA RESULT:    -1.459     24.590     25.485
REMARK INTER + INTRA:          -2.180
REMARK INTER:                  -2.692
REMARK INTRA:                   0.512
REMARK UNBOUND:                -0.209
REMARK SMILES CCCCCCC=CC(=O)[O-]
REMARK SMILES IDX 5 1 6 2 7 3 8 4 9 5 10 6 11 7 4 8 3 9 2 10 1 11
REMARK H PARENT
REMARK Flexibility Score: inf
ROOT
ATOM      1  C   UNL     1       8.507  34.015 -10.125  1.00  0.00     0.004 C 
ENDROOT
BRANCH   1   2
ATOM      2  C   UNL     1      10.033  33.903  -9.980  1.00  0.00     0.027 C 
BRANCH   2   3
ATOM      3  C   UNL     1      10.438  33.208  -8.710  1.00  0.00    -0.025 C 
ATOM      4  C   UNL     1       9.550  32.934  -7.748  1.00  0.00     0.020 C 
BRANCH   4   5
ATOM      5  C   UNL     1       9.924  32.246  -6.502  1.00  0.00     0.064 C 
ATOM      6  O   UNL     1      11.124  31.956  -6.253  1.00  0.00    -0.545 OA
ATOM      7  O   UNL     1       8.937  31.914  -5.583  1.00  0.00    -0.545 OA
ENDBRANCH   4   5
ENDBRANCH   2   3
ENDBRANCH   1   2
BRANCH   1   8
ATOM      8  C   UNL     1       7.822  32.637 -10.104  1.00  0.00     0.000 C 
BRANCH   8   9
ATOM      9  C   UNL     1       6.289  32.739 -10.100  1.00  0.00    -0.000 C 
BRANCH   9  10
ATOM     10  C   UNL     1       5.644  31.914  -8.977  1.00  0.00    -0.003 C 
ATOM     11  C   UNL     1       6.508  31.928  -7.719  1.00  0.00     0.004 C 
ENDBRANCH   9  10
ENDBRANCH   8   9
ENDBRANCH   1   8
TORSDOF 6
ENDMDL
MODEL 3
REMARK VINA RESULT:    -1.307      3.651      5.151
REMARK INTER + INTRA:          -1.974
REMARK INTER:                  -1.633
REMARK INTRA:                  -0.341
REMARK UNBOUND:                -0.209
REMARK SMILES CCCCCCC=CC(=O)[O-]
REMARK SMILES IDX 5 1 6 2 7 3 8 4 9 5 10 6 11 7 4 8 3 9 2 10 1 11
REMARK H PARENT
REMARK Flexibility Score: inf
ROOT
ATOM      1  C   UNL     1      -4.365  51.197  -7.454  1.00  0.00     0.004 C 
ENDROOT
BRANCH   1   2
ATOM      2  C   UNL     1      -5.403  52.125  -6.804  1.00  0.00     0.027 C 
BRANCH   2   3
ATOM      3  C   UNL     1      -6.730  52.085  -7.510  1.00  0.00    -0.025 C 
ATOM      4  C   UNL     1      -7.010  51.145  -8.420  1.00  0.00     0.020 C 
BRANCH   4   5
ATOM      5  C   UNL     1      -8.305  51.083  -9.117  1.00  0.00     0.064 C 
ATOM      6  O   UNL     1      -8.981  52.124  -9.330  1.00  0.00    -0.545 OA
ATOM      7  O   UNL     1      -8.789  49.855  -9.548  1.00  0.00    -0.545 OA
ENDBRANCH   4   5
ENDBRANCH   2   3
ENDBRANCH   1   2
BRANCH   1   8
ATOM      8  C   UNL     1      -3.440  51.952  -8.423  1.00  0.00     0.000 C 
BRANCH   8   9
ATOM      9  C   UNL     1      -2.018  52.125  -7.868  1.00  0.00    -0.000 C 
BRANCH   9  10
ATOM     10  C   UNL     1      -1.717  51.170  -6.702  1.00  0.00    -0.003 C 
ATOM     11  C   UNL     1      -1.006  51.899  -5.566  1.00  0.00     0.004 C 
ENDBRANCH   9  10
ENDBRANCH   8   9
ENDBRANCH   1   8
TORSDOF 6
ENDMDL
