MODEL 1
REMARK VINA RESULT:    -3.689      0.000      0.000
REMARK INTER + INTRA:          -6.370
REMARK INTER:                  -5.630
REMARK INTRA:                  -0.740
REMARK UNBOUND:                -0.740
REMARK SMILES CCCCCCCCCCC(=O)[O-]
REMARK SMILES IDX 7 1 8 2 9 3 10 4 11 5 12 6 13 7 6 8 5 9 4 10 3 11 2 12 1 13
REMARK H PARENT
REMARK Flexibility Score: inf
ROOT
ATOM      1  C   UNL     1      -3.032  -9.366 -16.525  1.00  0.00     0.000 C 
ENDROOT
BRANCH   1   2
ATOM      2  C   UNL     1      -4.517  -9.757 -16.574  1.00  0.00     0.000 C 
BRANCH   2   3
ATOM      3  C   UNL     1      -4.771 -11.187 -16.066  1.00  0.00     0.006 C 
BRANCH   3   4
ATOM      4  C   UNL     1      -5.713 -11.971 -16.990  1.00  0.00     0.053 C 
BRANCH   4   5
ATOM      5  C   UNL     1      -5.092 -13.249 -17.465  1.00  0.00     0.041 C 
ATOM      6  O   UNL     1      -3.861 -13.456 -17.296  1.00  0.00    -0.550 OA
ATOM      7  O   UNL     1      -5.877 -14.223 -18.068  1.00  0.00    -0.550 OA
ENDBRANCH   4   5
ENDBRANCH   3   4
ENDBRANCH   2   3
ENDBRANCH   1   2
BRANCH   1   8
ATOM      8  C   UNL     1      -2.118 -10.549 -16.172  1.00  0.00     0.000 C 
BRANCH   8   9
ATOM      9  C   UNL     1      -1.255 -10.229 -14.945  1.00  0.00    -0.000 C 
BRANCH   9  10
ATOM     10  C   UNL     1      -0.916 -11.506 -14.162  1.00  0.00    -0.000 C 
BRANCH  10  11
ATOM     11  C   UNL     1      -1.609 -12.759 -14.728  1.00  0.00    -0.000 C 
BRANCH  11  12
ATOM     12  C   UNL     1      -1.917 -13.852 -13.689  1.00  0.00    -0.003 C 
ATOM     13  C   UNL     1      -1.201 -15.172 -13.979  1.00  0.00     0.004 C 
ENDBRANCH  11  12
ENDBRANCH  10  11
ENDBRANCH   9  10
ENDBRANCH   8   9
ENDBRANCH   1   8
TORSDOF 9
ENDMDL
MODEL 2
REMARK VINA RESULT:    -3.656      1.500      2.486
REMARK INTER + INTRA:          -6.319
REMARK INTER:                  -5.543
REMARK INTRA:                  -0.777
REMARK UNBOUND:                -0.740
REMARK SMILES CCCCCCCCCCC(=O)[O-]
REMARK SMILES IDX 7 1 8 2 9 3 10 4 11 5 12 6 13 7 6 8 5 9 4 10 3 11 2 12 1 13
REMARK H PARENT
REMARK Flexibility Score: inf
ROOT
ATOM      1  C   UNL     1      -4.582  -9.693 -17.860  1.00  0.00     0.000 C 
ENDROOT
BRANCH   1   2
ATOM      2  C   UNL     1      -5.723 -10.675 -17.555  1.00  0.00     0.000 C 
BRANCH   2   3
ATOM      3  C   UNL     1      -5.474 -11.494 -16.277  1.00  0.00     0.006 C 
BRANCH   3   4
ATOM      4  C   UNL     1      -4.285 -12.453 -16.426  1.00  0.00     0.053 C 
BRANCH   4   5
ATOM      5  C   UNL     1      -4.567 -13.543 -17.415  1.00  0.00     0.041 C 
ATOM      6  O   UNL     1      -3.701 -13.861 -18.270  1.00  0.00    -0.550 OA
ATOM      7  O   UNL     1      -5.776 -14.226 -17.372  1.00  0.00    -0.550 OA
ENDBRANCH   4   5
ENDBRANCH   3   4
ENDBRANCH   2   3
ENDBRANCH   1   2
BRANCH   1   8
ATOM      8  C   UNL     1      -4.316  -8.715 -16.706  1.00  0.00     0.000 C 
BRANCH   8   9
ATOM      9  C   UNL     1      -2.820  -8.405 -16.581  1.00  0.00    -0.000 C 
BRANCH   9  10
ATOM     10  C   UNL     1      -2.069  -9.569 -15.916  1.00  0.00    -0.000 C 
BRANCH  10  11
ATOM     11  C   UNL     1      -1.014  -9.098 -14.899  1.00  0.00    -0.000 C 
BRANCH  11  12
ATOM     12  C   UNL     1      -0.359 -10.225 -14.079  1.00  0.00    -0.003 C 
ATOM     13  C   UNL     1      -0.965 -11.600 -14.362  1.00  0.00     0.004 C 
ENDBRANCH  11  12
ENDBRANCH  10  11
ENDBRANCH   9  10
ENDBRANCH   8   9
ENDBRANCH   1   8
TORSDOF 9
ENDMDL
MODEL 3
REMARK VINA RESULT:    -3.612      2.624      4.713
REMARK INTER + INTRA:          -6.252
REMARK INTER:                  -5.214
REMARK INTRA:                  -1.038
REMARK UNBOUND:                -0.740
REMARK SMILES CCCCCCCCCCC(=O)[O-]
REMARK SMILES IDX 7 1 8 2 9 3 10 4 11 5 12 6 13 7 6 8 5 9 4 10 3 11 2 12 1 13
REMARK H PARENT
REMARK Flexibility Score: inf
ROOT
ATOM      1  C   UNL     1      -1.562 -11.689 -14.920  1.00  0.00     0.000 C 
ENDROOT
BRANCH   1   2
ATOM      2  C   UNL     1      -1.128 -12.845 -15.834  1.00  0.00     0.000 C 
BRANCH   2   3
ATOM      3  C   UNL     1      -1.414 -14.226 -15.218  1.00  0.00     0.006 C 
BRANCH   3   4
ATOM      4  C   UNL     1      -2.546 -14.175 -14.182  1.00  0.00     0.053 C 
BRANCH   4   5
ATOM      5  C   UNL     1      -2.261 -15.052 -13.001  1.00  0.00     0.041 C 
ATOM      6  O   UNL     1      -2.966 -14.962 -11.962  1.00  0.00    -0.550 OA
ATOM      7  O   UNL     1      -1.237 -15.989 -13.060  1.00  0.00    -0.550 OA
ENDBRANCH   4   5
ENDBRANCH   3   4
ENDBRANCH   2   3
ENDBRANCH   1   2
BRANCH   1   8
ATOM      8  C   UNL     1      -2.116 -10.489 -15.703  1.00  0.00     0.000 C 
BRANCH   8   9
ATOM      9  C   UNL     1      -3.131 -10.943 -16.759  1.00  0.00    -0.000 C 
BRANCH   9  10
ATOM     10  C   UNL     1      -4.513 -11.177 -16.130  1.00  0.00    -0.000 C 
BRANCH  10  11
ATOM     11  C   UNL     1      -5.366 -12.189 -16.916  1.00  0.00    -0.000 C 
BRANCH  11  12
ATOM     12  C   UNL     1      -4.669 -13.528 -17.215  1.00  0.00    -0.003 C 
ATOM     13  C   UNL     1      -5.356 -14.326 -18.324  1.00  0.00     0.004 C 
ENDBRANCH  11  12
ENDBRANCH  10  11
ENDBRANCH   9  10
ENDBRANCH   8   9
ENDBRANCH   1   8
TORSDOF 9
ENDMDL
MODEL 4
REMARK VINA RESULT:    -3.577     14.443     16.524
REMARK INTER + INTRA:          -6.199
REMARK INTER:                  -5.662
REMARK INTRA:                  -0.538
REMARK UNBOUND:                -0.740
REMARK SMILES CCCCCCCCCCC(=O)[O-]
REMARK SMILES IDX 7 1 8 2 9 3 10 4 11 5 12 6 13 7 6 8 5 9 4 10 3 11 2 12 1 13
REMARK H PARENT
REMARK Flexibility Score: inf
ROOT
ATOM      1  C   UNL     1      -1.620  -4.064 -27.543  1.00  0.00     0.000 C 
ENDROOT
BRANCH   1   2
ATOM      2  C   UNL     1      -2.608  -2.922 -27.259  1.00  0.00     0.000 C 
BRANCH   2   3
ATOM      3  C   UNL     1      -3.974  -3.429 -26.763  1.00  0.00     0.006 C 
BRANCH   3   4
ATOM      4  C   UNL     1      -5.074  -2.370 -26.917  1.00  0.00     0.053 C 
BRANCH   4   5
ATOM      5  C   UNL     1      -4.956  -1.289 -25.886  1.00  0.00     0.041 C 
ATOM      6  O   UNL     1      -5.271  -0.104 -26.173  1.00  0.00    -0.550 OA
ATOM      7  O   UNL     1      -4.527  -1.596 -24.601  1.00  0.00    -0.550 OA
ENDBRANCH   4   5
ENDBRANCH   3   4
ENDBRANCH   2   3
ENDBRANCH   1   2
BRANCH   1   8
ATOM      8  C   UNL     1      -0.286  -3.567 -28.117  1.00  0.00     0.000 C 
BRANCH   8   9
ATOM      9  C   UNL     1      -0.360  -2.077 -28.470  1.00  0.00    -0.000 C 
BRANCH   9  10
ATOM     10  C   UNL     1       0.476  -1.764 -29.720  1.00  0.00    -0.000 C 
BRANCH  10  11
ATOM     11  C   UNL     1       0.012  -0.489 -30.448  1.00  0.00    -0.000 C 
BRANCH  11  12
ATOM     12  C   UNL     1      -1.279   0.139 -29.893  1.00  0.00    -0.003 C 
ATOM     13  C   UNL     1      -2.077   0.899 -30.953  1.00  0.00     0.004 C 
ENDBRANCH  11  12
ENDBRANCH  10  11
ENDBRANCH   9  10
ENDBRANCH   8   9
ENDBRANCH   1   8
TORSDOF 9
ENDMDL
MODEL 5
REMARK VINA RESULT:    -3.548      1.593      4.261
REMARK INTER + INTRA:          -6.155
REMARK INTER:                  -5.081
REMARK INTRA:                  -1.073
REMARK UNBOUND:                -0.740
REMARK SMILES CCCCCCCCCCC(=O)[O-]
REMARK SMILES IDX 7 1 8 2 9 3 10 4 11 5 12 6 13 7 6 8 5 9 4 10 3 11 2 12 1 13
REMARK H PARENT
REMARK Flexibility Score: inf
ROOT
ATOM      1  C   UNL     1      -2.605  -9.270 -16.509  1.00  0.00     0.000 C 
ENDROOT
BRANCH   1   2
ATOM      2  C   UNL     1      -1.881 -10.214 -15.538  1.00  0.00     0.000 C 
BRANCH   2   3
ATOM      3  C   UNL     1      -2.144 -11.699 -15.847  1.00  0.00     0.006 C 
BRANCH   3   4
ATOM      4  C   UNL     1      -1.809 -12.606 -14.656  1.00  0.00     0.053 C 
BRANCH   4   5
ATOM      5  C   UNL     1      -2.188 -14.032 -14.917  1.00  0.00     0.041 C 
ATOM      6  O   UNL     1      -2.260 -14.462 -16.099  1.00  0.00    -0.550 OA
ATOM      7  O   UNL     1      -2.433 -14.894 -13.855  1.00  0.00    -0.550 OA
ENDBRANCH   4   5
ENDBRANCH   3   4
ENDBRANCH   2   3
ENDBRANCH   1   2
BRANCH   1   8
ATOM      8  C   UNL     1      -4.134  -9.363 -16.399  1.00  0.00     0.000 C 
BRANCH   8   9
ATOM      9  C   UNL     1      -4.788  -9.329 -17.786  1.00  0.00    -0.000 C 
BRANCH   9  10
ATOM     10  C   UNL     1      -5.726 -10.529 -17.982  1.00  0.00    -0.000 C 
BRANCH  10  11
ATOM     11  C   UNL     1      -5.711 -11.504 -16.791  1.00  0.00    -0.000 C 
BRANCH  11  12
ATOM     12  C   UNL     1      -5.356 -12.958 -17.150  1.00  0.00    -0.003 C 
ATOM     13  C   UNL     1      -4.577 -13.077 -18.460  1.00  0.00     0.004 C 
ENDBRANCH  11  12
ENDBRANCH  10  11
ENDBRANCH   9  10
ENDBRANCH   8   9
ENDBRANCH   1   8
TORSDOF 9
ENDMDL
MODEL 6
REMARK VINA RESULT:    -3.528     14.605     16.237
REMARK INTER + INTRA:          -6.125
REMARK INTER:                  -5.109
REMARK INTRA:                  -1.015
REMARK UNBOUND:                -0.740
REMARK SMILES CCCCCCCCCCC(=O)[O-]
REMARK SMILES IDX 7 1 8 2 9 3 10 4 11 5 12 6 13 7 6 8 5 9 4 10 3 11 2 12 1 13
REMARK H PARENT
REMARK Flexibility Score: inf
ROOT
ATOM      1  C   UNL     1      -1.621  -3.984 -27.592  1.00  0.00     0.000 C 
ENDROOT
BRANCH   1   2
ATOM      2  C   UNL     1      -0.766  -2.730 -27.831  1.00  0.00     0.000 C 
BRANCH   2   3
ATOM      3  C   UNL     1      -1.438  -1.447 -27.308  1.00  0.00     0.006 C 
BRANCH   3   4
ATOM      4  C   UNL     1      -2.286  -0.758 -28.386  1.00  0.00     0.053 C 
BRANCH   4   5
ATOM      5  C   UNL     1      -1.498   0.266 -29.145  1.00  0.00     0.041 C 
ATOM      6  O   UNL     1      -1.948   0.741 -30.220  1.00  0.00    -0.550 OA
ATOM      7  O   UNL     1      -0.281   0.716 -28.650  1.00  0.00    -0.550 OA
ENDBRANCH   4   5
ENDBRANCH   3   4
ENDBRANCH   2   3
ENDBRANCH   1   2
BRANCH   1   8
ATOM      8  C   UNL     1      -2.623  -3.810 -26.441  1.00  0.00     0.000 C 
BRANCH   8   9
ATOM      9  C   UNL     1      -4.014  -4.316 -26.842  1.00  0.00    -0.000 C 
BRANCH   9  10
ATOM     10  C   UNL     1      -5.052  -3.186 -26.772  1.00  0.00    -0.000 C 
BRANCH  10  11
ATOM     11  C   UNL     1      -4.824  -2.235 -25.583  1.00  0.00    -0.000 C 
BRANCH  11  12
ATOM     12  C   UNL     1      -5.001  -0.740 -25.908  1.00  0.00    -0.003 C 
ATOM     13  C   UNL     1      -4.653   0.172 -24.732  1.00  0.00     0.004 C 
ENDBRANCH  11  12
ENDBRANCH  10  11
ENDBRANCH   9  10
ENDBRANCH   8   9
ENDBRANCH   1   8
TORSDOF 9
ENDMDL
MODEL 7
REMARK VINA RESULT:    -3.515     18.865     20.846
REMARK INTER + INTRA:          -6.105
REMARK INTER:                  -5.739
REMARK INTRA:                  -0.366
REMARK UNBOUND:                -0.740
REMARK SMILES CCCCCCCCCCC(=O)[O-]
REMARK SMILES IDX 7 1 8 2 9 3 10 4 11 5 12 6 13 7 6 8 5 9 4 10 3 11 2 12 1 13
REMARK H PARENT
REMARK Flexibility Score: inf
ROOT
ATOM      1  C   UNL     1      12.940  -2.105 -24.416  1.00  0.00     0.000 C 
ENDROOT
BRANCH   1   2
ATOM      2  C   UNL     1      13.585  -2.582 -23.106  1.00  0.00     0.000 C 
BRANCH   2   3
ATOM      3  C   UNL     1      13.299  -4.065 -22.810  1.00  0.00     0.006 C 
BRANCH   3   4
ATOM      4  C   UNL     1      12.573  -4.258 -21.472  1.00  0.00     0.053 C 
BRANCH   4   5
ATOM      5  C   UNL     1      12.995  -5.522 -20.786  1.00  0.00     0.041 C 
ATOM      6  O   UNL     1      12.372  -6.595 -20.997  1.00  0.00    -0.550 OA
ATOM      7  O   UNL     1      14.094  -5.519 -19.936  1.00  0.00    -0.550 OA
ENDBRANCH   4   5
ENDBRANCH   3   4
ENDBRANCH   2   3
ENDBRANCH   1   2
BRANCH   1   8
ATOM      8  C   UNL     1      11.567  -2.745 -24.669  1.00  0.00     0.000 C 
BRANCH   8   9
ATOM      9  C   UNL     1      11.105  -2.503 -26.111  1.00  0.00    -0.000 C 
BRANCH   9  10
ATOM     10  C   UNL     1      11.867  -1.330 -26.745  1.00  0.00    -0.000 C 
BRANCH  10  11
ATOM     11  C   UNL     1      11.126  -0.711 -27.944  1.00  0.00    -0.000 C 
BRANCH  11  12
ATOM     12  C   UNL     1      11.725   0.609 -28.463  1.00  0.00    -0.003 C 
ATOM     13  C   UNL     1      10.669   1.685 -28.718  1.00  0.00     0.004 C 
ENDBRANCH  11  12
ENDBRANCH  10  11
ENDBRANCH   9  10
ENDBRANCH   8   9
ENDBRANCH   1   8
TORSDOF 9
ENDMDL
MODEL 8
REMARK VINA RESULT:    -3.491     14.833     16.665
REMARK INTER + INTRA:          -6.068
REMARK INTER:                  -5.278
REMARK INTRA:                  -0.790
REMARK UNBOUND:                -0.740
REMARK SMILES CCCCCCCCCCC(=O)[O-]
REMARK SMILES IDX 7 1 8 2 9 3 10 4 11 5 12 6 13 7 6 8 5 9 4 10 3 11 2 12 1 13
REMARK H PARENT
REMARK Flexibility Score: inf
ROOT
ATOM      1  C   UNL     1      -1.040  -2.446 -27.324  1.00  0.00     0.000 C 
ENDROOT
BRANCH   1   2
ATOM      2  C   UNL     1      -1.880  -1.424 -28.104  1.00  0.00     0.000 C 
BRANCH   2   3
ATOM      3  C   UNL     1      -1.063  -0.680 -29.175  1.00  0.00     0.006 C 
BRANCH   3   4
ATOM      4  C   UNL     1      -1.834   0.505 -29.772  1.00  0.00     0.053 C 
BRANCH   4   5
ATOM      5  C   UNL     1      -1.412   0.793 -31.181  1.00  0.00     0.041 C 
ATOM      6  O   UNL     1      -0.719  -0.044 -31.817  1.00  0.00    -0.550 OA
ATOM      7  O   UNL     1      -1.809   1.971 -31.800  1.00  0.00    -0.550 OA
ENDBRANCH   4   5
ENDBRANCH   3   4
ENDBRANCH   2   3
ENDBRANCH   1   2
BRANCH   1   8
ATOM      8  C   UNL     1      -0.900  -3.786 -28.061  1.00  0.00     0.000 C 
BRANCH   8   9
ATOM      9  C   UNL     1      -1.398  -4.947 -27.191  1.00  0.00    -0.000 C 
BRANCH   9  10
ATOM     10  C   UNL     1      -2.000  -4.431 -25.875  1.00  0.00    -0.000 C 
BRANCH  10  11
ATOM     11  C   UNL     1      -3.478  -4.823 -25.697  1.00  0.00    -0.000 C 
BRANCH  11  12
ATOM     12  C   UNL     1      -4.374  -4.537 -26.916  1.00  0.00    -0.003 C 
ATOM     13  C   UNL     1      -4.976  -3.132 -26.898  1.00  0.00     0.004 C 
ENDBRANCH  11  12
ENDBRANCH  10  11
ENDBRANCH   9  10
ENDBRANCH   8   9
ENDBRANCH   1   8
TORSDOF 9
ENDMDL
MODEL 9
REMARK VINA RESULT:    -3.480     17.685     18.664
REMARK INTER + INTRA:          -6.050
REMARK INTER:                  -5.303
REMARK INTRA:                  -0.747
REMARK UNBOUND:                -0.740
REMARK SMILES CCCCCCCCCCC(=O)[O-]
REMARK SMILES IDX 7 1 8 2 9 3 10 4 11 5 12 6 13 7 6 8 5 9 4 10 3 11 2 12 1 13
REMARK H PARENT
REMARK Flexibility Score: inf
ROOT
ATOM      1  C   UNL     1      11.267  -2.674 -21.832  1.00  0.00     0.000 C 
ENDROOT
BRANCH   1   2
ATOM      2  C   UNL     1      11.149  -2.470 -20.314  1.00  0.00     0.000 C 
BRANCH   2   3
ATOM      3  C   UNL     1      10.140  -1.370 -19.940  1.00  0.00     0.006 C 
BRANCH   3   4
ATOM      4  C   UNL     1      10.806  -0.200 -19.204  1.00  0.00     0.053 C 
BRANCH   4   5
ATOM      5  C   UNL     1       9.911   0.999 -19.136  1.00  0.00     0.041 C 
ATOM      6  O   UNL     1       9.601   1.496 -18.022  1.00  0.00    -0.550 OA
ATOM      7  O   UNL     1       9.441   1.585 -20.305  1.00  0.00    -0.550 OA
ENDBRANCH   4   5
ENDBRANCH   3   4
ENDBRANCH   2   3
ENDBRANCH   1   2
BRANCH   1   8
ATOM      8  C   UNL     1      12.724  -2.751 -22.309  1.00  0.00     0.000 C 
BRANCH   8   9
ATOM      9  C   UNL     1      13.032  -4.123 -22.920  1.00  0.00    -0.000 C 
BRANCH   9  10
ATOM     10  C   UNL     1      13.658  -5.062 -21.878  1.00  0.00    -0.000 C 
BRANCH  10  11
ATOM     11  C   UNL     1      12.687  -6.155 -21.396  1.00  0.00    -0.000 C 
BRANCH  11  12
ATOM     12  C   UNL     1      12.277  -6.049 -19.916  1.00  0.00    -0.003 C 
ATOM     13  C   UNL     1      13.386  -5.485 -19.027  1.00  0.00     0.004 C 
ENDBRANCH  11  12
ENDBRANCH  10  11
ENDBRANCH   9  10
ENDBRANCH   8   9
ENDBRANCH   1   8
TORSDOF 9
ENDMDL
