MODEL 1
REMARK VINA RESULT:    -5.542      0.000      0.000
REMARK INTER + INTRA:          -6.224
REMARK INTER:                  -6.028
REMARK INTRA:                  -0.196
REMARK UNBOUND:                -0.196
REMARK SMILES Cc1ccc(C(C)C)c(O)c1
REMARK SMILES IDX 1 1 2 2 11 3 9 4 5 5 4 6 3 7 10 8 6 10 7 11 8 12
REMARK H PARENT 10 9
REMARK Flexibility Score: inf
ROOT
ATOM      1  C   UNL     1       8.173  -0.165  33.736  1.00  0.00     0.044 C 
ATOM      2  C   UNL     1       9.472   0.540  33.996  1.00  0.00    -0.047 A 
ATOM      3  C   UNL     1      10.672  -0.181  34.025  1.00  0.00     0.049 A 
ATOM      4  C   UNL     1      11.896   0.474  34.230  1.00  0.00     0.119 A 
ATOM      5  C   UNL     1      11.927   1.880  34.397  1.00  0.00    -0.004 A 
ATOM      6  C   UNL     1      10.714   2.593  34.346  1.00  0.00     0.008 A 
ATOM      7  C   UNL     1       9.503   1.931  34.141  1.00  0.00     0.004 A 
ENDROOT
BRANCH   4   8
ATOM      8  O   UNL     1      13.073  -0.272  34.264  1.00  0.00    -0.508 OA
ATOM      9  H   UNL     1      13.771  -0.134  34.986  1.00  0.00     0.293 HD
ENDBRANCH   4   8
BRANCH   5  10
ATOM     10  C   UNL     1      13.223   2.648  34.623  1.00  0.00     0.017 C 
ATOM     11  C   UNL     1      13.739   3.288  33.328  1.00  0.00     0.012 C 
ATOM     12  C   UNL     1      13.083   3.682  35.746  1.00  0.00     0.012 C 
ENDBRANCH   5  10
TORSDOF 2
ENDMDL
MODEL 2
REMARK VINA RESULT:    -5.515      1.812      2.062
REMARK INTER + INTRA:          -6.194
REMARK INTER:                  -5.998
REMARK INTRA:                  -0.197
REMARK UNBOUND:                -0.196
REMARK SMILES Cc1ccc(C(C)C)c(O)c1
REMARK SMILES IDX 1 1 2 2 11 3 9 4 5 5 4 6 3 7 10 8 6 10 7 11 8 12
REMARK H PARENT 10 9
REMARK Flexibility Score: inf
ROOT
ATOM      1  C   UNL     1       6.718   0.187  36.012  1.00  0.00     0.044 C 
ATOM      2  C   UNL     1       8.155   0.473  35.691  1.00  0.00    -0.047 A 
ATOM      3  C   UNL     1       8.792  -0.204  34.642  1.00  0.00     0.049 A 
ATOM      4  C   UNL     1      10.124   0.083  34.310  1.00  0.00     0.119 A 
ATOM      5  C   UNL     1      10.834   1.076  35.027  1.00  0.00    -0.004 A 
ATOM      6  C   UNL     1      10.175   1.762  36.065  1.00  0.00     0.008 A 
ATOM      7  C   UNL     1       8.849   1.468  36.387  1.00  0.00     0.004 A 
ENDROOT
BRANCH   4   8
ATOM      8  O   UNL     1      10.733  -0.615  33.268  1.00  0.00    -0.508 OA
ATOM      9  H   UNL     1      11.738  -0.603  33.134  1.00  0.00     0.293 HD
ENDBRANCH   4   8
BRANCH   5  10
ATOM     10  C   UNL     1      12.282   1.432  34.714  1.00  0.00     0.017 C 
ATOM     11  C   UNL     1      12.380   2.641  33.774  1.00  0.00     0.012 C 
ATOM     12  C   UNL     1      13.105   1.641  35.989  1.00  0.00     0.012 C 
ENDBRANCH   5  10
TORSDOF 2
ENDMDL
MODEL 3
REMARK VINA RESULT:    -5.487      4.351      6.378
REMARK INTER + INTRA:          -6.164
REMARK INTER:                  -5.968
REMARK INTRA:                  -0.196
REMARK UNBOUND:                -0.196
REMARK SMILES Cc1ccc(C(C)C)c(O)c1
REMARK SMILES IDX 1 1 2 2 11 3 9 4 5 5 4 6 3 7 10 8 6 10 7 11 8 12
REMARK H PARENT 10 9
REMARK Flexibility Score: inf
ROOT
ATOM      1  C   UNL     1       4.191  -3.617  37.239  1.00  0.00     0.044 C 
ATOM      2  C   UNL     1       5.105  -2.553  36.705  1.00  0.00    -0.047 A 
ATOM      3  C   UNL     1       4.732  -1.204  36.773  1.00  0.00     0.049 A 
ATOM      4  C   UNL     1       5.595  -0.200  36.311  1.00  0.00     0.119 A 
ATOM      5  C   UNL     1       6.862  -0.544  35.780  1.00  0.00    -0.004 A 
ATOM      6  C   UNL     1       7.230  -1.902  35.736  1.00  0.00     0.008 A 
ATOM      7  C   UNL     1       6.364  -2.893  36.200  1.00  0.00     0.004 A 
ENDROOT
BRANCH   4   8
ATOM      8  O   UNL     1       5.192   1.133  36.383  1.00  0.00    -0.508 OA
ATOM      9  H   UNL     1       5.412   1.714  37.184  1.00  0.00     0.293 HD
ENDBRANCH   4   8
BRANCH   5  10
ATOM     10  C   UNL     1       7.842   0.501  35.262  1.00  0.00     0.017 C 
ATOM     11  C   UNL     1       8.782   0.999  36.368  1.00  0.00     0.012 C 
ATOM     12  C   UNL     1       8.623  -0.007  34.044  1.00  0.00     0.012 C 
ENDBRANCH   5  10
TORSDOF 2
ENDMDL
MODEL 4
REMARK VINA RESULT:    -5.305      1.464      4.386
REMARK INTER + INTRA:          -5.967
REMARK INTER:                  -5.785
REMARK INTRA:                  -0.181
REMARK UNBOUND:                -0.196
REMARK SMILES Cc1ccc(C(C)C)c(O)c1
REMARK SMILES IDX 1 1 2 2 11 3 9 4 5 5 4 6 3 7 10 8 6 10 7 11 8 12
REMARK H PARENT 10 9
REMARK Flexibility Score: inf
ROOT
ATOM      1  C   UNL     1      13.348   2.579  35.839  1.00  0.00     0.044 C 
ATOM      2  C   UNL     1      12.099   1.837  35.465  1.00  0.00    -0.047 A 
ATOM      3  C   UNL     1      12.167   0.726  34.614  1.00  0.00     0.049 A 
ATOM      4  C   UNL     1      11.010   0.002  34.288  1.00  0.00     0.119 A 
ATOM      5  C   UNL     1       9.760   0.385  34.830  1.00  0.00    -0.004 A 
ATOM      6  C   UNL     1       9.710   1.491  35.699  1.00  0.00     0.008 A 
ATOM      7  C   UNL     1      10.867   2.204  36.018  1.00  0.00     0.004 A 
ENDROOT
BRANCH   4   8
ATOM      8  O   UNL     1      11.109  -1.092  33.430  1.00  0.00    -0.508 OA
ATOM      9  H   UNL     1      10.386  -1.305  32.751  1.00  0.00     0.293 HD
ENDBRANCH   4   8
BRANCH   5  10
ATOM     10  C   UNL     1       8.469  -0.360  34.513  1.00  0.00     0.017 C 
ATOM     11  C   UNL     1       7.463  -0.274  35.669  1.00  0.00     0.012 C 
ATOM     12  C   UNL     1       7.851   0.110  33.192  1.00  0.00     0.012 C 
ENDBRANCH   5  10
TORSDOF 2
ENDMDL
MODEL 5
REMARK VINA RESULT:    -5.177      7.580      9.519
REMARK INTER + INTRA:          -5.827
REMARK INTER:                  -5.635
REMARK INTRA:                  -0.192
REMARK UNBOUND:                -0.196
REMARK SMILES Cc1ccc(C(C)C)c(O)c1
REMARK SMILES IDX 1 1 2 2 11 3 9 4 5 5 4 6 3 7 10 8 6 10 7 11 8 12
REMARK H PARENT 10 9
REMARK Flexibility Score: inf
ROOT
ATOM      1  C   UNL     1       6.367  -3.904  35.596  1.00  0.00     0.044 C 
ATOM      2  C   UNL     1       5.395  -3.098  36.407  1.00  0.00    -0.047 A 
ATOM      3  C   UNL     1       5.382  -1.701  36.308  1.00  0.00     0.049 A 
ATOM      4  C   UNL     1       4.453  -0.941  37.034  1.00  0.00     0.119 A 
ATOM      5  C   UNL     1       3.508  -1.586  37.868  1.00  0.00    -0.004 A 
ATOM      6  C   UNL     1       3.522  -2.992  37.943  1.00  0.00     0.008 A 
ATOM      7  C   UNL     1       4.450  -3.738  37.215  1.00  0.00     0.004 A 
ENDROOT
BRANCH   4   8
ATOM      8  O   UNL     1       4.471   0.449  36.922  1.00  0.00    -0.508 OA
ATOM      9  H   UNL     1       3.972   0.931  36.182  1.00  0.00     0.293 HD
ENDBRANCH   4   8
BRANCH   5  10
ATOM     10  C   UNL     1       2.476  -0.816  38.681  1.00  0.00     0.017 C 
ATOM     11  C   UNL     1       1.050  -1.058  38.168  1.00  0.00     0.012 C 
ATOM     12  C   UNL     1       2.593  -1.116  40.180  1.00  0.00     0.012 C 
ENDBRANCH   5  10
TORSDOF 2
ENDMDL
MODEL 6
REMARK VINA RESULT:    -5.150      2.616      5.201
REMARK INTER + INTRA:          -5.797
REMARK INTER:                  -5.720
REMARK INTRA:                  -0.077
REMARK UNBOUND:                -0.196
REMARK SMILES Cc1ccc(C(C)C)c(O)c1
REMARK SMILES IDX 1 1 2 2 11 3 9 4 5 5 4 6 3 7 10 8 6 10 7 11 8 12
REMARK H PARENT 10 9
REMARK Flexibility Score: inf
ROOT
ATOM      1  C   UNL     1      12.040   2.010  35.938  1.00  0.00     0.044 C 
ATOM      2  C   UNL     1      10.668   1.413  35.824  1.00  0.00    -0.047 A 
ATOM      3  C   UNL     1      10.394   0.461  34.834  1.00  0.00     0.049 A 
ATOM      4  C   UNL     1       9.125  -0.130  34.742  1.00  0.00     0.119 A 
ATOM      5  C   UNL     1       8.110   0.225  35.663  1.00  0.00    -0.004 A 
ATOM      6  C   UNL     1       8.407   1.169  36.664  1.00  0.00     0.008 A 
ATOM      7  C   UNL     1       9.673   1.750  36.747  1.00  0.00     0.004 A 
ENDROOT
BRANCH   4   8
ATOM      8  O   UNL     1       8.879  -1.067  33.739  1.00  0.00    -0.508 OA
ATOM      9  H   UNL     1       7.937  -1.340  33.484  1.00  0.00     0.293 HD
ENDBRANCH   4   8
BRANCH   5  10
ATOM     10  C   UNL     1       6.713  -0.381  35.614  1.00  0.00     0.017 C 
ATOM     11  C   UNL     1       6.718  -1.857  36.034  1.00  0.00     0.012 C 
ATOM     12  C   UNL     1       5.710   0.436  36.437  1.00  0.00     0.012 C 
ENDBRANCH   5  10
TORSDOF 2
ENDMDL
MODEL 7
REMARK VINA RESULT:    -5.139      2.271      3.169
REMARK INTER + INTRA:          -5.785
REMARK INTER:                  -5.589
REMARK INTRA:                  -0.197
REMARK UNBOUND:                -0.196
REMARK SMILES Cc1ccc(C(C)C)c(O)c1
REMARK SMILES IDX 1 1 2 2 11 3 9 4 5 5 4 6 3 7 10 8 6 10 7 11 8 12
REMARK H PARENT 10 9
REMARK Flexibility Score: inf
ROOT
ATOM      1  C   UNL     1       6.114  -0.324  35.972  1.00  0.00     0.044 C 
ATOM      2  C   UNL     1       7.494   0.178  35.665  1.00  0.00    -0.047 A 
ATOM      3  C   UNL     1       8.088   1.151  36.479  1.00  0.00     0.049 A 
ATOM      4  C   UNL     1       9.392   1.600  36.222  1.00  0.00     0.119 A 
ATOM      5  C   UNL     1      10.126   1.059  35.139  1.00  0.00    -0.004 A 
ATOM      6  C   UNL     1       9.523   0.068  34.342  1.00  0.00     0.008 A 
ATOM      7  C   UNL     1       8.226  -0.372  34.607  1.00  0.00     0.004 A 
ENDROOT
BRANCH   4   8
ATOM      8  O   UNL     1       9.952   2.577  37.044  1.00  0.00    -0.508 OA
ATOM      9  H   UNL     1       9.382   3.277  37.504  1.00  0.00     0.293 HD
ENDBRANCH   4   8
BRANCH   5  10
ATOM     10  C   UNL     1      11.545   1.505  34.810  1.00  0.00     0.017 C 
ATOM     11  C   UNL     1      12.440   0.320  34.423  1.00  0.00     0.012 C 
ATOM     12  C   UNL     1      11.563   2.599  33.736  1.00  0.00     0.012 C 
ENDBRANCH   5  10
TORSDOF 2
ENDMDL
MODEL 8
REMARK VINA RESULT:    -4.982      1.811      2.136
REMARK INTER + INTRA:          -5.615
REMARK INTER:                  -5.427
REMARK INTRA:                  -0.189
REMARK UNBOUND:                -0.196
REMARK SMILES Cc1ccc(C(C)C)c(O)c1
REMARK SMILES IDX 1 1 2 2 11 3 9 4 5 5 4 6 3 7 10 8 6 10 7 11 8 12
REMARK H PARENT 10 9
REMARK Flexibility Score: inf
ROOT
ATOM      1  C   UNL     1       8.906   0.290  35.880  1.00  0.00     0.044 C 
ATOM      2  C   UNL     1       9.869   1.304  35.333  1.00  0.00    -0.047 A 
ATOM      3  C   UNL     1      11.100   1.521  35.966  1.00  0.00     0.049 A 
ATOM      4  C   UNL     1      12.021   2.439  35.441  1.00  0.00     0.119 A 
ATOM      5  C   UNL     1      11.717   3.148  34.255  1.00  0.00    -0.004 A 
ATOM      6  C   UNL     1      10.484   2.905  33.619  1.00  0.00     0.008 A 
ATOM      7  C   UNL     1       9.575   1.989  34.149  1.00  0.00     0.004 A 
ENDROOT
BRANCH   4   8
ATOM      8  O   UNL     1      13.234   2.641  36.100  1.00  0.00    -0.508 OA
ATOM      9  H   UNL     1      14.107   2.279  35.732  1.00  0.00     0.293 HD
ENDBRANCH   4   8
BRANCH   5  10
ATOM     10  C   UNL     1      12.676   4.158  33.637  1.00  0.00     0.017 C 
ATOM     11  C   UNL     1      13.700   3.482  32.716  1.00  0.00     0.012 C 
ATOM     12  C   UNL     1      11.928   5.286  32.917  1.00  0.00     0.012 C 
ENDBRANCH   5  10
TORSDOF 2
ENDMDL
MODEL 9
REMARK VINA RESULT:    -4.959      1.610      4.016
REMARK INTER + INTRA:          -5.590
REMARK INTER:                  -5.397
REMARK INTRA:                  -0.194
REMARK UNBOUND:                -0.196
REMARK SMILES Cc1ccc(C(C)C)c(O)c1
REMARK SMILES IDX 1 1 2 2 11 3 9 4 5 5 4 6 3 7 10 8 6 10 7 11 8 12
REMARK H PARENT 10 9
REMARK Flexibility Score: inf
ROOT
ATOM      1  C   UNL     1      13.475   4.119  32.502  1.00  0.00     0.044 C 
ATOM      2  C   UNL     1      12.578   3.280  33.363  1.00  0.00    -0.047 A 
ATOM      3  C   UNL     1      13.100   2.599  34.471  1.00  0.00     0.049 A 
ATOM      4  C   UNL     1      12.263   1.842  35.304  1.00  0.00     0.119 A 
ATOM      5  C   UNL     1      10.875   1.771  35.037  1.00  0.00    -0.004 A 
ATOM      6  C   UNL     1      10.362   2.476  33.932  1.00  0.00     0.008 A 
ATOM      7  C   UNL     1      11.203   3.227  33.110  1.00  0.00     0.004 A 
ENDROOT
BRANCH   4   8
ATOM      8  O   UNL     1      12.814   1.167  36.393  1.00  0.00    -0.508 OA
ATOM      9  H   UNL     1      12.799   1.560  37.327  1.00  0.00     0.293 HD
ENDBRANCH   4   8
BRANCH   5  10
ATOM     10  C   UNL     1       9.916   0.965  35.905  1.00  0.00     0.017 C 
ATOM     11  C   UNL     1       9.383   1.791  37.084  1.00  0.00     0.012 C 
ATOM     12  C   UNL     1       8.774   0.359  35.080  1.00  0.00     0.012 C 
ENDBRANCH   5  10
TORSDOF 2
ENDMDL
