MODEL 1
REMARK VINA RESULT:    -6.137      0.000      0.000
REMARK INTER + INTRA:         -11.168
REMARK INTER:                  -9.545
REMARK INTRA:                  -1.624
REMARK UNBOUND:                -1.624
REMARK SMILES COc1cc(CNC(=O)CCCCC=CC(C)C)ccc1O
REMARK SMILES IDX 11 1 12 2 13 3 14 4 15 5 16 6 17 7 18 8 10 9 8 10 9 11 7 12
REMARK SMILES IDX 6 14 5 15 4 16 19 17 3 18 20 19 21 20 2 21 1 22 22 23
REMARK H PARENT 7 13 22 24
REMARK Flexibility Score: inf
ROOT
ATOM      1  C   UNL     1      12.255  53.601  36.888  1.00  0.00     0.010 C 
ENDROOT
BRANCH   1   2
ATOM      2  C   UNL     1      13.758  53.903  36.794  1.00  0.00     0.005 C 
BRANCH   2   3
ATOM      3  C   UNL     1      14.521  52.709  36.207  1.00  0.00     0.027 C 
BRANCH   3   4
ATOM      4  C   UNL     1      15.491  53.155  35.144  1.00  0.00    -0.031 C 
ATOM      5  C   UNL     1      15.442  52.789  33.850  1.00  0.00    -0.028 C 
BRANCH   5   6
ATOM      6  C   UNL     1      14.385  51.898  33.232  1.00  0.00     0.005 C 
ATOM      7  C   UNL     1      15.008  51.060  32.114  1.00  0.00     0.012 C 
ATOM      8  C   UNL     1      13.241  52.757  32.690  1.00  0.00     0.012 C 
ENDBRANCH   5   6
ENDBRANCH   3   4
ENDBRANCH   2   3
ENDBRANCH   1   2
BRANCH   1   9
ATOM      9  C   UNL     1      11.479  54.132  35.675  1.00  0.00     0.100 C 
BRANCH   9  10
ATOM     10  C   UNL     1      11.780  55.578  35.413  1.00  0.00     0.220 C 
ATOM     11  O   UNL     1      11.331  56.460  36.195  1.00  0.00    -0.275 OA
ATOM     12  N   UNL     1      12.598  55.951  34.297  1.00  0.00    -0.352 N 
ATOM     13  H   UNL     1      12.951  55.199  33.661  1.00  0.00     0.163 HD
BRANCH  12  14
ATOM     14  C   UNL     1      12.955  57.346  34.044  1.00  0.00     0.151 C 
BRANCH  14  15
ATOM     15  C   UNL     1      14.417  57.465  33.707  1.00  0.00    -0.025 A 
ATOM     16  C   UNL     1      15.109  58.656  33.976  1.00  0.00     0.056 A 
ATOM     17  C   UNL     1      15.081  56.412  33.062  1.00  0.00     0.009 A 
ATOM     18  C   UNL     1      16.470  58.789  33.631  1.00  0.00     0.160 A 
ATOM     19  C   UNL     1      16.428  56.537  32.718  1.00  0.00     0.050 A 
ATOM     20  C   UNL     1      17.125  57.716  33.001  1.00  0.00     0.157 A 
BRANCH  18  21
ATOM     21  O   UNL     1      17.191  59.964  33.896  1.00  0.00    -0.493 OA
ATOM     22  C   UNL     1      17.271  61.078  33.014  1.00  0.00     0.278 C 
ENDBRANCH  18  21
BRANCH  20  23
ATOM     23  O   UNL     1      18.472  57.803  32.646  1.00  0.00    -0.504 OA
ATOM     24  H   UNL     1      19.017  58.642  32.807  1.00  0.00     0.293 HD
ENDBRANCH  20  23
ENDBRANCH  14  15
ENDBRANCH  12  14
ENDBRANCH   9  10
ENDBRANCH   1   9
TORSDOF 10
ENDMDL
MODEL 2
REMARK VINA RESULT:    -5.808      1.153      2.132
REMARK INTER + INTRA:         -10.658
REMARK INTER:                  -9.051
REMARK INTRA:                  -1.607
REMARK UNBOUND:                -1.624
REMARK SMILES COc1cc(CNC(=O)CCCCC=CC(C)C)ccc1O
REMARK SMILES IDX 11 1 12 2 13 3 14 4 15 5 16 6 17 7 18 8 10 9 8 10 9 11 7 12
REMARK SMILES IDX 6 14 5 15 4 16 19 17 3 18 20 19 21 20 2 21 1 22 22 23
REMARK H PARENT 7 13 22 24
REMARK Flexibility Score: inf
ROOT
ATOM      1  C   UNL     1      12.463  54.724  37.045  1.00  0.00     0.010 C 
ENDROOT
BRANCH   1   2
ATOM      2  C   UNL     1      12.544  53.191  37.041  1.00  0.00     0.005 C 
BRANCH   2   3
ATOM      3  C   UNL     1      13.965  52.717  36.712  1.00  0.00     0.027 C 
BRANCH   3   4
ATOM      4  C   UNL     1      14.707  53.749  35.902  1.00  0.00    -0.031 C 
ATOM      5  C   UNL     1      14.774  53.775  34.558  1.00  0.00    -0.028 C 
BRANCH   5   6
ATOM      6  C   UNL     1      14.088  52.797  33.629  1.00  0.00     0.005 C 
ATOM      7  C   UNL     1      14.965  52.553  32.399  1.00  0.00     0.012 C 
ATOM      8  C   UNL     1      12.722  53.352  33.217  1.00  0.00     0.012 C 
ENDBRANCH   5   6
ENDBRANCH   3   4
ENDBRANCH   2   3
ENDBRANCH   1   2
BRANCH   1   9
ATOM      9  C   UNL     1      11.388  55.252  36.086  1.00  0.00     0.100 C 
BRANCH   9  10
ATOM     10  C   UNL     1      11.733  56.614  35.560  1.00  0.00     0.220 C 
ATOM     11  O   UNL     1      11.148  57.629  36.028  1.00  0.00    -0.275 OA
ATOM     12  N   UNL     1      12.742  56.761  34.554  1.00  0.00    -0.352 N 
ATOM     13  H   UNL     1      13.205  55.901  34.179  1.00  0.00     0.163 HD
BRANCH  12  14
ATOM     14  C   UNL     1      13.140  58.078  34.058  1.00  0.00     0.151 C 
BRANCH  14  15
ATOM     15  C   UNL     1      14.593  58.079  33.667  1.00  0.00    -0.025 A 
ATOM     16  C   UNL     1      15.092  57.091  32.804  1.00  0.00     0.056 A 
ATOM     17  C   UNL     1      15.471  59.026  34.212  1.00  0.00     0.009 A 
ATOM     18  C   UNL     1      16.459  57.063  32.460  1.00  0.00     0.160 A 
ATOM     19  C   UNL     1      16.825  59.005  33.876  1.00  0.00     0.050 A 
ATOM     20  C   UNL     1      17.323  58.032  33.002  1.00  0.00     0.157 A 
BRANCH  18  21
ATOM     21  O   UNL     1      16.987  56.093  31.592  1.00  0.00    -0.493 OA
ATOM     22  C   UNL     1      16.295  55.548  30.475  1.00  0.00     0.278 C 
ENDBRANCH  18  21
BRANCH  20  23
ATOM     23  O   UNL     1      18.682  58.044  32.685  1.00  0.00    -0.504 OA
ATOM     24  H   UNL     1      19.360  58.551  33.242  1.00  0.00     0.293 HD
ENDBRANCH  20  23
ENDBRANCH  14  15
ENDBRANCH  12  14
ENDBRANCH   9  10
ENDBRANCH   1   9
TORSDOF 10
ENDMDL
MODEL 3
REMARK VINA RESULT:    -5.746      1.810      3.167
REMARK INTER + INTRA:         -10.562
REMARK INTER:                  -9.230
REMARK INTRA:                  -1.331
REMARK UNBOUND:                -1.624
REMARK SMILES COc1cc(CNC(=O)CCCCC=CC(C)C)ccc1O
REMARK SMILES IDX 11 1 12 2 13 3 14 4 15 5 16 6 17 7 18 8 10 9 8 10 9 11 7 12
REMARK SMILES IDX 6 14 5 15 4 16 19 17 3 18 20 19 21 20 2 21 1 22 22 23
REMARK H PARENT 7 13 22 24
REMARK Flexibility Score: inf
ROOT
ATOM      1  C   UNL     1      11.493  56.483  35.639  1.00  0.00     0.010 C 
ENDROOT
BRANCH   1   2
ATOM      2  C   UNL     1      11.256  55.402  36.704  1.00  0.00     0.005 C 
BRANCH   2   3
ATOM      3  C   UNL     1      11.584  54.009  36.153  1.00  0.00     0.027 C 
BRANCH   3   4
ATOM      4  C   UNL     1      12.723  53.380  36.913  1.00  0.00    -0.031 C 
ATOM      5  C   UNL     1      13.980  53.245  36.450  1.00  0.00    -0.028 C 
BRANCH   5   6
ATOM      6  C   UNL     1      14.474  53.734  35.105  1.00  0.00     0.005 C 
ATOM      7  C   UNL     1      15.652  52.872  34.645  1.00  0.00     0.012 C 
ATOM      8  C   UNL     1      14.890  55.203  35.213  1.00  0.00     0.012 C 
ENDBRANCH   5   6
ENDBRANCH   3   4
ENDBRANCH   2   3
ENDBRANCH   1   2
BRANCH   1   9
ATOM      9  C   UNL     1      10.919  57.844  36.055  1.00  0.00     0.100 C 
BRANCH   9  10
ATOM     10  C   UNL     1      11.691  58.980  35.451  1.00  0.00     0.220 C 
ATOM     11  O   UNL     1      11.535  60.148  35.902  1.00  0.00    -0.275 OA
ATOM     12  N   UNL     1      12.622  58.732  34.391  1.00  0.00    -0.352 N 
ATOM     13  H   UNL     1      12.726  57.755  34.033  1.00  0.00     0.163 HD
BRANCH  12  14
ATOM     14  C   UNL     1      13.430  59.808  33.817  1.00  0.00     0.151 C 
BRANCH  14  15
ATOM     15  C   UNL     1      14.847  59.350  33.604  1.00  0.00    -0.025 A 
ATOM     16  C   UNL     1      15.105  58.133  32.953  1.00  0.00     0.056 A 
ATOM     17  C   UNL     1      15.915  60.101  34.113  1.00  0.00     0.009 A 
ATOM     18  C   UNL     1      16.429  57.679  32.781  1.00  0.00     0.160 A 
ATOM     19  C   UNL     1      17.229  59.657  33.946  1.00  0.00     0.050 A 
ATOM     20  C   UNL     1      17.491  58.455  33.282  1.00  0.00     0.157 A 
BRANCH  18  21
ATOM     21  O   UNL     1      16.720  56.472  32.127  1.00  0.00    -0.493 OA
ATOM     22  C   UNL     1      15.741  55.556  31.650  1.00  0.00     0.278 C 
ENDBRANCH  18  21
BRANCH  20  23
ATOM     23  O   UNL     1      18.816  58.045  33.130  1.00  0.00    -0.504 OA
ATOM     24  H   UNL     1      19.379  58.327  32.336  1.00  0.00     0.293 HD
ENDBRANCH  20  23
ENDBRANCH  14  15
ENDBRANCH  12  14
ENDBRANCH   9  10
ENDBRANCH   1   9
TORSDOF 10
ENDMDL
MODEL 4
REMARK VINA RESULT:    -5.477      1.970      3.893
REMARK INTER + INTRA:         -10.143
REMARK INTER:                  -8.743
REMARK INTRA:                  -1.400
REMARK UNBOUND:                -1.624
REMARK SMILES COc1cc(CNC(=O)CCCCC=CC(C)C)ccc1O
REMARK SMILES IDX 11 1 12 2 13 3 14 4 15 5 16 6 17 7 18 8 10 9 8 10 9 11 7 12
REMARK SMILES IDX 6 14 5 15 4 16 19 17 3 18 20 19 21 20 2 21 1 22 22 23
REMARK H PARENT 7 13 22 24
REMARK Flexibility Score: inf
ROOT
ATOM      1  C   UNL     1      15.456  52.993  34.648  1.00  0.00     0.010 C 
ENDROOT
BRANCH   1   2
ATOM      2  C   UNL     1      14.623  52.534  35.854  1.00  0.00     0.005 C 
BRANCH   2   3
ATOM      3  C   UNL     1      14.218  53.727  36.727  1.00  0.00     0.027 C 
BRANCH   3   4
ATOM      4  C   UNL     1      12.743  53.701  37.032  1.00  0.00    -0.031 C 
ATOM      5  C   UNL     1      11.817  54.481  36.443  1.00  0.00    -0.028 C 
BRANCH   5   6
ATOM      6  C   UNL     1      12.093  55.489  35.348  1.00  0.00     0.005 C 
ATOM      7  C   UNL     1      11.353  56.794  35.652  1.00  0.00     0.012 C 
ATOM      8  C   UNL     1      11.648  54.919  33.999  1.00  0.00     0.012 C 
ENDBRANCH   5   6
ENDBRANCH   3   4
ENDBRANCH   2   3
ENDBRANCH   1   2
BRANCH   1   9
ATOM      9  C   UNL     1      14.678  52.889  33.330  1.00  0.00     0.100 C 
BRANCH   9  10
ATOM     10  C   UNL     1      15.006  54.020  32.400  1.00  0.00     0.220 C 
ATOM     11  O   UNL     1      14.316  54.189  31.358  1.00  0.00    -0.275 OA
ATOM     12  N   UNL     1      16.077  54.918  32.712  1.00  0.00    -0.352 N 
ATOM     13  H   UNL     1      16.636  54.750  33.580  1.00  0.00     0.163 HD
BRANCH  12  14
ATOM     14  C   UNL     1      16.389  56.062  31.856  1.00  0.00     0.151 C 
BRANCH  14  15
ATOM     15  C   UNL     1      16.386  57.338  32.655  1.00  0.00    -0.025 A 
ATOM     16  C   UNL     1      15.171  57.932  33.031  1.00  0.00     0.056 A 
ATOM     17  C   UNL     1      17.593  57.975  32.971  1.00  0.00     0.009 A 
ATOM     18  C   UNL     1      15.159  59.145  33.749  1.00  0.00     0.160 A 
ATOM     19  C   UNL     1      17.589  59.177  33.682  1.00  0.00     0.050 A 
ATOM     20  C   UNL     1      16.381  59.762  34.074  1.00  0.00     0.157 A 
BRANCH  18  21
ATOM     21  O   UNL     1      13.961  59.759  34.148  1.00  0.00    -0.493 OA
ATOM     22  C   UNL     1      13.254  60.726  33.380  1.00  0.00     0.278 C 
ENDBRANCH  18  21
BRANCH  20  23
ATOM     23  O   UNL     1      16.414  60.961  34.787  1.00  0.00    -0.504 OA
ATOM     24  H   UNL     1      16.943  61.062  35.646  1.00  0.00     0.293 HD
ENDBRANCH  20  23
ENDBRANCH  14  15
ENDBRANCH  12  14
ENDBRANCH   9  10
ENDBRANCH   1   9
TORSDOF 10
ENDMDL
MODEL 5
REMARK VINA RESULT:    -5.401      1.582      2.984
REMARK INTER + INTRA:         -10.024
REMARK INTER:                  -8.252
REMARK INTRA:                  -1.772
REMARK UNBOUND:                -1.624
REMARK SMILES COc1cc(CNC(=O)CCCCC=CC(C)C)ccc1O
REMARK SMILES IDX 11 1 12 2 13 3 14 4 15 5 16 6 17 7 18 8 10 9 8 10 9 11 7 12
REMARK SMILES IDX 6 14 5 15 4 16 19 17 3 18 20 19 21 20 2 21 1 22 22 23
REMARK H PARENT 7 13 22 24
REMARK Flexibility Score: inf
ROOT
ATOM      1  C   UNL     1      12.999  52.422  32.122  1.00  0.00     0.010 C 
ENDROOT
BRANCH   1   2
ATOM      2  C   UNL     1      14.398  52.775  32.648  1.00  0.00     0.005 C 
BRANCH   2   3
ATOM      3  C   UNL     1      14.601  52.236  34.069  1.00  0.00     0.027 C 
BRANCH   3   4
ATOM      4  C   UNL     1      15.136  53.307  34.984  1.00  0.00    -0.031 C 
ATOM      5  C   UNL     1      14.418  53.953  35.922  1.00  0.00    -0.028 C 
BRANCH   5   6
ATOM      6  C   UNL     1      12.963  53.689  36.244  1.00  0.00     0.005 C 
ATOM      7  C   UNL     1      12.266  55.007  36.591  1.00  0.00     0.012 C 
ATOM      8  C   UNL     1      12.865  52.703  37.411  1.00  0.00     0.012 C 
ENDBRANCH   5   6
ENDBRANCH   3   4
ENDBRANCH   2   3
ENDBRANCH   1   2
BRANCH   1   9
ATOM      9  C   UNL     1      11.935  53.427  32.584  1.00  0.00     0.100 C 
BRANCH   9  10
ATOM     10  C   UNL     1      12.287  54.831  32.187  1.00  0.00     0.220 C 
ATOM     11  O   UNL     1      12.203  55.176  30.977  1.00  0.00    -0.275 OA
ATOM     12  N   UNL     1      12.688  55.779  33.183  1.00  0.00    -0.352 N 
ATOM     13  H   UNL     1      12.756  55.463  34.178  1.00  0.00     0.163 HD
BRANCH  12  14
ATOM     14  C   UNL     1      12.986  57.169  32.838  1.00  0.00     0.151 C 
BRANCH  14  15
ATOM     15  C   UNL     1      14.473  57.401  32.813  1.00  0.00    -0.025 A 
ATOM     16  C   UNL     1      14.982  58.694  32.619  1.00  0.00     0.056 A 
ATOM     17  C   UNL     1      15.357  56.319  32.916  1.00  0.00     0.009 A 
ATOM     18  C   UNL     1      16.374  58.914  32.559  1.00  0.00     0.160 A 
ATOM     19  C   UNL     1      16.736  56.529  32.857  1.00  0.00     0.050 A 
ATOM     20  C   UNL     1      17.248  57.819  32.683  1.00  0.00     0.157 A 
BRANCH  18  21
ATOM     21  O   UNL     1      16.914  60.197  32.375  1.00  0.00    -0.493 OA
ATOM     22  C   UNL     1      17.170  61.123  33.425  1.00  0.00     0.278 C 
ENDBRANCH  18  21
BRANCH  20  23
ATOM     23  O   UNL     1      18.632  57.994  32.633  1.00  0.00    -0.504 OA
ATOM     24  H   UNL     1      19.233  57.749  33.411  1.00  0.00     0.293 HD
ENDBRANCH  20  23
ENDBRANCH  14  15
ENDBRANCH  12  14
ENDBRANCH   9  10
ENDBRANCH   1   9
TORSDOF 10
ENDMDL
MODEL 6
REMARK VINA RESULT:    -5.213      1.956      3.422
REMARK INTER + INTRA:          -9.731
REMARK INTER:                  -8.363
REMARK INTRA:                  -1.368
REMARK UNBOUND:                -1.624
REMARK SMILES COc1cc(CNC(=O)CCCCC=CC(C)C)ccc1O
REMARK SMILES IDX 11 1 12 2 13 3 14 4 15 5 16 6 17 7 18 8 10 9 8 10 9 11 7 12
REMARK SMILES IDX 6 14 5 15 4 16 19 17 3 18 20 19 21 20 2 21 1 22 22 23
REMARK H PARENT 7 13 22 24
REMARK Flexibility Score: inf
ROOT
ATOM      1  C   UNL     1      14.194  53.792  36.546  1.00  0.00     0.010 C 
ENDROOT
BRANCH   1   2
ATOM      2  C   UNL     1      12.809  53.268  36.954  1.00  0.00     0.005 C 
BRANCH   2   3
ATOM      3  C   UNL     1      11.695  54.111  36.321  1.00  0.00     0.027 C 
BRANCH   3   4
ATOM      4  C   UNL     1      12.207  55.467  35.913  1.00  0.00    -0.031 C 
ATOM      5  C   UNL     1      12.007  56.040  34.711  1.00  0.00    -0.028 C 
BRANCH   5   6
ATOM      6  C   UNL     1      11.202  55.438  33.579  1.00  0.00     0.005 C 
ATOM      7  C   UNL     1      11.995  54.299  32.934  1.00  0.00     0.012 C 
ATOM      8  C   UNL     1      10.876  56.521  32.547  1.00  0.00     0.012 C 
ENDBRANCH   5   6
ENDBRANCH   3   4
ENDBRANCH   2   3
ENDBRANCH   1   2
BRANCH   1   9
ATOM      9  C   UNL     1      14.931  52.821  35.614  1.00  0.00     0.100 C 
BRANCH   9  10
ATOM     10  C   UNL     1      15.217  53.442  34.278  1.00  0.00     0.220 C 
ATOM     11  O   UNL     1      15.325  52.706  33.260  1.00  0.00    -0.275 OA
ATOM     12  N   UNL     1      15.336  54.865  34.158  1.00  0.00    -0.352 N 
ATOM     13  H   UNL     1      15.248  55.449  35.021  1.00  0.00     0.163 HD
BRANCH  12  14
ATOM     14  C   UNL     1      15.560  55.506  32.863  1.00  0.00     0.151 C 
BRANCH  14  15
ATOM     15  C   UNL     1      16.130  56.886  33.048  1.00  0.00    -0.025 A 
ATOM     16  C   UNL     1      15.329  57.917  33.564  1.00  0.00     0.056 A 
ATOM     17  C   UNL     1      17.442  57.168  32.645  1.00  0.00     0.009 A 
ATOM     18  C   UNL     1      15.845  59.222  33.708  1.00  0.00     0.160 A 
ATOM     19  C   UNL     1      17.959  58.457  32.784  1.00  0.00     0.050 A 
ATOM     20  C   UNL     1      17.170  59.482  33.315  1.00  0.00     0.157 A 
BRANCH  18  21
ATOM     21  O   UNL     1      15.072  60.271  34.229  1.00  0.00    -0.493 OA
ATOM     22  C   UNL     1      13.675  60.432  34.008  1.00  0.00     0.278 C 
ENDBRANCH  18  21
BRANCH  20  23
ATOM     23  O   UNL     1      17.721  60.758  33.444  1.00  0.00    -0.504 OA
ATOM     24  H   UNL     1      17.745  61.414  32.671  1.00  0.00     0.293 HD
ENDBRANCH  20  23
ENDBRANCH  14  15
ENDBRANCH  12  14
ENDBRANCH   9  10
ENDBRANCH   1   9
TORSDOF 10
ENDMDL
MODEL 7
REMARK VINA RESULT:    -5.209      2.167      3.678
REMARK INTER + INTRA:          -9.725
REMARK INTER:                  -8.151
REMARK INTRA:                  -1.574
REMARK UNBOUND:                -1.624
REMARK SMILES COc1cc(CNC(=O)CCCCC=CC(C)C)ccc1O
REMARK SMILES IDX 11 1 12 2 13 3 14 4 15 5 16 6 17 7 18 8 10 9 8 10 9 11 7 12
REMARK SMILES IDX 6 14 5 15 4 16 19 17 3 18 20 19 21 20 2 21 1 22 22 23
REMARK H PARENT 7 13 22 24
REMARK Flexibility Score: inf
ROOT
ATOM      1  C   UNL     1      15.771  53.038  34.517  1.00  0.00     0.010 C 
ENDROOT
BRANCH   1   2
ATOM      2  C   UNL     1      15.273  53.328  35.941  1.00  0.00     0.005 C 
BRANCH   2   3
ATOM      3  C   UNL     1      13.807  52.906  36.105  1.00  0.00     0.027 C 
BRANCH   3   4
ATOM      4  C   UNL     1      13.039  53.919  36.914  1.00  0.00    -0.031 C 
ATOM      5  C   UNL     1      12.384  54.979  36.404  1.00  0.00    -0.028 C 
BRANCH   5   6
ATOM      6  C   UNL     1      12.275  55.315  34.932  1.00  0.00     0.005 C 
ATOM      7  C   UNL     1      13.342  56.347  34.560  1.00  0.00     0.012 C 
ATOM      8  C   UNL     1      10.875  55.853  34.630  1.00  0.00     0.012 C 
ENDBRANCH   5   6
ENDBRANCH   3   4
ENDBRANCH   2   3
ENDBRANCH   1   2
BRANCH   1   9
ATOM      9  C   UNL     1      14.617  52.773  33.541  1.00  0.00     0.100 C 
BRANCH   9  10
ATOM     10  C   UNL     1      14.618  53.748  32.401  1.00  0.00     0.220 C 
ATOM     11  O   UNL     1      13.636  53.785  31.611  1.00  0.00    -0.275 OA
ATOM     12  N   UNL     1      15.717  54.653  32.231  1.00  0.00    -0.352 N 
ATOM     13  H   UNL     1      16.521  54.595  32.897  1.00  0.00     0.163 HD
BRANCH  12  14
ATOM     14  C   UNL     1      15.725  55.652  31.163  1.00  0.00     0.151 C 
BRANCH  14  15
ATOM     15  C   UNL     1      16.234  56.972  31.678  1.00  0.00    -0.025 A 
ATOM     16  C   UNL     1      15.657  58.172  31.235  1.00  0.00     0.056 A 
ATOM     17  C   UNL     1      17.329  57.014  32.551  1.00  0.00     0.009 A 
ATOM     18  C   UNL     1      16.151  59.414  31.684  1.00  0.00     0.160 A 
ATOM     19  C   UNL     1      17.823  58.239  33.001  1.00  0.00     0.050 A 
ATOM     20  C   UNL     1      17.239  59.437  32.575  1.00  0.00     0.157 A 
BRANCH  18  21
ATOM     21  O   UNL     1      15.589  60.631  31.267  1.00  0.00    -0.493 OA
ATOM     22  C   UNL     1      14.195  60.859  31.093  1.00  0.00     0.278 C 
ENDBRANCH  18  21
BRANCH  20  23
ATOM     23  O   UNL     1      17.756  60.644  33.048  1.00  0.00    -0.504 OA
ATOM     24  H   UNL     1      17.189  61.308  33.562  1.00  0.00     0.293 HD
ENDBRANCH  20  23
ENDBRANCH  14  15
ENDBRANCH  12  14
ENDBRANCH   9  10
ENDBRANCH   1   9
TORSDOF 10
ENDMDL
MODEL 8
REMARK VINA RESULT:    -5.076      1.947      3.601
REMARK INTER + INTRA:          -9.519
REMARK INTER:                  -8.020
REMARK INTRA:                  -1.499
REMARK UNBOUND:                -1.624
REMARK SMILES COc1cc(CNC(=O)CCCCC=CC(C)C)ccc1O
REMARK SMILES IDX 11 1 12 2 13 3 14 4 15 5 16 6 17 7 18 8 10 9 8 10 9 11 7 12
REMARK SMILES IDX 6 14 5 15 4 16 19 17 3 18 20 19 21 20 2 21 1 22 22 23
REMARK H PARENT 7 13 22 24
REMARK Flexibility Score: inf
ROOT
ATOM      1  C   UNL     1      11.927  54.528  33.117  1.00  0.00     0.010 C 
ENDROOT
BRANCH   1   2
ATOM      2  C   UNL     1      11.034  54.007  34.253  1.00  0.00     0.005 C 
BRANCH   2   3
ATOM      3  C   UNL     1      11.354  54.720  35.572  1.00  0.00     0.027 C 
BRANCH   3   4
ATOM      4  C   UNL     1      11.819  53.742  36.619  1.00  0.00    -0.031 C 
ATOM      5  C   UNL     1      13.074  53.267  36.731  1.00  0.00    -0.028 C 
BRANCH   5   6
ATOM      6  C   UNL     1      14.240  53.662  35.850  1.00  0.00     0.005 C 
ATOM      7  C   UNL     1      15.064  52.421  35.499  1.00  0.00     0.012 C 
ATOM      8  C   UNL     1      15.105  54.696  36.575  1.00  0.00     0.012 C 
ENDBRANCH   5   6
ENDBRANCH   3   4
ENDBRANCH   2   3
ENDBRANCH   1   2
BRANCH   1   9
ATOM      9  C   UNL     1      12.779  53.416  32.491  1.00  0.00     0.100 C 
BRANCH   9  10
ATOM     10  C   UNL     1      14.159  53.898  32.153  1.00  0.00     0.220 C 
ATOM     11  O   UNL     1      14.940  53.148  31.507  1.00  0.00    -0.275 OA
ATOM     12  N   UNL     1      14.575  55.215  32.537  1.00  0.00    -0.352 N 
ATOM     13  H   UNL     1      13.909  55.812  33.078  1.00  0.00     0.163 HD
BRANCH  12  14
ATOM     14  C   UNL     1      15.893  55.735  32.177  1.00  0.00     0.151 C 
BRANCH  14  15
ATOM     15  C   UNL     1      16.117  57.086  32.800  1.00  0.00    -0.025 A 
ATOM     16  C   UNL     1      15.023  57.871  33.196  1.00  0.00     0.056 A 
ATOM     17  C   UNL     1      17.416  57.597  32.931  1.00  0.00     0.009 A 
ATOM     18  C   UNL     1      15.222  59.153  33.748  1.00  0.00     0.160 A 
ATOM     19  C   UNL     1      17.621  58.865  33.477  1.00  0.00     0.050 A 
ATOM     20  C   UNL     1      16.534  59.642  33.889  1.00  0.00     0.157 A 
BRANCH  18  21
ATOM     21  O   UNL     1      14.149  59.958  34.161  1.00  0.00    -0.493 OA
ATOM     22  C   UNL     1      13.384  60.790  33.296  1.00  0.00     0.278 C 
ENDBRANCH  18  21
BRANCH  20  23
ATOM     23  O   UNL     1      16.776  60.904  34.435  1.00  0.00    -0.504 OA
ATOM     24  H   UNL     1      17.591  61.095  35.006  1.00  0.00     0.293 HD
ENDBRANCH  20  23
ENDBRANCH  14  15
ENDBRANCH  12  14
ENDBRANCH   9  10
ENDBRANCH   1   9
TORSDOF 10
ENDMDL
MODEL 9
REMARK VINA RESULT:    -4.901      2.133      3.741
REMARK INTER + INTRA:          -9.246
REMARK INTER:                  -7.403
REMARK INTRA:                  -1.843
REMARK UNBOUND:                -1.624
REMARK SMILES COc1cc(CNC(=O)CCCCC=CC(C)C)ccc1O
REMARK SMILES IDX 11 1 12 2 13 3 14 4 15 5 16 6 17 7 18 8 10 9 8 10 9 11 7 12
REMARK SMILES IDX 6 14 5 15 4 16 19 17 3 18 20 19 21 20 2 21 1 22 22 23
REMARK H PARENT 7 13 22 24
REMARK Flexibility Score: inf
ROOT
ATOM      1  C   UNL     1      14.637  53.934  36.375  1.00  0.00     0.010 C 
ENDROOT
BRANCH   1   2
ATOM      2  C   UNL     1      13.307  53.407  36.934  1.00  0.00     0.005 C 
BRANCH   2   3
ATOM      3  C   UNL     1      12.141  53.767  36.005  1.00  0.00     0.027 C 
BRANCH   3   4
ATOM      4  C   UNL     1      11.596  55.135  36.325  1.00  0.00    -0.031 C 
ATOM      5  C   UNL     1      11.850  56.253  35.619  1.00  0.00    -0.028 C 
BRANCH   5   6
ATOM      6  C   UNL     1      12.694  56.322  34.364  1.00  0.00     0.005 C 
ATOM      7  C   UNL     1      13.141  57.765  34.123  1.00  0.00     0.012 C 
ATOM      8  C   UNL     1      11.887  55.800  33.173  1.00  0.00     0.012 C 
ENDBRANCH   5   6
ENDBRANCH   3   4
ENDBRANCH   2   3
ENDBRANCH   1   2
BRANCH   1   9
ATOM      9  C   UNL     1      15.369  52.883  35.529  1.00  0.00     0.100 C 
BRANCH   9  10
ATOM     10  C   UNL     1      15.162  53.110  34.061  1.00  0.00     0.220 C 
ATOM     11  O   UNL     1      14.595  52.223  33.367  1.00  0.00    -0.275 OA
ATOM     12  N   UNL     1      15.580  54.341  33.458  1.00  0.00    -0.352 N 
ATOM     13  H   UNL     1      16.054  55.056  34.057  1.00  0.00     0.163 HD
BRANCH  12  14
ATOM     14  C   UNL     1      15.345  54.617  32.041  1.00  0.00     0.151 C 
BRANCH  14  15
ATOM     15  C   UNL     1      15.567  56.075  31.742  1.00  0.00    -0.025 A 
ATOM     16  C   UNL     1      16.341  56.863  32.608  1.00  0.00     0.056 A 
ATOM     17  C   UNL     1      14.950  56.670  30.634  1.00  0.00     0.009 A 
ATOM     18  C   UNL     1      16.525  58.238  32.354  1.00  0.00     0.160 A 
ATOM     19  C   UNL     1      15.128  58.030  30.376  1.00  0.00     0.050 A 
ATOM     20  C   UNL     1      15.913  58.815  31.227  1.00  0.00     0.157 A 
BRANCH  18  21
ATOM     21  O   UNL     1      17.301  59.050  33.196  1.00  0.00    -0.493 OA
ATOM     22  C   UNL     1      16.819  59.682  34.377  1.00  0.00     0.278 C 
ENDBRANCH  18  21
BRANCH  20  23
ATOM     23  O   UNL     1      16.072  60.171  30.936  1.00  0.00    -0.504 OA
ATOM     24  H   UNL     1      15.374  60.696  30.423  1.00  0.00     0.293 HD
ENDBRANCH  20  23
ENDBRANCH  14  15
ENDBRANCH  12  14
ENDBRANCH   9  10
ENDBRANCH   1   9
TORSDOF 10
ENDMDL
