MODEL 1
REMARK VINA RESULT:    -5.030      0.000      0.000
REMARK INTER + INTRA:          -7.947
REMARK INTER:                  -7.677
REMARK INTRA:                  -0.270
REMARK UNBOUND:                -0.270
REMARK SMILES O=C([O-])CCCCCCCCC(=O)[O-]
REMARK SMILES IDX 7 1 6 2 5 3 4 4 2 5 1 6 3 7 8 8 9 9 10 10 11 11 12 12 13 13
REMARK SMILES IDX 14 14
REMARK H PARENT
REMARK Flexibility Score: inf
ROOT
ATOM      1  C   UNL     1     -12.509  10.064   7.890  1.00  0.00     0.000 C 
ENDROOT
BRANCH   1   2
ATOM      2  C   UNL     1     -13.118   9.025   6.935  1.00  0.00     0.000 C 
BRANCH   2   3
ATOM      3  C   UNL     1     -14.084   8.061   7.646  1.00  0.00     0.006 C 
BRANCH   3   4
ATOM      4  C   UNL     1     -13.979   6.630   7.101  1.00  0.00     0.053 C 
BRANCH   4   5
ATOM      5  C   UNL     1     -14.923   5.697   7.797  1.00  0.00     0.041 C 
ATOM      6  O   UNL     1     -14.910   4.468   7.528  1.00  0.00    -0.550 OA
ATOM      7  O   UNL     1     -15.837   6.191   8.720  1.00  0.00    -0.550 OA
ENDBRANCH   4   5
ENDBRANCH   3   4
ENDBRANCH   2   3
ENDBRANCH   1   2
BRANCH   1   8
ATOM      8  C   UNL     1     -11.619  11.086   7.162  1.00  0.00     0.000 C 
BRANCH   8   9
ATOM      9  C   UNL     1     -11.758  11.017   5.630  1.00  0.00     0.000 C 
BRANCH   9  10
ATOM     10  C   UNL     1     -10.676  11.782   4.839  1.00  0.00     0.006 C 
BRANCH  10  11
ATOM     11  C   UNL     1     -10.444  11.266   3.411  1.00  0.00     0.053 C 
BRANCH  11  12
ATOM     12  C   UNL     1      -9.666  12.240   2.582  1.00  0.00     0.041 C 
ATOM     13  O   UNL     1      -8.730  11.838   1.842  1.00  0.00    -0.550 OA
ATOM     14  O   UNL     1      -9.998  13.588   2.600  1.00  0.00    -0.550 OA
ENDBRANCH  11  12
ENDBRANCH  10  11
ENDBRANCH   9  10
ENDBRANCH   8   9
ENDBRANCH   1   8
TORSDOF 9
ENDMDL
MODEL 2
REMARK VINA RESULT:    -4.999      3.676      4.675
REMARK INTER + INTRA:          -7.900
REMARK INTER:                  -7.462
REMARK INTRA:                  -0.438
REMARK UNBOUND:                -0.270
REMARK SMILES O=C([O-])CCCCCCCCC(=O)[O-]
REMARK SMILES IDX 7 1 6 2 5 3 4 4 2 5 1 6 3 7 8 8 9 9 10 10 11 11 12 12 13 13
REMARK SMILES IDX 14 14
REMARK H PARENT
REMARK Flexibility Score: inf
ROOT
ATOM      1  C   UNL     1     -10.999  11.123   4.071  1.00  0.00     0.000 C 
ENDROOT
BRANCH   1   2
ATOM      2  C   UNL     1     -11.222  11.450   5.556  1.00  0.00     0.000 C 
BRANCH   2   3
ATOM      3  C   UNL     1     -12.263  10.529   6.216  1.00  0.00     0.006 C 
BRANCH   3   4
ATOM      4  C   UNL     1     -12.028  10.378   7.725  1.00  0.00     0.053 C 
BRANCH   4   5
ATOM      5  C   UNL     1     -12.112  11.694   8.437  1.00  0.00     0.041 C 
ATOM      6  O   UNL     1     -11.097  12.169   9.010  1.00  0.00    -0.550 OA
ATOM      7  O   UNL     1     -13.318  12.381   8.493  1.00  0.00    -0.550 OA
ENDBRANCH   4   5
ENDBRANCH   3   4
ENDBRANCH   2   3
ENDBRANCH   1   2
BRANCH   1   8
ATOM      8  C   UNL     1      -9.640  11.625   3.552  1.00  0.00     0.000 C 
BRANCH   8   9
ATOM      9  C   UNL     1      -9.256  13.004   4.117  1.00  0.00     0.000 C 
BRANCH   9  10
ATOM     10  C   UNL     1      -7.765  13.377   3.980  1.00  0.00     0.006 C 
BRANCH  10  11
ATOM     11  C   UNL     1      -7.112  12.929   2.664  1.00  0.00     0.053 C 
BRANCH  11  12
ATOM     12  C   UNL     1      -7.441  13.851   1.532  1.00  0.00     0.041 C 
ATOM     13  O   UNL     1      -8.181  13.462   0.590  1.00  0.00    -0.550 OA
ATOM     14  O   UNL     1      -6.958  15.153   1.534  1.00  0.00    -0.550 OA
ENDBRANCH  11  12
ENDBRANCH  10  11
ENDBRANCH   9  10
ENDBRANCH   8   9
ENDBRANCH   1   8
TORSDOF 9
ENDMDL
MODEL 3
REMARK VINA RESULT:    -4.996      1.370      2.181
REMARK INTER + INTRA:          -7.895
REMARK INTER:                  -7.651
REMARK INTRA:                  -0.243
REMARK UNBOUND:                -0.270
REMARK SMILES O=C([O-])CCCCCCCCC(=O)[O-]
REMARK SMILES IDX 7 1 6 2 5 3 4 4 2 5 1 6 3 7 8 8 9 9 10 10 11 11 12 12 13 13
REMARK SMILES IDX 14 14
REMARK H PARENT
REMARK Flexibility Score: inf
ROOT
ATOM      1  C   UNL     1     -11.374  11.390   6.673  1.00  0.00     0.000 C 
ENDROOT
BRANCH   1   2
ATOM      2  C   UNL     1     -12.777  11.184   7.267  1.00  0.00     0.000 C 
BRANCH   2   3
ATOM      3  C   UNL     1     -12.937   9.814   7.949  1.00  0.00     0.006 C 
BRANCH   3   4
ATOM      4  C   UNL     1     -13.222   8.695   6.939  1.00  0.00     0.053 C 
BRANCH   4   5
ATOM      5  C   UNL     1     -14.078   7.616   7.529  1.00  0.00     0.041 C 
ATOM      6  O   UNL     1     -14.183   6.503   6.948  1.00  0.00    -0.550 OA
ATOM      7  O   UNL     1     -14.784   7.849   8.702  1.00  0.00    -0.550 OA
ENDBRANCH   4   5
ENDBRANCH   3   4
ENDBRANCH   2   3
ENDBRANCH   1   2
BRANCH   1   8
ATOM      8  C   UNL     1     -11.317  11.078   5.168  1.00  0.00     0.000 C 
BRANCH   8   9
ATOM      9  C   UNL     1     -10.515  12.122   4.369  1.00  0.00     0.000 C 
BRANCH   9  10
ATOM     10  C   UNL     1     -10.570  11.957   2.836  1.00  0.00     0.006 C 
BRANCH  10  11
ATOM     11  C   UNL     1      -9.266  12.319   2.108  1.00  0.00     0.053 C 
BRANCH  11  12
ATOM     12  C   UNL     1      -8.806  13.705   2.436  1.00  0.00     0.041 C 
ATOM     13  O   UNL     1      -9.516  14.699   2.129  1.00  0.00    -0.550 OA
ATOM     14  O   UNL     1      -7.609  13.898   3.113  1.00  0.00    -0.550 OA
ENDBRANCH  11  12
ENDBRANCH  10  11
ENDBRANCH   9  10
ENDBRANCH   8   9
ENDBRANCH   1   8
TORSDOF 9
ENDMDL
MODEL 4
REMARK VINA RESULT:    -4.985      5.143      6.031
REMARK INTER + INTRA:          -7.877
REMARK INTER:                  -7.496
REMARK INTRA:                  -0.382
REMARK UNBOUND:                -0.270
REMARK SMILES O=C([O-])CCCCCCCCC(=O)[O-]
REMARK SMILES IDX 7 1 6 2 5 3 4 4 2 5 1 6 3 7 8 8 9 9 10 10 11 11 12 12 13 13
REMARK SMILES IDX 14 14
REMARK H PARENT
REMARK Flexibility Score: inf
ROOT
ATOM      1  C   UNL     1     -11.020  11.863   6.789  1.00  0.00     0.000 C 
ENDROOT
BRANCH   1   2
ATOM      2  C   UNL     1     -11.565  11.513   8.183  1.00  0.00     0.000 C 
BRANCH   2   3
ATOM      3  C   UNL     1     -11.195  12.565   9.244  1.00  0.00     0.006 C 
BRANCH   3   4
ATOM      4  C   UNL     1     -10.026  13.452   8.797  1.00  0.00     0.053 C 
BRANCH   4   5
ATOM      5  C   UNL     1      -9.952  14.721   9.591  1.00  0.00     0.041 C 
ATOM      6  O   UNL     1      -9.014  14.899  10.411  1.00  0.00    -0.550 OA
ATOM      7  O   UNL     1     -10.934  15.692   9.447  1.00  0.00    -0.550 OA
ENDBRANCH   4   5
ENDBRANCH   3   4
ENDBRANCH   2   3
ENDBRANCH   1   2
BRANCH   1   8
ATOM      8  C   UNL     1     -11.614  10.974   5.683  1.00  0.00     0.000 C 
BRANCH   8   9
ATOM      9  C   UNL     1     -10.894  11.136   4.332  1.00  0.00     0.000 C 
BRANCH   9  10
ATOM     10  C   UNL     1     -10.128  12.464   4.153  1.00  0.00     0.006 C 
BRANCH  10  11
ATOM     11  C   UNL     1     -10.105  12.999   2.714  1.00  0.00     0.053 C 
BRANCH  11  12
ATOM     12  C   UNL     1      -8.916  13.872   2.459  1.00  0.00     0.041 C 
ATOM     13  O   UNL     1      -7.755  13.384   2.475  1.00  0.00    -0.550 OA
ATOM     14  O   UNL     1      -9.092  15.219   2.169  1.00  0.00    -0.550 OA
ENDBRANCH  11  12
ENDBRANCH  10  11
ENDBRANCH   9  10
ENDBRANCH   8   9
ENDBRANCH   1   8
TORSDOF 9
ENDMDL
MODEL 5
REMARK VINA RESULT:    -4.984      1.848      8.278
REMARK INTER + INTRA:          -7.877
REMARK INTER:                  -7.488
REMARK INTRA:                  -0.389
REMARK UNBOUND:                -0.270
REMARK SMILES O=C([O-])CCCCCCCCC(=O)[O-]
REMARK SMILES IDX 7 1 6 2 5 3 4 4 2 5 1 6 3 7 8 8 9 9 10 10 11 11 12 12 13 13
REMARK SMILES IDX 14 14
REMARK H PARENT
REMARK Flexibility Score: inf
ROOT
ATOM      1  C   UNL     1     -10.731  11.206   4.376  1.00  0.00     0.000 C 
ENDROOT
BRANCH   1   2
ATOM      2  C   UNL     1     -10.329  12.463   3.586  1.00  0.00     0.000 C 
BRANCH   2   3
ATOM      3  C   UNL     1      -9.232  13.280   4.292  1.00  0.00     0.006 C 
BRANCH   3   4
ATOM      4  C   UNL     1      -7.837  12.990   3.721  1.00  0.00     0.053 C 
BRANCH   4   5
ATOM      5  C   UNL     1      -7.667  13.560   2.346  1.00  0.00     0.041 C 
ATOM      6  O   UNL     1      -7.268  12.827   1.403  1.00  0.00    -0.550 OA
ATOM      7  O   UNL     1      -7.921  14.905   2.113  1.00  0.00    -0.550 OA
ENDBRANCH   4   5
ENDBRANCH   3   4
ENDBRANCH   2   3
ENDBRANCH   1   2
BRANCH   1   8
ATOM      8  C   UNL     1     -11.836  11.486   5.409  1.00  0.00     0.000 C 
BRANCH   8   9
ATOM      9  C   UNL     1     -11.316  11.484   6.857  1.00  0.00     0.000 C 
BRANCH   9  10
ATOM     10  C   UNL     1     -12.059  10.535   7.820  1.00  0.00     0.006 C 
BRANCH  10  11
ATOM     11  C   UNL     1     -12.754   9.348   7.137  1.00  0.00     0.053 C 
BRANCH  11  12
ATOM     12  C   UNL     1     -13.427   8.447   8.126  1.00  0.00     0.041 C 
ATOM     13  O   UNL     1     -14.556   7.952   7.867  1.00  0.00    -0.550 OA
ATOM     14  O   UNL     1     -12.792   8.127   9.318  1.00  0.00    -0.550 OA
ENDBRANCH  11  12
ENDBRANCH  10  11
ENDBRANCH   9  10
ENDBRANCH   8   9
ENDBRANCH   1   8
TORSDOF 9
ENDMDL
MODEL 6
REMARK VINA RESULT:    -4.975      0.446      8.084
REMARK INTER + INTRA:          -7.863
REMARK INTER:                  -7.614
REMARK INTRA:                  -0.249
REMARK UNBOUND:                -0.270
REMARK SMILES O=C([O-])CCCCCCCCC(=O)[O-]
REMARK SMILES IDX 7 1 6 2 5 3 4 4 2 5 1 6 3 7 8 8 9 9 10 10 11 11 12 12 13 13
REMARK SMILES IDX 14 14
REMARK H PARENT
REMARK Flexibility Score: inf
ROOT
ATOM      1  C   UNL     1     -11.615  11.158   7.027  1.00  0.00     0.000 C 
ENDROOT
BRANCH   1   2
ATOM      2  C   UNL     1     -11.626  10.977   5.500  1.00  0.00     0.000 C 
BRANCH   2   3
ATOM      3  C   UNL     1     -10.508  11.770   4.801  1.00  0.00     0.006 C 
BRANCH   3   4
ATOM      4  C   UNL     1     -10.852  12.092   3.341  1.00  0.00     0.053 C 
BRANCH   4   5
ATOM      5  C   UNL     1      -9.820  12.972   2.704  1.00  0.00     0.041 C 
ATOM      6  O   UNL     1      -9.729  14.182   3.037  1.00  0.00    -0.550 OA
ATOM      7  O   UNL     1      -8.979  12.462   1.723  1.00  0.00    -0.550 OA
ENDBRANCH   4   5
ENDBRANCH   3   4
ENDBRANCH   2   3
ENDBRANCH   1   2
BRANCH   1   8
ATOM      8  C   UNL     1     -12.293   9.991   7.765  1.00  0.00     0.000 C 
BRANCH   8   9
ATOM      9  C   UNL     1     -13.095   9.072   6.826  1.00  0.00     0.000 C 
BRANCH   9  10
ATOM     10  C   UNL     1     -14.059   8.095   7.530  1.00  0.00     0.006 C 
BRANCH  10  11
ATOM     11  C   UNL     1     -13.943   6.636   7.064  1.00  0.00     0.053 C 
BRANCH  11  12
ATOM     12  C   UNL     1     -14.890   5.736   7.795  1.00  0.00     0.041 C 
ATOM     13  O   UNL     1     -14.773   4.486   7.708  1.00  0.00    -0.550 OA
ATOM     14  O   UNL     1     -15.882   6.280   8.601  1.00  0.00    -0.550 OA
ENDBRANCH  11  12
ENDBRANCH  10  11
ENDBRANCH   9  10
ENDBRANCH   8   9
ENDBRANCH   1   8
TORSDOF 9
ENDMDL
MODEL 7
REMARK VINA RESULT:    -4.968      1.891      3.097
REMARK INTER + INTRA:          -7.853
REMARK INTER:                  -7.510
REMARK INTRA:                  -0.342
REMARK UNBOUND:                -0.270
REMARK SMILES O=C([O-])CCCCCCCCC(=O)[O-]
REMARK SMILES IDX 7 1 6 2 5 3 4 4 2 5 1 6 3 7 8 8 9 9 10 10 11 11 12 12 13 13
REMARK SMILES IDX 14 14
REMARK H PARENT
REMARK Flexibility Score: inf
ROOT
ATOM      1  C   UNL     1     -11.442  11.306   5.035  1.00  0.00     0.000 C 
ENDROOT
BRANCH   1   2
ATOM      2  C   UNL     1     -11.307  11.337   6.566  1.00  0.00     0.000 C 
BRANCH   2   3
ATOM      3  C   UNL     1     -12.523  10.723   7.281  1.00  0.00     0.006 C 
BRANCH   3   4
ATOM      4  C   UNL     1     -12.809   9.291   6.809  1.00  0.00     0.053 C 
BRANCH   4   5
ATOM      5  C   UNL     1     -13.441   8.464   7.887  1.00  0.00     0.041 C 
ATOM      6  O   UNL     1     -14.541   7.887   7.679  1.00  0.00    -0.550 OA
ATOM      7  O   UNL     1     -12.831   8.355   9.130  1.00  0.00    -0.550 OA
ENDBRANCH   4   5
ENDBRANCH   3   4
ENDBRANCH   2   3
ENDBRANCH   1   2
BRANCH   1   8
ATOM      8  C   UNL     1     -10.348  12.125   4.328  1.00  0.00     0.000 C 
BRANCH   8   9
ATOM      9  C   UNL     1      -9.605  11.322   3.245  1.00  0.00     0.000 C 
BRANCH   9  10
ATOM     10  C   UNL     1      -8.191  11.836   2.901  1.00  0.00     0.006 C 
BRANCH  10  11
ATOM     11  C   UNL     1      -7.888  13.256   3.402  1.00  0.00     0.053 C 
BRANCH  11  12
ATOM     12  C   UNL     1      -8.072  14.281   2.327  1.00  0.00     0.041 C 
ATOM     13  O   UNL     1      -7.116  14.579   1.564  1.00  0.00    -0.550 OA
ATOM     14  O   UNL     1      -9.311  14.883   2.145  1.00  0.00    -0.550 OA
ENDBRANCH  11  12
ENDBRANCH  10  11
ENDBRANCH   9  10
ENDBRANCH   8   9
ENDBRANCH   1   8
TORSDOF 9
ENDMDL
MODEL 8
REMARK VINA RESULT:    -4.929      4.648      7.274
REMARK INTER + INTRA:          -7.793
REMARK INTER:                  -7.402
REMARK INTRA:                  -0.391
REMARK UNBOUND:                -0.270
REMARK SMILES O=C([O-])CCCCCCCCC(=O)[O-]
REMARK SMILES IDX 7 1 6 2 5 3 4 4 2 5 1 6 3 7 8 8 9 9 10 10 11 11 12 12 13 13
REMARK SMILES IDX 14 14
REMARK H PARENT
REMARK Flexibility Score: inf
ROOT
ATOM      1  C   UNL     1     -11.943  10.308   6.440  1.00  0.00     0.000 C 
ENDROOT
BRANCH   1   2
ATOM      2  C   UNL     1     -11.587  11.532   5.581  1.00  0.00     0.000 C 
BRANCH   2   3
ATOM      3  C   UNL     1     -10.792  11.158   4.318  1.00  0.00     0.006 C 
BRANCH   3   4
ATOM      4  C   UNL     1     -10.852  12.258   3.249  1.00  0.00     0.053 C 
BRANCH   4   5
ATOM      5  C   UNL     1      -9.625  13.119   3.264  1.00  0.00     0.041 C 
ATOM      6  O   UNL     1      -9.203  13.635   2.196  1.00  0.00    -0.550 OA
ATOM      7  O   UNL     1      -8.934  13.326   4.450  1.00  0.00    -0.550 OA
ENDBRANCH   4   5
ENDBRANCH   3   4
ENDBRANCH   2   3
ENDBRANCH   1   2
BRANCH   1   8
ATOM      8  C   UNL     1     -11.931  10.619   7.946  1.00  0.00     0.000 C 
BRANCH   8   9
ATOM      9  C   UNL     1     -11.836  12.126   8.246  1.00  0.00     0.000 C 
BRANCH   9  10
ATOM     10  C   UNL     1     -10.799  12.517   9.320  1.00  0.00     0.006 C 
BRANCH  10  11
ATOM     11  C   UNL     1      -9.955  13.752   8.974  1.00  0.00     0.053 C 
BRANCH  11  12
ATOM     12  C   UNL     1      -8.986  14.093  10.063  1.00  0.00     0.041 C 
ATOM     13  O   UNL     1      -8.894  13.360  11.083  1.00  0.00    -0.550 OA
ATOM     14  O   UNL     1      -8.160  15.202   9.936  1.00  0.00    -0.550 OA
ENDBRANCH  11  12
ENDBRANCH  10  11
ENDBRANCH   9  10
ENDBRANCH   8   9
ENDBRANCH   1   8
TORSDOF 9
ENDMDL
MODEL 9
REMARK VINA RESULT:    -4.901      5.511      6.473
REMARK INTER + INTRA:          -7.750
REMARK INTER:                  -7.516
REMARK INTRA:                  -0.234
REMARK UNBOUND:                -0.270
REMARK SMILES O=C([O-])CCCCCCCCC(=O)[O-]
REMARK SMILES IDX 7 1 6 2 5 3 4 4 2 5 1 6 3 7 8 8 9 9 10 10 11 11 12 12 13 13
REMARK SMILES IDX 14 14
REMARK H PARENT
REMARK Flexibility Score: inf
ROOT
ATOM      1  C   UNL     1     -10.911  12.490   8.419  1.00  0.00     0.000 C 
ENDROOT
BRANCH   1   2
ATOM      2  C   UNL     1     -12.435  12.371   8.580  1.00  0.00     0.000 C 
BRANCH   2   3
ATOM      3  C   UNL     1     -13.062  11.390   7.573  1.00  0.00     0.006 C 
BRANCH   3   4
ATOM      4  C   UNL     1     -12.454   9.986   7.679  1.00  0.00     0.053 C 
BRANCH   4   5
ATOM      5  C   UNL     1     -13.509   8.925   7.758  1.00  0.00     0.041 C 
ATOM      6  O   UNL     1     -13.780   8.225   6.748  1.00  0.00    -0.550 OA
ATOM      7  O   UNL     1     -14.213   8.730   8.940  1.00  0.00    -0.550 OA
ENDBRANCH   4   5
ENDBRANCH   3   4
ENDBRANCH   2   3
ENDBRANCH   1   2
BRANCH   1   8
ATOM      8  C   UNL     1     -10.263  13.331   9.532  1.00  0.00     0.000 C 
BRANCH   8   9
ATOM      9  C   UNL     1      -9.342  14.438   8.988  1.00  0.00     0.000 C 
BRANCH   9  10
ATOM     10  C   UNL     1      -7.965  14.544   9.676  1.00  0.00     0.006 C 
BRANCH  10  11
ATOM     11  C   UNL     1      -7.872  15.633  10.755  1.00  0.00     0.053 C 
BRANCH  11  12
ATOM     12  C   UNL     1      -7.549  15.064  12.101  1.00  0.00     0.041 C 
ATOM     13  O   UNL     1      -6.694  14.147  12.214  1.00  0.00    -0.550 OA
ATOM     14  O   UNL     1      -8.169  15.570  13.237  1.00  0.00    -0.550 OA
ENDBRANCH  11  12
ENDBRANCH  10  11
ENDBRANCH   9  10
ENDBRANCH   8   9
ENDBRANCH   1   8
TORSDOF 9
ENDMDL
