MODEL 1
REMARK VINA RESULT:    -4.588      0.000      0.000
REMARK INTER + INTRA:          -9.918
REMARK INTER:                  -8.075
REMARK INTRA:                  -1.844
REMARK UNBOUND:                -1.844
REMARK SMILES CCCCCCC=CCCCCCCCC(=O)[O-]
REMARK SMILES IDX 10 1 11 2 12 3 13 4 14 5 15 6 16 7 17 8 18 9 9 10 8 11 7 12
REMARK SMILES IDX 6 13 5 14 4 15 3 16 2 17 1 18
REMARK H PARENT
REMARK Flexibility Score: inf
ROOT
ATOM      1  C   UNL     1      31.415   8.391  49.125  1.00  0.00     0.004 C 
ENDROOT
BRANCH   1   2
ATOM      2  C   UNL     1      30.148   7.534  48.948  1.00  0.00     0.000 C 
BRANCH   2   3
ATOM      3  C   UNL     1      30.322   6.302  48.039  1.00  0.00     0.000 C 
BRANCH   3   4
ATOM      4  C   UNL     1      31.621   6.276  47.212  1.00  0.00     0.000 C 
BRANCH   4   5
ATOM      5  C   UNL     1      32.654   5.243  47.709  1.00  0.00     0.006 C 
BRANCH   5   6
ATOM      6  C   UNL     1      34.022   5.872  48.000  1.00  0.00     0.053 C 
BRANCH   6   7
ATOM      7  C   UNL     1      35.117   4.892  47.722  1.00  0.00     0.041 C 
ATOM      8  O   UNL     1      35.833   4.457  48.661  1.00  0.00    -0.550 OA
ATOM      9  O   UNL     1      35.382   4.497  46.417  1.00  0.00    -0.550 OA
ENDBRANCH   6   7
ENDBRANCH   5   6
ENDBRANCH   4   5
ENDBRANCH   3   4
ENDBRANCH   2   3
ENDBRANCH   1   2
BRANCH   1  10
ATOM     10  C   UNL     1      31.323   9.748  48.413  1.00  0.00     0.027 C 
BRANCH  10  11
ATOM     11  C   UNL     1      32.685  10.370  48.276  1.00  0.00    -0.031 C 
ATOM     12  C   UNL     1      33.795   9.618  48.235  1.00  0.00    -0.031 C 
BRANCH  12  13
ATOM     13  C   UNL     1      35.157  10.225  48.029  1.00  0.00     0.027 C 
BRANCH  13  14
ATOM     14  C   UNL     1      35.137  11.264  46.900  1.00  0.00     0.004 C 
BRANCH  14  15
ATOM     15  C   UNL     1      35.571  10.662  45.553  1.00  0.00     0.000 C 
BRANCH  15  16
ATOM     16  C   UNL     1      34.379  10.338  44.638  1.00  0.00    -0.000 C 
BRANCH  16  17
ATOM     17  C   UNL     1      34.535   8.990  43.920  1.00  0.00    -0.003 C 
ATOM     18  C   UNL     1      34.173   7.830  44.846  1.00  0.00     0.004 C 
ENDBRANCH  16  17
ENDBRANCH  15  16
ENDBRANCH  14  15
ENDBRANCH  13  14
ENDBRANCH  12  13
ENDBRANCH  10  11
ENDBRANCH   1  10
TORSDOF 13
ENDMDL
MODEL 2
REMARK VINA RESULT:    -4.159      4.369      7.699
REMARK INTER + INTRA:          -9.163
REMARK INTER:                  -8.415
REMARK INTRA:                  -0.748
REMARK UNBOUND:                -1.844
REMARK SMILES CCCCCCC=CCCCCCCCC(=O)[O-]
REMARK SMILES IDX 10 1 11 2 12 3 13 4 14 5 15 6 16 7 17 8 18 9 9 10 8 11 7 12
REMARK SMILES IDX 6 13 5 14 4 15 3 16 2 17 1 18
REMARK H PARENT
REMARK Flexibility Score: inf
ROOT
ATOM      1  C   UNL     1      34.513   9.875  44.069  1.00  0.00     0.004 C 
ENDROOT
BRANCH   1   2
ATOM      2  C   UNL     1      34.775  10.227  45.545  1.00  0.00     0.000 C 
BRANCH   2   3
ATOM      3  C   UNL     1      35.897  11.257  45.776  1.00  0.00     0.000 C 
BRANCH   3   4
ATOM      4  C   UNL     1      35.622  12.289  46.886  1.00  0.00     0.000 C 
BRANCH   4   5
ATOM      5  C   UNL     1      36.452  13.583  46.753  1.00  0.00     0.006 C 
BRANCH   5   6
ATOM      6  C   UNL     1      35.853  14.565  45.738  1.00  0.00     0.053 C 
BRANCH   6   7
ATOM      7  C   UNL     1      35.467  15.842  46.413  1.00  0.00     0.041 C 
ATOM      8  O   UNL     1      34.914  15.820  47.543  1.00  0.00    -0.550 OA
ATOM      9  O   UNL     1      35.670  17.057  45.772  1.00  0.00    -0.550 OA
ENDBRANCH   6   7
ENDBRANCH   5   6
ENDBRANCH   4   5
ENDBRANCH   3   4
ENDBRANCH   2   3
ENDBRANCH   1   2
BRANCH   1  10
ATOM     10  C   UNL     1      34.073   8.418  43.871  1.00  0.00     0.027 C 
BRANCH  10  11
ATOM     11  C   UNL     1      34.187   7.649  45.158  1.00  0.00    -0.031 C 
ATOM     12  C   UNL     1      33.947   6.330  45.207  1.00  0.00    -0.031 C 
BRANCH  12  13
ATOM     13  C   UNL     1      34.125   5.538  46.474  1.00  0.00     0.027 C 
BRANCH  13  14
ATOM     14  C   UNL     1      33.361   6.176  47.641  1.00  0.00     0.004 C 
BRANCH  14  15
ATOM     15  C   UNL     1      31.879   5.763  47.658  1.00  0.00     0.000 C 
BRANCH  15  16
ATOM     16  C   UNL     1      30.932   6.962  47.819  1.00  0.00    -0.000 C 
BRANCH  16  17
ATOM     17  C   UNL     1      29.763   6.669  48.770  1.00  0.00    -0.003 C 
ATOM     18  C   UNL     1      28.755   5.722  48.123  1.00  0.00     0.004 C 
ENDBRANCH  16  17
ENDBRANCH  15  16
ENDBRANCH  14  15
ENDBRANCH  13  14
ENDBRANCH  12  13
ENDBRANCH  10  11
ENDBRANCH   1  10
TORSDOF 13
ENDMDL
MODEL 3
REMARK VINA RESULT:    -4.140      1.394      2.157
REMARK INTER + INTRA:          -9.131
REMARK INTER:                  -7.886
REMARK INTRA:                  -1.244
REMARK UNBOUND:                -1.844
REMARK SMILES CCCCCCC=CCCCCCCCC(=O)[O-]
REMARK SMILES IDX 10 1 11 2 12 3 13 4 14 5 15 6 16 7 17 8 18 9 9 10 8 11 7 12
REMARK SMILES IDX 6 13 5 14 4 15 3 16 2 17 1 18
REMARK H PARENT
REMARK Flexibility Score: inf
ROOT
ATOM      1  C   UNL     1      29.922   6.786  48.922  1.00  0.00     0.004 C 
ENDROOT
BRANCH   1   2
ATOM      2  C   UNL     1      30.561   6.295  47.610  1.00  0.00     0.000 C 
BRANCH   2   3
ATOM      3  C   UNL     1      31.737   5.317  47.790  1.00  0.00     0.000 C 
BRANCH   3   4
ATOM      4  C   UNL     1      32.962   5.893  48.525  1.00  0.00     0.000 C 
BRANCH   4   5
ATOM      5  C   UNL     1      34.181   6.134  47.610  1.00  0.00     0.006 C 
BRANCH   5   6
ATOM      6  C   UNL     1      34.809   4.826  47.110  1.00  0.00     0.053 C 
BRANCH   6   7
ATOM      7  C   UNL     1      34.783   4.772  45.616  1.00  0.00     0.041 C 
ATOM      8  O   UNL     1      34.318   5.737  44.955  1.00  0.00    -0.550 OA
ATOM      9  O   UNL     1      35.225   3.635  44.953  1.00  0.00    -0.550 OA
ENDBRANCH   6   7
ENDBRANCH   5   6
ENDBRANCH   4   5
ENDBRANCH   3   4
ENDBRANCH   2   3
ENDBRANCH   1   2
BRANCH   1  10
ATOM     10  C   UNL     1      29.981   8.312  49.080  1.00  0.00     0.027 C 
BRANCH  10  11
ATOM     11  C   UNL     1      31.332   8.837  48.680  1.00  0.00    -0.031 C 
ATOM     12  C   UNL     1      31.657  10.127  48.847  1.00  0.00    -0.031 C 
BRANCH  12  13
ATOM     13  C   UNL     1      33.029  10.648  48.515  1.00  0.00     0.027 C 
BRANCH  13  14
ATOM     14  C   UNL     1      33.830   9.626  47.697  1.00  0.00     0.004 C 
BRANCH  14  15
ATOM     15  C   UNL     1      34.018  10.072  46.237  1.00  0.00     0.000 C 
BRANCH  15  16
ATOM     16  C   UNL     1      34.622   8.969  45.355  1.00  0.00    -0.000 C 
BRANCH  16  17
ATOM     17  C   UNL     1      34.845   9.426  43.906  1.00  0.00    -0.003 C 
ATOM     18  C   UNL     1      33.648  10.223  43.392  1.00  0.00     0.004 C 
ENDBRANCH  16  17
ENDBRANCH  15  16
ENDBRANCH  14  15
ENDBRANCH  13  14
ENDBRANCH  12  13
ENDBRANCH  10  11
ENDBRANCH   1  10
TORSDOF 13
ENDMDL
MODEL 4
REMARK VINA RESULT:    -4.094      1.963      3.113
REMARK INTER + INTRA:          -9.049
REMARK INTER:                  -7.721
REMARK INTRA:                  -1.329
REMARK UNBOUND:                -1.844
REMARK SMILES CCCCCCC=CCCCCCCCC(=O)[O-]
REMARK SMILES IDX 10 1 11 2 12 3 13 4 14 5 15 6 16 7 17 8 18 9 9 10 8 11 7 12
REMARK SMILES IDX 6 13 5 14 4 15 3 16 2 17 1 18
REMARK H PARENT
REMARK Flexibility Score: inf
ROOT
ATOM      1  C   UNL     1      31.723   9.077  48.075  1.00  0.00     0.004 C 
ENDROOT
BRANCH   1   2
ATOM      2  C   UNL     1      30.817   8.138  48.891  1.00  0.00     0.000 C 
BRANCH   2   3
ATOM      3  C   UNL     1      30.458   6.814  48.191  1.00  0.00     0.000 C 
BRANCH   3   4
ATOM      4  C   UNL     1      31.497   6.309  47.173  1.00  0.00     0.000 C 
BRANCH   4   5
ATOM      5  C   UNL     1      32.619   5.455  47.800  1.00  0.00     0.006 C 
BRANCH   5   6
ATOM      6  C   UNL     1      34.019   5.980  47.455  1.00  0.00     0.053 C 
BRANCH   6   7
ATOM      7  C   UNL     1      34.394   5.589  46.061  1.00  0.00     0.041 C 
ATOM      8  O   UNL     1      35.010   4.512  45.848  1.00  0.00    -0.550 OA
ATOM      9  O   UNL     1      34.108   6.438  45.000  1.00  0.00    -0.550 OA
ENDBRANCH   6   7
ENDBRANCH   5   6
ENDBRANCH   4   5
ENDBRANCH   3   4
ENDBRANCH   2   3
ENDBRANCH   1   2
BRANCH   1  10
ATOM     10  C   UNL     1      33.073   9.346  48.755  1.00  0.00     0.027 C 
BRANCH  10  11
ATOM     11  C   UNL     1      34.049   9.947  47.781  1.00  0.00    -0.031 C 
ATOM     12  C   UNL     1      34.019   9.631  46.478  1.00  0.00    -0.031 C 
BRANCH  12  13
ATOM     13  C   UNL     1      34.945  10.278  45.484  1.00  0.00     0.027 C 
BRANCH  13  14
ATOM     14  C   UNL     1      35.897  11.265  46.172  1.00  0.00     0.004 C 
BRANCH  14  15
ATOM     15  C   UNL     1      35.612  12.722  45.766  1.00  0.00     0.000 C 
BRANCH  15  16
ATOM     16  C   UNL     1      36.762  13.673  46.133  1.00  0.00    -0.000 C 
BRANCH  16  17
ATOM     17  C   UNL     1      36.433  15.142  45.829  1.00  0.00    -0.003 C 
ATOM     18  C   UNL     1      35.365  15.673  46.783  1.00  0.00     0.004 C 
ENDBRANCH  16  17
ENDBRANCH  15  16
ENDBRANCH  14  15
ENDBRANCH  13  14
ENDBRANCH  12  13
ENDBRANCH  10  11
ENDBRANCH   1  10
TORSDOF 13
ENDMDL
MODEL 5
REMARK VINA RESULT:    -4.029      3.307      5.085
REMARK INTER + INTRA:          -8.934
REMARK INTER:                  -8.243
REMARK INTRA:                  -0.691
REMARK UNBOUND:                -1.844
REMARK SMILES CCCCCCC=CCCCCCCCC(=O)[O-]
REMARK SMILES IDX 10 1 11 2 12 3 13 4 14 5 15 6 16 7 17 8 18 9 9 10 8 11 7 12
REMARK SMILES IDX 6 13 5 14 4 15 3 16 2 17 1 18
REMARK H PARENT
REMARK Flexibility Score: inf
ROOT
ATOM      1  C   UNL     1      34.053   7.615  44.322  1.00  0.00     0.004 C 
ENDROOT
BRANCH   1   2
ATOM      2  C   UNL     1      33.927   7.383  45.839  1.00  0.00     0.000 C 
BRANCH   2   3
ATOM      3  C   UNL     1      34.167   5.931  46.294  1.00  0.00     0.000 C 
BRANCH   3   4
ATOM      4  C   UNL     1      33.296   5.463  47.475  1.00  0.00     0.000 C 
BRANCH   4   5
ATOM      5  C   UNL     1      32.000   6.281  47.656  1.00  0.00     0.006 C 
BRANCH   5   6
ATOM      6  C   UNL     1      30.812   5.413  48.090  1.00  0.00     0.053 C 
BRANCH   6   7
ATOM      7  C   UNL     1      29.576   6.245  48.214  1.00  0.00     0.041 C 
ATOM      8  O   UNL     1      29.658   7.460  48.535  1.00  0.00    -0.550 OA
ATOM      9  O   UNL     1      28.327   5.668  48.024  1.00  0.00    -0.550 OA
ENDBRANCH   6   7
ENDBRANCH   5   6
ENDBRANCH   4   5
ENDBRANCH   3   4
ENDBRANCH   2   3
ENDBRANCH   1   2
BRANCH   1  10
ATOM     10  C   UNL     1      34.623   8.997  43.974  1.00  0.00     0.027 C 
BRANCH  10  11
ATOM     11  C   UNL     1      34.625   9.891  45.183  1.00  0.00    -0.031 C 
ATOM     12  C   UNL     1      35.502  10.899  45.305  1.00  0.00    -0.031 C 
BRANCH  12  13
ATOM     13  C   UNL     1      35.468  11.843  46.477  1.00  0.00     0.027 C 
BRANCH  13  14
ATOM     14  C   UNL     1      36.879  12.315  46.852  1.00  0.00     0.004 C 
BRANCH  14  15
ATOM     15  C   UNL     1      37.255  13.630  46.149  1.00  0.00     0.000 C 
BRANCH  15  16
ATOM     16  C   UNL     1      36.070  14.604  46.043  1.00  0.00    -0.000 C 
BRANCH  16  17
ATOM     17  C   UNL     1      36.386  15.826  45.169  1.00  0.00    -0.003 C 
ATOM     18  C   UNL     1      35.835  17.105  45.796  1.00  0.00     0.004 C 
ENDBRANCH  16  17
ENDBRANCH  15  16
ENDBRANCH  14  15
ENDBRANCH  13  14
ENDBRANCH  12  13
ENDBRANCH  10  11
ENDBRANCH   1  10
TORSDOF 13
ENDMDL
MODEL 6
REMARK VINA RESULT:    -3.976      3.678      6.774
REMARK INTER + INTRA:          -8.841
REMARK INTER:                  -7.730
REMARK INTRA:                  -1.112
REMARK UNBOUND:                -1.844
REMARK SMILES CCCCCCC=CCCCCCCCC(=O)[O-]
REMARK SMILES IDX 10 1 11 2 12 3 13 4 14 5 15 6 16 7 17 8 18 9 9 10 8 11 7 12
REMARK SMILES IDX 6 13 5 14 4 15 3 16 2 17 1 18
REMARK H PARENT
REMARK Flexibility Score: inf
ROOT
ATOM      1  C   UNL     1      33.564   8.000  44.337  1.00  0.00     0.004 C 
ENDROOT
BRANCH   1   2
ATOM      2  C   UNL     1      34.753   8.917  43.995  1.00  0.00     0.000 C 
BRANCH   2   3
ATOM      3  C   UNL     1      34.623  10.363  44.510  1.00  0.00     0.000 C 
BRANCH   3   4
ATOM      4  C   UNL     1      35.080  10.584  45.965  1.00  0.00     0.000 C 
BRANCH   4   5
ATOM      5  C   UNL     1      36.268  11.559  46.103  1.00  0.00     0.006 C 
BRANCH   5   6
ATOM      6  C   UNL     1      35.952  12.743  47.027  1.00  0.00     0.053 C 
BRANCH   6   7
ATOM      7  C   UNL     1      36.215  14.037  46.325  1.00  0.00     0.041 C 
ATOM      8  O   UNL     1      37.262  14.187  45.643  1.00  0.00    -0.550 OA
ATOM      9  O   UNL     1      35.328  15.097  46.465  1.00  0.00    -0.550 OA
ENDBRANCH   6   7
ENDBRANCH   5   6
ENDBRANCH   4   5
ENDBRANCH   3   4
ENDBRANCH   2   3
ENDBRANCH   1   2
BRANCH   1  10
ATOM     10  C   UNL     1      34.001   6.640  44.900  1.00  0.00     0.027 C 
BRANCH  10  11
ATOM     11  C   UNL     1      33.640   6.527  46.355  1.00  0.00    -0.031 C 
ATOM     12  C   UNL     1      33.657   7.597  47.164  1.00  0.00    -0.031 C 
BRANCH  12  13
ATOM     13  C   UNL     1      33.231   7.508  48.605  1.00  0.00     0.027 C 
BRANCH  13  14
ATOM     14  C   UNL     1      32.312   8.676  48.986  1.00  0.00     0.004 C 
BRANCH  14  15
ATOM     15  C   UNL     1      30.844   8.399  48.621  1.00  0.00     0.000 C 
BRANCH  15  16
ATOM     16  C   UNL     1      30.410   6.964  48.960  1.00  0.00    -0.000 C 
BRANCH  16  17
ATOM     17  C   UNL     1      29.857   6.210  47.742  1.00  0.00    -0.003 C 
ATOM     18  C   UNL     1      28.507   5.572  48.059  1.00  0.00     0.004 C 
ENDBRANCH  16  17
ENDBRANCH  15  16
ENDBRANCH  14  15
ENDBRANCH  13  14
ENDBRANCH  12  13
ENDBRANCH  10  11
ENDBRANCH   1  10
TORSDOF 13
ENDMDL
MODEL 7
REMARK VINA RESULT:    -3.967     17.633     19.033
REMARK INTER + INTRA:          -8.825
REMARK INTER:                  -6.594
REMARK INTRA:                  -2.231
REMARK UNBOUND:                -1.844
REMARK SMILES CCCCCCC=CCCCCCCCC(=O)[O-]
REMARK SMILES IDX 10 1 11 2 12 3 13 4 14 5 15 6 16 7 17 8 18 9 9 10 8 11 7 12
REMARK SMILES IDX 6 13 5 14 4 15 3 16 2 17 1 18
REMARK H PARENT
REMARK Flexibility Score: inf
ROOT
ATOM      1  C   UNL     1      20.120  11.923  31.366  1.00  0.00     0.004 C 
ENDROOT
BRANCH   1   2
ATOM      2  C   UNL     1      20.493  10.429  31.356  1.00  0.00     0.000 C 
BRANCH   2   3
ATOM      3  C   UNL     1      19.519   9.513  32.121  1.00  0.00     0.000 C 
BRANCH   3   4
ATOM      4  C   UNL     1      20.161   8.276  32.776  1.00  0.00     0.000 C 
BRANCH   4   5
ATOM      5  C   UNL     1      19.247   7.569  33.799  1.00  0.00     0.006 C 
BRANCH   5   6
ATOM      6  C   UNL     1      20.030   6.979  34.979  1.00  0.00     0.053 C 
BRANCH   6   7
ATOM      7  C   UNL     1      19.111   6.689  36.123  1.00  0.00     0.041 C 
ATOM      8  O   UNL     1      19.380   7.116  37.276  1.00  0.00    -0.550 OA
ATOM      9  O   UNL     1      17.982   5.905  35.927  1.00  0.00    -0.550 OA
ENDBRANCH   6   7
ENDBRANCH   5   6
ENDBRANCH   4   5
ENDBRANCH   3   4
ENDBRANCH   2   3
ENDBRANCH   1   2
BRANCH   1  10
ATOM     10  C   UNL     1      21.314  12.834  31.681  1.00  0.00     0.027 C 
BRANCH  10  11
ATOM     11  C   UNL     1      21.267  13.297  33.111  1.00  0.00    -0.031 C 
ATOM     12  C   UNL     1      20.182  13.099  33.874  1.00  0.00    -0.031 C 
BRANCH  12  13
ATOM     13  C   UNL     1      20.149  13.496  35.325  1.00  0.00     0.027 C 
BRANCH  13  14
ATOM     14  C   UNL     1      19.603  12.360  36.200  1.00  0.00     0.004 C 
BRANCH  14  15
ATOM     15  C   UNL     1      19.781  10.983  35.538  1.00  0.00     0.000 C 
BRANCH  15  16
ATOM     16  C   UNL     1      21.081  10.284  35.966  1.00  0.00    -0.000 C 
BRANCH  16  17
ATOM     17  C   UNL     1      22.168  10.342  34.884  1.00  0.00    -0.003 C 
ATOM     18  C   UNL     1      23.441  10.996  35.419  1.00  0.00     0.004 C 
ENDBRANCH  16  17
ENDBRANCH  15  16
ENDBRANCH  14  15
ENDBRANCH  13  14
ENDBRANCH  12  13
ENDBRANCH  10  11
ENDBRANCH   1  10
TORSDOF 13
ENDMDL
MODEL 8
REMARK VINA RESULT:    -3.936     18.061     19.760
REMARK INTER + INTRA:          -8.770
REMARK INTER:                  -6.937
REMARK INTRA:                  -1.833
REMARK UNBOUND:                -1.844
REMARK SMILES CCCCCCC=CCCCCCCCC(=O)[O-]
REMARK SMILES IDX 10 1 11 2 12 3 13 4 14 5 15 6 16 7 17 8 18 9 9 10 8 11 7 12
REMARK SMILES IDX 6 13 5 14 4 15 3 16 2 17 1 18
REMARK H PARENT
REMARK Flexibility Score: inf
ROOT
ATOM      1  C   UNL     1      22.267  11.213  34.871  1.00  0.00     0.004 C 
ENDROOT
BRANCH   1   2
ATOM      2  C   UNL     1      21.671  12.208  35.884  1.00  0.00     0.000 C 
BRANCH   2   3
ATOM      3  C   UNL     1      20.600  13.154  35.309  1.00  0.00     0.000 C 
BRANCH   3   4
ATOM      4  C   UNL     1      19.198  13.012  35.931  1.00  0.00     0.000 C 
BRANCH   4   5
ATOM      5  C   UNL     1      18.064  12.899  34.891  1.00  0.00     0.006 C 
BRANCH   5   6
ATOM      6  C   UNL     1      18.172  11.627  34.040  1.00  0.00     0.053 C 
BRANCH   6   7
ATOM      7  C   UNL     1      18.401  11.977  32.604  1.00  0.00     0.041 C 
ATOM      8  O   UNL     1      19.031  13.024  32.300  1.00  0.00    -0.550 OA
ATOM      9  O   UNL     1      17.875  11.175  31.600  1.00  0.00    -0.550 OA
ENDBRANCH   6   7
ENDBRANCH   5   6
ENDBRANCH   4   5
ENDBRANCH   3   4
ENDBRANCH   2   3
ENDBRANCH   1   2
BRANCH   1  10
ATOM     10  C   UNL     1      21.281  10.109  34.466  1.00  0.00     0.027 C 
BRANCH  10  11
ATOM     11  C   UNL     1      21.002   9.193  35.625  1.00  0.00    -0.031 C 
ATOM     12  C   UNL     1      19.769   9.076  36.142  1.00  0.00    -0.031 C 
BRANCH  12  13
ATOM     13  C   UNL     1      19.465   8.111  37.256  1.00  0.00     0.027 C 
BRANCH  13  14
ATOM     14  C   UNL     1      19.377   6.670  36.736  1.00  0.00     0.004 C 
BRANCH  14  15
ATOM     15  C   UNL     1      18.019   6.376  36.077  1.00  0.00     0.000 C 
BRANCH  15  16
ATOM     16  C   UNL     1      18.161   5.814  34.653  1.00  0.00    -0.000 C 
BRANCH  16  17
ATOM     17  C   UNL     1      18.758   6.833  33.672  1.00  0.00    -0.003 C 
ATOM     18  C   UNL     1      20.105   6.355  33.136  1.00  0.00     0.004 C 
ENDBRANCH  16  17
ENDBRANCH  15  16
ENDBRANCH  14  15
ENDBRANCH  13  14
ENDBRANCH  12  13
ENDBRANCH  10  11
ENDBRANCH   1  10
TORSDOF 13
ENDMDL
MODEL 9
REMARK VINA RESULT:    -3.926     17.775     19.653
REMARK INTER + INTRA:          -8.753
REMARK INTER:                  -6.905
REMARK INTRA:                  -1.848
REMARK UNBOUND:                -1.844
REMARK SMILES CCCCCCC=CCCCCCCCC(=O)[O-]
REMARK SMILES IDX 10 1 11 2 12 3 13 4 14 5 15 6 16 7 17 8 18 9 9 10 8 11 7 12
REMARK SMILES IDX 6 13 5 14 4 15 3 16 2 17 1 18
REMARK H PARENT
REMARK Flexibility Score: inf
ROOT
ATOM      1  C   UNL     1      22.347  11.736  34.987  1.00  0.00     0.004 C 
ENDROOT
BRANCH   1   2
ATOM      2  C   UNL     1      21.316  12.651  35.675  1.00  0.00     0.000 C 
BRANCH   2   3
ATOM      3  C   UNL     1      20.496  13.536  34.717  1.00  0.00     0.000 C 
BRANCH   3   4
ATOM      4  C   UNL     1      19.327  12.827  34.009  1.00  0.00     0.000 C 
BRANCH   4   5
ATOM      5  C   UNL     1      19.491  12.734  32.478  1.00  0.00     0.006 C 
BRANCH   5   6
ATOM      6  C   UNL     1      20.634  13.614  31.954  1.00  0.00     0.053 C 
BRANCH   6   7
ATOM      7  C   UNL     1      21.592  12.798  31.146  1.00  0.00     0.041 C 
ATOM      8  O   UNL     1      21.794  11.589  31.432  1.00  0.00    -0.550 OA
ATOM      9  O   UNL     1      22.302  13.386  30.107  1.00  0.00    -0.550 OA
ENDBRANCH   6   7
ENDBRANCH   5   6
ENDBRANCH   4   5
ENDBRANCH   3   4
ENDBRANCH   2   3
ENDBRANCH   1   2
BRANCH   1  10
ATOM     10  C   UNL     1      22.421  10.339  35.619  1.00  0.00     0.027 C 
BRANCH  10  11
ATOM     11  C   UNL     1      21.190   9.541  35.291  1.00  0.00    -0.031 C 
ATOM     12  C   UNL     1      20.774   9.388  34.025  1.00  0.00    -0.031 C 
BRANCH  12  13
ATOM     13  C   UNL     1      19.583   8.535  33.679  1.00  0.00     0.027 C 
BRANCH  13  14
ATOM     14  C   UNL     1      19.828   7.065  34.044  1.00  0.00     0.004 C 
BRANCH  14  15
ATOM     15  C   UNL     1      18.515   6.308  34.308  1.00  0.00     0.000 C 
BRANCH  15  16
ATOM     16  C   UNL     1      18.101   6.341  35.788  1.00  0.00    -0.000 C 
BRANCH  16  17
ATOM     17  C   UNL     1      19.305   6.374  36.739  1.00  0.00    -0.003 C 
ATOM     18  C   UNL     1      19.287   7.633  37.604  1.00  0.00     0.004 C 
ENDBRANCH  16  17
ENDBRANCH  15  16
ENDBRANCH  14  15
ENDBRANCH  13  14
ENDBRANCH  12  13
ENDBRANCH  10  11
ENDBRANCH   1  10
TORSDOF 13
ENDMDL
