MODEL 1
REMARK VINA RESULT:    -8.765      0.000      0.000
REMARK INTER + INTRA:         -11.178
REMARK INTER:                 -10.814
REMARK INTRA:                  -0.364
REMARK UNBOUND:                -0.364
REMARK SMILES Oc1cc(O)c2cc(O)c(-c3cc(O)c(O)c(O)c3)[o+]c2c1
REMARK SMILES IDX 10 1 20 2 21 3 22 4 2 5 3 6 4 7 6 8 7 9 8 10 11 11 12 12
REMARK SMILES IDX 13 13 19 14 15 15 17 16 14 17 16 19 18 21 9 23 1 25 5 27
REMARK H PARENT 14 18 16 20 18 22 9 24 1 26 5 28
REMARK Flexibility Score: inf
ROOT
ATOM      1  C   UNL     1      44.742 -13.339 -35.952  1.00  0.00     0.402 A 
ATOM      2  O   UNL     1      43.915 -14.380 -35.999  1.00  0.00    -0.202 OA
ATOM      3  C   UNL     1      43.864 -15.314 -35.055  1.00  0.00     0.368 A 
ATOM      4  C   UNL     1      42.963 -16.374 -35.195  1.00  0.00     0.162 A 
ATOM      5  C   UNL     1      42.889 -17.371 -34.221  1.00  0.00     0.128 A 
ATOM      6  C   UNL     1      43.722 -17.309 -33.097  1.00  0.00     0.093 A 
ATOM      7  C   UNL     1      44.632 -16.258 -32.934  1.00  0.00     0.136 A 
ATOM      8  C   UNL     1      44.709 -15.242 -33.921  1.00  0.00     0.125 A 
ATOM      9  C   UNL     1      45.582 -14.145 -33.835  1.00  0.00     0.078 A 
ATOM     10  C   UNL     1      45.597 -13.179 -34.845  1.00  0.00     0.223 A 
ENDROOT
BRANCH   1  11
ATOM     11  C   UNL     1      44.713 -12.370 -37.071  1.00  0.00     0.091 A 
ATOM     12  C   UNL     1      45.490 -12.612 -38.213  1.00  0.00     0.068 A 
ATOM     13  C   UNL     1      45.503 -11.708 -39.282  1.00  0.00     0.162 A 
ATOM     14  C   UNL     1      43.969 -11.183 -36.992  1.00  0.00     0.068 A 
ATOM     15  C   UNL     1      44.732 -10.524 -39.204  1.00  0.00     0.200 A 
ATOM     16  C   UNL     1      43.974 -10.269 -38.053  1.00  0.00     0.162 A 
BRANCH  13  17
ATOM     17  O   UNL     1      46.290 -12.024 -40.391  1.00  0.00    -0.504 OA
ATOM     18  H   UNL     1      46.360 -12.948 -40.792  1.00  0.00     0.293 HD
ENDBRANCH  13  17
BRANCH  15  19
ATOM     19  O   UNL     1      44.695  -9.583 -40.236  1.00  0.00    -0.502 OA
ATOM     20  H   UNL     1      45.260  -8.747 -40.259  1.00  0.00     0.293 HD
ENDBRANCH  15  19
BRANCH  16  21
ATOM     21  O   UNL     1      43.226  -9.095 -37.969  1.00  0.00    -0.504 OA
ATOM     22  H   UNL     1      43.556  -8.225 -38.370  1.00  0.00     0.293 HD
ENDBRANCH  16  21
ENDBRANCH   1  11
BRANCH  10  23
ATOM     23  O   UNL     1      46.427 -12.064 -34.735  1.00  0.00    -0.500 OA
ATOM     24  H   UNL     1      46.405 -11.462 -33.921  1.00  0.00     0.294 HD
ENDBRANCH  10  23
BRANCH   5  25
ATOM     25  O   UNL     1      41.986 -18.419 -34.378  1.00  0.00    -0.507 OA
ATOM     26  H   UNL     1      41.066 -18.271 -34.778  1.00  0.00     0.293 HD
ENDBRANCH   5  25
BRANCH   7  27
ATOM     27  O   UNL     1      45.431 -16.271 -31.786  1.00  0.00    -0.507 OA
ATOM     28  H   UNL     1      45.899 -15.461 -31.407  1.00  0.00     0.293 HD
ENDBRANCH   7  27
TORSDOF 7
ENDMDL
MODEL 2
REMARK VINA RESULT:    -8.708      0.175      1.804
REMARK INTER + INTRA:         -11.109
REMARK INTER:                 -10.755
REMARK INTRA:                  -0.354
REMARK UNBOUND:                -0.364
REMARK SMILES Oc1cc(O)c2cc(O)c(-c3cc(O)c(O)c(O)c3)[o+]c2c1
REMARK SMILES IDX 10 1 20 2 21 3 22 4 2 5 3 6 4 7 6 8 7 9 8 10 11 11 12 12
REMARK SMILES IDX 13 13 19 14 15 15 17 16 14 17 16 19 18 21 9 23 1 25 5 27
REMARK H PARENT 14 18 16 20 18 22 9 24 1 26 5 28
REMARK Flexibility Score: inf
ROOT
ATOM      1  C   UNL     1      44.749 -13.314 -35.973  1.00  0.00     0.402 A 
ATOM      2  O   UNL     1      43.918 -14.354 -35.983  1.00  0.00    -0.202 OA
ATOM      3  C   UNL     1      43.893 -15.276 -35.027  1.00  0.00     0.368 A 
ATOM      4  C   UNL     1      42.986 -16.335 -35.127  1.00  0.00     0.162 A 
ATOM      5  C   UNL     1      42.938 -17.320 -34.140  1.00  0.00     0.128 A 
ATOM      6  C   UNL     1      43.804 -17.248 -33.042  1.00  0.00     0.093 A 
ATOM      7  C   UNL     1      44.722 -16.197 -32.918  1.00  0.00     0.136 A 
ATOM      8  C   UNL     1      44.771 -15.193 -33.920  1.00  0.00     0.125 A 
ATOM      9  C   UNL     1      45.649 -14.098 -33.872  1.00  0.00     0.078 A 
ATOM     10  C   UNL     1      45.637 -13.144 -34.894  1.00  0.00     0.223 A 
ENDROOT
BRANCH   1  11
ATOM     11  C   UNL     1      44.689 -12.358 -37.102  1.00  0.00     0.091 A 
ATOM     12  C   UNL     1      43.943 -11.178 -36.968  1.00  0.00     0.068 A 
ATOM     13  C   UNL     1      43.848 -10.261 -38.022  1.00  0.00     0.162 A 
ATOM     14  C   UNL     1      45.315 -12.633 -38.327  1.00  0.00     0.068 A 
ATOM     15  C   UNL     1      44.501 -10.536 -39.246  1.00  0.00     0.200 A 
ATOM     16  C   UNL     1      45.227 -11.726 -39.390  1.00  0.00     0.162 A 
BRANCH  13  17
ATOM     17  O   UNL     1      43.098  -9.103 -37.809  1.00  0.00    -0.504 OA
ATOM     18  H   UNL     1      42.103  -9.035 -37.969  1.00  0.00     0.293 HD
ENDBRANCH  13  17
BRANCH  15  19
ATOM     19  O   UNL     1      44.452  -9.662 -40.336  1.00  0.00    -0.502 OA
ATOM     20  H   UNL     1      44.699  -9.920 -41.279  1.00  0.00     0.293 HD
ENDBRANCH  15  19
BRANCH  16  21
ATOM     21  O   UNL     1      45.859 -12.004 -40.602  1.00  0.00    -0.504 OA
ATOM     22  H   UNL     1      45.889 -12.942 -40.983  1.00  0.00     0.293 HD
ENDBRANCH  16  21
ENDBRANCH   1  11
BRANCH  10  23
ATOM     23  O   UNL     1      46.473 -12.030 -34.822  1.00  0.00    -0.500 OA
ATOM     24  H   UNL     1      46.374 -11.247 -35.458  1.00  0.00     0.294 HD
ENDBRANCH  10  23
BRANCH   5  25
ATOM     25  O   UNL     1      42.027 -18.367 -34.257  1.00  0.00    -0.507 OA
ATOM     26  H   UNL     1      42.072 -19.178 -33.653  1.00  0.00     0.293 HD
ENDBRANCH   5  25
BRANCH   7  27
ATOM     27  O   UNL     1      45.554 -16.199 -31.795  1.00  0.00    -0.507 OA
ATOM     28  H   UNL     1      45.987 -17.023 -31.406  1.00  0.00     0.293 HD
ENDBRANCH   7  27
TORSDOF 7
ENDMDL
MODEL 3
REMARK VINA RESULT:    -8.499      1.929      7.139
REMARK INTER + INTRA:         -10.851
REMARK INTER:                 -10.467
REMARK INTRA:                  -0.384
REMARK UNBOUND:                -0.364
REMARK SMILES Oc1cc(O)c2cc(O)c(-c3cc(O)c(O)c(O)c3)[o+]c2c1
REMARK SMILES IDX 10 1 20 2 21 3 22 4 2 5 3 6 4 7 6 8 7 9 8 10 11 11 12 12
REMARK SMILES IDX 13 13 19 14 15 15 17 16 14 17 16 19 18 21 9 23 1 25 5 27
REMARK H PARENT 14 18 16 20 18 22 9 24 1 26 5 28
REMARK Flexibility Score: inf
ROOT
ATOM      1  C   UNL     1      44.987 -12.667 -37.056  1.00  0.00     0.402 A 
ATOM      2  O   UNL     1      44.090 -11.690 -36.950  1.00  0.00    -0.202 OA
ATOM      3  C   UNL     1      43.625 -11.011 -37.994  1.00  0.00     0.368 A 
ATOM      4  C   UNL     1      42.685  -9.999 -37.782  1.00  0.00     0.162 A 
ATOM      5  C   UNL     1      42.181  -9.267 -38.858  1.00  0.00     0.128 A 
ATOM      6  C   UNL     1      42.620  -9.548 -40.158  1.00  0.00     0.093 A 
ATOM      7  C   UNL     1      43.561 -10.557 -40.396  1.00  0.00     0.136 A 
ATOM      8  C   UNL     1      44.073 -11.305 -39.304  1.00  0.00     0.125 A 
ATOM      9  C   UNL     1      45.009 -12.342 -39.450  1.00  0.00     0.078 A 
ATOM     10  C   UNL     1      45.465 -13.039 -38.326  1.00  0.00     0.223 A 
ENDROOT
BRANCH   1  11
ATOM     11  C   UNL     1      45.436 -13.343 -35.817  1.00  0.00     0.091 A 
ATOM     12  C   UNL     1      44.646 -14.361 -35.263  1.00  0.00     0.068 A 
ATOM     13  C   UNL     1      45.029 -15.009 -34.082  1.00  0.00     0.162 A 
ATOM     14  C   UNL     1      46.606 -12.949 -35.151  1.00  0.00     0.068 A 
ATOM     15  C   UNL     1      46.223 -14.620 -33.429  1.00  0.00     0.200 A 
ATOM     16  C   UNL     1      47.000 -13.586 -33.969  1.00  0.00     0.162 A 
BRANCH  13  17
ATOM     17  O   UNL     1      44.199 -16.021 -33.597  1.00  0.00    -0.504 OA
ATOM     18  H   UNL     1      44.331 -17.003 -33.791  1.00  0.00     0.293 HD
ENDBRANCH  13  17
BRANCH  15  19
ATOM     19  O   UNL     1      46.666 -15.228 -32.251  1.00  0.00    -0.502 OA
ATOM     20  H   UNL     1      46.244 -15.081 -31.346  1.00  0.00     0.293 HD
ENDBRANCH  15  19
BRANCH  16  21
ATOM     21  O   UNL     1      48.169 -13.193 -33.317  1.00  0.00    -0.504 OA
ATOM     22  H   UNL     1      49.031 -13.716 -33.413  1.00  0.00     0.293 HD
ENDBRANCH  16  21
ENDBRANCH   1  11
BRANCH  10  23
ATOM     23  O   UNL     1      46.355 -14.102 -38.476  1.00  0.00    -0.500 OA
ATOM     24  H   UNL     1      46.120 -14.920 -39.025  1.00  0.00     0.294 HD
ENDBRANCH  10  23
BRANCH   5  25
ATOM     25  O   UNL     1      41.245  -8.262 -38.627  1.00  0.00    -0.507 OA
ATOM     26  H   UNL     1      41.038  -7.559 -39.327  1.00  0.00     0.293 HD
ENDBRANCH   5  25
BRANCH   7  27
ATOM     27  O   UNL     1      43.950 -10.774 -41.721  1.00  0.00    -0.507 OA
ATOM     28  H   UNL     1      44.018 -10.052 -42.422  1.00  0.00     0.293 HD
ENDBRANCH   7  27
TORSDOF 7
ENDMDL
MODEL 4
REMARK VINA RESULT:    -8.456      1.925      7.101
REMARK INTER + INTRA:         -10.798
REMARK INTER:                 -10.434
REMARK INTRA:                  -0.364
REMARK UNBOUND:                -0.364
REMARK SMILES Oc1cc(O)c2cc(O)c(-c3cc(O)c(O)c(O)c3)[o+]c2c1
REMARK SMILES IDX 10 1 20 2 21 3 22 4 2 5 3 6 4 7 6 8 7 9 8 10 11 11 12 12
REMARK SMILES IDX 13 13 19 14 15 15 17 16 14 17 16 19 18 21 9 23 1 25 5 27
REMARK H PARENT 14 18 16 20 18 22 9 24 1 26 5 28
REMARK Flexibility Score: inf
ROOT
ATOM      1  C   UNL     1      44.929 -12.662 -37.008  1.00  0.00     0.402 A 
ATOM      2  O   UNL     1      44.018 -11.696 -36.928  1.00  0.00    -0.202 OA
ATOM      3  C   UNL     1      43.571 -11.025 -37.985  1.00  0.00     0.368 A 
ATOM      4  C   UNL     1      42.614 -10.024 -37.799  1.00  0.00     0.162 A 
ATOM      5  C   UNL     1      42.128  -9.301 -38.890  1.00  0.00     0.128 A 
ATOM      6  C   UNL     1      42.604  -9.579 -40.177  1.00  0.00     0.093 A 
ATOM      7  C   UNL     1      43.562 -10.577 -40.389  1.00  0.00     0.136 A 
ATOM      8  C   UNL     1      44.056 -11.316 -39.282  1.00  0.00     0.125 A 
ATOM      9  C   UNL     1      45.008 -12.342 -39.402  1.00  0.00     0.078 A 
ATOM     10  C   UNL     1      45.443 -13.030 -38.265  1.00  0.00     0.223 A 
ENDROOT
BRANCH   1  11
ATOM     11  C   UNL     1      45.355 -13.329 -35.757  1.00  0.00     0.091 A 
ATOM     12  C   UNL     1      46.553 -12.940 -35.141  1.00  0.00     0.068 A 
ATOM     13  C   UNL     1      46.997 -13.562 -33.968  1.00  0.00     0.162 A 
ATOM     14  C   UNL     1      44.616 -14.385 -35.203  1.00  0.00     0.068 A 
ATOM     15  C   UNL     1      46.233 -14.611 -33.403  1.00  0.00     0.200 A 
ATOM     16  C   UNL     1      45.048 -15.018 -34.031  1.00  0.00     0.162 A 
BRANCH  13  17
ATOM     17  O   UNL     1      48.192 -13.111 -33.405  1.00  0.00    -0.504 OA
ATOM     18  H   UNL     1      48.904 -12.607 -33.915  1.00  0.00     0.293 HD
ENDBRANCH  13  17
BRANCH  15  19
ATOM     19  O   UNL     1      46.615 -15.271 -32.232  1.00  0.00    -0.502 OA
ATOM     20  H   UNL     1      47.185 -16.104 -32.212  1.00  0.00     0.293 HD
ENDBRANCH  15  19
BRANCH  16  21
ATOM     21  O   UNL     1      44.303 -16.062 -33.483  1.00  0.00    -0.504 OA
ATOM     22  H   UNL     1      43.441 -16.380 -33.910  1.00  0.00     0.293 HD
ENDBRANCH  16  21
ENDBRANCH   1  11
BRANCH  10  23
ATOM     23  O   UNL     1      46.350 -14.083 -38.389  1.00  0.00    -0.500 OA
ATOM     24  H   UNL     1      47.263 -14.055 -37.950  1.00  0.00     0.294 HD
ENDBRANCH  10  23
BRANCH   5  25
ATOM     25  O   UNL     1      41.175  -8.306 -38.685  1.00  0.00    -0.507 OA
ATOM     26  H   UNL     1      40.210  -8.432 -38.967  1.00  0.00     0.293 HD
ENDBRANCH   5  25
BRANCH   7  27
ATOM     27  O   UNL     1      43.987 -10.793 -41.703  1.00  0.00    -0.507 OA
ATOM     28  H   UNL     1      43.615 -10.315 -42.510  1.00  0.00     0.293 HD
ENDBRANCH   7  27
TORSDOF 7
ENDMDL
MODEL 5
REMARK VINA RESULT:    -8.451      2.156      3.477
REMARK INTER + INTRA:         -10.791
REMARK INTER:                 -10.546
REMARK INTRA:                  -0.246
REMARK UNBOUND:                -0.364
REMARK SMILES Oc1cc(O)c2cc(O)c(-c3cc(O)c(O)c(O)c3)[o+]c2c1
REMARK SMILES IDX 10 1 20 2 21 3 22 4 2 5 3 6 4 7 6 8 7 9 8 10 11 11 12 12
REMARK SMILES IDX 13 13 19 14 15 15 17 16 14 17 16 19 18 21 9 23 1 25 5 27
REMARK H PARENT 14 18 16 20 18 22 9 24 1 26 5 28
REMARK Flexibility Score: inf
ROOT
ATOM      1  C   UNL     1      43.663 -12.044 -36.582  1.00  0.00     0.402 A 
ATOM      2  O   UNL     1      44.945 -12.097 -36.231  1.00  0.00    -0.202 OA
ATOM      3  C   UNL     1      45.397 -12.847 -35.231  1.00  0.00     0.368 A 
ATOM      4  C   UNL     1      46.763 -12.834 -34.935  1.00  0.00     0.162 A 
ATOM      5  C   UNL     1      47.266 -13.610 -33.889  1.00  0.00     0.128 A 
ATOM      6  C   UNL     1      46.397 -14.405 -33.132  1.00  0.00     0.093 A 
ATOM      7  C   UNL     1      45.025 -14.436 -33.409  1.00  0.00     0.136 A 
ATOM      8  C   UNL     1      44.511 -13.650 -34.474  1.00  0.00     0.125 A 
ATOM      9  C   UNL     1      43.153 -13.628 -34.831  1.00  0.00     0.078 A 
ATOM     10  C   UNL     1      42.721 -12.832 -35.896  1.00  0.00     0.223 A 
ENDROOT
BRANCH   1  11
ATOM     11  C   UNL     1      43.281 -11.160 -37.708  1.00  0.00     0.091 A 
ATOM     12  C   UNL     1      43.834 -11.384 -38.978  1.00  0.00     0.068 A 
ATOM     13  C   UNL     1      43.511 -10.557 -40.060  1.00  0.00     0.162 A 
ATOM     14  C   UNL     1      42.422 -10.067 -37.521  1.00  0.00     0.068 A 
ATOM     15  C   UNL     1      42.625  -9.470 -39.868  1.00  0.00     0.200 A 
ATOM     16  C   UNL     1      42.092  -9.231 -38.594  1.00  0.00     0.162 A 
BRANCH  13  17
ATOM     17  O   UNL     1      44.090 -10.849 -41.296  1.00  0.00    -0.504 OA
ATOM     18  H   UNL     1      43.600 -10.798 -42.178  1.00  0.00     0.293 HD
ENDBRANCH  13  17
BRANCH  15  19
ATOM     19  O   UNL     1      42.257  -8.610 -40.906  1.00  0.00    -0.502 OA
ATOM     20  H   UNL     1      41.821  -8.913 -41.764  1.00  0.00     0.293 HD
ENDBRANCH  15  19
BRANCH  16  21
ATOM     21  O   UNL     1      41.231  -8.151 -38.401  1.00  0.00    -0.504 OA
ATOM     22  H   UNL     1      41.569  -7.196 -38.397  1.00  0.00     0.293 HD
ENDBRANCH  16  21
ENDBRANCH   1  11
BRANCH  10  23
ATOM     23  O   UNL     1      41.381 -12.849 -36.284  1.00  0.00    -0.500 OA
ATOM     24  H   UNL     1      41.109 -12.909 -37.258  1.00  0.00     0.294 HD
ENDBRANCH  10  23
BRANCH   5  25
ATOM     25  O   UNL     1      48.629 -13.583 -33.609  1.00  0.00    -0.507 OA
ATOM     26  H   UNL     1      49.056 -14.258 -32.985  1.00  0.00     0.293 HD
ENDBRANCH   5  25
BRANCH   7  27
ATOM     27  O   UNL     1      44.224 -15.253 -32.607  1.00  0.00    -0.507 OA
ATOM     28  H   UNL     1      43.237 -15.406 -32.752  1.00  0.00     0.293 HD
ENDBRANCH   7  27
TORSDOF 7
ENDMDL
MODEL 6
REMARK VINA RESULT:    -8.442      1.999      7.180
REMARK INTER + INTRA:         -10.781
REMARK INTER:                 -10.666
REMARK INTRA:                  -0.114
REMARK UNBOUND:                -0.364
REMARK SMILES Oc1cc(O)c2cc(O)c(-c3cc(O)c(O)c(O)c3)[o+]c2c1
REMARK SMILES IDX 10 1 20 2 21 3 22 4 2 5 3 6 4 7 6 8 7 9 8 10 11 11 12 12
REMARK SMILES IDX 13 13 19 14 15 15 17 16 14 17 16 19 18 21 9 23 1 25 5 27
REMARK H PARENT 14 18 16 20 18 22 9 24 1 26 5 28
REMARK Flexibility Score: inf
ROOT
ATOM      1  C   UNL     1      43.298 -12.641 -36.147  1.00  0.00     0.402 A 
ATOM      2  O   UNL     1      43.953 -12.121 -37.181  1.00  0.00    -0.202 OA
ATOM      3  C   UNL     1      43.359 -11.427 -38.147  1.00  0.00     0.368 A 
ATOM      4  C   UNL     1      44.132 -10.923 -39.196  1.00  0.00     0.162 A 
ATOM      5  C   UNL     1      43.535 -10.193 -40.225  1.00  0.00     0.128 A 
ATOM      6  C   UNL     1      42.154  -9.966 -40.207  1.00  0.00     0.093 A 
ATOM      7  C   UNL     1      41.357 -10.460 -39.167  1.00  0.00     0.136 A 
ATOM      8  C   UNL     1      41.962 -11.201 -38.118  1.00  0.00     0.125 A 
ATOM      9  C   UNL     1      41.244 -11.724 -37.029  1.00  0.00     0.078 A 
ATOM     10  C   UNL     1      41.910 -12.439 -36.029  1.00  0.00     0.223 A 
ENDROOT
BRANCH   1  11
ATOM     11  C   UNL     1      44.071 -13.404 -35.140  1.00  0.00     0.091 A 
ATOM     12  C   UNL     1      45.250 -12.854 -34.614  1.00  0.00     0.068 A 
ATOM     13  C   UNL     1      46.016 -13.555 -33.675  1.00  0.00     0.162 A 
ATOM     14  C   UNL     1      43.682 -14.691 -34.741  1.00  0.00     0.068 A 
ATOM     15  C   UNL     1      45.605 -14.844 -33.261  1.00  0.00     0.200 A 
ATOM     16  C   UNL     1      44.440 -15.405 -33.804  1.00  0.00     0.162 A 
BRANCH  13  17
ATOM     17  O   UNL     1      47.170 -12.938 -33.188  1.00  0.00    -0.504 OA
ATOM     18  H   UNL     1      47.921 -13.428 -32.724  1.00  0.00     0.293 HD
ENDBRANCH  13  17
BRANCH  15  19
ATOM     19  O   UNL     1      46.320 -15.595 -32.325  1.00  0.00    -0.502 OA
ATOM     20  H   UNL     1      46.016 -16.488 -31.965  1.00  0.00     0.293 HD
ENDBRANCH  15  19
BRANCH  16  21
ATOM     21  O   UNL     1      44.042 -16.681 -33.408  1.00  0.00    -0.504 OA
ATOM     22  H   UNL     1      44.450 -17.137 -32.600  1.00  0.00     0.293 HD
ENDBRANCH  16  21
ENDBRANCH   1  11
BRANCH  10  23
ATOM     23  O   UNL     1      41.207 -12.915 -34.923  1.00  0.00    -0.500 OA
ATOM     24  H   UNL     1      40.203 -13.051 -34.948  1.00  0.00     0.294 HD
ENDBRANCH  10  23
BRANCH   5  25
ATOM     25  O   UNL     1      44.322  -9.698 -41.262  1.00  0.00    -0.507 OA
ATOM     26  H   UNL     1      44.934  -8.902 -41.130  1.00  0.00     0.293 HD
ENDBRANCH   5  25
BRANCH   7  27
ATOM     27  O   UNL     1      39.986 -10.193 -39.223  1.00  0.00    -0.507 OA
ATOM     28  H   UNL     1      39.299 -10.603 -38.608  1.00  0.00     0.293 HD
ENDBRANCH   7  27
TORSDOF 7
ENDMDL
MODEL 7
REMARK VINA RESULT:    -8.394      2.024      7.173
REMARK INTER + INTRA:         -10.721
REMARK INTER:                 -10.617
REMARK INTRA:                  -0.104
REMARK UNBOUND:                -0.364
REMARK SMILES Oc1cc(O)c2cc(O)c(-c3cc(O)c(O)c(O)c3)[o+]c2c1
REMARK SMILES IDX 10 1 20 2 21 3 22 4 2 5 3 6 4 7 6 8 7 9 8 10 11 11 12 12
REMARK SMILES IDX 13 13 19 14 15 15 17 16 14 17 16 19 18 21 9 23 1 25 5 27
REMARK H PARENT 14 18 16 20 18 22 9 24 1 26 5 28
REMARK Flexibility Score: inf
ROOT
ATOM      1  C   UNL     1      43.308 -12.606 -36.164  1.00  0.00     0.402 A 
ATOM      2  O   UNL     1      43.953 -12.098 -37.211  1.00  0.00    -0.202 OA
ATOM      3  C   UNL     1      43.351 -11.407 -38.173  1.00  0.00     0.368 A 
ATOM      4  C   UNL     1      44.113 -10.916 -39.236  1.00  0.00     0.162 A 
ATOM      5  C   UNL     1      43.508 -10.189 -40.263  1.00  0.00     0.128 A 
ATOM      6  C   UNL     1      42.128  -9.952 -40.228  1.00  0.00     0.093 A 
ATOM      7  C   UNL     1      41.342 -10.433 -39.174  1.00  0.00     0.136 A 
ATOM      8  C   UNL     1      41.956 -11.171 -38.127  1.00  0.00     0.125 A 
ATOM      9  C   UNL     1      41.249 -11.680 -37.025  1.00  0.00     0.078 A 
ATOM     10  C   UNL     1      41.923 -12.394 -36.029  1.00  0.00     0.223 A 
ENDROOT
BRANCH   1  11
ATOM     11  C   UNL     1      44.089 -13.367 -35.162  1.00  0.00     0.091 A 
ATOM     12  C   UNL     1      43.679 -14.660 -34.805  1.00  0.00     0.068 A 
ATOM     13  C   UNL     1      44.381 -15.401 -33.847  1.00  0.00     0.162 A 
ATOM     14  C   UNL     1      45.199 -12.802 -34.516  1.00  0.00     0.068 A 
ATOM     15  C   UNL     1      45.513 -14.832 -33.217  1.00  0.00     0.200 A 
ATOM     16  C   UNL     1      45.909 -13.530 -33.555  1.00  0.00     0.162 A 
BRANCH  13  17
ATOM     17  O   UNL     1      43.920 -16.686 -33.554  1.00  0.00    -0.504 OA
ATOM     18  H   UNL     1      43.180 -17.151 -34.059  1.00  0.00     0.293 HD
ENDBRANCH  13  17
BRANCH  15  19
ATOM     19  O   UNL     1      46.262 -15.518 -32.257  1.00  0.00    -0.502 OA
ATOM     20  H   UNL     1      46.234 -16.519 -32.127  1.00  0.00     0.293 HD
ENDBRANCH  15  19
BRANCH  16  21
ATOM     21  O   UNL     1      47.016 -12.963 -32.923  1.00  0.00    -0.504 OA
ATOM     22  H   UNL     1      46.984 -12.678 -31.952  1.00  0.00     0.293 HD
ENDBRANCH  16  21
ENDBRANCH   1  11
BRANCH  10  23
ATOM     23  O   UNL     1      41.231 -12.857 -34.910  1.00  0.00    -0.500 OA
ATOM     24  H   UNL     1      41.451 -12.532 -33.976  1.00  0.00     0.294 HD
ENDBRANCH  10  23
BRANCH   5  25
ATOM     25  O   UNL     1      44.284  -9.707 -41.314  1.00  0.00    -0.507 OA
ATOM     26  H   UNL     1      45.289  -9.830 -41.330  1.00  0.00     0.293 HD
ENDBRANCH   5  25
BRANCH   7  27
ATOM     27  O   UNL     1      39.973 -10.157 -39.213  1.00  0.00    -0.507 OA
ATOM     28  H   UNL     1      39.316 -10.423 -38.495  1.00  0.00     0.293 HD
ENDBRANCH   7  27
TORSDOF 7
ENDMDL
MODEL 8
REMARK VINA RESULT:    -8.196      2.417      4.196
REMARK INTER + INTRA:         -10.477
REMARK INTER:                 -10.349
REMARK INTRA:                  -0.128
REMARK UNBOUND:                -0.364
REMARK SMILES Oc1cc(O)c2cc(O)c(-c3cc(O)c(O)c(O)c3)[o+]c2c1
REMARK SMILES IDX 10 1 20 2 21 3 22 4 2 5 3 6 4 7 6 8 7 9 8 10 11 11 12 12
REMARK SMILES IDX 13 13 19 14 15 15 17 16 14 17 16 19 18 21 9 23 1 25 5 27
REMARK H PARENT 14 18 16 20 18 22 9 24 1 26 5 28
REMARK Flexibility Score: inf
ROOT
ATOM      1  C   UNL     1      44.991 -12.037 -38.860  1.00  0.00     0.402 A 
ATOM      2  O   UNL     1      44.389 -12.359 -37.718  1.00  0.00    -0.202 OA
ATOM      3  C   UNL     1      44.991 -13.026 -36.739  1.00  0.00     0.368 A 
ATOM      4  C   UNL     1      44.274 -13.322 -35.577  1.00  0.00     0.162 A 
ATOM      5  C   UNL     1      44.878 -14.024 -34.533  1.00  0.00     0.128 A 
ATOM      6  C   UNL     1      46.211 -14.436 -34.652  1.00  0.00     0.093 A 
ATOM      7  C   UNL     1      46.951 -14.153 -35.806  1.00  0.00     0.136 A 
ATOM      8  C   UNL     1      46.339 -13.437 -36.868  1.00  0.00     0.125 A 
ATOM      9  C   UNL     1      47.008 -13.098 -38.056  1.00  0.00     0.078 A 
ATOM     10  C   UNL     1      46.340 -12.385 -39.057  1.00  0.00     0.223 A 
ENDROOT
BRANCH   1  11
ATOM     11  C   UNL     1      44.211 -11.299 -39.880  1.00  0.00     0.091 A 
ATOM     12  C   UNL     1      43.493 -10.154 -39.504  1.00  0.00     0.068 A 
ATOM     13  C   UNL     1      42.729  -9.444 -40.437  1.00  0.00     0.162 A 
ATOM     14  C   UNL     1      44.125 -11.753 -41.205  1.00  0.00     0.068 A 
ATOM     15  C   UNL     1      42.667  -9.895 -41.777  1.00  0.00     0.200 A 
ATOM     16  C   UNL     1      43.363 -11.054 -42.148  1.00  0.00     0.162 A 
BRANCH  13  17
ATOM     17  O   UNL     1      42.053  -8.306 -39.992  1.00  0.00    -0.504 OA
ATOM     18  H   UNL     1      42.480  -7.397 -39.888  1.00  0.00     0.293 HD
ENDBRANCH  13  17
BRANCH  15  19
ATOM     19  O   UNL     1      41.927  -9.231 -42.759  1.00  0.00    -0.502 OA
ATOM     20  H   UNL     1      41.039  -8.781 -42.591  1.00  0.00     0.293 HD
ENDBRANCH  15  19
BRANCH  16  21
ATOM     21  O   UNL     1      43.290 -11.508 -43.465  1.00  0.00    -0.504 OA
ATOM     22  H   UNL     1      43.413 -10.880 -44.250  1.00  0.00     0.293 HD
ENDBRANCH  16  21
ENDBRANCH   1  11
BRANCH  10  23
ATOM     23  O   UNL     1      47.018 -12.004 -40.216  1.00  0.00    -0.500 OA
ATOM     24  H   UNL     1      46.527 -11.653 -41.029  1.00  0.00     0.294 HD
ENDBRANCH  10  23
BRANCH   5  25
ATOM     25  O   UNL     1      44.148 -14.309 -33.382  1.00  0.00    -0.507 OA
ATOM     26  H   UNL     1      43.577 -13.605 -32.929  1.00  0.00     0.293 HD
ENDBRANCH   5  25
BRANCH   7  27
ATOM     27  O   UNL     1      48.274 -14.602 -35.849  1.00  0.00    -0.507 OA
ATOM     28  H   UNL     1      48.643 -15.347 -35.278  1.00  0.00     0.293 HD
ENDBRANCH   7  27
TORSDOF 7
ENDMDL
MODEL 9
REMARK VINA RESULT:    -8.150      2.446      3.917
REMARK INTER + INTRA:         -10.421
REMARK INTER:                 -10.322
REMARK INTRA:                  -0.098
REMARK UNBOUND:                -0.364
REMARK SMILES Oc1cc(O)c2cc(O)c(-c3cc(O)c(O)c(O)c3)[o+]c2c1
REMARK SMILES IDX 10 1 20 2 21 3 22 4 2 5 3 6 4 7 6 8 7 9 8 10 11 11 12 12
REMARK SMILES IDX 13 13 19 14 15 15 17 16 14 17 16 19 18 21 9 23 1 25 5 27
REMARK H PARENT 14 18 16 20 18 22 9 24 1 26 5 28
REMARK Flexibility Score: inf
ROOT
ATOM      1  C   UNL     1      45.098 -12.176 -38.969  1.00  0.00     0.402 A 
ATOM      2  O   UNL     1      44.512 -12.516 -37.825  1.00  0.00    -0.202 OA
ATOM      3  C   UNL     1      45.149 -13.128 -36.832  1.00  0.00     0.368 A 
ATOM      4  C   UNL     1      44.445 -13.449 -35.668  1.00  0.00     0.162 A 
ATOM      5  C   UNL     1      45.088 -14.094 -34.610  1.00  0.00     0.128 A 
ATOM      6  C   UNL     1      46.445 -14.421 -34.715  1.00  0.00     0.093 A 
ATOM      7  C   UNL     1      47.172 -14.110 -35.870  1.00  0.00     0.136 A 
ATOM      8  C   UNL     1      46.522 -13.452 -36.948  1.00  0.00     0.125 A 
ATOM      9  C   UNL     1      47.174 -13.091 -38.138  1.00  0.00     0.078 A 
ATOM     10  C   UNL     1      46.469 -12.439 -39.154  1.00  0.00     0.223 A 
ENDROOT
BRANCH   1  11
ATOM     11  C   UNL     1      44.278 -11.507 -40.006  1.00  0.00     0.091 A 
ATOM     12  C   UNL     1      44.254 -12.028 -41.308  1.00  0.00     0.068 A 
ATOM     13  C   UNL     1      43.506 -11.411 -42.318  1.00  0.00     0.162 A 
ATOM     14  C   UNL     1      43.570 -10.328 -39.730  1.00  0.00     0.068 A 
ATOM     15  C   UNL     1      42.775 -10.235 -42.025  1.00  0.00     0.200 A 
ATOM     16  C   UNL     1      42.819  -9.699 -40.730  1.00  0.00     0.162 A 
BRANCH  13  17
ATOM     17  O   UNL     1      43.520 -11.995 -43.586  1.00  0.00    -0.504 OA
ATOM     18  H   UNL     1      44.349 -12.365 -44.030  1.00  0.00     0.293 HD
ENDBRANCH  13  17
BRANCH  15  19
ATOM     19  O   UNL     1      42.005  -9.573 -42.984  1.00  0.00    -0.502 OA
ATOM     20  H   UNL     1      41.271 -10.011 -43.521  1.00  0.00     0.293 HD
ENDBRANCH  15  19
BRANCH  16  21
ATOM     21  O   UNL     1      42.111  -8.532 -40.446  1.00  0.00    -0.504 OA
ATOM     22  H   UNL     1      41.385  -8.510 -39.740  1.00  0.00     0.293 HD
ENDBRANCH  16  21
ENDBRANCH   1  11
BRANCH  10  23
ATOM     23  O   UNL     1      47.127 -12.035 -40.315  1.00  0.00    -0.500 OA
ATOM     24  H   UNL     1      48.138 -12.024 -40.377  1.00  0.00     0.294 HD
ENDBRANCH  10  23
BRANCH   5  25
ATOM     25  O   UNL     1      44.370 -14.406 -33.458  1.00  0.00    -0.507 OA
ATOM     26  H   UNL     1      43.424 -14.765 -33.504  1.00  0.00     0.293 HD
ENDBRANCH   5  25
BRANCH   7  27
ATOM     27  O   UNL     1      48.522 -14.472 -35.899  1.00  0.00    -0.507 OA
ATOM     28  H   UNL     1      49.272 -13.859 -36.182  1.00  0.00     0.293 HD
ENDBRANCH   7  27
TORSDOF 7
ENDMDL
