MODEL 1
REMARK VINA RESULT:    -5.672      0.000      0.000
REMARK INTER + INTRA:          -6.363
REMARK INTER:                  -6.170
REMARK INTRA:                  -0.193
REMARK UNBOUND:                -0.193
REMARK SMILES Cc1ccc(C(C)C)c(O)c1
REMARK SMILES IDX 1 1 2 2 11 3 9 4 5 5 4 6 3 7 10 8 6 10 7 11 8 12
REMARK H PARENT 10 9
REMARK Flexibility Score: inf
ROOT
ATOM      1  C   UNL     1       9.451 -10.768   0.522  1.00  0.00     0.044 C 
ATOM      2  C   UNL     1       8.453 -11.254  -0.486  1.00  0.00    -0.047 A 
ATOM      3  C   UNL     1       7.672 -10.339  -1.205  1.00  0.00     0.049 A 
ATOM      4  C   UNL     1       6.710 -10.785  -2.124  1.00  0.00     0.119 A 
ATOM      5  C   UNL     1       6.512 -12.172  -2.324  1.00  0.00    -0.004 A 
ATOM      6  C   UNL     1       7.289 -13.080  -1.581  1.00  0.00     0.008 A 
ATOM      7  C   UNL     1       8.244 -12.626  -0.668  1.00  0.00     0.004 A 
ENDROOT
BRANCH   4   8
ATOM      8  O   UNL     1       5.956  -9.849  -2.830  1.00  0.00    -0.508 OA
ATOM      9  H   UNL     1       4.943  -9.880  -2.842  1.00  0.00     0.293 HD
ENDBRANCH   4   8
BRANCH   5  10
ATOM     10  C   UNL     1       5.484 -12.718  -3.306  1.00  0.00     0.017 C 
ATOM     11  C   UNL     1       6.148 -13.286  -4.567  1.00  0.00     0.012 C 
ATOM     12  C   UNL     1       4.554 -13.745  -2.647  1.00  0.00     0.012 C 
ENDBRANCH   5  10
TORSDOF 2
ENDMDL
MODEL 2
REMARK VINA RESULT:    -5.419      1.745      2.484
REMARK INTER + INTRA:          -6.087
REMARK INTER:                  -5.890
REMARK INTRA:                  -0.196
REMARK UNBOUND:                -0.193
REMARK SMILES Cc1ccc(C(C)C)c(O)c1
REMARK SMILES IDX 1 1 2 2 11 3 9 4 5 5 4 6 3 7 10 8 6 10 7 11 8 12
REMARK H PARENT 10 9
REMARK Flexibility Score: inf
ROOT
ATOM      1  C   UNL     1       9.426 -10.463   0.634  1.00  0.00     0.044 C 
ATOM      2  C   UNL     1       8.570 -11.200  -0.354  1.00  0.00    -0.047 A 
ATOM      3  C   UNL     1       8.681 -12.590  -0.485  1.00  0.00     0.049 A 
ATOM      4  C   UNL     1       7.911 -13.283  -1.432  1.00  0.00     0.119 A 
ATOM      5  C   UNL     1       7.020 -12.576  -2.275  1.00  0.00    -0.004 A 
ATOM      6  C   UNL     1       6.934 -11.177  -2.145  1.00  0.00     0.008 A 
ATOM      7  C   UNL     1       7.704 -10.496  -1.200  1.00  0.00     0.004 A 
ENDROOT
BRANCH   4   8
ATOM      8  O   UNL     1       8.037 -14.668  -1.532  1.00  0.00    -0.508 OA
ATOM      9  H   UNL     1       8.631 -15.196  -0.904  1.00  0.00     0.293 HD
ENDBRANCH   4   8
BRANCH   5  10
ATOM     10  C   UNL     1       6.158 -13.271  -3.320  1.00  0.00     0.017 C 
ATOM     11  C   UNL     1       4.748 -12.672  -3.386  1.00  0.00     0.012 C 
ATOM     12  C   UNL     1       6.832 -13.281  -4.699  1.00  0.00     0.012 C 
ENDBRANCH   5  10
TORSDOF 2
ENDMDL
MODEL 3
REMARK VINA RESULT:    -5.329      2.037      4.884
REMARK INTER + INTRA:          -5.989
REMARK INTER:                  -5.798
REMARK INTRA:                  -0.191
REMARK UNBOUND:                -0.193
REMARK SMILES Cc1ccc(C(C)C)c(O)c1
REMARK SMILES IDX 1 1 2 2 11 3 9 4 5 5 4 6 3 7 10 8 6 10 7 11 8 12
REMARK H PARENT 10 9
REMARK Flexibility Score: inf
ROOT
ATOM      1  C   UNL     1       2.871 -13.473  -5.499  1.00  0.00     0.044 C 
ATOM      2  C   UNL     1       3.975 -13.444  -4.484  1.00  0.00    -0.047 A 
ATOM      3  C   UNL     1       3.702 -13.712  -3.136  1.00  0.00     0.049 A 
ATOM      4  C   UNL     1       4.721 -13.652  -2.173  1.00  0.00     0.119 A 
ATOM      5  C   UNL     1       6.039 -13.307  -2.558  1.00  0.00    -0.004 A 
ATOM      6  C   UNL     1       6.295 -13.022  -3.912  1.00  0.00     0.008 A 
ATOM      7  C   UNL     1       5.274 -13.084  -4.863  1.00  0.00     0.004 A 
ENDROOT
BRANCH   4   8
ATOM      8  O   UNL     1       4.418 -13.932  -0.841  1.00  0.00    -0.508 OA
ATOM      9  H   UNL     1       3.695 -14.594  -0.587  1.00  0.00     0.293 HD
ENDBRANCH   4   8
BRANCH   5  10
ATOM     10  C   UNL     1       7.186 -13.226  -1.560  1.00  0.00     0.017 C 
ATOM     11  C   UNL     1       8.325 -14.187  -1.923  1.00  0.00     0.012 C 
ATOM     12  C   UNL     1       7.695 -11.788  -1.392  1.00  0.00     0.012 C 
ENDBRANCH   5  10
TORSDOF 2
ENDMDL
MODEL 4
REMARK VINA RESULT:    -5.121      1.953      2.833
REMARK INTER + INTRA:          -5.763
REMARK INTER:                  -5.572
REMARK INTRA:                  -0.191
REMARK UNBOUND:                -0.193
REMARK SMILES Cc1ccc(C(C)C)c(O)c1
REMARK SMILES IDX 1 1 2 2 11 3 9 4 5 5 4 6 3 7 10 8 6 10 7 11 8 12
REMARK H PARENT 10 9
REMARK Flexibility Score: inf
ROOT
ATOM      1  C   UNL     1       7.274  -7.935   0.249  1.00  0.00     0.044 C 
ATOM      2  C   UNL     1       7.156  -9.289  -0.385  1.00  0.00    -0.047 A 
ATOM      3  C   UNL     1       7.928 -10.359   0.086  1.00  0.00     0.049 A 
ATOM      4  C   UNL     1       7.850 -11.621  -0.524  1.00  0.00     0.119 A 
ATOM      5  C   UNL     1       6.994 -11.819  -1.634  1.00  0.00    -0.004 A 
ATOM      6  C   UNL     1       6.239 -10.730  -2.108  1.00  0.00     0.008 A 
ATOM      7  C   UNL     1       6.323  -9.478  -1.494  1.00  0.00     0.004 A 
ENDROOT
BRANCH   4   8
ATOM      8  O   UNL     1       8.625 -12.668  -0.026  1.00  0.00    -0.508 OA
ATOM      9  H   UNL     1       9.250 -12.541   0.761  1.00  0.00     0.293 HD
ENDBRANCH   4   8
BRANCH   5  10
ATOM     10  C   UNL     1       6.866 -13.164  -2.337  1.00  0.00     0.017 C 
ATOM     11  C   UNL     1       5.456 -13.750  -2.193  1.00  0.00     0.012 C 
ATOM     12  C   UNL     1       7.295 -13.081  -3.808  1.00  0.00     0.012 C 
ENDBRANCH   5  10
TORSDOF 2
ENDMDL
MODEL 5
REMARK VINA RESULT:    -5.020      2.445      3.314
REMARK INTER + INTRA:          -5.653
REMARK INTER:                  -5.457
REMARK INTRA:                  -0.196
REMARK UNBOUND:                -0.193
REMARK SMILES Cc1ccc(C(C)C)c(O)c1
REMARK SMILES IDX 1 1 2 2 11 3 9 4 5 5 4 6 3 7 10 8 6 10 7 11 8 12
REMARK H PARENT 10 9
REMARK Flexibility Score: inf
ROOT
ATOM      1  C   UNL     1       8.287 -13.775  -1.615  1.00  0.00     0.044 C 
ATOM      2  C   UNL     1       7.070 -13.467  -2.436  1.00  0.00    -0.047 A 
ATOM      3  C   UNL     1       5.811 -13.384  -1.828  1.00  0.00     0.049 A 
ATOM      4  C   UNL     1       4.662 -13.132  -2.593  1.00  0.00     0.119 A 
ATOM      5  C   UNL     1       4.767 -12.971  -3.996  1.00  0.00    -0.004 A 
ATOM      6  C   UNL     1       6.036 -13.076  -4.595  1.00  0.00     0.008 A 
ATOM      7  C   UNL     1       7.174 -13.328  -3.825  1.00  0.00     0.004 A 
ENDROOT
BRANCH   4   8
ATOM      8  O   UNL     1       3.424 -13.046  -1.957  1.00  0.00    -0.508 OA
ATOM      9  H   UNL     1       2.746 -12.335  -2.204  1.00  0.00     0.293 HD
ENDBRANCH   4   8
BRANCH   5  10
ATOM     10  C   UNL     1       3.558 -12.695  -4.879  1.00  0.00     0.017 C 
ATOM     11  C   UNL     1       3.900 -11.743  -6.032  1.00  0.00     0.012 C 
ATOM     12  C   UNL     1       2.918 -13.993  -5.391  1.00  0.00     0.012 C 
ENDBRANCH   5  10
TORSDOF 2
ENDMDL
MODEL 6
REMARK VINA RESULT:    -4.955      1.805      4.492
REMARK INTER + INTRA:          -5.582
REMARK INTER:                  -5.596
REMARK INTRA:                   0.014
REMARK UNBOUND:                -0.193
REMARK SMILES Cc1ccc(C(C)C)c(O)c1
REMARK SMILES IDX 1 1 2 2 11 3 9 4 5 5 4 6 3 7 10 8 6 10 7 11 8 12
REMARK H PARENT 10 9
REMARK Flexibility Score: inf
ROOT
ATOM      1  C   UNL     1       5.335 -13.006  -5.094  1.00  0.00     0.044 C 
ATOM      2  C   UNL     1       5.964 -12.483  -3.837  1.00  0.00    -0.047 A 
ATOM      3  C   UNL     1       6.702 -13.338  -3.008  1.00  0.00     0.049 A 
ATOM      4  C   UNL     1       7.263 -12.866  -1.811  1.00  0.00     0.119 A 
ATOM      5  C   UNL     1       7.076 -11.517  -1.425  1.00  0.00    -0.004 A 
ATOM      6  C   UNL     1       6.316 -10.675  -2.258  1.00  0.00     0.008 A 
ATOM      7  C   UNL     1       5.761 -11.153  -3.447  1.00  0.00     0.004 A 
ENDROOT
BRANCH   4   8
ATOM      8  O   UNL     1       8.000 -13.740  -1.012  1.00  0.00    -0.508 OA
ATOM      9  H   UNL     1       7.722 -14.705  -0.881  1.00  0.00     0.293 HD
ENDBRANCH   4   8
BRANCH   5  10
ATOM     10  C   UNL     1       7.660 -10.947  -0.139  1.00  0.00     0.017 C 
ATOM     11  C   UNL     1       9.194 -10.982  -0.146  1.00  0.00     0.012 C 
ATOM     12  C   UNL     1       7.130  -9.536   0.151  1.00  0.00     0.012 C 
ENDBRANCH   5  10
TORSDOF 2
ENDMDL
MODEL 7
REMARK VINA RESULT:    -4.929      1.383      2.147
REMARK INTER + INTRA:          -5.554
REMARK INTER:                  -5.585
REMARK INTRA:                   0.031
REMARK UNBOUND:                -0.193
REMARK SMILES Cc1ccc(C(C)C)c(O)c1
REMARK SMILES IDX 1 1 2 2 11 3 9 4 5 5 4 6 3 7 10 8 6 10 7 11 8 12
REMARK H PARENT 10 9
REMARK Flexibility Score: inf
ROOT
ATOM      1  C   UNL     1       7.227  -8.011   0.228  1.00  0.00     0.044 C 
ATOM      2  C   UNL     1       7.197  -9.315  -0.511  1.00  0.00    -0.047 A 
ATOM      3  C   UNL     1       6.224  -9.549  -1.492  1.00  0.00     0.049 A 
ATOM      4  C   UNL     1       6.166 -10.780  -2.163  1.00  0.00     0.119 A 
ATOM      5  C   UNL     1       7.088 -11.805  -1.844  1.00  0.00    -0.004 A 
ATOM      6  C   UNL     1       8.048 -11.563  -0.843  1.00  0.00     0.008 A 
ATOM      7  C   UNL     1       8.098 -10.335  -0.180  1.00  0.00     0.004 A 
ENDROOT
BRANCH   4   8
ATOM      8  O   UNL     1       5.191 -10.978  -3.140  1.00  0.00    -0.508 OA
ATOM      9  H   UNL     1       4.205 -10.863  -2.940  1.00  0.00     0.293 HD
ENDBRANCH   4   8
BRANCH   5  10
ATOM     10  C   UNL     1       7.076 -13.161  -2.538  1.00  0.00     0.017 C 
ATOM     11  C   UNL     1       7.339 -13.032  -4.043  1.00  0.00     0.012 C 
ATOM     12  C   UNL     1       8.047 -14.148  -1.877  1.00  0.00     0.012 C 
ENDBRANCH   5  10
TORSDOF 2
ENDMDL
MODEL 8
REMARK VINA RESULT:    -4.842      1.410      4.214
REMARK INTER + INTRA:          -5.459
REMARK INTER:                  -5.305
REMARK INTRA:                  -0.154
REMARK UNBOUND:                -0.193
REMARK SMILES Cc1ccc(C(C)C)c(O)c1
REMARK SMILES IDX 1 1 2 2 11 3 9 4 5 5 4 6 3 7 10 8 6 10 7 11 8 12
REMARK H PARENT 10 9
REMARK Flexibility Score: inf
ROOT
ATOM      1  C   UNL     1       4.578 -13.372  -4.841  1.00  0.00     0.044 C 
ATOM      2  C   UNL     1       5.380 -12.957  -3.643  1.00  0.00    -0.047 A 
ATOM      3  C   UNL     1       4.772 -12.257  -2.593  1.00  0.00     0.049 A 
ATOM      4  C   UNL     1       5.522 -11.833  -1.486  1.00  0.00     0.119 A 
ATOM      5  C   UNL     1       6.911 -12.101  -1.427  1.00  0.00    -0.004 A 
ATOM      6  C   UNL     1       7.513 -12.788  -2.498  1.00  0.00     0.008 A 
ATOM      7  C   UNL     1       6.757 -13.205  -3.596  1.00  0.00     0.004 A 
ENDROOT
BRANCH   4   8
ATOM      8  O   UNL     1       4.886 -11.146  -0.453  1.00  0.00    -0.508 OA
ATOM      9  H   UNL     1       5.371 -10.455   0.106  1.00  0.00     0.293 HD
ENDBRANCH   4   8
BRANCH   5  10
ATOM     10  C   UNL     1       7.778 -11.667  -0.253  1.00  0.00     0.017 C 
ATOM     11  C   UNL     1       9.031 -12.542  -0.117  1.00  0.00     0.012 C 
ATOM     12  C   UNL     1       8.136 -10.177  -0.328  1.00  0.00     0.012 C 
ENDBRANCH   5  10
TORSDOF 2
ENDMDL
MODEL 9
REMARK VINA RESULT:    -4.546      1.477      4.425
REMARK INTER + INTRA:          -5.137
REMARK INTER:                  -4.946
REMARK INTRA:                  -0.191
REMARK UNBOUND:                -0.193
REMARK SMILES Cc1ccc(C(C)C)c(O)c1
REMARK SMILES IDX 1 1 2 2 11 3 9 4 5 5 4 6 3 7 10 8 6 10 7 11 8 12
REMARK H PARENT 10 9
REMARK Flexibility Score: inf
ROOT
ATOM      1  C   UNL     1       3.034 -14.278  -3.502  1.00  0.00     0.044 C 
ATOM      2  C   UNL     1       4.251 -13.567  -2.988  1.00  0.00    -0.047 A 
ATOM      3  C   UNL     1       5.354 -13.358  -3.826  1.00  0.00     0.049 A 
ATOM      4  C   UNL     1       6.510 -12.726  -3.344  1.00  0.00     0.119 A 
ATOM      5  C   UNL     1       6.576 -12.304  -1.994  1.00  0.00    -0.004 A 
ATOM      6  C   UNL     1       5.468 -12.538  -1.158  1.00  0.00     0.008 A 
ATOM      7  C   UNL     1       4.322 -13.168  -1.648  1.00  0.00     0.004 A 
ENDROOT
BRANCH   4   8
ATOM      8  O   UNL     1       7.588 -12.525  -4.206  1.00  0.00    -0.508 OA
ATOM      9  H   UNL     1       7.495 -11.983  -5.057  1.00  0.00     0.293 HD
ENDBRANCH   4   8
BRANCH   5  10
ATOM     10  C   UNL     1       7.802 -11.614  -1.412  1.00  0.00     0.017 C 
ATOM     11  C   UNL     1       7.462 -10.226  -0.854  1.00  0.00     0.012 C 
ATOM     12  C   UNL     1       8.505 -12.487  -0.365  1.00  0.00     0.012 C 
ENDBRANCH   5  10
TORSDOF 2
ENDMDL
