MODEL 1
REMARK VINA RESULT:    -3.158      0.000      0.000
REMARK INTER + INTRA:          -5.129
REMARK INTER:                  -4.820
REMARK INTRA:                  -0.309
REMARK UNBOUND:                -0.309
REMARK SMILES CC1=CCC[C@H](C)C(=O)C[C@H](C(C)C)C(=O)C1
REMARK SMILES IDX 8 1 9 2 6 3 7 4 5 5 4 6 3 7 2 8 1 9 10 11 11 12 15 13 16 14
REMARK SMILES IDX 17 15 12 17 13 18 14 19
REMARK H PARENT
REMARK Flexibility Score: 70.00
ROOT
ATOM      1  C   UNL     1      39.153 -39.868  -2.657  1.00  0.00     0.136 C 
ATOM      2  O   UNL     1      38.865 -38.718  -2.954  1.00  0.00    -0.299 OA
ENDROOT
BRANCH   1   3
ATOM      3  C   UNL     1      39.406 -40.884  -3.757  1.00  0.00     0.053 C 
ATOM      4  C   UNL     1      38.100 -41.223  -4.490  1.00  0.00     0.016 C 
BRANCH   3   5
ATOM      5  C   UNL     1      40.469 -40.352  -4.742  1.00  0.00     0.015 C 
BRANCH   5   6
ATOM      6  C   UNL     1      41.893 -40.422  -4.154  1.00  0.00     0.028 C 
BRANCH   6   7
ATOM      7  C   UNL     1      42.453 -39.039  -3.938  1.00  0.00    -0.028 C 
ATOM      8  C   UNL     1      42.848 -38.550  -2.738  1.00  0.00    -0.070 CG0
ATOM      9  C   UNL     1      43.343 -37.129  -2.652  1.00  0.00     0.039 C 
ATOM     10  G   UNL     1      42.915 -39.401  -1.482  1.00  0.00     0.000 G0
ENDBRANCH   6   7
ENDBRANCH   5   6
ENDBRANCH   3   5
ENDBRANCH   1   3
BRANCH   1  11
ATOM     11  C   UNL     1      39.252 -40.257  -1.198  1.00  0.00     0.087 C 
BRANCH  11  12
ATOM     12  C   UNL     1      40.691 -40.592  -0.693  1.00  0.00     0.066 C 
BRANCH  12  13
ATOM     13  C   UNL     1      41.633 -39.392  -0.673  1.00  0.00     0.140 C 
ATOM     14  O   UNL     1      41.383 -38.428   0.037  1.00  0.00    -0.299 OA
BRANCH  13  15
ATOM     15  C   UNL     1      42.926 -39.413  -1.454  1.00  0.00     0.106 CG0
ATOM     16  G   UNL     1      42.852 -38.576  -2.720  1.00  0.00     0.000 G0
ENDBRANCH  13  15
ENDBRANCH  12  13
BRANCH  12  17
ATOM     17  C   UNL     1      40.748 -41.396   0.648  1.00  0.00    -0.006 C 
ATOM     18  C   UNL     1      39.481 -42.210   0.956  1.00  0.00     0.008 C 
ATOM     19  C   UNL     1      41.982 -42.312   0.707  1.00  0.00     0.008 C 
ENDBRANCH  12  17
ENDBRANCH  11  12
ENDBRANCH   1  11
TORSDOF 1
ENDMDL
MODEL 2
REMARK VINA RESULT:    -3.064      2.197      4.355
REMARK INTER + INTRA:          -4.984
REMARK INTER:                  -4.897
REMARK INTRA:                  -0.087
REMARK UNBOUND:                -0.309
REMARK SMILES CC1=CCC[C@H](C)C(=O)C[C@H](C(C)C)C(=O)C1
REMARK SMILES IDX 8 1 9 2 6 3 7 4 5 5 4 6 3 7 2 8 1 9 10 11 11 12 15 13 16 14
REMARK SMILES IDX 17 15 12 17 13 18 14 19
REMARK H PARENT
REMARK Flexibility Score: 70.00
ROOT
ATOM      1  C   UNL     1      41.276 -40.698  -5.106  1.00  0.00     0.136 C 
ATOM      2  O   UNL     1      40.715 -41.558  -5.768  1.00  0.00    -0.299 OA
ENDROOT
BRANCH   1   3
ATOM      3  C   UNL     1      42.642 -40.987  -4.508  1.00  0.00     0.053 C 
ATOM      4  C   UNL     1      43.675 -41.237  -5.617  1.00  0.00     0.016 C 
BRANCH   3   5
ATOM      5  C   UNL     1      43.084 -39.821  -3.597  1.00  0.00     0.015 C 
BRANCH   5   6
ATOM      6  C   UNL     1      42.754 -40.085  -2.115  1.00  0.00     0.028 C 
BRANCH   6   7
ATOM      7  C   UNL     1      42.473 -38.794  -1.390  1.00  0.00    -0.028 C 
ATOM      8  C   UNL     1      41.236 -38.278  -1.191  1.00  0.00    -0.070 CG0
ATOM      9  C   UNL     1      41.099 -36.948  -0.493  1.00  0.00     0.039 C 
ATOM     10  G   UNL     1      39.963 -39.026  -1.547  1.00  0.00     0.000 G0
ENDBRANCH   6   7
ENDBRANCH   5   6
ENDBRANCH   3   5
ENDBRANCH   1   3
BRANCH   1  11
ATOM     11  C   UNL     1      40.598 -39.363  -4.894  1.00  0.00     0.087 C 
BRANCH  11  12
ATOM     12  C   UNL     1      39.280 -39.409  -4.058  1.00  0.00     0.066 C 
BRANCH  12  13
ATOM     13  C   UNL     1      39.310 -38.534  -2.809  1.00  0.00     0.140 C 
ATOM     14  O   UNL     1      38.746 -37.449  -2.806  1.00  0.00    -0.299 OA
BRANCH  13  15
ATOM     15  C   UNL     1      39.954 -39.028  -1.535  1.00  0.00     0.106 CG0
ATOM     16  G   UNL     1      41.242 -38.289  -1.212  1.00  0.00     0.000 G0
ENDBRANCH  13  15
ENDBRANCH  12  13
BRANCH  12  17
ATOM     17  C   UNL     1      37.968 -39.194  -4.884  1.00  0.00    -0.006 C 
ATOM     18  C   UNL     1      38.142 -38.322  -6.138  1.00  0.00     0.008 C 
ATOM     19  C   UNL     1      37.315 -40.532  -5.268  1.00  0.00     0.008 C 
ENDBRANCH  12  17
ENDBRANCH  11  12
ENDBRANCH   1  11
TORSDOF 1
ENDMDL
MODEL 3
REMARK VINA RESULT:    -3.022      2.058      4.800
REMARK INTER + INTRA:          -4.921
REMARK INTER:                  -4.625
REMARK INTRA:                  -0.296
REMARK UNBOUND:                -0.309
REMARK SMILES CC1=CCC[C@H](C)C(=O)C[C@H](C(C)C)C(=O)C1
REMARK SMILES IDX 8 1 9 2 6 3 7 4 5 5 4 6 3 7 2 8 1 9 10 11 11 12 15 13 16 14
REMARK SMILES IDX 17 15 12 17 13 18 14 19
REMARK H PARENT
REMARK Flexibility Score: 70.00
ROOT
ATOM      1  C   UNL     1      42.430 -39.639  -1.349  1.00  0.00     0.136 C 
ATOM      2  O   UNL     1      42.691 -38.582  -0.795  1.00  0.00    -0.299 OA
ENDROOT
BRANCH   1   3
ATOM      3  C   UNL     1      41.849 -40.785  -0.539  1.00  0.00     0.053 C 
ATOM      4  C   UNL     1      42.882 -41.315   0.465  1.00  0.00     0.016 C 
BRANCH   3   5
ATOM      5  C   UNL     1      40.562 -40.330   0.182  1.00  0.00     0.015 C 
BRANCH   5   6
ATOM      6  C   UNL     1      39.389 -40.124  -0.796  1.00  0.00     0.028 C 
BRANCH   6   7
ATOM      7  C   UNL     1      38.987 -38.672  -0.854  1.00  0.00    -0.028 C 
ATOM      8  C   UNL     1      38.956 -37.929  -1.986  1.00  0.00    -0.070 CG0
ATOM      9  C   UNL     1      38.585 -36.470  -1.896  1.00  0.00     0.039 C 
ATOM     10  G   UNL     1      39.179 -38.520  -3.368  1.00  0.00     0.000 G0
ENDBRANCH   6   7
ENDBRANCH   5   6
ENDBRANCH   3   5
ENDBRANCH   1   3
BRANCH   1  11
ATOM     11  C   UNL     1      42.691 -39.786  -2.832  1.00  0.00     0.087 C 
BRANCH  11  12
ATOM     12  C   UNL     1      41.415 -39.859  -3.729  1.00  0.00     0.066 C 
BRANCH  12  13
ATOM     13  C   UNL     1      40.632 -38.551  -3.798  1.00  0.00     0.140 C 
ATOM     14  O   UNL     1      41.160 -37.544  -4.248  1.00  0.00    -0.299 OA
BRANCH  13  15
ATOM     15  C   UNL     1      39.177 -38.500  -3.397  1.00  0.00     0.106 CG0
ATOM     16  G   UNL     1      38.979 -37.938  -1.999  1.00  0.00     0.000 G0
ENDBRANCH  13  15
ENDBRANCH  12  13
BRANCH  12  17
ATOM     17  C   UNL     1      41.643 -40.472  -5.151  1.00  0.00    -0.006 C 
ATOM     18  C   UNL     1      42.844 -41.427  -5.246  1.00  0.00     0.008 C 
ATOM     19  C   UNL     1      40.379 -41.173  -5.675  1.00  0.00     0.008 C 
ENDBRANCH  12  17
ENDBRANCH  11  12
ENDBRANCH   1  11
TORSDOF 1
ENDMDL
MODEL 4
REMARK VINA RESULT:    -2.988      3.575      4.777
REMARK INTER + INTRA:          -4.869
REMARK INTER:                  -4.433
REMARK INTRA:                  -0.436
REMARK UNBOUND:                -0.309
REMARK SMILES CC1=CCC[C@H](C)C(=O)C[C@H](C(C)C)C(=O)C1
REMARK SMILES IDX 8 1 9 2 6 3 7 4 5 5 4 6 3 7 2 8 1 9 10 11 11 12 15 13 16 14
REMARK SMILES IDX 17 15 12 17 13 18 14 19
REMARK H PARENT
REMARK Flexibility Score: 70.00
ROOT
ATOM      1  C   UNL     1      37.376 -38.496  -5.960  1.00  0.00     0.136 C 
ATOM      2  O   UNL     1      36.211 -38.138  -5.869  1.00  0.00    -0.299 OA
ENDROOT
BRANCH   1   3
ATOM      3  C   UNL     1      38.058 -38.490  -7.316  1.00  0.00     0.053 C 
ATOM      4  C   UNL     1      37.399 -39.509  -8.257  1.00  0.00     0.016 C 
BRANCH   3   5
ATOM      5  C   UNL     1      38.021 -37.072  -7.927  1.00  0.00     0.015 C 
BRANCH   5   6
ATOM      6  C   UNL     1      39.309 -36.278  -7.632  1.00  0.00     0.028 C 
BRANCH   6   7
ATOM      7  C   UNL     1      39.177 -35.500  -6.348  1.00  0.00    -0.028 C 
ATOM      8  C   UNL     1      39.842 -35.790  -5.203  1.00  0.00    -0.070 CG0
ATOM      9  C   UNL     1      39.579 -34.962  -3.972  1.00  0.00     0.039 C 
ATOM     10  G   UNL     1      40.924 -36.853  -5.125  1.00  0.00     0.000 G0
ENDBRANCH   6   7
ENDBRANCH   5   6
ENDBRANCH   3   5
ENDBRANCH   1   3
BRANCH   1  11
ATOM     11  C   UNL     1      38.117 -38.937  -4.716  1.00  0.00     0.087 C 
BRANCH  11  12
ATOM     12  C   UNL     1      39.652 -39.157  -4.897  1.00  0.00     0.066 C 
BRANCH  12  13
ATOM     13  C   UNL     1      40.510 -38.059  -4.277  1.00  0.00     0.140 C 
ATOM     14  O   UNL     1      40.929 -38.180  -3.134  1.00  0.00    -0.299 OA
BRANCH  13  15
ATOM     15  C   UNL     1      40.929 -36.855  -5.087  1.00  0.00     0.106 CG0
ATOM     16  G   UNL     1      39.833 -35.806  -5.178  1.00  0.00     0.000 G0
ENDBRANCH  13  15
ENDBRANCH  12  13
BRANCH  12  17
ATOM     17  C   UNL     1      40.165 -40.583  -4.506  1.00  0.00    -0.006 C 
ATOM     18  C   UNL     1      39.059 -41.558  -4.070  1.00  0.00     0.008 C 
ATOM     19  C   UNL     1      41.000 -41.213  -5.632  1.00  0.00     0.008 C 
ENDBRANCH  12  17
ENDBRANCH  11  12
ENDBRANCH   1  11
TORSDOF 1
ENDMDL
MODEL 5
REMARK VINA RESULT:    -2.912      2.754      4.002
REMARK INTER + INTRA:          -4.753
REMARK INTER:                  -4.731
REMARK INTRA:                  -0.022
REMARK UNBOUND:                -0.309
REMARK SMILES CC1=CCC[C@H](C)C(=O)C[C@H](C(C)C)C(=O)C1
REMARK SMILES IDX 8 1 9 2 6 3 7 4 5 5 4 6 3 7 2 8 1 9 10 11 11 12 15 13 16 14
REMARK SMILES IDX 17 15 12 17 13 18 14 19
REMARK H PARENT
REMARK Flexibility Score: 70.00
ROOT
ATOM      1  C   UNL     1      38.175 -40.155  -5.369  1.00  0.00     0.136 C 
ATOM      2  O   UNL     1      37.001 -40.456  -5.217  1.00  0.00    -0.299 OA
ENDROOT
BRANCH   1   3
ATOM      3  C   UNL     1      38.552 -39.115  -6.409  1.00  0.00     0.053 C 
ATOM      4  C   UNL     1      37.812 -39.377  -7.728  1.00  0.00     0.016 C 
BRANCH   3   5
ATOM      5  C   UNL     1      38.251 -37.696  -5.880  1.00  0.00     0.015 C 
BRANCH   5   6
ATOM      6  C   UNL     1      39.537 -36.901  -5.584  1.00  0.00     0.028 C 
BRANCH   6   7
ATOM      7  C   UNL     1      39.506 -36.331  -4.188  1.00  0.00    -0.028 C 
ATOM      8  C   UNL     1      40.258 -36.785  -3.157  1.00  0.00    -0.070 CG0
ATOM      9  C   UNL     1      40.093 -36.158  -1.796  1.00  0.00     0.039 C 
ATOM     10  G   UNL     1      41.344 -37.834  -3.327  1.00  0.00     0.000 G0
ENDBRANCH   6   7
ENDBRANCH   5   6
ENDBRANCH   3   5
ENDBRANCH   1   3
BRANCH   1  11
ATOM     11  C   UNL     1      39.231 -40.825  -4.517  1.00  0.00     0.087 C 
BRANCH  11  12
ATOM     12  C   UNL     1      40.610 -40.094  -4.466  1.00  0.00     0.066 C 
BRANCH  12  13
ATOM     13  C   UNL     1      40.817 -39.253  -3.211  1.00  0.00     0.140 C 
ATOM     14  O   UNL     1      40.628 -39.742  -2.106  1.00  0.00    -0.299 OA
BRANCH  13  15
ATOM     15  C   UNL     1      41.339 -37.839  -3.306  1.00  0.00     0.106 CG0
ATOM     16  G   UNL     1      40.239 -36.802  -3.159  1.00  0.00     0.000 G0
ENDBRANCH  13  15
ENDBRANCH  12  13
BRANCH  12  17
ATOM     17  C   UNL     1      41.849 -41.002  -4.765  1.00  0.00    -0.006 C 
ATOM     18  C   UNL     1      41.719 -41.855  -6.038  1.00  0.00     0.008 C 
ATOM     19  C   UNL     1      43.150 -40.185  -4.817  1.00  0.00     0.008 C 
ENDBRANCH  12  17
ENDBRANCH  11  12
ENDBRANCH   1  11
TORSDOF 1
ENDMDL
MODEL 6
REMARK VINA RESULT:    -2.859      2.282      4.229
REMARK INTER + INTRA:          -4.672
REMARK INTER:                  -4.442
REMARK INTRA:                  -0.231
REMARK UNBOUND:                -0.309
REMARK SMILES CC1=CCC[C@H](C)C(=O)C[C@H](C(C)C)C(=O)C1
REMARK SMILES IDX 8 1 9 2 6 3 7 4 5 5 4 6 3 7 2 8 1 9 10 11 11 12 15 13 16 14
REMARK SMILES IDX 17 15 12 17 13 18 14 19
REMARK H PARENT
REMARK Flexibility Score: 70.00
ROOT
ATOM      1  C   UNL     1      38.018 -40.518  -4.321  1.00  0.00     0.136 C 
ATOM      2  O   UNL     1      37.313 -41.256  -4.993  1.00  0.00    -0.299 OA
ENDROOT
BRANCH   1   3
ATOM      3  C   UNL     1      37.695 -39.036  -4.248  1.00  0.00     0.053 C 
ATOM      4  C   UNL     1      37.088 -38.550  -5.572  1.00  0.00     0.016 C 
BRANCH   3   5
ATOM      5  C   UNL     1      36.741 -38.754  -3.068  1.00  0.00     0.015 C 
BRANCH   5   6
ATOM      6  C   UNL     1      37.318 -37.712  -2.089  1.00  0.00     0.028 C 
BRANCH   6   7
ATOM      7  C   UNL     1      37.702 -38.359  -0.783  1.00  0.00    -0.028 C 
ATOM      8  C   UNL     1      38.951 -38.785  -0.475  1.00  0.00    -0.070 CG0
ATOM      9  C   UNL     1      39.189 -39.463   0.850  1.00  0.00     0.039 C 
ATOM     10  G   UNL     1      40.155 -38.519  -1.362  1.00  0.00     0.000 G0
ENDBRANCH   6   7
ENDBRANCH   5   6
ENDBRANCH   3   5
ENDBRANCH   1   3
BRANCH   1  11
ATOM     11  C   UNL     1      39.198 -41.097  -3.572  1.00  0.00     0.087 C 
BRANCH  11  12
ATOM     12  C   UNL     1      40.423 -40.141  -3.416  1.00  0.00     0.066 C 
BRANCH  12  13
ATOM     13  C   UNL     1      40.735 -39.770  -1.970  1.00  0.00     0.140 C 
ATOM     14  O   UNL     1      41.505 -40.457  -1.313  1.00  0.00    -0.299 OA
BRANCH  13  15
ATOM     15  C   UNL     1      40.174 -38.508  -1.358  1.00  0.00     0.106 CG0
ATOM     16  G   UNL     1      38.951 -38.775  -0.496  1.00  0.00     0.000 G0
ENDBRANCH  13  15
ENDBRANCH  12  13
BRANCH  12  17
ATOM     17  C   UNL     1      41.708 -40.584  -4.191  1.00  0.00    -0.006 C 
ATOM     18  C   UNL     1      41.437 -41.197  -5.574  1.00  0.00     0.008 C 
ATOM     19  C   UNL     1      42.716 -39.430  -4.321  1.00  0.00     0.008 C 
ENDBRANCH  12  17
ENDBRANCH  11  12
ENDBRANCH   1  11
TORSDOF 1
ENDMDL
MODEL 7
REMARK VINA RESULT:    -2.812      2.730      3.974
REMARK INTER + INTRA:          -4.601
REMARK INTER:                  -4.248
REMARK INTRA:                  -0.353
REMARK UNBOUND:                -0.309
REMARK SMILES CC1=CCC[C@H](C)C(=O)C[C@H](C(C)C)C(=O)C1
REMARK SMILES IDX 8 1 9 2 6 3 7 4 5 5 4 6 3 7 2 8 1 9 10 11 11 12 15 13 16 14
REMARK SMILES IDX 17 15 12 17 13 18 14 19
REMARK H PARENT
REMARK Flexibility Score: 70.00
ROOT
ATOM      1  C   UNL     1      39.001 -39.381  -3.123  1.00  0.00     0.136 C 
ATOM      2  O   UNL     1      38.105 -39.201  -2.311  1.00  0.00    -0.299 OA
ENDROOT
BRANCH   1   3
ATOM      3  C   UNL     1      38.657 -39.847  -4.527  1.00  0.00     0.053 C 
ATOM      4  C   UNL     1      37.840 -41.147  -4.480  1.00  0.00     0.016 C 
BRANCH   3   5
ATOM      5  C   UNL     1      37.891 -38.742  -5.284  1.00  0.00     0.015 C 
BRANCH   5   6
ATOM      6  C   UNL     1      38.842 -37.728  -5.951  1.00  0.00     0.028 C 
BRANCH   6   7
ATOM      7  C   UNL     1      38.874 -36.434  -5.179  1.00  0.00    -0.028 C 
ATOM      8  C   UNL     1      39.997 -35.865  -4.680  1.00  0.00    -0.070 CG0
ATOM      9  C   UNL     1      39.883 -34.592  -3.880  1.00  0.00     0.039 C 
ATOM     10  G   UNL     1      41.391 -36.394  -4.974  1.00  0.00     0.000 G0
ENDBRANCH   6   7
ENDBRANCH   5   6
ENDBRANCH   3   5
ENDBRANCH   1   3
BRANCH   1  11
ATOM     11  C   UNL     1      40.436 -39.136  -2.712  1.00  0.00     0.087 C 
BRANCH  11  12
ATOM     12  C   UNL     1      41.420 -38.815  -3.881  1.00  0.00     0.066 C 
BRANCH  12  13
ATOM     13  C   UNL     1      41.901 -37.368  -3.904  1.00  0.00     0.140 C 
ATOM     14  O   UNL     1      42.749 -36.991  -3.107  1.00  0.00    -0.299 OA
BRANCH  13  15
ATOM     15  C   UNL     1      41.408 -36.406  -4.959  1.00  0.00     0.106 CG0
ATOM     16  G   UNL     1      40.009 -35.892  -4.669  1.00  0.00     0.000 G0
ENDBRANCH  13  15
ENDBRANCH  12  13
BRANCH  12  17
ATOM     17  C   UNL     1      42.606 -39.823  -4.040  1.00  0.00    -0.006 C 
ATOM     18  C   UNL     1      43.046 -40.499  -2.731  1.00  0.00     0.008 C 
ATOM     19  C   UNL     1      42.303 -40.893  -5.102  1.00  0.00     0.008 C 
ENDBRANCH  12  17
ENDBRANCH  11  12
ENDBRANCH   1  11
TORSDOF 1
ENDMDL
MODEL 8
REMARK VINA RESULT:    -2.800      3.154      4.952
REMARK INTER + INTRA:          -4.582
REMARK INTER:                  -4.703
REMARK INTRA:                   0.120
REMARK UNBOUND:                -0.309
REMARK SMILES CC1=CCC[C@H](C)C(=O)C[C@H](C(C)C)C(=O)C1
REMARK SMILES IDX 8 1 9 2 6 3 7 4 5 5 4 6 3 7 2 8 1 9 10 11 11 12 15 13 16 14
REMARK SMILES IDX 17 15 12 17 13 18 14 19
REMARK H PARENT
REMARK Flexibility Score: 70.00
ROOT
ATOM      1  C   UNL     1      40.859 -40.349  -3.978  1.00  0.00     0.136 C 
ATOM      2  O   UNL     1      40.219 -40.881  -3.084  1.00  0.00    -0.299 OA
ENDROOT
BRANCH   1   3
ATOM      3  C   UNL     1      42.369 -40.241  -3.856  1.00  0.00     0.053 C 
ATOM      4  C   UNL     1      43.060 -41.224  -4.812  1.00  0.00     0.016 C 
BRANCH   3   5
ATOM      5  C   UNL     1      42.825 -38.792  -4.132  1.00  0.00     0.015 C 
BRANCH   5   6
ATOM      6  C   UNL     1      42.197 -37.787  -3.144  1.00  0.00     0.028 C 
BRANCH   6   7
ATOM      7  C   UNL     1      42.254 -36.386  -3.697  1.00  0.00    -0.028 C 
ATOM      8  C   UNL     1      41.198 -35.728  -4.231  1.00  0.00    -0.070 CG0
ATOM      9  C   UNL     1      41.403 -34.345  -4.796  1.00  0.00     0.039 C 
ATOM     10  G   UNL     1      39.781 -36.276  -4.197  1.00  0.00     0.000 G0
ENDBRANCH   6   7
ENDBRANCH   5   6
ENDBRANCH   3   5
ENDBRANCH   1   3
BRANCH   1  11
ATOM     11  C   UNL     1      40.133 -39.807  -5.190  1.00  0.00     0.087 C 
BRANCH  11  12
ATOM     12  C   UNL     1      39.051 -38.723  -4.890  1.00  0.00     0.066 C 
BRANCH  12  13
ATOM     13  C   UNL     1      39.479 -37.305  -5.256  1.00  0.00     0.140 C 
ATOM     14  O   UNL     1      39.528 -36.962  -6.428  1.00  0.00    -0.299 OA
BRANCH  13  15
ATOM     15  C   UNL     1      39.762 -36.282  -4.181  1.00  0.00     0.106 CG0
ATOM     16  G   UNL     1      41.184 -35.751  -4.244  1.00  0.00     0.000 G0
ENDBRANCH  13  15
ENDBRANCH  12  13
BRANCH  12  17
ATOM     17  C   UNL     1      37.619 -39.052  -5.431  1.00  0.00    -0.006 C 
ATOM     18  C   UNL     1      37.590 -39.563  -6.880  1.00  0.00     0.008 C 
ATOM     19  C   UNL     1      36.883 -40.044  -4.515  1.00  0.00     0.008 C 
ENDBRANCH  12  17
ENDBRANCH  11  12
ENDBRANCH   1  11
TORSDOF 1
ENDMDL
MODEL 9
REMARK VINA RESULT:    -2.570      2.409      3.527
REMARK INTER + INTRA:          -4.231
REMARK INTER:                  -3.828
REMARK INTRA:                  -0.403
REMARK UNBOUND:                -0.309
REMARK SMILES CC1=CCC[C@H](C)C(=O)C[C@H](C(C)C)C(=O)C1
REMARK SMILES IDX 8 1 9 2 6 3 7 4 5 5 4 6 3 7 2 8 1 9 10 11 11 12 15 13 16 14
REMARK SMILES IDX 17 15 12 17 13 18 14 19
REMARK H PARENT
REMARK Flexibility Score: 70.00
ROOT
ATOM      1  C   UNL     1      39.690 -40.900  -3.658  1.00  0.00     0.136 C 
ATOM      2  O   UNL     1      38.854 -41.605  -4.203  1.00  0.00    -0.299 OA
ENDROOT
BRANCH   1   3
ATOM      3  C   UNL     1      40.620 -40.049  -4.505  1.00  0.00     0.053 C 
ATOM      4  C   UNL     1      41.625 -40.934  -5.257  1.00  0.00     0.016 C 
BRANCH   3   5
ATOM      5  C   UNL     1      39.804 -39.184  -5.490  1.00  0.00     0.015 C 
BRANCH   5   6
ATOM      6  C   UNL     1      39.495 -37.787  -4.917  1.00  0.00     0.028 C 
BRANCH   6   7
ATOM      7  C   UNL     1      38.137 -37.763  -4.263  1.00  0.00    -0.028 C 
ATOM      8  C   UNL     1      37.928 -37.647  -2.930  1.00  0.00    -0.070 CG0
ATOM      9  C   UNL     1      36.517 -37.689  -2.401  1.00  0.00     0.039 C 
ATOM     10  G   UNL     1      39.048 -37.372  -1.941  1.00  0.00     0.000 G0
ENDBRANCH   6   7
ENDBRANCH   5   6
ENDBRANCH   3   5
ENDBRANCH   1   3
BRANCH   1  11
ATOM     11  C   UNL     1      39.781 -40.887  -2.147  1.00  0.00     0.087 C 
BRANCH  11  12
ATOM     12  C   UNL     1      40.407 -39.598  -1.528  1.00  0.00     0.066 C 
BRANCH  12  13
ATOM     13  C   UNL     1      39.377 -38.569  -1.072  1.00  0.00     0.140 C 
ATOM     14  O   UNL     1      38.858 -38.668   0.031  1.00  0.00    -0.299 OA
BRANCH  13  15
ATOM     15  C   UNL     1      39.050 -37.371  -1.931  1.00  0.00     0.106 CG0
ATOM     16  G   UNL     1      37.939 -37.656  -2.927  1.00  0.00     0.000 G0
ENDBRANCH  13  15
ENDBRANCH  12  13
BRANCH  12  17
ATOM     17  C   UNL     1      41.494 -39.855  -0.431  1.00  0.00    -0.006 C 
ATOM     18  C   UNL     1      41.466 -41.268   0.173  1.00  0.00     0.008 C 
ATOM     19  C   UNL     1      42.907 -39.539  -0.950  1.00  0.00     0.008 C 
ENDBRANCH  12  17
ENDBRANCH  11  12
ENDBRANCH   1  11
TORSDOF 1
ENDMDL
