MODEL 1
REMARK VINA RESULT:    -5.038      0.000      0.000
REMARK INTER + INTRA:         -15.300
REMARK INTER:                 -11.518
REMARK INTRA:                  -3.782
REMARK UNBOUND:                -3.782
REMARK SMILES CCCCCCCCCCCCCCCCCCCCCCCC(=O)[O-]
REMARK SMILES IDX 13 1 14 2 15 3 16 4 17 5 18 6 19 7 20 8 21 9 22 10 23 11
REMARK SMILES IDX 24 12 25 13 26 14 12 15 11 16 10 17 9 18 8 19 7 20 6 21 5 22
REMARK SMILES IDX 4 23 3 24 2 25 1 26
REMARK H PARENT
REMARK Flexibility Score: inf
ROOT
ATOM      1  C   UNL     1      17.412 -23.729 -23.778  1.00  0.00     0.000 C 
ENDROOT
BRANCH   1   2
ATOM      2  C   UNL     1      18.669 -23.062 -23.192  1.00  0.00     0.000 C 
BRANCH   2   3
ATOM      3  C   UNL     1      19.680 -22.636 -24.274  1.00  0.00     0.000 C 
BRANCH   3   4
ATOM      4  C   UNL     1      19.252 -21.426 -25.125  1.00  0.00     0.000 C 
BRANCH   4   5
ATOM      5  C   UNL     1      19.053 -21.780 -26.610  1.00  0.00     0.000 C 
BRANCH   5   6
ATOM      6  C   UNL     1      17.571 -21.956 -26.991  1.00  0.00     0.000 C 
BRANCH   6   7
ATOM      7  C   UNL     1      17.318 -22.787 -28.262  1.00  0.00     0.000 C 
BRANCH   7   8
ATOM      8  C   UNL     1      15.948 -23.489 -28.259  1.00  0.00     0.000 C 
BRANCH   8   9
ATOM      9  C   UNL     1      15.028 -23.008 -27.121  1.00  0.00     0.000 C 
BRANCH   9  10
ATOM     10  C   UNL     1      13.591 -22.648 -27.541  1.00  0.00     0.006 C 
BRANCH  10  11
ATOM     11  C   UNL     1      13.331 -22.858 -29.039  1.00  0.00     0.053 C 
BRANCH  11  12
ATOM     12  C   UNL     1      12.105 -22.118 -29.468  1.00  0.00     0.041 C 
ATOM     13  O   UNL     1      11.835 -20.996 -28.963  1.00  0.00    -0.550 OA
ATOM     14  O   UNL     1      11.278 -22.649 -30.451  1.00  0.00    -0.550 OA
ENDBRANCH  11  12
ENDBRANCH  10  11
ENDBRANCH   9  10
ENDBRANCH   8   9
ENDBRANCH   7   8
ENDBRANCH   6   7
ENDBRANCH   5   6
ENDBRANCH   4   5
ENDBRANCH   3   4
ENDBRANCH   2   3
ENDBRANCH   1   2
BRANCH   1  15
ATOM     15  C   UNL     1      17.620 -25.215 -24.119  1.00  0.00     0.000 C 
BRANCH  15  16
ATOM     16  C   UNL     1      17.458 -25.579 -25.607  1.00  0.00     0.000 C 
BRANCH  16  17
ATOM     17  C   UNL     1      18.787 -25.578 -26.377  1.00  0.00     0.000 C 
BRANCH  17  18
ATOM     18  C   UNL     1      18.734 -26.535 -27.575  1.00  0.00    -0.000 C 
BRANCH  18  19
ATOM     19  C   UNL     1      17.401 -27.298 -27.609  1.00  0.00    -0.000 C 
BRANCH  19  20
ATOM     20  C   UNL     1      17.428 -28.500 -28.567  1.00  0.00    -0.000 C 
BRANCH  20  21
ATOM     21  C   UNL     1      16.494 -28.309 -29.776  1.00  0.00    -0.000 C 
BRANCH  21  22
ATOM     22  C   UNL     1      16.354 -26.833 -30.188  1.00  0.00    -0.000 C 
BRANCH  22  23
ATOM     23  C   UNL     1      17.256 -26.463 -31.378  1.00  0.00    -0.000 C 
BRANCH  23  24
ATOM     24  C   UNL     1      17.826 -25.035 -31.276  1.00  0.00    -0.000 C 
BRANCH  24  25
ATOM     25  C   UNL     1      19.356 -24.935 -31.405  1.00  0.00    -0.003 C 
ATOM     26  C   UNL     1      20.041 -24.508 -30.106  1.00  0.00     0.004 C 
ENDBRANCH  24  25
ENDBRANCH  23  24
ENDBRANCH  22  23
ENDBRANCH  21  22
ENDBRANCH  20  21
ENDBRANCH  19  20
ENDBRANCH  18  19
ENDBRANCH  17  18
ENDBRANCH  16  17
ENDBRANCH  15  16
ENDBRANCH   1  15
TORSDOF 22
ENDMDL
MODEL 2
REMARK VINA RESULT:    -4.993      2.367      4.539
REMARK INTER + INTRA:         -15.197
REMARK INTER:                 -11.830
REMARK INTRA:                  -3.368
REMARK UNBOUND:                -3.782
REMARK SMILES CCCCCCCCCCCCCCCCCCCCCCCC(=O)[O-]
REMARK SMILES IDX 13 1 14 2 15 3 16 4 17 5 18 6 19 7 20 8 21 9 22 10 23 11
REMARK SMILES IDX 24 12 25 13 26 14 12 15 11 16 10 17 9 18 8 19 7 20 6 21 5 22
REMARK SMILES IDX 4 23 3 24 2 25 1 26
REMARK H PARENT
REMARK Flexibility Score: inf
ROOT
ATOM      1  C   UNL     1      16.516 -22.000 -27.000  1.00  0.00     0.000 C 
ENDROOT
BRANCH   1   2
ATOM      2  C   UNL     1      15.453 -23.096 -27.198  1.00  0.00     0.000 C 
BRANCH   2   3
ATOM      3  C   UNL     1      15.181 -23.405 -28.682  1.00  0.00     0.000 C 
BRANCH   3   4
ATOM      4  C   UNL     1      13.909 -24.230 -28.953  1.00  0.00     0.000 C 
BRANCH   4   5
ATOM      5  C   UNL     1      12.617 -23.460 -28.630  1.00  0.00     0.000 C 
BRANCH   5   6
ATOM      6  C   UNL     1      12.523 -22.111 -29.365  1.00  0.00     0.000 C 
BRANCH   6   7
ATOM      7  C   UNL     1      11.839 -20.981 -28.572  1.00  0.00     0.000 C 
BRANCH   7   8
ATOM      8  C   UNL     1      12.316 -20.898 -27.111  1.00  0.00     0.000 C 
BRANCH   8   9
ATOM      9  C   UNL     1      12.806 -19.493 -26.716  1.00  0.00     0.000 C 
BRANCH   9  10
ATOM     10  C   UNL     1      12.117 -18.324 -27.444  1.00  0.00     0.006 C 
BRANCH  10  11
ATOM     11  C   UNL     1      10.782 -17.919 -26.802  1.00  0.00     0.053 C 
BRANCH  11  12
ATOM     12  C   UNL     1       9.686 -17.931 -27.819  1.00  0.00     0.041 C 
ATOM     13  O   UNL     1       8.497 -17.708 -27.468  1.00  0.00    -0.550 OA
ATOM     14  O   UNL     1       9.980 -18.153 -29.159  1.00  0.00    -0.550 OA
ENDBRANCH  11  12
ENDBRANCH  10  11
ENDBRANCH   9  10
ENDBRANCH   8   9
ENDBRANCH   7   8
ENDBRANCH   6   7
ENDBRANCH   5   6
ENDBRANCH   4   5
ENDBRANCH   3   4
ENDBRANCH   2   3
ENDBRANCH   1   2
BRANCH   1  15
ATOM     15  C   UNL     1      17.877 -22.555 -26.543  1.00  0.00     0.000 C 
BRANCH  15  16
ATOM     16  C   UNL     1      17.847 -23.401 -25.256  1.00  0.00     0.000 C 
BRANCH  16  17
ATOM     17  C   UNL     1      18.585 -24.741 -25.397  1.00  0.00     0.000 C 
BRANCH  17  18
ATOM     18  C   UNL     1      17.874 -25.662 -26.398  1.00  0.00    -0.000 C 
BRANCH  18  19
ATOM     19  C   UNL     1      18.880 -26.288 -27.377  1.00  0.00    -0.000 C 
BRANCH  19  20
ATOM     20  C   UNL     1      19.483 -25.259 -28.348  1.00  0.00    -0.000 C 
BRANCH  20  21
ATOM     21  C   UNL     1      18.504 -24.866 -29.469  1.00  0.00    -0.000 C 
BRANCH  21  22
ATOM     22  C   UNL     1      18.745 -25.653 -30.769  1.00  0.00    -0.000 C 
BRANCH  22  23
ATOM     23  C   UNL     1      17.736 -26.798 -30.964  1.00  0.00    -0.000 C 
BRANCH  23  24
ATOM     24  C   UNL     1      16.367 -26.505 -30.321  1.00  0.00    -0.000 C 
BRANCH  24  25
ATOM     25  C   UNL     1      15.862 -27.584 -29.346  1.00  0.00    -0.003 C 
ATOM     26  C   UNL     1      16.900 -28.670 -29.064  1.00  0.00     0.004 C 
ENDBRANCH  24  25
ENDBRANCH  23  24
ENDBRANCH  22  23
ENDBRANCH  21  22
ENDBRANCH  20  21
ENDBRANCH  19  20
ENDBRANCH  18  19
ENDBRANCH  17  18
ENDBRANCH  16  17
ENDBRANCH  15  16
ENDBRANCH   1  15
TORSDOF 22
ENDMDL
MODEL 3
REMARK VINA RESULT:    -4.890      1.714      3.096
REMARK INTER + INTRA:         -14.961
REMARK INTER:                 -11.542
REMARK INTRA:                  -3.419
REMARK UNBOUND:                -3.782
REMARK SMILES CCCCCCCCCCCCCCCCCCCCCCCC(=O)[O-]
REMARK SMILES IDX 13 1 14 2 15 3 16 4 17 5 18 6 19 7 20 8 21 9 22 10 23 11
REMARK SMILES IDX 24 12 25 13 26 14 12 15 11 16 10 17 9 18 8 19 7 20 6 21 5 22
REMARK SMILES IDX 4 23 3 24 2 25 1 26
REMARK H PARENT
REMARK Flexibility Score: inf
ROOT
ATOM      1  C   UNL     1      17.231 -24.111 -25.210  1.00  0.00     0.000 C 
ENDROOT
BRANCH   1   2
ATOM      2  C   UNL     1      17.852 -22.903 -25.932  1.00  0.00     0.000 C 
BRANCH   2   3
ATOM      3  C   UNL     1      16.931 -22.318 -27.020  1.00  0.00     0.000 C 
BRANCH   3   4
ATOM      4  C   UNL     1      15.555 -22.998 -27.144  1.00  0.00     0.000 C 
BRANCH   4   5
ATOM      5  C   UNL     1      15.367 -23.725 -28.487  1.00  0.00     0.000 C 
BRANCH   5   6
ATOM      6  C   UNL     1      14.046 -23.357 -29.188  1.00  0.00     0.000 C 
BRANCH   6   7
ATOM      7  C   UNL     1      12.778 -23.948 -28.543  1.00  0.00     0.000 C 
BRANCH   7   8
ATOM      8  C   UNL     1      11.743 -22.875 -28.159  1.00  0.00     0.000 C 
BRANCH   8   9
ATOM      9  C   UNL     1      12.121 -22.105 -26.880  1.00  0.00     0.000 C 
BRANCH   9  10
ATOM     10  C   UNL     1      12.556 -20.644 -27.093  1.00  0.00     0.006 C 
BRANCH  10  11
ATOM     11  C   UNL     1      11.578 -19.629 -26.485  1.00  0.00     0.053 C 
BRANCH  11  12
ATOM     12  C   UNL     1      11.041 -18.718 -27.542  1.00  0.00     0.041 C 
ATOM     13  O   UNL     1      10.694 -19.184 -28.659  1.00  0.00    -0.550 OA
ATOM     14  O   UNL     1      10.892 -17.361 -27.283  1.00  0.00    -0.550 OA
ENDBRANCH  11  12
ENDBRANCH  10  11
ENDBRANCH   9  10
ENDBRANCH   8   9
ENDBRANCH   7   8
ENDBRANCH   6   7
ENDBRANCH   5   6
ENDBRANCH   4   5
ENDBRANCH   3   4
ENDBRANCH   2   3
ENDBRANCH   1   2
BRANCH   1  15
ATOM     15  C   UNL     1      17.974 -25.430 -25.490  1.00  0.00     0.000 C 
BRANCH  15  16
ATOM     16  C   UNL     1      18.868 -25.430 -26.744  1.00  0.00     0.000 C 
BRANCH  16  17
ATOM     17  C   UNL     1      18.724 -26.705 -27.588  1.00  0.00     0.000 C 
BRANCH  17  18
ATOM     18  C   UNL     1      17.279 -26.888 -28.073  1.00  0.00    -0.000 C 
BRANCH  18  19
ATOM     19  C   UNL     1      17.059 -28.308 -28.617  1.00  0.00    -0.000 C 
BRANCH  19  20
ATOM     20  C   UNL     1      16.435 -28.317 -30.022  1.00  0.00    -0.000 C 
BRANCH  20  21
ATOM     21  C   UNL     1      16.580 -26.961 -30.737  1.00  0.00    -0.000 C 
BRANCH  21  22
ATOM     22  C   UNL     1      17.719 -26.957 -31.771  1.00  0.00    -0.000 C 
BRANCH  22  23
ATOM     23  C   UNL     1      18.489 -25.625 -31.800  1.00  0.00    -0.000 C 
BRANCH  23  24
ATOM     24  C   UNL     1      17.953 -24.603 -30.780  1.00  0.00    -0.000 C 
BRANCH  24  25
ATOM     25  C   UNL     1      19.029 -23.744 -30.092  1.00  0.00    -0.003 C 
ATOM     26  C   UNL     1      20.385 -24.444 -29.998  1.00  0.00     0.004 C 
ENDBRANCH  24  25
ENDBRANCH  23  24
ENDBRANCH  22  23
ENDBRANCH  21  22
ENDBRANCH  20  21
ENDBRANCH  19  20
ENDBRANCH  18  19
ENDBRANCH  17  18
ENDBRANCH  16  17
ENDBRANCH  15  16
ENDBRANCH   1  15
TORSDOF 22
ENDMDL
MODEL 4
REMARK VINA RESULT:    -4.856      2.908      6.477
REMARK INTER + INTRA:         -14.884
REMARK INTER:                 -11.947
REMARK INTRA:                  -2.937
REMARK UNBOUND:                -3.782
REMARK SMILES CCCCCCCCCCCCCCCCCCCCCCCC(=O)[O-]
REMARK SMILES IDX 13 1 14 2 15 3 16 4 17 5 18 6 19 7 20 8 21 9 22 10 23 11
REMARK SMILES IDX 24 12 25 13 26 14 12 15 11 16 10 17 9 18 8 19 7 20 6 21 5 22
REMARK SMILES IDX 4 23 3 24 2 25 1 26
REMARK H PARENT
REMARK Flexibility Score: inf
ROOT
ATOM      1  C   UNL     1      18.712 -21.578 -28.301  1.00  0.00     0.000 C 
ENDROOT
BRANCH   1   2
ATOM      2  C   UNL     1      20.037 -21.216 -27.608  1.00  0.00     0.000 C 
BRANCH   2   3
ATOM      3  C   UNL     1      19.928 -21.215 -26.072  1.00  0.00     0.000 C 
BRANCH   3   4
ATOM      4  C   UNL     1      18.536 -21.570 -25.517  1.00  0.00     0.000 C 
BRANCH   4   5
ATOM      5  C   UNL     1      18.531 -22.880 -24.709  1.00  0.00     0.000 C 
BRANCH   5   6
ATOM      6  C   UNL     1      17.804 -24.028 -25.433  1.00  0.00     0.000 C 
BRANCH   6   7
ATOM      7  C   UNL     1      18.694 -25.225 -25.816  1.00  0.00     0.000 C 
BRANCH   7   8
ATOM      8  C   UNL     1      19.205 -25.154 -27.266  1.00  0.00     0.000 C 
BRANCH   8   9
ATOM      9  C   UNL     1      18.754 -26.352 -28.123  1.00  0.00     0.000 C 
BRANCH   9  10
ATOM     10  C   UNL     1      17.370 -26.930 -27.773  1.00  0.00     0.006 C 
BRANCH  10  11
ATOM     11  C   UNL     1      17.144 -28.337 -28.343  1.00  0.00     0.053 C 
BRANCH  11  12
ATOM     12  C   UNL     1      16.189 -28.291 -29.493  1.00  0.00     0.041 C 
ATOM     13  O   UNL     1      15.443 -27.289 -29.654  1.00  0.00    -0.550 OA
ATOM     14  O   UNL     1      16.146 -29.338 -30.407  1.00  0.00    -0.550 OA
ENDBRANCH  11  12
ENDBRANCH  10  11
ENDBRANCH   9  10
ENDBRANCH   8   9
ENDBRANCH   7   8
ENDBRANCH   6   7
ENDBRANCH   5   6
ENDBRANCH   4   5
ENDBRANCH   3   4
ENDBRANCH   2   3
ENDBRANCH   1   2
BRANCH   1  15
ATOM     15  C   UNL     1      18.730 -21.310 -29.817  1.00  0.00     0.000 C 
BRANCH  15  16
ATOM     16  C   UNL     1      17.747 -22.156 -30.649  1.00  0.00     0.000 C 
BRANCH  16  17
ATOM     17  C   UNL     1      17.278 -23.425 -29.921  1.00  0.00     0.000 C 
BRANCH  17  18
ATOM     18  C   UNL     1      15.790 -23.335 -29.556  1.00  0.00    -0.000 C 
BRANCH  18  19
ATOM     19  C   UNL     1      15.567 -23.682 -28.075  1.00  0.00    -0.000 C 
BRANCH  19  20
ATOM     20  C   UNL     1      14.745 -22.617 -27.332  1.00  0.00    -0.000 C 
BRANCH  20  21
ATOM     21  C   UNL     1      13.228 -22.819 -27.505  1.00  0.00    -0.000 C 
BRANCH  21  22
ATOM     22  C   UNL     1      12.476 -21.495 -27.722  1.00  0.00    -0.000 C 
BRANCH  22  23
ATOM     23  C   UNL     1      12.345 -20.670 -26.429  1.00  0.00    -0.000 C 
BRANCH  23  24
ATOM     24  C   UNL     1      12.309 -19.152 -26.690  1.00  0.00    -0.000 C 
BRANCH  24  25
ATOM     25  C   UNL     1      11.808 -18.301 -25.509  1.00  0.00    -0.003 C 
ATOM     26  C   UNL     1      12.704 -18.400 -24.275  1.00  0.00     0.004 C 
ENDBRANCH  24  25
ENDBRANCH  23  24
ENDBRANCH  22  23
ENDBRANCH  21  22
ENDBRANCH  20  21
ENDBRANCH  19  20
ENDBRANCH  18  19
ENDBRANCH  17  18
ENDBRANCH  16  17
ENDBRANCH  15  16
ENDBRANCH   1  15
TORSDOF 22
ENDMDL
MODEL 5
REMARK VINA RESULT:    -4.830      1.198      2.273
REMARK INTER + INTRA:         -14.824
REMARK INTER:                 -10.809
REMARK INTRA:                  -4.015
REMARK UNBOUND:                -3.782
REMARK SMILES CCCCCCCCCCCCCCCCCCCCCCCC(=O)[O-]
REMARK SMILES IDX 13 1 14 2 15 3 16 4 17 5 18 6 19 7 20 8 21 9 22 10 23 11
REMARK SMILES IDX 24 12 25 13 26 14 12 15 11 16 10 17 9 18 8 19 7 20 6 21 5 22
REMARK SMILES IDX 4 23 3 24 2 25 1 26
REMARK H PARENT
REMARK Flexibility Score: inf
ROOT
ATOM      1  C   UNL     1      17.457 -24.918 -24.530  1.00  0.00     0.000 C 
ENDROOT
BRANCH   1   2
ATOM      2  C   UNL     1      18.863 -24.420 -24.151  1.00  0.00     0.000 C 
BRANCH   2   3
ATOM      3  C   UNL     1      18.914 -22.900 -23.906  1.00  0.00     0.000 C 
BRANCH   3   4
ATOM      4  C   UNL     1      19.709 -22.097 -24.952  1.00  0.00     0.000 C 
BRANCH   4   5
ATOM      5  C   UNL     1      18.832 -21.111 -25.743  1.00  0.00     0.000 C 
BRANCH   5   6
ATOM      6  C   UNL     1      18.359 -21.679 -27.093  1.00  0.00     0.000 C 
BRANCH   6   7
ATOM      7  C   UNL     1      16.933 -22.263 -27.093  1.00  0.00     0.000 C 
BRANCH   7   8
ATOM      8  C   UNL     1      16.613 -23.069 -28.365  1.00  0.00     0.000 C 
BRANCH   8   9
ATOM      9  C   UNL     1      15.242 -23.768 -28.306  1.00  0.00     0.000 C 
BRANCH   9  10
ATOM     10  C   UNL     1      14.045 -22.912 -28.760  1.00  0.00     0.006 C 
BRANCH  10  11
ATOM     11  C   UNL     1      13.095 -22.548 -27.610  1.00  0.00     0.053 C 
BRANCH  11  12
ATOM     12  C   UNL     1      12.282 -21.343 -27.962  1.00  0.00     0.041 C 
ATOM     13  O   UNL     1      11.757 -21.247 -29.102  1.00  0.00    -0.550 OA
ATOM     14  O   UNL     1      12.076 -20.341 -27.020  1.00  0.00    -0.550 OA
ENDBRANCH  11  12
ENDBRANCH  10  11
ENDBRANCH   9  10
ENDBRANCH   8   9
ENDBRANCH   7   8
ENDBRANCH   6   7
ENDBRANCH   5   6
ENDBRANCH   4   5
ENDBRANCH   3   4
ENDBRANCH   2   3
ENDBRANCH   1   2
BRANCH   1  15
ATOM     15  C   UNL     1      17.420 -25.652 -25.882  1.00  0.00     0.000 C 
BRANCH  15  16
ATOM     16  C   UNL     1      18.738 -25.631 -26.681  1.00  0.00     0.000 C 
BRANCH  16  17
ATOM     17  C   UNL     1      18.756 -26.638 -27.840  1.00  0.00     0.000 C 
BRANCH  17  18
ATOM     18  C   UNL     1      17.411 -27.367 -27.962  1.00  0.00    -0.000 C 
BRANCH  18  19
ATOM     19  C   UNL     1      16.724 -27.031 -29.295  1.00  0.00    -0.000 C 
BRANCH  19  20
ATOM     20  C   UNL     1      17.707 -26.990 -30.476  1.00  0.00    -0.000 C 
BRANCH  20  21
ATOM     21  C   UNL     1      17.777 -25.599 -31.133  1.00  0.00    -0.000 C 
BRANCH  21  22
ATOM     22  C   UNL     1      19.223 -25.103 -31.312  1.00  0.00    -0.000 C 
BRANCH  22  23
ATOM     23  C   UNL     1      19.547 -23.889 -30.424  1.00  0.00    -0.000 C 
BRANCH  23  24
ATOM     24  C   UNL     1      20.985 -23.918 -29.873  1.00  0.00    -0.000 C 
BRANCH  24  25
ATOM     25  C   UNL     1      21.104 -23.705 -28.353  1.00  0.00    -0.003 C 
ATOM     26  C   UNL     1      22.242 -22.760 -27.968  1.00  0.00     0.004 C 
ENDBRANCH  24  25
ENDBRANCH  23  24
ENDBRANCH  22  23
ENDBRANCH  21  22
ENDBRANCH  20  21
ENDBRANCH  19  20
ENDBRANCH  18  19
ENDBRANCH  17  18
ENDBRANCH  16  17
ENDBRANCH  15  16
ENDBRANCH   1  15
TORSDOF 22
ENDMDL
MODEL 6
REMARK VINA RESULT:    -4.808      1.395      3.560
REMARK INTER + INTRA:         -14.774
REMARK INTER:                 -11.802
REMARK INTRA:                  -2.972
REMARK UNBOUND:                -3.782
REMARK SMILES CCCCCCCCCCCCCCCCCCCCCCCC(=O)[O-]
REMARK SMILES IDX 13 1 14 2 15 3 16 4 17 5 18 6 19 7 20 8 21 9 22 10 23 11
REMARK SMILES IDX 24 12 25 13 26 14 12 15 11 16 10 17 9 18 8 19 7 20 6 21 5 22
REMARK SMILES IDX 4 23 3 24 2 25 1 26
REMARK H PARENT
REMARK Flexibility Score: inf
ROOT
ATOM      1  C   UNL     1      19.158 -21.033 -25.445  1.00  0.00     0.000 C 
ENDROOT
BRANCH   1   2
ATOM      2  C   UNL     1      19.224 -21.297 -26.960  1.00  0.00     0.000 C 
BRANCH   2   3
ATOM      3  C   UNL     1      17.936 -21.937 -27.512  1.00  0.00     0.000 C 
BRANCH   3   4
ATOM      4  C   UNL     1      17.933 -22.187 -29.032  1.00  0.00     0.000 C 
BRANCH   4   5
ATOM      5  C   UNL     1      16.969 -23.311 -29.451  1.00  0.00     0.000 C 
BRANCH   5   6
ATOM      6  C   UNL     1      15.754 -23.438 -28.514  1.00  0.00     0.000 C 
BRANCH   6   7
ATOM      7  C   UNL     1      14.427 -23.798 -29.209  1.00  0.00     0.000 C 
BRANCH   7   8
ATOM      8  C   UNL     1      13.191 -23.473 -28.351  1.00  0.00     0.000 C 
BRANCH   8   9
ATOM      9  C   UNL     1      13.425 -22.303 -27.378  1.00  0.00     0.000 C 
BRANCH   9  10
ATOM     10  C   UNL     1      12.153 -21.706 -26.746  1.00  0.00     0.006 C 
BRANCH  10  11
ATOM     11  C   UNL     1      12.178 -20.172 -26.678  1.00  0.00     0.053 C 
BRANCH  11  12
ATOM     12  C   UNL     1      11.795 -19.582 -27.997  1.00  0.00     0.041 C 
ATOM     13  O   UNL     1      11.333 -20.318 -28.908  1.00  0.00    -0.550 OA
ATOM     14  O   UNL     1      11.916 -18.213 -28.210  1.00  0.00    -0.550 OA
ENDBRANCH  11  12
ENDBRANCH  10  11
ENDBRANCH   9  10
ENDBRANCH   8   9
ENDBRANCH   7   8
ENDBRANCH   6   7
ENDBRANCH   5   6
ENDBRANCH   4   5
ENDBRANCH   3   4
ENDBRANCH   2   3
ENDBRANCH   1   2
BRANCH   1  15
ATOM     15  C   UNL     1      19.841 -22.131 -24.610  1.00  0.00     0.000 C 
BRANCH  15  16
ATOM     16  C   UNL     1      19.019 -22.664 -23.421  1.00  0.00     0.000 C 
BRANCH  16  17
ATOM     17  C   UNL     1      18.506 -24.096 -23.636  1.00  0.00     0.000 C 
BRANCH  17  18
ATOM     18  C   UNL     1      17.159 -24.097 -24.371  1.00  0.00    -0.000 C 
BRANCH  18  19
ATOM     19  C   UNL     1      17.225 -24.968 -25.635  1.00  0.00    -0.000 C 
BRANCH  19  20
ATOM     20  C   UNL     1      18.662 -25.375 -26.002  1.00  0.00    -0.000 C 
BRANCH  20  21
ATOM     21  C   UNL     1      18.854 -25.546 -27.520  1.00  0.00    -0.000 C 
BRANCH  21  22
ATOM     22  C   UNL     1      18.701 -27.008 -27.974  1.00  0.00    -0.000 C 
BRANCH  22  23
ATOM     23  C   UNL     1      17.434 -27.237 -28.818  1.00  0.00    -0.000 C 
BRANCH  23  24
ATOM     24  C   UNL     1      17.546 -26.648 -30.237  1.00  0.00    -0.000 C 
BRANCH  24  25
ATOM     25  C   UNL     1      17.019 -27.558 -31.361  1.00  0.00    -0.003 C 
ATOM     26  C   UNL     1      16.142 -28.700 -30.848  1.00  0.00     0.004 C 
ENDBRANCH  24  25
ENDBRANCH  23  24
ENDBRANCH  22  23
ENDBRANCH  21  22
ENDBRANCH  20  21
ENDBRANCH  19  20
ENDBRANCH  18  19
ENDBRANCH  17  18
ENDBRANCH  16  17
ENDBRANCH  15  16
ENDBRANCH   1  15
TORSDOF 22
ENDMDL
MODEL 7
REMARK VINA RESULT:    -4.780      2.193      4.148
REMARK INTER + INTRA:         -14.710
REMARK INTER:                 -11.449
REMARK INTRA:                  -3.261
REMARK UNBOUND:                -3.782
REMARK SMILES CCCCCCCCCCCCCCCCCCCCCCCC(=O)[O-]
REMARK SMILES IDX 13 1 14 2 15 3 16 4 17 5 18 6 19 7 20 8 21 9 22 10 23 11
REMARK SMILES IDX 24 12 25 13 26 14 12 15 11 16 10 17 9 18 8 19 7 20 6 21 5 22
REMARK SMILES IDX 4 23 3 24 2 25 1 26
REMARK H PARENT
REMARK Flexibility Score: inf
ROOT
ATOM      1  C   UNL     1      18.352 -23.824 -27.219  1.00  0.00     0.000 C 
ENDROOT
BRANCH   1   2
ATOM      2  C   UNL     1      17.348 -22.748 -26.771  1.00  0.00     0.000 C 
BRANCH   2   3
ATOM      3  C   UNL     1      15.887 -23.124 -27.085  1.00  0.00     0.000 C 
BRANCH   3   4
ATOM      4  C   UNL     1      15.516 -23.106 -28.579  1.00  0.00     0.000 C 
BRANCH   4   5
ATOM      5  C   UNL     1      14.311 -24.005 -28.907  1.00  0.00     0.000 C 
BRANCH   5   6
ATOM      6  C   UNL     1      12.990 -23.221 -29.015  1.00  0.00     0.000 C 
BRANCH   6   7
ATOM      7  C   UNL     1      11.965 -23.512 -27.902  1.00  0.00     0.000 C 
BRANCH   7   8
ATOM      8  C   UNL     1      12.125 -22.589 -26.682  1.00  0.00     0.000 C 
BRANCH   8   9
ATOM      9  C   UNL     1      12.756 -21.229 -27.034  1.00  0.00     0.000 C 
BRANCH   9  10
ATOM     10  C   UNL     1      11.878 -19.998 -26.741  1.00  0.00     0.006 C 
BRANCH  10  11
ATOM     11  C   UNL     1      11.837 -18.997 -27.904  1.00  0.00     0.053 C 
BRANCH  11  12
ATOM     12  C   UNL     1      10.517 -18.297 -27.948  1.00  0.00     0.041 C 
ATOM     13  O   UNL     1       9.761 -18.436 -28.946  1.00  0.00    -0.550 OA
ATOM     14  O   UNL     1      10.103 -17.519 -26.873  1.00  0.00    -0.550 OA
ENDBRANCH  11  12
ENDBRANCH  10  11
ENDBRANCH   9  10
ENDBRANCH   8   9
ENDBRANCH   7   8
ENDBRANCH   6   7
ENDBRANCH   5   6
ENDBRANCH   4   5
ENDBRANCH   3   4
ENDBRANCH   2   3
ENDBRANCH   1   2
BRANCH   1  15
ATOM     15  C   UNL     1      17.851 -25.258 -26.973  1.00  0.00     0.000 C 
BRANCH  15  16
ATOM     16  C   UNL     1      18.812 -26.378 -27.414  1.00  0.00     0.000 C 
BRANCH  16  17
ATOM     17  C   UNL     1      18.137 -27.439 -28.297  1.00  0.00     0.000 C 
BRANCH  17  18
ATOM     18  C   UNL     1      17.000 -26.827 -29.126  1.00  0.00    -0.000 C 
BRANCH  18  19
ATOM     19  C   UNL     1      17.204 -27.102 -30.624  1.00  0.00    -0.000 C 
BRANCH  19  20
ATOM     20  C   UNL     1      18.159 -26.096 -31.289  1.00  0.00    -0.000 C 
BRANCH  20  21
ATOM     21  C   UNL     1      17.875 -24.645 -30.859  1.00  0.00    -0.000 C 
BRANCH  21  22
ATOM     22  C   UNL     1      18.579 -23.614 -31.759  1.00  0.00    -0.000 C 
BRANCH  22  23
ATOM     23  C   UNL     1      19.365 -22.565 -30.954  1.00  0.00    -0.000 C 
BRANCH  23  24
ATOM     24  C   UNL     1      18.451 -21.568 -30.217  1.00  0.00    -0.000 C 
BRANCH  24  25
ATOM     25  C   UNL     1      19.176 -20.609 -29.256  1.00  0.00    -0.003 C 
ATOM     26  C   UNL     1      20.475 -21.188 -28.696  1.00  0.00     0.004 C 
ENDBRANCH  24  25
ENDBRANCH  23  24
ENDBRANCH  22  23
ENDBRANCH  21  22
ENDBRANCH  20  21
ENDBRANCH  19  20
ENDBRANCH  18  19
ENDBRANCH  17  18
ENDBRANCH  16  17
ENDBRANCH  15  16
ENDBRANCH   1  15
TORSDOF 22
ENDMDL
MODEL 8
REMARK VINA RESULT:    -4.750      3.392      6.961
REMARK INTER + INTRA:         -14.641
REMARK INTER:                 -11.448
REMARK INTRA:                  -3.193
REMARK UNBOUND:                -3.782
REMARK SMILES CCCCCCCCCCCCCCCCCCCCCCCC(=O)[O-]
REMARK SMILES IDX 13 1 14 2 15 3 16 4 17 5 18 6 19 7 20 8 21 9 22 10 23 11
REMARK SMILES IDX 24 12 25 13 26 14 12 15 11 16 10 17 9 18 8 19 7 20 6 21 5 22
REMARK SMILES IDX 4 23 3 24 2 25 1 26
REMARK H PARENT
REMARK Flexibility Score: inf
ROOT
ATOM      1  C   UNL     1      17.053 -27.488 -29.175  1.00  0.00     0.000 C 
ENDROOT
BRANCH   1   2
ATOM      2  C   UNL     1      17.741 -27.326 -27.808  1.00  0.00     0.000 C 
BRANCH   2   3
ATOM      3  C   UNL     1      18.775 -26.185 -27.790  1.00  0.00     0.000 C 
BRANCH   3   4
ATOM      4  C   UNL     1      18.953 -25.488 -26.428  1.00  0.00     0.000 C 
BRANCH   4   5
ATOM      5  C   UNL     1      17.635 -25.363 -25.644  1.00  0.00     0.000 C 
BRANCH   5   6
ATOM      6  C   UNL     1      17.478 -23.998 -24.949  1.00  0.00     0.000 C 
BRANCH   6   7
ATOM      7  C   UNL     1      18.798 -23.269 -24.633  1.00  0.00     0.000 C 
BRANCH   7   8
ATOM      8  C   UNL     1      18.814 -21.813 -25.129  1.00  0.00     0.000 C 
BRANCH   8   9
ATOM      9  C   UNL     1      18.369 -21.671 -26.597  1.00  0.00     0.000 C 
BRANCH   9  10
ATOM     10  C   UNL     1      19.500 -21.394 -27.605  1.00  0.00     0.006 C 
BRANCH  10  11
ATOM     11  C   UNL     1      19.525 -22.393 -28.771  1.00  0.00     0.053 C 
BRANCH  11  12
ATOM     12  C   UNL     1      20.796 -23.180 -28.760  1.00  0.00     0.041 C 
ATOM     13  O   UNL     1      20.957 -24.129 -29.572  1.00  0.00    -0.550 OA
ATOM     14  O   UNL     1      21.816 -22.846 -27.877  1.00  0.00    -0.550 OA
ENDBRANCH  11  12
ENDBRANCH  10  11
ENDBRANCH   9  10
ENDBRANCH   8   9
ENDBRANCH   7   8
ENDBRANCH   6   7
ENDBRANCH   5   6
ENDBRANCH   4   5
ENDBRANCH   3   4
ENDBRANCH   2   3
ENDBRANCH   1   2
BRANCH   1  15
ATOM     15  C   UNL     1      15.850 -26.546 -29.361  1.00  0.00     0.000 C 
BRANCH  15  16
ATOM     16  C   UNL     1      16.070 -25.381 -30.345  1.00  0.00     0.000 C 
BRANCH  16  17
ATOM     17  C   UNL     1      15.531 -24.041 -29.823  1.00  0.00     0.000 C 
BRANCH  17  18
ATOM     18  C   UNL     1      16.060 -23.742 -28.413  1.00  0.00    -0.000 C 
BRANCH  18  19
ATOM     19  C   UNL     1      14.983 -23.058 -27.557  1.00  0.00    -0.000 C 
BRANCH  19  20
ATOM     20  C   UNL     1      13.693 -22.769 -28.343  1.00  0.00    -0.000 C 
BRANCH  20  21
ATOM     21  C   UNL     1      12.427 -23.137 -27.548  1.00  0.00    -0.000 C 
BRANCH  21  22
ATOM     22  C   UNL     1      12.130 -22.139 -26.415  1.00  0.00    -0.000 C 
BRANCH  22  23
ATOM     23  C   UNL     1      12.440 -20.685 -26.810  1.00  0.00    -0.000 C 
BRANCH  23  24
ATOM     24  C   UNL     1      11.395 -19.685 -26.280  1.00  0.00    -0.000 C 
BRANCH  24  25
ATOM     25  C   UNL     1      11.969 -18.349 -25.776  1.00  0.00    -0.003 C 
ATOM     26  C   UNL     1      12.686 -18.474 -24.432  1.00  0.00     0.004 C 
ENDBRANCH  24  25
ENDBRANCH  23  24
ENDBRANCH  22  23
ENDBRANCH  21  22
ENDBRANCH  20  21
ENDBRANCH  19  20
ENDBRANCH  18  19
ENDBRANCH  17  18
ENDBRANCH  16  17
ENDBRANCH  15  16
ENDBRANCH   1  15
TORSDOF 22
ENDMDL
MODEL 9
REMARK VINA RESULT:    -4.748      1.575      4.956
REMARK INTER + INTRA:         -14.637
REMARK INTER:                 -10.433
REMARK INTRA:                  -4.204
REMARK UNBOUND:                -3.782
REMARK SMILES CCCCCCCCCCCCCCCCCCCCCCCC(=O)[O-]
REMARK SMILES IDX 13 1 14 2 15 3 16 4 17 5 18 6 19 7 20 8 21 9 22 10 23 11
REMARK SMILES IDX 24 12 25 13 26 14 12 15 11 16 10 17 9 18 8 19 7 20 6 21 5 22
REMARK SMILES IDX 4 23 3 24 2 25 1 26
REMARK H PARENT
REMARK Flexibility Score: inf
ROOT
ATOM      1  C   UNL     1      17.056 -27.615 -30.200  1.00  0.00     0.000 C 
ENDROOT
BRANCH   1   2
ATOM      2  C   UNL     1      17.016 -28.351 -28.849  1.00  0.00     0.000 C 
BRANCH   2   3
ATOM      3  C   UNL     1      17.400 -27.446 -27.663  1.00  0.00     0.000 C 
BRANCH   3   4
ATOM      4  C   UNL     1      18.807 -26.826 -27.746  1.00  0.00     0.000 C 
BRANCH   4   5
ATOM      5  C   UNL     1      18.907 -25.470 -27.024  1.00  0.00     0.000 C 
BRANCH   5   6
ATOM      6  C   UNL     1      17.553 -24.745 -26.922  1.00  0.00     0.000 C 
BRANCH   6   7
ATOM      7  C   UNL     1      17.642 -23.233 -26.639  1.00  0.00     0.000 C 
BRANCH   7   8
ATOM      8  C   UNL     1      16.363 -22.472 -27.033  1.00  0.00     0.000 C 
BRANCH   8   9
ATOM      9  C   UNL     1      15.327 -23.362 -27.744  1.00  0.00     0.000 C 
BRANCH   9  10
ATOM     10  C   UNL     1      13.924 -22.748 -27.899  1.00  0.00     0.006 C 
BRANCH  10  11
ATOM     11  C   UNL     1      13.324 -22.962 -29.296  1.00  0.00     0.053 C 
BRANCH  11  12
ATOM     12  C   UNL     1      12.082 -22.146 -29.465  1.00  0.00     0.041 C 
ATOM     13  O   UNL     1      12.070 -20.936 -29.117  1.00  0.00    -0.550 OA
ATOM     14  O   UNL     1      10.949 -22.712 -30.037  1.00  0.00    -0.550 OA
ENDBRANCH  11  12
ENDBRANCH  10  11
ENDBRANCH   9  10
ENDBRANCH   8   9
ENDBRANCH   7   8
ENDBRANCH   6   7
ENDBRANCH   5   6
ENDBRANCH   4   5
ENDBRANCH   3   4
ENDBRANCH   2   3
ENDBRANCH   1   2
BRANCH   1  15
ATOM     15  C   UNL     1      16.029 -26.473 -30.297  1.00  0.00     0.000 C 
BRANCH  15  16
ATOM     16  C   UNL     1      16.613 -25.085 -30.621  1.00  0.00     0.000 C 
BRANCH  16  17
ATOM     17  C   UNL     1      18.062 -25.144 -31.127  1.00  0.00     0.000 C 
BRANCH  17  18
ATOM     18  C   UNL     1      18.963 -24.181 -30.342  1.00  0.00    -0.000 C 
BRANCH  18  19
ATOM     19  C   UNL     1      20.433 -24.620 -30.419  1.00  0.00    -0.000 C 
BRANCH  19  20
ATOM     20  C   UNL     1      21.409 -23.502 -30.018  1.00  0.00    -0.000 C 
BRANCH  20  21
ATOM     21  C   UNL     1      21.491 -23.312 -28.492  1.00  0.00    -0.000 C 
BRANCH  21  22
ATOM     22  C   UNL     1      21.750 -21.849 -28.092  1.00  0.00    -0.000 C 
BRANCH  22  23
ATOM     23  C   UNL     1      20.596 -21.246 -27.272  1.00  0.00    -0.000 C 
BRANCH  23  24
ATOM     24  C   UNL     1      19.769 -20.219 -28.068  1.00  0.00    -0.000 C 
BRANCH  24  25
ATOM     25  C   UNL     1      18.914 -20.812 -29.203  1.00  0.00    -0.003 C 
ATOM     26  C   UNL     1      19.322 -20.307 -30.587  1.00  0.00     0.004 C 
ENDBRANCH  24  25
ENDBRANCH  23  24
ENDBRANCH  22  23
ENDBRANCH  21  22
ENDBRANCH  20  21
ENDBRANCH  19  20
ENDBRANCH  18  19
ENDBRANCH  17  18
ENDBRANCH  16  17
ENDBRANCH  15  16
ENDBRANCH   1  15
TORSDOF 22
ENDMDL
