MODEL 1
REMARK VINA RESULT:    -5.317      0.000      0.000
REMARK INTER + INTRA:         -14.150
REMARK INTER:                 -11.534
REMARK INTRA:                  -2.616
REMARK UNBOUND:                -2.616
REMARK SMILES CCCCCCCCCCCCCCCCCCCCCC(=O)[O-]
REMARK SMILES IDX 12 1 11 2 10 3 9 4 8 5 7 6 6 7 5 8 4 9 3 10 2 11 1 12 13 13
REMARK SMILES IDX 14 14 15 15 16 16 17 17 18 18 19 19 20 20 21 21 22 22 23 23
REMARK SMILES IDX 24 24
REMARK H PARENT
REMARK Flexibility Score: inf
ROOT
ATOM      1  C   UNL     1     -24.625 -24.951  16.506  1.00  0.00     0.000 C 
ENDROOT
BRANCH   1   2
ATOM      2  C   UNL     1     -24.291 -26.369  16.996  1.00  0.00     0.000 C 
BRANCH   2   3
ATOM      3  C   UNL     1     -23.960 -26.415  18.497  1.00  0.00     0.000 C 
BRANCH   3   4
ATOM      4  C   UNL     1     -23.170 -27.676  18.889  1.00  0.00    -0.000 C 
BRANCH   4   5
ATOM      5  C   UNL     1     -23.168 -28.739  17.779  1.00  0.00    -0.000 C 
BRANCH   5   6
ATOM      6  C   UNL     1     -21.752 -29.187  17.385  1.00  0.00    -0.000 C 
BRANCH   6   7
ATOM      7  C   UNL     1     -21.622 -29.312  15.858  1.00  0.00    -0.000 C 
BRANCH   7   8
ATOM      8  C   UNL     1     -21.130 -28.014  15.198  1.00  0.00    -0.000 C 
BRANCH   8   9
ATOM      9  C   UNL     1     -20.331 -27.123  16.166  1.00  0.00    -0.000 C 
BRANCH   9  10
ATOM     10  C   UNL     1     -20.848 -25.676  16.198  1.00  0.00    -0.000 C 
BRANCH  10  11
ATOM     11  C   UNL     1     -20.824 -25.008  14.814  1.00  0.00    -0.003 C 
ATOM     12  C   UNL     1     -19.461 -24.384  14.530  1.00  0.00     0.004 C 
ENDBRANCH  10  11
ENDBRANCH   9  10
ENDBRANCH   8   9
ENDBRANCH   7   8
ENDBRANCH   6   7
ENDBRANCH   5   6
ENDBRANCH   4   5
ENDBRANCH   3   4
ENDBRANCH   2   3
ENDBRANCH   1   2
BRANCH   1  13
ATOM     13  C   UNL     1     -25.896 -24.954  15.642  1.00  0.00     0.000 C 
BRANCH  13  14
ATOM     14  C   UNL     1     -27.052 -25.732  16.293  1.00  0.00     0.000 C 
BRANCH  14  15
ATOM     15  C   UNL     1     -28.169 -26.075  15.291  1.00  0.00     0.000 C 
BRANCH  15  16
ATOM     16  C   UNL     1     -28.551 -24.883  14.397  1.00  0.00     0.000 C 
BRANCH  16  17
ATOM     17  C   UNL     1     -30.056 -24.554  14.358  1.00  0.00     0.000 C 
BRANCH  17  18
ATOM     18  C   UNL     1     -30.456 -23.372  15.267  1.00  0.00     0.000 C 
BRANCH  18  19
ATOM     19  C   UNL     1     -30.845 -23.834  16.683  1.00  0.00     0.000 C 
BRANCH  19  20
ATOM     20  C   UNL     1     -29.770 -23.504  17.730  1.00  0.00     0.006 C 
BRANCH  20  21
ATOM     21  C   UNL     1     -28.924 -22.282  17.346  1.00  0.00     0.053 C 
BRANCH  21  22
ATOM     22  C   UNL     1     -29.544 -21.027  17.875  1.00  0.00     0.041 C 
ATOM     23  O   UNL     1     -29.272 -20.631  19.040  1.00  0.00    -0.550 OA
ATOM     24  O   UNL     1     -30.388 -20.273  17.065  1.00  0.00    -0.550 OA
ENDBRANCH  21  22
ENDBRANCH  20  21
ENDBRANCH  19  20
ENDBRANCH  18  19
ENDBRANCH  17  18
ENDBRANCH  16  17
ENDBRANCH  15  16
ENDBRANCH  14  15
ENDBRANCH  13  14
ENDBRANCH   1  13
TORSDOF 20
ENDMDL
MODEL 2
REMARK VINA RESULT:    -5.130      2.280      5.744
REMARK INTER + INTRA:         -13.744
REMARK INTER:                 -10.719
REMARK INTRA:                  -3.024
REMARK UNBOUND:                -2.616
REMARK SMILES CCCCCCCCCCCCCCCCCCCCCC(=O)[O-]
REMARK SMILES IDX 12 1 11 2 10 3 9 4 8 5 7 6 6 7 5 8 4 9 3 10 2 11 1 12 13 13
REMARK SMILES IDX 14 14 15 15 16 16 17 17 18 18 19 19 20 20 21 21 22 22 23 23
REMARK SMILES IDX 24 24
REMARK H PARENT
REMARK Flexibility Score: inf
ROOT
ATOM      1  C   UNL     1     -21.545 -27.969  15.151  1.00  0.00     0.000 C 
ENDROOT
BRANCH   1   2
ATOM      2  C   UNL     1     -20.620 -26.915  14.522  1.00  0.00     0.000 C 
BRANCH   2   3
ATOM      3  C   UNL     1     -20.729 -25.544  15.211  1.00  0.00     0.000 C 
BRANCH   3   4
ATOM      4  C   UNL     1     -21.020 -24.405  14.218  1.00  0.00    -0.000 C 
BRANCH   4   5
ATOM      5  C   UNL     1     -19.761 -23.603  13.855  1.00  0.00    -0.000 C 
BRANCH   5   6
ATOM      6  C   UNL     1     -19.848 -22.953  12.465  1.00  0.00    -0.000 C 
BRANCH   6   7
ATOM      7  C   UNL     1     -18.918 -23.663  11.469  1.00  0.00    -0.000 C 
BRANCH   7   8
ATOM      8  C   UNL     1     -17.802 -24.457  12.165  1.00  0.00    -0.000 C 
BRANCH   8   9
ATOM      9  C   UNL     1     -17.924 -25.974  11.938  1.00  0.00    -0.000 C 
BRANCH   9  10
ATOM     10  C   UNL     1     -17.413 -26.793  13.134  1.00  0.00    -0.000 C 
BRANCH  10  11
ATOM     11  C   UNL     1     -16.696 -25.926  14.180  1.00  0.00    -0.003 C 
ATOM     12  C   UNL     1     -17.015 -26.397  15.595  1.00  0.00     0.004 C 
ENDBRANCH  10  11
ENDBRANCH   9  10
ENDBRANCH   8   9
ENDBRANCH   7   8
ENDBRANCH   6   7
ENDBRANCH   5   6
ENDBRANCH   4   5
ENDBRANCH   3   4
ENDBRANCH   2   3
ENDBRANCH   1   2
BRANCH   1  13
ATOM     13  C   UNL     1     -20.995 -28.442  16.505  1.00  0.00     0.000 C 
BRANCH  13  14
ATOM     14  C   UNL     1     -22.049 -29.183  17.345  1.00  0.00     0.000 C 
BRANCH  14  15
ATOM     15  C   UNL     1     -23.223 -28.275  17.751  1.00  0.00     0.000 C 
BRANCH  15  16
ATOM     16  C   UNL     1     -22.761 -26.973  18.428  1.00  0.00     0.000 C 
BRANCH  16  17
ATOM     17  C   UNL     1     -23.334 -25.681  17.814  1.00  0.00     0.000 C 
BRANCH  17  18
ATOM     18  C   UNL     1     -24.480 -25.926  16.809  1.00  0.00     0.000 C 
BRANCH  18  19
ATOM     19  C   UNL     1     -24.388 -24.996  15.586  1.00  0.00     0.000 C 
BRANCH  19  20
ATOM     20  C   UNL     1     -25.409 -23.848  15.635  1.00  0.00     0.006 C 
BRANCH  20  21
ATOM     21  C   UNL     1     -26.774 -24.244  15.054  1.00  0.00     0.053 C 
BRANCH  21  22
ATOM     22  C   UNL     1     -27.830 -24.194  16.113  1.00  0.00     0.041 C 
ATOM     23  O   UNL     1     -28.088 -25.221  16.796  1.00  0.00    -0.550 OA
ATOM     24  O   UNL     1     -28.498 -23.002  16.374  1.00  0.00    -0.550 OA
ENDBRANCH  21  22
ENDBRANCH  20  21
ENDBRANCH  19  20
ENDBRANCH  18  19
ENDBRANCH  17  18
ENDBRANCH  16  17
ENDBRANCH  15  16
ENDBRANCH  14  15
ENDBRANCH  13  14
ENDBRANCH   1  13
TORSDOF 20
ENDMDL
MODEL 3
REMARK VINA RESULT:    -5.126      5.272      8.454
REMARK INTER + INTRA:         -13.736
REMARK INTER:                 -10.907
REMARK INTRA:                  -2.829
REMARK UNBOUND:                -2.616
REMARK SMILES CCCCCCCCCCCCCCCCCCCCCC(=O)[O-]
REMARK SMILES IDX 12 1 11 2 10 3 9 4 8 5 7 6 6 7 5 8 4 9 3 10 2 11 1 12 13 13
REMARK SMILES IDX 14 14 15 15 16 16 17 17 18 18 19 19 20 20 21 21 22 22 23 23
REMARK SMILES IDX 24 24
REMARK H PARENT
REMARK Flexibility Score: inf
ROOT
ATOM      1  C   UNL     1     -16.320 -26.104  11.974  1.00  0.00     0.000 C 
ENDROOT
BRANCH   1   2
ATOM      2  C   UNL     1     -16.456 -25.502  13.382  1.00  0.00     0.000 C 
BRANCH   2   3
ATOM      3  C   UNL     1     -16.834 -26.551  14.441  1.00  0.00     0.000 C 
BRANCH   3   4
ATOM      4  C   UNL     1     -18.177 -26.243  15.125  1.00  0.00    -0.000 C 
BRANCH   4   5
ATOM      5  C   UNL     1     -18.678 -24.821  14.826  1.00  0.00    -0.000 C 
BRANCH   5   6
ATOM      6  C   UNL     1     -20.179 -24.773  14.504  1.00  0.00    -0.000 C 
BRANCH   6   7
ATOM      7  C   UNL     1     -20.420 -24.209  13.094  1.00  0.00    -0.000 C 
BRANCH   7   8
ATOM      8  C   UNL     1     -19.361 -23.174  12.683  1.00  0.00    -0.000 C 
BRANCH   8   9
ATOM      9  C   UNL     1     -19.628 -22.574  11.291  1.00  0.00    -0.000 C 
BRANCH   9  10
ATOM     10  C   UNL     1     -19.412 -21.053  11.253  1.00  0.00    -0.000 C 
BRANCH  10  11
ATOM     11  C   UNL     1     -19.758 -20.441   9.887  1.00  0.00    -0.003 C 
ATOM     12  C   UNL     1     -20.651 -21.375   9.078  1.00  0.00     0.004 C 
ENDBRANCH  10  11
ENDBRANCH   9  10
ENDBRANCH   8   9
ENDBRANCH   7   8
ENDBRANCH   6   7
ENDBRANCH   5   6
ENDBRANCH   4   5
ENDBRANCH   3   4
ENDBRANCH   2   3
ENDBRANCH   1   2
BRANCH   1  13
ATOM     13  C   UNL     1     -17.682 -26.153  11.265  1.00  0.00     0.000 C 
BRANCH  13  14
ATOM     14  C   UNL     1     -18.306 -27.558  11.278  1.00  0.00     0.000 C 
BRANCH  14  15
ATOM     15  C   UNL     1     -19.646 -27.601  12.033  1.00  0.00     0.000 C 
BRANCH  15  16
ATOM     16  C   UNL     1     -19.792 -28.854  12.914  1.00  0.00     0.000 C 
BRANCH  16  17
ATOM     17  C   UNL     1     -20.908 -28.780  13.973  1.00  0.00     0.000 C 
BRANCH  17  18
ATOM     18  C   UNL     1     -21.409 -30.161  14.446  1.00  0.00     0.000 C 
BRANCH  18  19
ATOM     19  C   UNL     1     -22.102 -30.088  15.818  1.00  0.00     0.000 C 
BRANCH  19  20
ATOM     20  C   UNL     1     -22.029 -28.687  16.446  1.00  0.00     0.006 C 
BRANCH  20  21
ATOM     21  C   UNL     1     -22.901 -28.555  17.703  1.00  0.00     0.053 C 
BRANCH  21  22
ATOM     22  C   UNL     1     -23.439 -27.165  17.825  1.00  0.00     0.041 C 
ATOM     23  O   UNL     1     -23.885 -26.569  16.807  1.00  0.00    -0.550 OA
ATOM     24  O   UNL     1     -23.490 -26.544  19.069  1.00  0.00    -0.550 OA
ENDBRANCH  21  22
ENDBRANCH  20  21
ENDBRANCH  19  20
ENDBRANCH  18  19
ENDBRANCH  17  18
ENDBRANCH  16  17
ENDBRANCH  15  16
ENDBRANCH  14  15
ENDBRANCH  13  14
ENDBRANCH   1  13
TORSDOF 20
ENDMDL
MODEL 4
REMARK VINA RESULT:    -5.108      3.199      6.836
REMARK INTER + INTRA:         -13.696
REMARK INTER:                 -10.946
REMARK INTRA:                  -2.751
REMARK UNBOUND:                -2.616
REMARK SMILES CCCCCCCCCCCCCCCCCCCCCC(=O)[O-]
REMARK SMILES IDX 12 1 11 2 10 3 9 4 8 5 7 6 6 7 5 8 4 9 3 10 2 11 1 12 13 13
REMARK SMILES IDX 14 14 15 15 16 16 17 17 18 18 19 19 20 20 21 21 22 22 23 23
REMARK SMILES IDX 24 24
REMARK H PARENT
REMARK Flexibility Score: inf
ROOT
ATOM      1  C   UNL     1     -19.414 -26.569  15.542  1.00  0.00     0.000 C 
ENDROOT
BRANCH   1   2
ATOM      2  C   UNL     1     -20.472 -25.484  15.283  1.00  0.00     0.000 C 
BRANCH   2   3
ATOM      3  C   UNL     1     -19.890 -24.244  14.583  1.00  0.00     0.000 C 
BRANCH   3   4
ATOM      4  C   UNL     1     -20.874 -23.614  13.582  1.00  0.00    -0.000 C 
BRANCH   4   5
ATOM      5  C   UNL     1     -20.170 -23.049  12.339  1.00  0.00    -0.000 C 
BRANCH   5   6
ATOM      6  C   UNL     1     -18.715 -23.526  12.209  1.00  0.00    -0.000 C 
BRANCH   6   7
ATOM      7  C   UNL     1     -18.609 -24.697  11.219  1.00  0.00    -0.000 C 
BRANCH   7   8
ATOM      8  C   UNL     1     -17.677 -25.811  11.719  1.00  0.00    -0.000 C 
BRANCH   8   9
ATOM      9  C   UNL     1     -16.663 -25.312  12.764  1.00  0.00    -0.000 C 
BRANCH   9  10
ATOM     10  C   UNL     1     -16.304 -26.389  13.800  1.00  0.00    -0.000 C 
BRANCH  10  11
ATOM     11  C   UNL     1     -15.987 -25.798  15.182  1.00  0.00    -0.003 C 
ATOM     12  C   UNL     1     -15.740 -26.900  16.207  1.00  0.00     0.004 C 
ENDBRANCH  10  11
ENDBRANCH   9  10
ENDBRANCH   8   9
ENDBRANCH   7   8
ENDBRANCH   6   7
ENDBRANCH   5   6
ENDBRANCH   4   5
ENDBRANCH   3   4
ENDBRANCH   2   3
ENDBRANCH   1   2
BRANCH   1  13
ATOM     13  C   UNL     1     -19.576 -27.738  14.559  1.00  0.00     0.000 C 
BRANCH  13  14
ATOM     14  C   UNL     1     -21.044 -28.159  14.376  1.00  0.00     0.000 C 
BRANCH  14  15
ATOM     15  C   UNL     1     -21.257 -29.666  14.603  1.00  0.00     0.000 C 
BRANCH  15  16
ATOM     16  C   UNL     1     -22.129 -29.964  15.835  1.00  0.00     0.000 C 
BRANCH  16  17
ATOM     17  C   UNL     1     -21.704 -29.236  17.125  1.00  0.00     0.000 C 
BRANCH  17  18
ATOM     18  C   UNL     1     -22.818 -28.361  17.740  1.00  0.00     0.000 C 
BRANCH  18  19
ATOM     19  C   UNL     1     -23.241 -27.216  16.802  1.00  0.00     0.000 C 
BRANCH  19  20
ATOM     20  C   UNL     1     -24.253 -26.260  17.453  1.00  0.00     0.006 C 
BRANCH  20  21
ATOM     21  C   UNL     1     -24.811 -25.226  16.465  1.00  0.00     0.053 C 
BRANCH  21  22
ATOM     22  C   UNL     1     -26.228 -25.549  16.109  1.00  0.00     0.041 C 
ATOM     23  O   UNL     1     -27.005 -26.023  16.981  1.00  0.00    -0.550 OA
ATOM     24  O   UNL     1     -26.701 -25.287  14.828  1.00  0.00    -0.550 OA
ENDBRANCH  21  22
ENDBRANCH  20  21
ENDBRANCH  19  20
ENDBRANCH  18  19
ENDBRANCH  17  18
ENDBRANCH  16  17
ENDBRANCH  15  16
ENDBRANCH  14  15
ENDBRANCH  13  14
ENDBRANCH   1  13
TORSDOF 20
ENDMDL
MODEL 5
REMARK VINA RESULT:    -5.103      6.355      9.379
REMARK INTER + INTRA:         -13.686
REMARK INTER:                 -10.978
REMARK INTRA:                  -2.708
REMARK UNBOUND:                -2.616
REMARK SMILES CCCCCCCCCCCCCCCCCCCCCC(=O)[O-]
REMARK SMILES IDX 12 1 11 2 10 3 9 4 8 5 7 6 6 7 5 8 4 9 3 10 2 11 1 12 13 13
REMARK SMILES IDX 14 14 15 15 16 16 17 17 18 18 19 19 20 20 21 21 22 22 23 23
REMARK SMILES IDX 24 24
REMARK H PARENT
REMARK Flexibility Score: inf
ROOT
ATOM      1  C   UNL     1     -21.585 -28.884  17.071  1.00  0.00     0.000 C 
ENDROOT
BRANCH   1   2
ATOM      2  C   UNL     1     -22.803 -27.982  17.329  1.00  0.00     0.000 C 
BRANCH   2   3
ATOM      3  C   UNL     1     -22.508 -26.497  17.063  1.00  0.00     0.000 C 
BRANCH   3   4
ATOM      4  C   UNL     1     -23.117 -26.002  15.739  1.00  0.00    -0.000 C 
BRANCH   4   5
ATOM      5  C   UNL     1     -22.058 -25.447  14.774  1.00  0.00    -0.000 C 
BRANCH   5   6
ATOM      6  C   UNL     1     -20.672 -25.313  15.423  1.00  0.00    -0.000 C 
BRANCH   6   7
ATOM      7  C   UNL     1     -19.845 -24.220  14.727  1.00  0.00    -0.000 C 
BRANCH   7   8
ATOM      8  C   UNL     1     -20.555 -23.634  13.497  1.00  0.00    -0.000 C 
BRANCH   8   9
ATOM      9  C   UNL     1     -19.648 -22.698  12.679  1.00  0.00    -0.000 C 
BRANCH   9  10
ATOM     10  C   UNL     1     -19.177 -23.336  11.362  1.00  0.00    -0.000 C 
BRANCH  10  11
ATOM     11  C   UNL     1     -20.166 -23.110  10.209  1.00  0.00    -0.003 C 
ATOM     12  C   UNL     1     -20.020 -21.707   9.628  1.00  0.00     0.004 C 
ENDBRANCH  10  11
ENDBRANCH   9  10
ENDBRANCH   8   9
ENDBRANCH   7   8
ENDBRANCH   6   7
ENDBRANCH   5   6
ENDBRANCH   4   5
ENDBRANCH   3   4
ENDBRANCH   2   3
ENDBRANCH   1   2
BRANCH   1  13
ATOM     13  C   UNL     1     -21.792 -29.736  15.809  1.00  0.00     0.000 C 
BRANCH  13  14
ATOM     14  C   UNL     1     -21.367 -29.004  14.525  1.00  0.00     0.000 C 
BRANCH  14  15
ATOM     15  C   UNL     1     -20.958 -29.974  13.402  1.00  0.00     0.000 C 
BRANCH  15  16
ATOM     16  C   UNL     1     -20.012 -29.329  12.375  1.00  0.00     0.000 C 
BRANCH  16  17
ATOM     17  C   UNL     1     -19.652 -27.857  12.655  1.00  0.00     0.000 C 
BRANCH  17  18
ATOM     18  C   UNL     1     -18.285 -27.673  13.348  1.00  0.00     0.000 C 
BRANCH  18  19
ATOM     19  C   UNL     1     -17.676 -26.287  13.070  1.00  0.00     0.000 C 
BRANCH  19  20
ATOM     20  C   UNL     1     -16.381 -26.039  13.860  1.00  0.00     0.006 C 
BRANCH  20  21
ATOM     21  C   UNL     1     -16.642 -25.700  15.335  1.00  0.00     0.053 C 
BRANCH  21  22
ATOM     22  C   UNL     1     -15.521 -26.193  16.194  1.00  0.00     0.041 C 
ATOM     23  O   UNL     1     -14.733 -25.372  16.735  1.00  0.00    -0.550 OA
ATOM     24  O   UNL     1     -15.373 -27.555  16.432  1.00  0.00    -0.550 OA
ENDBRANCH  21  22
ENDBRANCH  20  21
ENDBRANCH  19  20
ENDBRANCH  18  19
ENDBRANCH  17  18
ENDBRANCH  16  17
ENDBRANCH  15  16
ENDBRANCH  14  15
ENDBRANCH  13  14
ENDBRANCH   1  13
TORSDOF 20
ENDMDL
MODEL 6
REMARK VINA RESULT:    -5.067      5.561      8.072
REMARK INTER + INTRA:         -13.607
REMARK INTER:                 -10.508
REMARK INTRA:                  -3.099
REMARK UNBOUND:                -2.616
REMARK SMILES CCCCCCCCCCCCCCCCCCCCCC(=O)[O-]
REMARK SMILES IDX 12 1 11 2 10 3 9 4 8 5 7 6 6 7 5 8 4 9 3 10 2 11 1 12 13 13
REMARK SMILES IDX 14 14 15 15 16 16 17 17 18 18 19 19 20 20 21 21 22 22 23 23
REMARK SMILES IDX 24 24
REMARK H PARENT
REMARK Flexibility Score: inf
ROOT
ATOM      1  C   UNL     1     -22.324 -26.065  15.323  1.00  0.00     0.000 C 
ENDROOT
BRANCH   1   2
ATOM      2  C   UNL     1     -21.054 -25.682  16.098  1.00  0.00     0.000 C 
BRANCH   2   3
ATOM      3  C   UNL     1     -19.987 -26.790  16.071  1.00  0.00     0.000 C 
BRANCH   3   4
ATOM      4  C   UNL     1     -18.621 -26.282  15.577  1.00  0.00    -0.000 C 
BRANCH   4   5
ATOM      5  C   UNL     1     -17.733 -27.413  15.035  1.00  0.00    -0.000 C 
BRANCH   5   6
ATOM      6  C   UNL     1     -17.325 -27.200  13.569  1.00  0.00    -0.000 C 
BRANCH   6   7
ATOM      7  C   UNL     1     -16.663 -25.825  13.380  1.00  0.00    -0.000 C 
BRANCH   7   8
ATOM      8  C   UNL     1     -17.336 -24.991  12.279  1.00  0.00    -0.000 C 
BRANCH   8   9
ATOM      9  C   UNL     1     -18.684 -25.581  11.829  1.00  0.00    -0.000 C 
BRANCH   9  10
ATOM     10  C   UNL     1     -19.860 -24.621  12.076  1.00  0.00    -0.000 C 
BRANCH  10  11
ATOM     11  C   UNL     1     -19.566 -23.601  13.187  1.00  0.00    -0.003 C 
ATOM     12  C   UNL     1     -19.957 -22.192  12.755  1.00  0.00     0.004 C 
ENDBRANCH  10  11
ENDBRANCH   9  10
ENDBRANCH   8   9
ENDBRANCH   7   8
ENDBRANCH   6   7
ENDBRANCH   5   6
ENDBRANCH   4   5
ENDBRANCH   3   4
ENDBRANCH   2   3
ENDBRANCH   1   2
BRANCH   1  13
ATOM     13  C   UNL     1     -23.570 -25.441  15.971  1.00  0.00     0.000 C 
BRANCH  13  14
ATOM     14  C   UNL     1     -24.348 -26.442  16.842  1.00  0.00     0.000 C 
BRANCH  14  15
ATOM     15  C   UNL     1     -23.966 -26.349  18.330  1.00  0.00     0.000 C 
BRANCH  15  16
ATOM     16  C   UNL     1     -23.275 -27.623  18.846  1.00  0.00     0.000 C 
BRANCH  16  17
ATOM     17  C   UNL     1     -22.972 -28.681  17.769  1.00  0.00     0.000 C 
BRANCH  17  18
ATOM     18  C   UNL     1     -21.593 -29.356  17.931  1.00  0.00     0.000 C 
BRANCH  18  19
ATOM     19  C   UNL     1     -21.400 -30.528  16.951  1.00  0.00     0.000 C 
BRANCH  19  20
ATOM     20  C   UNL     1     -22.230 -30.368  15.667  1.00  0.00     0.006 C 
BRANCH  20  21
ATOM     21  C   UNL     1     -21.402 -29.829  14.491  1.00  0.00     0.053 C 
BRANCH  21  22
ATOM     22  C   UNL     1     -21.408 -30.802  13.355  1.00  0.00     0.041 C 
ATOM     23  O   UNL     1     -22.494 -31.305  12.960  1.00  0.00    -0.550 OA
ATOM     24  O   UNL     1     -20.220 -31.120  12.705  1.00  0.00    -0.550 OA
ENDBRANCH  21  22
ENDBRANCH  20  21
ENDBRANCH  19  20
ENDBRANCH  18  19
ENDBRANCH  17  18
ENDBRANCH  16  17
ENDBRANCH  15  16
ENDBRANCH  14  15
ENDBRANCH  13  14
ENDBRANCH   1  13
TORSDOF 20
ENDMDL
MODEL 7
REMARK VINA RESULT:    -4.992     12.361     14.739
REMARK INTER + INTRA:         -13.445
REMARK INTER:                 -10.211
REMARK INTRA:                  -3.234
REMARK UNBOUND:                -2.616
REMARK SMILES CCCCCCCCCCCCCCCCCCCCCC(=O)[O-]
REMARK SMILES IDX 12 1 11 2 10 3 9 4 8 5 7 6 6 7 5 8 4 9 3 10 2 11 1 12 13 13
REMARK SMILES IDX 14 14 15 15 16 16 17 17 18 18 19 19 20 20 21 21 22 22 23 23
REMARK SMILES IDX 24 24
REMARK H PARENT
REMARK Flexibility Score: inf
ROOT
ATOM      1  C   UNL     1     -22.854 -25.009   2.408  1.00  0.00     0.000 C 
ENDROOT
BRANCH   1   2
ATOM      2  C   UNL     1     -22.186 -24.888   1.029  1.00  0.00     0.000 C 
BRANCH   2   3
ATOM      3  C   UNL     1     -21.421 -26.160   0.627  1.00  0.00     0.000 C 
BRANCH   3   4
ATOM      4  C   UNL     1     -19.938 -25.886   0.322  1.00  0.00    -0.000 C 
BRANCH   4   5
ATOM      5  C   UNL     1     -18.993 -26.794   1.125  1.00  0.00    -0.000 C 
BRANCH   5   6
ATOM      6  C   UNL     1     -19.676 -28.080   1.615  1.00  0.00    -0.000 C 
BRANCH   6   7
ATOM      7  C   UNL     1     -19.537 -28.228   3.138  1.00  0.00    -0.000 C 
BRANCH   7   8
ATOM      8  C   UNL     1     -20.386 -29.379   3.701  1.00  0.00    -0.000 C 
BRANCH   8   9
ATOM      9  C   UNL     1     -21.407 -29.915   2.682  1.00  0.00    -0.000 C 
BRANCH   9  10
ATOM     10  C   UNL     1     -22.548 -30.701   3.348  1.00  0.00    -0.000 C 
BRANCH  10  11
ATOM     11  C   UNL     1     -22.237 -32.200   3.475  1.00  0.00    -0.003 C 
ATOM     12  C   UNL     1     -22.541 -32.935   2.174  1.00  0.00     0.004 C 
ENDBRANCH  10  11
ENDBRANCH   9  10
ENDBRANCH   8   9
ENDBRANCH   7   8
ENDBRANCH   6   7
ENDBRANCH   5   6
ENDBRANCH   4   5
ENDBRANCH   3   4
ENDBRANCH   2   3
ENDBRANCH   1   2
BRANCH   1  13
ATOM     13  C   UNL     1     -22.676 -26.424   2.981  1.00  0.00     0.000 C 
BRANCH  13  14
ATOM     14  C   UNL     1     -23.436 -26.628   4.302  1.00  0.00     0.000 C 
BRANCH  14  15
ATOM     15  C   UNL     1     -24.374 -27.848   4.259  1.00  0.00     0.000 C 
BRANCH  15  16
ATOM     16  C   UNL     1     -25.212 -27.998   5.541  1.00  0.00     0.000 C 
BRANCH  16  17
ATOM     17  C   UNL     1     -25.536 -29.450   5.940  1.00  0.00     0.000 C 
BRANCH  17  18
ATOM     18  C   UNL     1     -24.334 -30.212   6.540  1.00  0.00     0.000 C 
BRANCH  18  19
ATOM     19  C   UNL     1     -23.449 -29.305   7.414  1.00  0.00     0.000 C 
BRANCH  19  20
ATOM     20  C   UNL     1     -21.967 -29.356   7.010  1.00  0.00     0.006 C 
BRANCH  20  21
ATOM     21  C   UNL     1     -21.412 -30.788   6.974  1.00  0.00     0.053 C 
BRANCH  21  22
ATOM     22  C   UNL     1     -20.012 -30.822   7.500  1.00  0.00     0.041 C 
ATOM     23  O   UNL     1     -19.207 -29.896   7.211  1.00  0.00    -0.550 OA
ATOM     24  O   UNL     1     -19.611 -31.852   8.345  1.00  0.00    -0.550 OA
ENDBRANCH  21  22
ENDBRANCH  20  21
ENDBRANCH  19  20
ENDBRANCH  18  19
ENDBRANCH  17  18
ENDBRANCH  16  17
ENDBRANCH  15  16
ENDBRANCH  14  15
ENDBRANCH  13  14
ENDBRANCH   1  13
TORSDOF 20
ENDMDL
MODEL 8
REMARK VINA RESULT:    -4.978      5.032      7.837
REMARK INTER + INTRA:         -13.413
REMARK INTER:                 -10.114
REMARK INTRA:                  -3.300
REMARK UNBOUND:                -2.616
REMARK SMILES CCCCCCCCCCCCCCCCCCCCCC(=O)[O-]
REMARK SMILES IDX 12 1 11 2 10 3 9 4 8 5 7 6 6 7 5 8 4 9 3 10 2 11 1 12 13 13
REMARK SMILES IDX 14 14 15 15 16 16 17 17 18 18 19 19 20 20 21 21 22 22 23 23
REMARK SMILES IDX 24 24
REMARK H PARENT
REMARK Flexibility Score: inf
ROOT
ATOM      1  C   UNL     1     -19.637 -28.038  12.199  1.00  0.00     0.000 C 
ENDROOT
BRANCH   1   2
ATOM      2  C   UNL     1     -18.629 -28.275  13.335  1.00  0.00     0.000 C 
BRANCH   2   3
ATOM      3  C   UNL     1     -18.906 -27.395  14.565  1.00  0.00     0.000 C 
BRANCH   3   4
ATOM      4  C   UNL     1     -20.294 -26.734  14.519  1.00  0.00    -0.000 C 
BRANCH   4   5
ATOM      5  C   UNL     1     -20.360 -25.443  15.350  1.00  0.00    -0.000 C 
BRANCH   5   6
ATOM      6  C   UNL     1     -19.535 -24.299  14.741  1.00  0.00    -0.000 C 
BRANCH   6   7
ATOM      7  C   UNL     1     -20.113 -23.870  13.383  1.00  0.00    -0.000 C 
BRANCH   7   8
ATOM      8  C   UNL     1     -19.028 -23.403  12.399  1.00  0.00    -0.000 C 
BRANCH   8   9
ATOM      9  C   UNL     1     -18.326 -24.576  11.691  1.00  0.00    -0.000 C 
BRANCH   9  10
ATOM     10  C   UNL     1     -17.056 -25.033  12.425  1.00  0.00    -0.000 C 
BRANCH  10  11
ATOM     11  C   UNL     1     -16.183 -25.966  11.572  1.00  0.00    -0.003 C 
ATOM     12  C   UNL     1     -16.901 -26.366  10.287  1.00  0.00     0.004 C 
ENDBRANCH  10  11
ENDBRANCH   9  10
ENDBRANCH   8   9
ENDBRANCH   7   8
ENDBRANCH   6   7
ENDBRANCH   5   6
ENDBRANCH   4   5
ENDBRANCH   3   4
ENDBRANCH   2   3
ENDBRANCH   1   2
BRANCH   1  13
ATOM     13  C   UNL     1     -19.943 -29.348  11.456  1.00  0.00     0.000 C 
BRANCH  13  14
ATOM     14  C   UNL     1     -19.797 -30.587  12.355  1.00  0.00     0.000 C 
BRANCH  14  15
ATOM     15  C   UNL     1     -21.069 -31.452  12.377  1.00  0.00     0.000 C 
BRANCH  15  16
ATOM     16  C   UNL     1     -22.066 -31.015  13.464  1.00  0.00     0.000 C 
BRANCH  16  17
ATOM     17  C   UNL     1     -21.453 -30.211  14.625  1.00  0.00     0.000 C 
BRANCH  17  18
ATOM     18  C   UNL     1     -22.101 -30.505  15.995  1.00  0.00     0.000 C 
BRANCH  18  19
ATOM     19  C   UNL     1     -21.426 -29.724  17.137  1.00  0.00     0.000 C 
BRANCH  19  20
ATOM     20  C   UNL     1     -22.397 -28.780  17.865  1.00  0.00     0.006 C 
BRANCH  20  21
ATOM     21  C   UNL     1     -22.967 -27.692  16.944  1.00  0.00     0.053 C 
BRANCH  21  22
ATOM     22  C   UNL     1     -23.349 -26.481  17.736  1.00  0.00     0.041 C 
ATOM     23  O   UNL     1     -23.669 -25.416  17.145  1.00  0.00    -0.550 OA
ATOM     24  O   UNL     1     -23.393 -26.544  19.125  1.00  0.00    -0.550 OA
ENDBRANCH  21  22
ENDBRANCH  20  21
ENDBRANCH  19  20
ENDBRANCH  18  19
ENDBRANCH  17  18
ENDBRANCH  16  17
ENDBRANCH  15  16
ENDBRANCH  14  15
ENDBRANCH  13  14
ENDBRANCH   1  13
TORSDOF 20
ENDMDL
MODEL 9
REMARK VINA RESULT:    -4.965     10.902     12.704
REMARK INTER + INTRA:         -13.387
REMARK INTER:                 -11.627
REMARK INTRA:                  -1.760
REMARK UNBOUND:                -2.616
REMARK SMILES CCCCCCCCCCCCCCCCCCCCCC(=O)[O-]
REMARK SMILES IDX 12 1 11 2 10 3 9 4 8 5 7 6 6 7 5 8 4 9 3 10 2 11 1 12 13 13
REMARK SMILES IDX 14 14 15 15 16 16 17 17 18 18 19 19 20 20 21 21 22 22 23 23
REMARK SMILES IDX 24 24
REMARK H PARENT
REMARK Flexibility Score: inf
ROOT
ATOM      1  C   UNL     1     -22.831 -30.070   3.651  1.00  0.00     0.000 C 
ENDROOT
BRANCH   1   2
ATOM      2  C   UNL     1     -21.785 -29.364   4.527  1.00  0.00     0.000 C 
BRANCH   2   3
ATOM      3  C   UNL     1     -20.406 -29.278   3.852  1.00  0.00     0.000 C 
BRANCH   3   4
ATOM      4  C   UNL     1     -20.493 -28.820   2.386  1.00  0.00    -0.000 C 
BRANCH   4   5
ATOM      5  C   UNL     1     -20.503 -27.289   2.246  1.00  0.00    -0.000 C 
BRANCH   5   6
ATOM      6  C   UNL     1     -21.645 -26.779   1.354  1.00  0.00    -0.000 C 
BRANCH   6   7
ATOM      7  C   UNL     1     -21.164 -25.633   0.450  1.00  0.00    -0.000 C 
BRANCH   7   8
ATOM      8  C   UNL     1     -21.881 -24.307   0.744  1.00  0.00    -0.000 C 
BRANCH   8   9
ATOM      9  C   UNL     1     -22.781 -24.383   1.990  1.00  0.00    -0.000 C 
BRANCH   9  10
ATOM     10  C   UNL     1     -23.415 -23.028   2.344  1.00  0.00    -0.000 C 
BRANCH  10  11
ATOM     11  C   UNL     1     -22.537 -21.838   1.927  1.00  0.00    -0.003 C 
ATOM     12  C   UNL     1     -22.346 -20.864   3.085  1.00  0.00     0.004 C 
ENDBRANCH  10  11
ENDBRANCH   9  10
ENDBRANCH   8   9
ENDBRANCH   7   8
ENDBRANCH   6   7
ENDBRANCH   5   6
ENDBRANCH   4   5
ENDBRANCH   3   4
ENDBRANCH   2   3
ENDBRANCH   1   2
BRANCH   1  13
ATOM     13  C   UNL     1     -24.036 -29.152   3.389  1.00  0.00     0.000 C 
BRANCH  13  14
ATOM     14  C   UNL     1     -24.169 -28.036   4.438  1.00  0.00     0.000 C 
BRANCH  14  15
ATOM     15  C   UNL     1     -25.511 -28.089   5.188  1.00  0.00     0.000 C 
BRANCH  15  16
ATOM     16  C   UNL     1     -25.586 -29.254   6.190  1.00  0.00     0.000 C 
BRANCH  16  17
ATOM     17  C   UNL     1     -27.008 -29.626   6.652  1.00  0.00     0.000 C 
BRANCH  17  18
ATOM     18  C   UNL     1     -27.476 -28.853   7.904  1.00  0.00     0.000 C 
BRANCH  18  19
ATOM     19  C   UNL     1     -26.299 -28.447   8.809  1.00  0.00     0.000 C 
BRANCH  19  20
ATOM     20  C   UNL     1     -26.181 -26.924   8.983  1.00  0.00     0.006 C 
BRANCH  20  21
ATOM     21  C   UNL     1     -27.405 -26.311   9.679  1.00  0.00     0.053 C 
BRANCH  21  22
ATOM     22  C   UNL     1     -27.060 -24.984  10.275  1.00  0.00     0.041 C 
ATOM     23  O   UNL     1     -27.429 -23.921   9.708  1.00  0.00    -0.550 OA
ATOM     24  O   UNL     1     -26.369 -24.921  11.482  1.00  0.00    -0.550 OA
ENDBRANCH  21  22
ENDBRANCH  20  21
ENDBRANCH  19  20
ENDBRANCH  18  19
ENDBRANCH  17  18
ENDBRANCH  16  17
ENDBRANCH  15  16
ENDBRANCH  14  15
ENDBRANCH  13  14
ENDBRANCH   1  13
TORSDOF 20
ENDMDL
