MODEL 1
REMARK VINA RESULT:     3.400      0.000      0.000
REMARK INTER + INTRA:           5.270
REMARK INTER:                   4.294
REMARK INTRA:                   0.975
REMARK UNBOUND:                 0.975
REMARK SMILES Oc1ccc(CCc2cc(O)cc(O)c2)cc1
REMARK SMILES IDX 6 1 5 2 4 3 3 4 2 5 16 6 17 7 1 8 7 10 8 11 15 12 9 13 13 14
REMARK SMILES IDX 10 15 12 16 14 17 11 19
REMARK H PARENT 1 9 14 18 11 20
REMARK Flexibility Score: inf
ROOT
ATOM      1  C   UNL     1       9.419   2.846  19.072  1.00  0.00     0.040 C 
ENDROOT
BRANCH   1   2
ATOM      2  C   UNL     1       8.016   2.308  18.976  1.00  0.00    -0.047 A 
ATOM      3  C   UNL     1       7.705   1.305  18.045  1.00  0.00     0.007 A 
ATOM      4  C   UNL     1       6.395   0.829  17.934  1.00  0.00     0.046 A 
ATOM      5  C   UNL     1       5.383   1.357  18.745  1.00  0.00     0.115 A 
ATOM      6  C   UNL     1       6.996   2.844  19.779  1.00  0.00     0.007 A 
ATOM      7  C   UNL     1       5.687   2.367  19.667  1.00  0.00     0.046 A 
BRANCH   5   8
ATOM      8  O   UNL     1       4.083   0.872  18.623  1.00  0.00    -0.508 OA
ATOM      9  H   UNL     1       3.751   0.099  19.188  1.00  0.00     0.293 HD
ENDBRANCH   5   8
ENDBRANCH   1   2
BRANCH   1  10
ATOM     10  C   UNL     1       9.722   3.773  17.892  1.00  0.00     0.040 C 
BRANCH  10  11
ATOM     11  C   UNL     1       8.924   5.045  18.000  1.00  0.00    -0.040 A 
ATOM     12  C   UNL     1       7.528   4.996  18.145  1.00  0.00     0.050 A 
ATOM     13  C   UNL     1       9.563   6.292  17.899  1.00  0.00     0.050 A 
ATOM     14  C   UNL     1       6.782   6.176  18.214  1.00  0.00     0.119 A 
ATOM     15  C   UNL     1       8.817   7.477  17.966  1.00  0.00     0.119 A 
ATOM     16  C   UNL     1       7.429   7.417  18.127  1.00  0.00     0.092 A 
BRANCH  14  17
ATOM     17  O   UNL     1       5.399   6.107  18.366  1.00  0.00    -0.508 OA
ATOM     18  H   UNL     1       4.892   5.242  18.215  1.00  0.00     0.293 HD
ENDBRANCH  14  17
BRANCH  15  19
ATOM     19  O   UNL     1       9.445   8.717  17.875  1.00  0.00    -0.508 OA
ATOM     20  H   UNL     1       9.200   9.383  17.152  1.00  0.00     0.293 HD
ENDBRANCH  15  19
ENDBRANCH  10  11
ENDBRANCH   1  10
TORSDOF 6
ENDMDL
MODEL 2
REMARK VINA RESULT:     3.420      0.139      1.183
REMARK INTER + INTRA:           5.296
REMARK INTER:                   3.993
REMARK INTRA:                   1.302
REMARK UNBOUND:                 0.975
REMARK SMILES Oc1ccc(CCc2cc(O)cc(O)c2)cc1
REMARK SMILES IDX 6 1 5 2 4 3 3 4 2 5 16 6 17 7 1 8 7 10 8 11 15 12 9 13 13 14
REMARK SMILES IDX 10 15 12 16 14 17 11 19
REMARK H PARENT 1 9 14 18 11 20
REMARK Flexibility Score: inf
ROOT
ATOM      1  C   UNL     1       9.402   2.676  19.019  1.00  0.00     0.040 C 
ENDROOT
BRANCH   1   2
ATOM      2  C   UNL     1       7.978   2.205  18.894  1.00  0.00    -0.047 A 
ATOM      3  C   UNL     1       6.969   2.785  19.678  1.00  0.00     0.007 A 
ATOM      4  C   UNL     1       5.652   2.325  19.584  1.00  0.00     0.046 A 
ATOM      5  C   UNL     1       5.333   1.276  18.715  1.00  0.00     0.115 A 
ATOM      6  C   UNL     1       7.657   1.143  18.032  1.00  0.00     0.007 A 
ATOM      7  C   UNL     1       6.339   0.684  17.940  1.00  0.00     0.046 A 
BRANCH   5   8
ATOM      8  O   UNL     1       4.016   0.828  18.632  1.00  0.00    -0.508 OA
ATOM      9  H   UNL     1       3.799  -0.146  18.457  1.00  0.00     0.293 HD
ENDBRANCH   5   8
ENDBRANCH   1   2
BRANCH   1  10
ATOM     10  C   UNL     1       9.757   3.630  17.875  1.00  0.00     0.040 C 
BRANCH  10  11
ATOM     11  C   UNL     1       8.973   4.910  17.992  1.00  0.00    -0.040 A 
ATOM     12  C   UNL     1       7.577   4.874  18.144  1.00  0.00     0.050 A 
ATOM     13  C   UNL     1       9.624   6.151  17.891  1.00  0.00     0.050 A 
ATOM     14  C   UNL     1       6.843   6.062  18.220  1.00  0.00     0.119 A 
ATOM     15  C   UNL     1       8.890   7.342  17.966  1.00  0.00     0.119 A 
ATOM     16  C   UNL     1       7.502   7.296  18.134  1.00  0.00     0.092 A 
BRANCH  14  17
ATOM     17  O   UNL     1       5.460   6.005  18.379  1.00  0.00    -0.508 OA
ATOM     18  H   UNL     1       4.845   5.802  17.600  1.00  0.00     0.293 HD
ENDBRANCH  14  17
BRANCH  15  19
ATOM     19  O   UNL     1       9.529   8.576  17.875  1.00  0.00    -0.508 OA
ATOM     20  H   UNL     1       9.091   9.427  18.210  1.00  0.00     0.293 HD
ENDBRANCH  15  19
ENDBRANCH  10  11
ENDBRANCH   1  10
TORSDOF 6
ENDMDL
MODEL 3
REMARK VINA RESULT:     6.372      1.147      5.271
REMARK INTER + INTRA:           9.023
REMARK INTER:                   6.689
REMARK INTRA:                   2.334
REMARK UNBOUND:                 0.975
REMARK SMILES Oc1ccc(CCc2cc(O)cc(O)c2)cc1
REMARK SMILES IDX 6 1 5 2 4 3 3 4 2 5 16 6 17 7 1 8 7 10 8 11 15 12 9 13 13 14
REMARK SMILES IDX 10 15 12 16 14 17 11 19
REMARK H PARENT 1 9 14 18 11 20
REMARK Flexibility Score: inf
ROOT
ATOM      1  C   UNL     1      10.070   4.006  17.908  1.00  0.00     0.040 C 
ENDROOT
BRANCH   1   2
ATOM      2  C   UNL     1       9.296   5.296  17.875  1.00  0.00    -0.047 A 
ATOM      3  C   UNL     1       9.970   6.527  17.901  1.00  0.00     0.007 A 
ATOM      4  C   UNL     1       9.248   7.725  17.904  1.00  0.00     0.046 A 
ATOM      5  C   UNL     1       7.849   7.704  17.890  1.00  0.00     0.115 A 
ATOM      6  C   UNL     1       7.891   5.279  17.875  1.00  0.00     0.007 A 
ATOM      7  C   UNL     1       7.172   6.477  17.878  1.00  0.00     0.046 A 
BRANCH   5   8
ATOM      8  O   UNL     1       7.144   8.905  17.893  1.00  0.00    -0.508 OA
ATOM      9  H   UNL     1       7.621   9.799  17.864  1.00  0.00     0.293 HD
ENDBRANCH   5   8
ENDBRANCH   1   2
BRANCH   1  10
ATOM     10  C   UNL     1       9.661   3.163  19.119  1.00  0.00     0.040 C 
BRANCH  10  11
ATOM     11  C   UNL     1       8.188   2.859  19.079  1.00  0.00    -0.040 A 
ATOM     12  C   UNL     1       7.269   3.728  19.690  1.00  0.00     0.050 A 
ATOM     13  C   UNL     1       7.725   1.675  18.481  1.00  0.00     0.050 A 
ATOM     14  C   UNL     1       5.903   3.431  19.682  1.00  0.00     0.119 A 
ATOM     15  C   UNL     1       6.356   1.375  18.473  1.00  0.00     0.119 A 
ATOM     16  C   UNL     1       5.447   2.255  19.070  1.00  0.00     0.092 A 
BRANCH  14  17
ATOM     17  O   UNL     1       5.005   4.309  20.286  1.00  0.00    -0.508 OA
ATOM     18  H   UNL     1       4.299   4.797  19.748  1.00  0.00     0.293 HD
ENDBRANCH  14  17
BRANCH  15  19
ATOM     19  O   UNL     1       5.889   0.207  17.875  1.00  0.00    -0.508 OA
ATOM     20  H   UNL     1       5.746  -0.642  18.410  1.00  0.00     0.293 HD
ENDBRANCH  15  19
ENDBRANCH  10  11
ENDBRANCH   1  10
TORSDOF 6
ENDMDL
