MODEL 1
REMARK VINA RESULT:    -4.097      0.000      0.000
REMARK INTER + INTRA:          -5.858
REMARK INTER:                  -5.294
REMARK INTRA:                  -0.564
REMARK UNBOUND:                -0.564
REMARK SMILES C=CC(=O)CCCCC
REMARK SMILES IDX 6 1 7 2 8 3 9 4 5 5 3 6 4 7 2 8 1 9
REMARK H PARENT
REMARK Flexibility Score: inf
ROOT
ATOM      1  C   UNL     1      17.384  -9.946  67.361  1.00  0.00     0.008 C 
ENDROOT
BRANCH   1   2
ATOM      2  C   UNL     1      17.258 -10.348  65.884  1.00  0.00     0.000 C 
BRANCH   2   3
ATOM      3  C   UNL     1      18.396 -11.275  65.426  1.00  0.00    -0.003 C 
ATOM      4  C   UNL     1      18.078 -12.754  65.645  1.00  0.00     0.004 C 
ENDBRANCH   2   3
ENDBRANCH   1   2
BRANCH   1   5
ATOM      5  C   UNL     1      18.824  -9.546  67.699  1.00  0.00     0.080 C 
BRANCH   5   6
ATOM      6  C   UNL     1      19.266 -10.199  68.976  1.00  0.00     0.155 C 
ATOM      7  O   UNL     1      19.435  -9.489  70.005  1.00  0.00    -0.295 OA
BRANCH   6   8
ATOM      8  C   UNL     1      19.455 -11.661  69.032  1.00  0.00     0.039 C 
ATOM      9  C   UNL     1      20.522 -12.265  68.510  1.00  0.00     0.012 C 
ENDBRANCH   6   8
ENDBRANCH   5   6
ENDBRANCH   1   5
TORSDOF 5
ENDMDL
MODEL 2
REMARK VINA RESULT:    -4.080      0.904      1.300
REMARK INTER + INTRA:          -5.837
REMARK INTER:                  -5.506
REMARK INTRA:                  -0.331
REMARK UNBOUND:                -0.564
REMARK SMILES C=CC(=O)CCCCC
REMARK SMILES IDX 6 1 7 2 8 3 9 4 5 5 3 6 4 7 2 8 1 9
REMARK H PARENT
REMARK Flexibility Score: inf
ROOT
ATOM      1  C   UNL     1      17.333  -9.930  67.304  1.00  0.00     0.008 C 
ENDROOT
BRANCH   1   2
ATOM      2  C   UNL     1      17.215 -10.227  65.801  1.00  0.00     0.000 C 
BRANCH   2   3
ATOM      3  C   UNL     1      18.584 -10.400  65.125  1.00  0.00    -0.003 C 
ATOM      4  C   UNL     1      18.737  -9.540  63.869  1.00  0.00     0.004 C 
ENDBRANCH   2   3
ENDBRANCH   1   2
BRANCH   1   5
ATOM      5  C   UNL     1      18.769  -9.550  67.675  1.00  0.00     0.080 C 
BRANCH   5   6
ATOM      6  C   UNL     1      19.184 -10.233  68.945  1.00  0.00     0.155 C 
ATOM      7  O   UNL     1      19.434  -9.537  69.967  1.00  0.00    -0.295 OA
BRANCH   6   8
ATOM      8  C   UNL     1      19.251 -11.706  69.005  1.00  0.00     0.039 C 
ATOM      9  C   UNL     1      20.407 -12.368  69.045  1.00  0.00     0.012 C 
ENDBRANCH   6   8
ENDBRANCH   5   6
ENDBRANCH   1   5
TORSDOF 5
ENDMDL
MODEL 3
REMARK VINA RESULT:    -3.681     16.164     17.727
REMARK INTER + INTRA:          -5.321
REMARK INTER:                  -5.087
REMARK INTRA:                  -0.233
REMARK UNBOUND:                -0.564
REMARK SMILES C=CC(=O)CCCCC
REMARK SMILES IDX 6 1 7 2 8 3 9 4 5 5 3 6 4 7 2 8 1 9
REMARK H PARENT
REMARK Flexibility Score: inf
ROOT
ATOM      1  C   UNL     1       6.694  -7.243  55.640  1.00  0.00     0.008 C 
ENDROOT
BRANCH   1   2
ATOM      2  C   UNL     1       5.314  -7.455  56.282  1.00  0.00     0.000 C 
BRANCH   2   3
ATOM      3  C   UNL     1       5.125  -6.623  57.560  1.00  0.00    -0.003 C 
ATOM      4  C   UNL     1       5.231  -5.119  57.308  1.00  0.00     0.004 C 
ENDBRANCH   2   3
ENDBRANCH   1   2
BRANCH   1   5
ATOM      5  C   UNL     1       6.714  -7.768  54.201  1.00  0.00     0.080 C 
BRANCH   5   6
ATOM      6  C   UNL     1       7.234  -9.174  54.160  1.00  0.00     0.155 C 
ATOM      7  O   UNL     1       6.416 -10.135  54.190  1.00  0.00    -0.295 OA
BRANCH   6   8
ATOM      8  C   UNL     1       8.682  -9.425  54.039  1.00  0.00     0.039 C 
ATOM      9  C   UNL     1       9.409  -9.920  55.040  1.00  0.00     0.012 C 
ENDBRANCH   6   8
ENDBRANCH   5   6
ENDBRANCH   1   5
TORSDOF 5
ENDMDL
MODEL 4
REMARK VINA RESULT:    -3.594      3.100      4.676
REMARK INTER + INTRA:          -5.209
REMARK INTER:                  -4.620
REMARK INTRA:                  -0.589
REMARK UNBOUND:                -0.564
REMARK SMILES C=CC(=O)CCCCC
REMARK SMILES IDX 6 1 7 2 8 3 9 4 5 5 3 6 4 7 2 8 1 9
REMARK H PARENT
REMARK Flexibility Score: inf
ROOT
ATOM      1  C   UNL     1      16.111 -11.233  65.467  1.00  0.00     0.008 C 
ENDROOT
BRANCH   1   2
ATOM      2  C   UNL     1      17.151 -11.212  66.597  1.00  0.00     0.000 C 
BRANCH   2   3
ATOM      3  C   UNL     1      17.301  -9.822  67.235  1.00  0.00    -0.003 C 
ATOM      4  C   UNL     1      18.688  -9.593  67.836  1.00  0.00     0.004 C 
ENDBRANCH   2   3
ENDBRANCH   1   2
BRANCH   1   5
ATOM      5  C   UNL     1      16.392 -10.129  64.443  1.00  0.00     0.080 C 
BRANCH   5   6
ATOM      6  C   UNL     1      17.563 -10.497  63.580  1.00  0.00     0.155 C 
ATOM      7  O   UNL     1      17.503 -11.539  62.870  1.00  0.00    -0.295 OA
BRANCH   6   8
ATOM      8  C   UNL     1      18.750  -9.623  63.531  1.00  0.00     0.039 C 
ATOM      9  C   UNL     1      19.827  -9.836  64.287  1.00  0.00     0.012 C 
ENDBRANCH   6   8
ENDBRANCH   5   6
ENDBRANCH   1   5
TORSDOF 5
ENDMDL
MODEL 5
REMARK VINA RESULT:    -3.551      1.619      2.253
REMARK INTER + INTRA:          -5.153
REMARK INTER:                  -4.582
REMARK INTRA:                  -0.570
REMARK UNBOUND:                -0.564
REMARK SMILES C=CC(=O)CCCCC
REMARK SMILES IDX 6 1 7 2 8 3 9 4 5 5 3 6 4 7 2 8 1 9
REMARK H PARENT
REMARK Flexibility Score: inf
ROOT
ATOM      1  C   UNL     1      16.903 -11.242  66.694  1.00  0.00     0.008 C 
ENDROOT
BRANCH   1   2
ATOM      2  C   UNL     1      16.545 -11.135  65.204  1.00  0.00     0.000 C 
BRANCH   2   3
ATOM      3  C   UNL     1      16.776  -9.723  64.642  1.00  0.00    -0.003 C 
ATOM      4  C   UNL     1      17.745  -9.709  63.459  1.00  0.00     0.004 C 
ENDBRANCH   2   3
ENDBRANCH   1   2
BRANCH   1   5
ATOM      5  C   UNL     1      17.314  -9.879  67.258  1.00  0.00     0.080 C 
BRANCH   5   6
ATOM      6  C   UNL     1      18.703  -9.939  67.821  1.00  0.00     0.155 C 
ATOM      7  O   UNL     1      18.923  -9.467  68.971  1.00  0.00    -0.295 OA
BRANCH   6   8
ATOM      8  C   UNL     1      19.786 -10.583  67.054  1.00  0.00     0.039 C 
ATOM      9  C   UNL     1      20.491  -9.935  66.128  1.00  0.00     0.012 C 
ENDBRANCH   6   8
ENDBRANCH   5   6
ENDBRANCH   1   5
TORSDOF 5
ENDMDL
MODEL 6
REMARK VINA RESULT:    -3.502      3.745      5.434
REMARK INTER + INTRA:          -5.090
REMARK INTER:                  -4.539
REMARK INTRA:                  -0.551
REMARK UNBOUND:                -0.564
REMARK SMILES C=CC(=O)CCCCC
REMARK SMILES IDX 6 1 7 2 8 3 9 4 5 5 3 6 4 7 2 8 1 9
REMARK H PARENT
REMARK Flexibility Score: inf
ROOT
ATOM      1  C   UNL     1      15.380 -11.758  64.927  1.00  0.00     0.008 C 
ENDROOT
BRANCH   1   2
ATOM      2  C   UNL     1      15.645 -11.694  66.439  1.00  0.00     0.000 C 
BRANCH   2   3
ATOM      3  C   UNL     1      17.109 -11.363  66.767  1.00  0.00    -0.003 C 
ATOM      4  C   UNL     1      17.310  -9.900  67.164  1.00  0.00     0.004 C 
ENDBRANCH   2   3
ENDBRANCH   1   2
BRANCH   1   5
ATOM      5  C   UNL     1      16.462 -12.576  64.216  1.00  0.00     0.080 C 
BRANCH   5   6
ATOM      6  C   UNL     1      16.906 -11.886  62.960  1.00  0.00     0.155 C 
ATOM      7  O   UNL     1      17.064 -12.563  61.907  1.00  0.00    -0.295 OA
BRANCH   6   8
ATOM      8  C   UNL     1      17.108 -10.425  62.951  1.00  0.00     0.039 C 
ATOM      9  C   UNL     1      18.219  -9.853  63.413  1.00  0.00     0.012 C 
ENDBRANCH   6   8
ENDBRANCH   5   6
ENDBRANCH   1   5
TORSDOF 5
ENDMDL
MODEL 7
REMARK VINA RESULT:    -3.420      2.809      4.970
REMARK INTER + INTRA:          -4.984
REMARK INTER:                  -4.397
REMARK INTRA:                  -0.587
REMARK UNBOUND:                -0.564
REMARK SMILES C=CC(=O)CCCCC
REMARK SMILES IDX 6 1 7 2 8 3 9 4 5 5 3 6 4 7 2 8 1 9
REMARK H PARENT
REMARK Flexibility Score: inf
ROOT
ATOM      1  C   UNL     1      18.074 -11.752  65.588  1.00  0.00     0.008 C 
ENDROOT
BRANCH   1   2
ATOM      2  C   UNL     1      16.998 -11.224  66.549  1.00  0.00     0.000 C 
BRANCH   2   3
ATOM      3  C   UNL     1      17.382  -9.876  67.181  1.00  0.00    -0.003 C 
ATOM      4  C   UNL     1      18.888  -9.615  67.147  1.00  0.00     0.004 C 
ENDBRANCH   2   3
ENDBRANCH   1   2
BRANCH   1   5
ATOM      5  C   UNL     1      17.608 -11.644  64.132  1.00  0.00     0.080 C 
BRANCH   5   6
ATOM      6  C   UNL     1      18.136 -10.389  63.502  1.00  0.00     0.155 C 
ATOM      7  O   UNL     1      19.383 -10.237  63.382  1.00  0.00    -0.295 OA
BRANCH   6   8
ATOM      8  C   UNL     1      17.202  -9.370  62.988  1.00  0.00     0.039 C 
ATOM      9  C   UNL     1      16.060  -9.070  63.605  1.00  0.00     0.012 C 
ENDBRANCH   6   8
ENDBRANCH   5   6
ENDBRANCH   1   5
TORSDOF 5
ENDMDL
MODEL 8
REMARK VINA RESULT:    -3.359      1.812      3.149
REMARK INTER + INTRA:          -4.905
REMARK INTER:                  -4.480
REMARK INTRA:                  -0.425
REMARK UNBOUND:                -0.564
REMARK SMILES C=CC(=O)CCCCC
REMARK SMILES IDX 6 1 7 2 8 3 9 4 5 5 3 6 4 7 2 8 1 9
REMARK H PARENT
REMARK Flexibility Score: inf
ROOT
ATOM      1  C   UNL     1      19.867 -12.229  66.630  1.00  0.00     0.008 C 
ENDROOT
BRANCH   1   2
ATOM      2  C   UNL     1      21.307 -11.711  66.763  1.00  0.00     0.000 C 
BRANCH   2   3
ATOM      3  C   UNL     1      21.773 -10.938  65.519  1.00  0.00    -0.003 C 
ATOM      4  C   UNL     1      20.614 -10.311  64.744  1.00  0.00     0.004 C 
ENDBRANCH   2   3
ENDBRANCH   1   2
BRANCH   1   5
ATOM      5  C   UNL     1      19.153 -12.217  67.985  1.00  0.00     0.080 C 
BRANCH   5   6
ATOM      6  C   UNL     1      19.079 -10.821  68.529  1.00  0.00     0.155 C 
ATOM      7  O   UNL     1      19.651 -10.553  69.622  1.00  0.00    -0.295 OA
BRANCH   6   8
ATOM      8  C   UNL     1      18.384  -9.766  67.768  1.00  0.00     0.039 C 
ATOM      9  C   UNL     1      17.221  -9.976  67.153  1.00  0.00     0.012 C 
ENDBRANCH   6   8
ENDBRANCH   5   6
ENDBRANCH   1   5
TORSDOF 5
ENDMDL
MODEL 9
REMARK VINA RESULT:    -3.316      2.213      3.320
REMARK INTER + INTRA:          -4.850
REMARK INTER:                  -4.376
REMARK INTRA:                  -0.474
REMARK UNBOUND:                -0.564
REMARK SMILES C=CC(=O)CCCCC
REMARK SMILES IDX 6 1 7 2 8 3 9 4 5 5 3 6 4 7 2 8 1 9
REMARK H PARENT
REMARK Flexibility Score: inf
ROOT
ATOM      1  C   UNL     1      16.980 -10.148  64.588  1.00  0.00     0.008 C 
ENDROOT
BRANCH   1   2
ATOM      2  C   UNL     1      18.142 -10.187  63.583  1.00  0.00     0.000 C 
BRANCH   2   3
ATOM      3  C   UNL     1      19.354  -9.368  64.053  1.00  0.00    -0.003 C 
ATOM      4  C   UNL     1      20.684 -10.074  63.787  1.00  0.00     0.004 C 
ENDBRANCH   2   3
ENDBRANCH   1   2
BRANCH   1   5
ATOM      5  C   UNL     1      16.888 -11.462  65.370  1.00  0.00     0.080 C 
BRANCH   5   6
ATOM      6  C   UNL     1      17.171 -11.230  66.825  1.00  0.00     0.155 C 
ATOM      7  O   UNL     1      17.091 -12.197  67.631  1.00  0.00    -0.295 OA
BRANCH   6   8
ATOM      8  C   UNL     1      17.582  -9.894  67.295  1.00  0.00     0.039 C 
ATOM      9  C   UNL     1      18.794  -9.652  67.793  1.00  0.00     0.012 C 
ENDBRANCH   6   8
ENDBRANCH   5   6
ENDBRANCH   1   5
TORSDOF 5
ENDMDL
