MODEL 1
REMARK VINA RESULT:    -6.822      0.000      0.000
REMARK INTER + INTRA:          -8.536
REMARK INTER:                  -8.218
REMARK INTRA:                  -0.318
REMARK UNBOUND:                -0.318
REMARK SMILES O=c1c(O)c(-c2ccc(O)c(O)c2)oc2cc(O)cc(O)c12
REMARK SMILES IDX 5 1 3 2 2 3 1 4 22 5 20 6 19 7 17 8 16 9 15 10 14 11 6 12
REMARK SMILES IDX 7 13 8 14 9 15 13 16 11 17 10 18 12 20 4 22 21 24 18 26
REMARK H PARENT 10 19 12 21 4 23 21 25 18 27
REMARK Flexibility Score: inf
ROOT
ATOM      1  C   UNL     1     -18.532  16.869  -2.788  1.00  0.00     0.180 A 
ATOM      2  C   UNL     1     -17.767  17.975  -2.380  1.00  0.00     0.208 A 
ATOM      3  C   UNL     1     -18.399  19.025  -1.695  1.00  0.00     0.238 A 
ATOM      4  O   UNL     1     -17.720  20.037  -1.380  1.00  0.00    -0.285 OA
ATOM      5  C   UNL     1     -19.784  18.948  -1.413  1.00  0.00     0.111 A 
ATOM      6  C   UNL     1     -20.520  19.936  -0.690  1.00  0.00     0.134 A 
ATOM      7  C   UNL     1     -21.911  19.819  -0.583  1.00  0.00     0.093 A 
ATOM      8  C   UNL     1     -22.585  18.721  -1.114  1.00  0.00     0.123 A 
ATOM      9  C   UNL     1     -21.869  17.719  -1.771  1.00  0.00     0.094 A 
ATOM     10  C   UNL     1     -20.485  17.826  -1.926  1.00  0.00     0.146 A 
ATOM     11  O   UNL     1     -19.841  16.856  -2.567  1.00  0.00    -0.452 OA
ENDROOT
BRANCH   1  12
ATOM     12  C   UNL     1     -17.932  15.713  -3.492  1.00  0.00     0.025 A 
ATOM     13  C   UNL     1     -18.071  15.604  -4.886  1.00  0.00     0.016 A 
ATOM     14  C   UNL     1     -17.532  14.511  -5.567  1.00  0.00     0.051 A 
ATOM     15  C   UNL     1     -16.858  13.504  -4.870  1.00  0.00     0.157 A 
ATOM     16  C   UNL     1     -17.272  14.689  -2.790  1.00  0.00     0.062 A 
ATOM     17  C   UNL     1     -16.731  13.590  -3.473  1.00  0.00     0.158 A 
BRANCH  15  18
ATOM     18  O   UNL     1     -16.328  12.426  -5.578  1.00  0.00    -0.504 OA
ATOM     19  H   UNL     1     -15.888  11.641  -5.112  1.00  0.00     0.293 HD
ENDBRANCH  15  18
BRANCH  17  20
ATOM     20  O   UNL     1     -16.073  12.582  -2.769  1.00  0.00    -0.504 OA
ATOM     21  H   UNL     1     -16.582  11.825  -2.327  1.00  0.00     0.293 HD
ENDBRANCH  17  20
ENDBRANCH   1  12
BRANCH   2  22
ATOM     22  O   UNL     1     -16.406  18.041  -2.688  1.00  0.00    -0.502 OA
ATOM     23  H   UNL     1     -15.734  17.370  -2.335  1.00  0.00     0.293 HD
ENDBRANCH   2  22
BRANCH   6  24
ATOM     24  O   UNL     1     -19.934  21.025  -0.040  1.00  0.00    -0.507 OA
ATOM     25  H   UNL     1     -20.273  21.433   0.818  1.00  0.00     0.293 HD
ENDBRANCH   6  24
BRANCH   8  26
ATOM     26  O   UNL     1     -23.968  18.630  -0.976  1.00  0.00    -0.508 OA
ATOM     27  H   UNL     1     -24.507  19.371  -0.543  1.00  0.00     0.293 HD
ENDBRANCH   8  26
TORSDOF 6
ENDMDL
MODEL 2
REMARK VINA RESULT:    -6.193      3.173      5.795
REMARK INTER + INTRA:          -7.777
REMARK INTER:                  -7.443
REMARK INTRA:                  -0.335
REMARK UNBOUND:                -0.318
REMARK SMILES O=c1c(O)c(-c2ccc(O)c(O)c2)oc2cc(O)cc(O)c12
REMARK SMILES IDX 5 1 3 2 2 3 1 4 22 5 20 6 19 7 17 8 16 9 15 10 14 11 6 12
REMARK SMILES IDX 7 13 8 14 9 15 13 16 11 17 10 18 12 20 4 22 21 24 18 26
REMARK H PARENT 10 19 12 21 4 23 21 25 18 27
REMARK Flexibility Score: inf
ROOT
ATOM      1  C   UNL     1     -18.714  15.708  -2.655  1.00  0.00     0.180 A 
ATOM      2  C   UNL     1     -18.386  15.295  -3.957  1.00  0.00     0.208 A 
ATOM      3  C   UNL     1     -19.298  14.499  -4.669  1.00  0.00     0.238 A 
ATOM      4  O   UNL     1     -18.977  14.087  -5.814  1.00  0.00    -0.285 OA
ATOM      5  C   UNL     1     -20.532  14.141  -4.075  1.00  0.00     0.111 A 
ATOM      6  C   UNL     1     -21.549  13.372  -4.719  1.00  0.00     0.134 A 
ATOM      7  C   UNL     1     -22.674  12.967  -3.991  1.00  0.00     0.093 A 
ATOM      8  C   UNL     1     -22.852  13.356  -2.664  1.00  0.00     0.123 A 
ATOM      9  C   UNL     1     -21.893  14.157  -2.042  1.00  0.00     0.094 A 
ATOM     10  C   UNL     1     -20.742  14.547  -2.732  1.00  0.00     0.146 A 
ATOM     11  O   UNL     1     -19.849  15.301  -2.100  1.00  0.00    -0.452 OA
ENDROOT
BRANCH   1  12
ATOM     12  C   UNL     1     -17.814  16.568  -1.852  1.00  0.00     0.025 A 
ATOM     13  C   UNL     1     -16.899  15.975  -0.967  1.00  0.00     0.016 A 
ATOM     14  C   UNL     1     -16.057  16.768  -0.184  1.00  0.00     0.051 A 
ATOM     15  C   UNL     1     -16.123  18.163  -0.262  1.00  0.00     0.157 A 
ATOM     16  C   UNL     1     -17.894  17.971  -1.914  1.00  0.00     0.062 A 
ATOM     17  C   UNL     1     -17.049  18.769  -1.128  1.00  0.00     0.158 A 
BRANCH  15  18
ATOM     18  O   UNL     1     -15.267  18.928   0.529  1.00  0.00    -0.504 OA
ATOM     19  H   UNL     1     -15.359  18.968   1.537  1.00  0.00     0.293 HD
ENDBRANCH  15  18
BRANCH  17  20
ATOM     20  O   UNL     1     -17.131  20.158  -1.200  1.00  0.00    -0.504 OA
ATOM     21  H   UNL     1     -17.930  20.622  -1.618  1.00  0.00     0.293 HD
ENDBRANCH  17  20
ENDBRANCH   1  12
BRANCH   2  22
ATOM     22  O   UNL     1     -17.153  15.641  -4.516  1.00  0.00    -0.502 OA
ATOM     23  H   UNL     1     -17.065  16.013  -5.454  1.00  0.00     0.293 HD
ENDBRANCH   2  22
BRANCH   6  24
ATOM     24  O   UNL     1     -21.515  13.008  -6.068  1.00  0.00    -0.507 OA
ATOM     25  H   UNL     1     -22.318  12.995  -6.680  1.00  0.00     0.293 HD
ENDBRANCH   6  24
BRANCH   8  26
ATOM     26  O   UNL     1     -23.991  12.947  -1.974  1.00  0.00    -0.508 OA
ATOM     27  H   UNL     1     -24.764  13.580  -1.806  1.00  0.00     0.293 HD
ENDBRANCH   8  26
TORSDOF 6
ENDMDL
MODEL 3
REMARK VINA RESULT:    -6.123      1.353      3.337
REMARK INTER + INTRA:          -7.693
REMARK INTER:                  -7.446
REMARK INTRA:                  -0.248
REMARK UNBOUND:                -0.318
REMARK SMILES O=c1c(O)c(-c2ccc(O)c(O)c2)oc2cc(O)cc(O)c12
REMARK SMILES IDX 5 1 3 2 2 3 1 4 22 5 20 6 19 7 17 8 16 9 15 10 14 11 6 12
REMARK SMILES IDX 7 13 8 14 9 15 13 16 11 17 10 18 12 20 4 22 21 24 18 26
REMARK H PARENT 10 19 12 21 4 23 21 25 18 27
REMARK Flexibility Score: inf
ROOT
ATOM      1  C   UNL     1     -19.813  16.004  -2.942  1.00  0.00     0.180 A 
ATOM      2  C   UNL     1     -21.140  15.580  -2.767  1.00  0.00     0.208 A 
ATOM      3  C   UNL     1     -22.060  16.452  -2.163  1.00  0.00     0.238 A 
ATOM      4  O   UNL     1     -23.234  16.048  -1.959  1.00  0.00    -0.285 OA
ATOM      5  C   UNL     1     -21.644  17.743  -1.757  1.00  0.00     0.111 A 
ATOM      6  C   UNL     1     -22.500  18.724  -1.171  1.00  0.00     0.134 A 
ATOM      7  C   UNL     1     -21.952  19.919  -0.689  1.00  0.00     0.093 A 
ATOM      8  C   UNL     1     -20.593  20.197  -0.829  1.00  0.00     0.123 A 
ATOM      9  C   UNL     1     -19.757  19.271  -1.453  1.00  0.00     0.094 A 
ATOM     10  C   UNL     1     -20.268  18.054  -1.912  1.00  0.00     0.146 A 
ATOM     11  O   UNL     1     -19.436  17.194  -2.491  1.00  0.00    -0.452 OA
ENDROOT
BRANCH   1  12
ATOM     12  C   UNL     1     -18.793  15.150  -3.593  1.00  0.00     0.025 A 
ATOM     13  C   UNL     1     -17.729  14.641  -2.830  1.00  0.00     0.016 A 
ATOM     14  C   UNL     1     -16.744  13.851  -3.428  1.00  0.00     0.051 A 
ATOM     15  C   UNL     1     -16.797  13.569  -4.797  1.00  0.00     0.157 A 
ATOM     16  C   UNL     1     -18.833  14.882  -4.973  1.00  0.00     0.062 A 
ATOM     17  C   UNL     1     -17.844  14.091  -5.575  1.00  0.00     0.158 A 
BRANCH  15  18
ATOM     18  O   UNL     1     -15.802  12.775  -5.365  1.00  0.00    -0.504 OA
ATOM     19  H   UNL     1     -14.909  12.624  -4.910  1.00  0.00     0.293 HD
ENDBRANCH  15  18
BRANCH  17  20
ATOM     20  O   UNL     1     -17.895  13.826  -6.943  1.00  0.00    -0.504 OA
ATOM     21  H   UNL     1     -18.496  14.356  -7.564  1.00  0.00     0.293 HD
ENDBRANCH  17  20
ENDBRANCH   1  12
BRANCH   2  22
ATOM     22  O   UNL     1     -21.526  14.293  -3.154  1.00  0.00    -0.502 OA
ATOM     23  H   UNL     1     -21.433  13.960  -4.106  1.00  0.00     0.293 HD
ENDBRANCH   2  22
BRANCH   6  24
ATOM     24  O   UNL     1     -23.887  18.587  -1.066  1.00  0.00    -0.507 OA
ATOM     25  H   UNL     1     -24.356  17.808  -0.630  1.00  0.00     0.293 HD
ENDBRANCH   6  24
BRANCH   8  26
ATOM     26  O   UNL     1     -20.085  21.403  -0.351  1.00  0.00    -0.508 OA
ATOM     27  H   UNL     1     -20.654  22.241  -0.316  1.00  0.00     0.293 HD
ENDBRANCH   8  26
TORSDOF 6
ENDMDL
MODEL 4
REMARK VINA RESULT:    -6.111      2.597      3.413
REMARK INTER + INTRA:          -7.679
REMARK INTER:                  -8.154
REMARK INTRA:                   0.475
REMARK UNBOUND:                -0.318
REMARK SMILES O=c1c(O)c(-c2ccc(O)c(O)c2)oc2cc(O)cc(O)c12
REMARK SMILES IDX 5 1 3 2 2 3 1 4 22 5 20 6 19 7 17 8 16 9 15 10 14 11 6 12
REMARK SMILES IDX 7 13 8 14 9 15 13 16 11 17 10 18 12 20 4 22 21 24 18 26
REMARK H PARENT 10 19 12 21 4 23 21 25 18 27
REMARK Flexibility Score: inf
ROOT
ATOM      1  C   UNL     1     -19.850  16.599  -2.816  1.00  0.00     0.180 A 
ATOM      2  C   UNL     1     -18.460  16.805  -2.793  1.00  0.00     0.208 A 
ATOM      3  C   UNL     1     -17.956  17.986  -2.225  1.00  0.00     0.238 A 
ATOM      4  O   UNL     1     -16.715  18.190  -2.254  1.00  0.00    -0.285 OA
ATOM      5  C   UNL     1     -18.847  18.938  -1.673  1.00  0.00     0.111 A 
ATOM      6  C   UNL     1     -18.445  20.151  -1.036  1.00  0.00     0.134 A 
ATOM      7  C   UNL     1     -19.417  21.080  -0.644  1.00  0.00     0.093 A 
ATOM      8  C   UNL     1     -20.775  20.813  -0.804  1.00  0.00     0.123 A 
ATOM      9  C   UNL     1     -21.182  19.604  -1.372  1.00  0.00     0.094 A 
ATOM     10  C   UNL     1     -20.235  18.673  -1.806  1.00  0.00     0.146 A 
ATOM     11  O   UNL     1     -20.663  17.540  -2.351  1.00  0.00    -0.452 OA
ENDROOT
BRANCH   1  12
ATOM     12  C   UNL     1     -20.454  15.368  -3.375  1.00  0.00     0.025 A 
ATOM     13  C   UNL     1     -19.696  14.553  -4.231  1.00  0.00     0.016 A 
ATOM     14  C   UNL     1     -20.253  13.399  -4.787  1.00  0.00     0.051 A 
ATOM     15  C   UNL     1     -21.578  13.049  -4.510  1.00  0.00     0.157 A 
ATOM     16  C   UNL     1     -21.793  15.025  -3.114  1.00  0.00     0.062 A 
ATOM     17  C   UNL     1     -22.354  13.867  -3.673  1.00  0.00     0.158 A 
BRANCH  15  18
ATOM     18  O   UNL     1     -22.106  11.889  -5.077  1.00  0.00    -0.504 OA
ATOM     19  H   UNL     1     -22.151  11.754  -6.080  1.00  0.00     0.293 HD
ENDBRANCH  15  18
BRANCH  17  20
ATOM     20  O   UNL     1     -23.680  13.532  -3.404  1.00  0.00    -0.504 OA
ATOM     21  H   UNL     1     -24.119  12.721  -3.826  1.00  0.00     0.293 HD
ENDBRANCH  17  20
ENDBRANCH   1  12
BRANCH   2  22
ATOM     22  O   UNL     1     -17.600  15.863  -3.362  1.00  0.00    -0.502 OA
ATOM     23  H   UNL     1     -17.061  15.210  -2.806  1.00  0.00     0.293 HD
ENDBRANCH   2  22
BRANCH   6  24
ATOM     24  O   UNL     1     -17.118  20.475  -0.742  1.00  0.00    -0.507 OA
ATOM     25  H   UNL     1     -16.803  21.384  -0.437  1.00  0.00     0.293 HD
ENDBRANCH   6  24
BRANCH   8  26
ATOM     26  O   UNL     1     -21.715  21.753  -0.388  1.00  0.00    -0.508 OA
ATOM     27  H   UNL     1     -22.700  21.649  -0.604  1.00  0.00     0.293 HD
ENDBRANCH   8  26
TORSDOF 6
ENDMDL
MODEL 5
REMARK VINA RESULT:    -6.088      2.413      3.602
REMARK INTER + INTRA:          -7.651
REMARK INTER:                  -7.573
REMARK INTRA:                  -0.077
REMARK UNBOUND:                -0.318
REMARK SMILES O=c1c(O)c(-c2ccc(O)c(O)c2)oc2cc(O)cc(O)c12
REMARK SMILES IDX 5 1 3 2 2 3 1 4 22 5 20 6 19 7 17 8 16 9 15 10 14 11 6 12
REMARK SMILES IDX 7 13 8 14 9 15 13 16 11 17 10 18 12 20 4 22 21 24 18 26
REMARK H PARENT 10 19 12 21 4 23 21 25 18 27
REMARK Flexibility Score: inf
ROOT
ATOM      1  C   UNL     1     -18.629  16.420  -2.496  1.00  0.00     0.180 A 
ATOM      2  C   UNL     1     -17.396  16.083  -1.914  1.00  0.00     0.208 A 
ATOM      3  C   UNL     1     -16.762  17.014  -1.075  1.00  0.00     0.238 A 
ATOM      4  O   UNL     1     -15.633  16.729  -0.599  1.00  0.00    -0.285 OA
ATOM      5  C   UNL     1     -17.379  18.262  -0.816  1.00  0.00     0.111 A 
ATOM      6  C   UNL     1     -16.846  19.265   0.049  1.00  0.00     0.134 A 
ATOM      7  C   UNL     1     -17.476  20.513   0.129  1.00  0.00     0.093 A 
ATOM      8  C   UNL     1     -18.651  20.774  -0.574  1.00  0.00     0.123 A 
ATOM      9  C   UNL     1     -19.213  19.781  -1.377  1.00  0.00     0.094 A 
ATOM     10  C   UNL     1     -18.589  18.538  -1.505  1.00  0.00     0.146 A 
ATOM     11  O   UNL     1     -19.150  17.623  -2.288  1.00  0.00    -0.452 OA
ENDROOT
BRANCH   1  12
ATOM     12  C   UNL     1     -19.369  15.482  -3.372  1.00  0.00     0.025 A 
ATOM     13  C   UNL     1     -20.658  15.063  -3.004  1.00  0.00     0.016 A 
ATOM     14  C   UNL     1     -21.364  14.162  -3.804  1.00  0.00     0.051 A 
ATOM     15  C   UNL     1     -20.791  13.653  -4.974  1.00  0.00     0.157 A 
ATOM     16  C   UNL     1     -18.786  14.954  -4.538  1.00  0.00     0.062 A 
ATOM     17  C   UNL     1     -19.493  14.048  -5.342  1.00  0.00     0.158 A 
BRANCH  15  18
ATOM     18  O   UNL     1     -21.522  12.758  -5.753  1.00  0.00    -0.504 OA
ATOM     19  H   UNL     1     -21.142  12.346  -6.597  1.00  0.00     0.293 HD
ENDBRANCH  15  18
BRANCH  17  20
ATOM     20  O   UNL     1     -18.910  13.534  -6.499  1.00  0.00    -0.504 OA
ATOM     21  H   UNL     1     -18.354  12.687  -6.482  1.00  0.00     0.293 HD
ENDBRANCH  17  20
ENDBRANCH   1  12
BRANCH   2  22
ATOM     22  O   UNL     1     -16.794  14.855  -2.200  1.00  0.00    -0.502 OA
ATOM     23  H   UNL     1     -16.623  14.539  -3.147  1.00  0.00     0.293 HD
ENDBRANCH   2  22
BRANCH   6  24
ATOM     24  O   UNL     1     -15.729  19.077   0.868  1.00  0.00    -0.507 OA
ATOM     25  H   UNL     1     -15.508  19.639   1.676  1.00  0.00     0.293 HD
ENDBRANCH   6  24
BRANCH   8  26
ATOM     26  O   UNL     1     -19.258  22.023  -0.460  1.00  0.00    -0.508 OA
ATOM     27  H   UNL     1     -20.266  22.119  -0.409  1.00  0.00     0.293 HD
ENDBRANCH   8  26
TORSDOF 6
ENDMDL
MODEL 6
REMARK VINA RESULT:    -6.051      1.548      6.972
REMARK INTER + INTRA:          -7.607
REMARK INTER:                  -7.416
REMARK INTRA:                  -0.191
REMARK UNBOUND:                -0.318
REMARK SMILES O=c1c(O)c(-c2ccc(O)c(O)c2)oc2cc(O)cc(O)c12
REMARK SMILES IDX 5 1 3 2 2 3 1 4 22 5 20 6 19 7 17 8 16 9 15 10 14 11 6 12
REMARK SMILES IDX 7 13 8 14 9 15 13 16 11 17 10 18 12 20 4 22 21 24 18 26
REMARK H PARENT 10 19 12 21 4 23 21 25 18 27
REMARK Flexibility Score: inf
ROOT
ATOM      1  C   UNL     1     -18.522  16.420  -2.384  1.00  0.00     0.180 A 
ATOM      2  C   UNL     1     -17.988  15.654  -1.335  1.00  0.00     0.208 A 
ATOM      3  C   UNL     1     -17.283  14.478  -1.641  1.00  0.00     0.238 A 
ATOM      4  O   UNL     1     -16.852  13.767  -0.696  1.00  0.00    -0.285 OA
ATOM      5  C   UNL     1     -17.107  14.094  -2.992  1.00  0.00     0.111 A 
ATOM      6  C   UNL     1     -16.376  12.945  -3.419  1.00  0.00     0.134 A 
ATOM      7  C   UNL     1     -16.378  12.589  -4.774  1.00  0.00     0.093 A 
ATOM      8  C   UNL     1     -17.028  13.376  -5.724  1.00  0.00     0.123 A 
ATOM      9  C   UNL     1     -17.696  14.535  -5.325  1.00  0.00     0.094 A 
ATOM     10  C   UNL     1     -17.743  14.895  -3.976  1.00  0.00     0.146 A 
ATOM     11  O   UNL     1     -18.398  15.999  -3.637  1.00  0.00    -0.452 OA
ENDROOT
BRANCH   1  12
ATOM     12  C   UNL     1     -19.255  17.684  -2.141  1.00  0.00     0.025 A 
ATOM     13  C   UNL     1     -20.601  17.787  -2.529  1.00  0.00     0.016 A 
ATOM     14  C   UNL     1     -21.306  18.976  -2.329  1.00  0.00     0.051 A 
ATOM     15  C   UNL     1     -20.676  20.084  -1.754  1.00  0.00     0.157 A 
ATOM     16  C   UNL     1     -18.618  18.806  -1.582  1.00  0.00     0.062 A 
ATOM     17  C   UNL     1     -19.323  20.001  -1.382  1.00  0.00     0.158 A 
BRANCH  15  18
ATOM     18  O   UNL     1     -21.406  21.257  -1.564  1.00  0.00    -0.504 OA
ATOM     19  H   UNL     1     -22.140  21.327  -0.869  1.00  0.00     0.293 HD
ENDBRANCH  15  18
BRANCH  17  20
ATOM     20  O   UNL     1     -18.685  21.106  -0.821  1.00  0.00    -0.504 OA
ATOM     21  H   UNL     1     -18.450  21.921  -1.376  1.00  0.00     0.293 HD
ENDBRANCH  17  20
ENDBRANCH   1  12
BRANCH   2  22
ATOM     22  O   UNL     1     -18.191  16.039  -0.007  1.00  0.00    -0.502 OA
ATOM     23  H   UNL     1     -17.601  16.716   0.460  1.00  0.00     0.293 HD
ENDBRANCH   2  22
BRANCH   6  24
ATOM     24  O   UNL     1     -15.615  12.142  -2.566  1.00  0.00    -0.507 OA
ATOM     25  H   UNL     1     -14.635  11.937  -2.692  1.00  0.00     0.293 HD
ENDBRANCH   6  24
BRANCH   8  26
ATOM     26  O   UNL     1     -16.997  13.000  -7.065  1.00  0.00    -0.508 OA
ATOM     27  H   UNL     1     -16.533  13.570  -7.764  1.00  0.00     0.293 HD
ENDBRANCH   8  26
TORSDOF 6
ENDMDL
MODEL 7
REMARK VINA RESULT:    -6.007      2.828      4.545
REMARK INTER + INTRA:          -7.554
REMARK INTER:                  -7.555
REMARK INTRA:                   0.002
REMARK UNBOUND:                -0.318
REMARK SMILES O=c1c(O)c(-c2ccc(O)c(O)c2)oc2cc(O)cc(O)c12
REMARK SMILES IDX 5 1 3 2 2 3 1 4 22 5 20 6 19 7 17 8 16 9 15 10 14 11 6 12
REMARK SMILES IDX 7 13 8 14 9 15 13 16 11 17 10 18 12 20 4 22 21 24 18 26
REMARK H PARENT 10 19 12 21 4 23 21 25 18 27
REMARK Flexibility Score: inf
ROOT
ATOM      1  C   UNL     1     -19.391  16.591  -2.374  1.00  0.00     0.180 A 
ATOM      2  C   UNL     1     -19.907  17.896  -2.300  1.00  0.00     0.208 A 
ATOM      3  C   UNL     1     -19.192  18.871  -1.587  1.00  0.00     0.238 A 
ATOM      4  O   UNL     1     -19.684  20.025  -1.478  1.00  0.00    -0.285 OA
ATOM      5  C   UNL     1     -17.962  18.534  -0.972  1.00  0.00     0.111 A 
ATOM      6  C   UNL     1     -17.133  19.452  -0.258  1.00  0.00     0.134 A 
ATOM      7  C   UNL     1     -16.004  18.978   0.420  1.00  0.00     0.093 A 
ATOM      8  C   UNL     1     -15.636  17.635   0.359  1.00  0.00     0.123 A 
ATOM      9  C   UNL     1     -16.406  16.739  -0.385  1.00  0.00     0.094 A 
ATOM     10  C   UNL     1     -17.559  17.175  -1.043  1.00  0.00     0.146 A 
ATOM     11  O   UNL     1     -18.270  16.288  -1.731  1.00  0.00    -0.452 OA
ENDROOT
BRANCH   1  12
ATOM     12  C   UNL     1     -20.075  15.516  -3.127  1.00  0.00     0.025 A 
ATOM     13  C   UNL     1     -19.371  14.806  -4.114  1.00  0.00     0.016 A 
ATOM     14  C   UNL     1     -20.003  13.803  -4.851  1.00  0.00     0.051 A 
ATOM     15  C   UNL     1     -21.350  13.501  -4.627  1.00  0.00     0.157 A 
ATOM     16  C   UNL     1     -21.436  15.225  -2.918  1.00  0.00     0.062 A 
ATOM     17  C   UNL     1     -22.073  14.219  -3.658  1.00  0.00     0.158 A 
BRANCH  15  18
ATOM     18  O   UNL     1     -21.954  12.493  -5.377  1.00  0.00    -0.504 OA
ATOM     19  H   UNL     1     -21.711  12.323  -6.345  1.00  0.00     0.293 HD
ENDBRANCH  15  18
BRANCH  17  20
ATOM     20  O   UNL     1     -23.419  13.934  -3.440  1.00  0.00    -0.504 OA
ATOM     21  H   UNL     1     -23.935  14.360  -2.678  1.00  0.00     0.293 HD
ENDBRANCH  17  20
ENDBRANCH   1  12
BRANCH   2  22
ATOM     22  O   UNL     1     -21.133  18.203  -2.895  1.00  0.00    -0.502 OA
ATOM     23  H   UNL     1     -21.850  17.506  -3.057  1.00  0.00     0.293 HD
ENDBRANCH   2  22
BRANCH   6  24
ATOM     24  O   UNL     1     -17.358  20.830  -0.210  1.00  0.00    -0.507 OA
ATOM     25  H   UNL     1     -17.093  21.429   0.558  1.00  0.00     0.293 HD
ENDBRANCH   6  24
BRANCH   8  26
ATOM     26  O   UNL     1     -14.497  17.202   1.034  1.00  0.00    -0.508 OA
ATOM     27  H   UNL     1     -14.494  16.342   1.569  1.00  0.00     0.293 HD
ENDBRANCH   8  26
TORSDOF 6
ENDMDL
MODEL 8
REMARK VINA RESULT:    -5.974      2.412      6.932
REMARK INTER + INTRA:          -7.513
REMARK INTER:                  -7.373
REMARK INTRA:                  -0.140
REMARK UNBOUND:                -0.318
REMARK SMILES O=c1c(O)c(-c2ccc(O)c(O)c2)oc2cc(O)cc(O)c12
REMARK SMILES IDX 5 1 3 2 2 3 1 4 22 5 20 6 19 7 17 8 16 9 15 10 14 11 6 12
REMARK SMILES IDX 7 13 8 14 9 15 13 16 11 17 10 18 12 20 4 22 21 24 18 26
REMARK H PARENT 10 19 12 21 4 23 21 25 18 27
REMARK Flexibility Score: inf
ROOT
ATOM      1  C   UNL     1     -20.607  17.154  -2.103  1.00  0.00     0.180 A 
ATOM      2  C   UNL     1     -19.221  17.200  -2.328  1.00  0.00     0.208 A 
ATOM      3  C   UNL     1     -18.632  16.227  -3.151  1.00  0.00     0.238 A 
ATOM      4  O   UNL     1     -17.383  16.241  -3.307  1.00  0.00    -0.285 OA
ATOM      5  C   UNL     1     -19.439  15.230  -3.751  1.00  0.00     0.111 A 
ATOM      6  C   UNL     1     -18.955  14.218  -4.634  1.00  0.00     0.134 A 
ATOM      7  C   UNL     1     -19.821  13.205  -5.064  1.00  0.00     0.093 A 
ATOM      8  C   UNL     1     -21.166  13.202  -4.697  1.00  0.00     0.123 A 
ATOM      9  C   UNL     1     -21.664  14.220  -3.881  1.00  0.00     0.094 A 
ATOM     10  C   UNL     1     -20.816  15.224  -3.407  1.00  0.00     0.146 A 
ATOM     11  O   UNL     1     -21.327  16.168  -2.624  1.00  0.00    -0.452 OA
ENDROOT
BRANCH   1  12
ATOM     12  C   UNL     1     -21.303  18.160  -1.268  1.00  0.00     0.025 A 
ATOM     13  C   UNL     1     -22.049  17.738  -0.155  1.00  0.00     0.016 A 
ATOM     14  C   UNL     1     -22.730  18.667   0.634  1.00  0.00     0.051 A 
ATOM     15  C   UNL     1     -22.690  20.029   0.317  1.00  0.00     0.157 A 
ATOM     16  C   UNL     1     -21.280  19.527  -1.596  1.00  0.00     0.062 A 
ATOM     17  C   UNL     1     -21.965  20.462  -0.806  1.00  0.00     0.158 A 
BRANCH  15  18
ATOM     18  O   UNL     1     -23.378  20.934   1.125  1.00  0.00    -0.504 OA
ATOM     19  H   UNL     1     -23.478  21.910   0.874  1.00  0.00     0.293 HD
ENDBRANCH  15  18
BRANCH  17  20
ATOM     20  O   UNL     1     -21.933  21.816  -1.136  1.00  0.00    -0.504 OA
ATOM     21  H   UNL     1     -21.062  22.290  -1.344  1.00  0.00     0.293 HD
ENDBRANCH  17  20
ENDBRANCH   1  12
BRANCH   2  22
ATOM     22  O   UNL     1     -18.439  18.180  -1.710  1.00  0.00    -0.502 OA
ATOM     23  H   UNL     1     -18.814  19.077  -1.426  1.00  0.00     0.293 HD
ENDBRANCH   2  22
BRANCH   6  24
ATOM     24  O   UNL     1     -17.652  14.179  -5.137  1.00  0.00    -0.507 OA
ATOM     25  H   UNL     1     -17.315  13.506  -5.809  1.00  0.00     0.293 HD
ENDBRANCH   6  24
BRANCH   8  26
ATOM     26  O   UNL     1     -22.002  12.187  -5.155  1.00  0.00    -0.508 OA
ATOM     27  H   UNL     1     -22.878  12.392  -5.621  1.00  0.00     0.293 HD
ENDBRANCH   8  26
TORSDOF 6
ENDMDL
MODEL 9
REMARK VINA RESULT:    -5.971      2.395      6.213
REMARK INTER + INTRA:          -7.511
REMARK INTER:                  -7.334
REMARK INTRA:                  -0.177
REMARK UNBOUND:                -0.318
REMARK SMILES O=c1c(O)c(-c2ccc(O)c(O)c2)oc2cc(O)cc(O)c12
REMARK SMILES IDX 5 1 3 2 2 3 1 4 22 5 20 6 19 7 17 8 16 9 15 10 14 11 6 12
REMARK SMILES IDX 7 13 8 14 9 15 13 16 11 17 10 18 12 20 4 22 21 24 18 26
REMARK H PARENT 10 19 12 21 4 23 21 25 18 27
REMARK Flexibility Score: inf
ROOT
ATOM      1  C   UNL     1     -18.998  17.058  -2.672  1.00  0.00     0.180 A 
ATOM      2  C   UNL     1     -17.950  16.708  -3.539  1.00  0.00     0.208 A 
ATOM      3  C   UNL     1     -18.096  15.582  -4.365  1.00  0.00     0.238 A 
ATOM      4  O   UNL     1     -17.134  15.241  -5.101  1.00  0.00    -0.285 OA
ATOM      5  C   UNL     1     -19.295  14.830  -4.323  1.00  0.00     0.111 A 
ATOM      6  C   UNL     1     -19.568  13.694  -5.144  1.00  0.00     0.134 A 
ATOM      7  C   UNL     1     -20.733  12.948  -4.926  1.00  0.00     0.093 A 
ATOM      8  C   UNL     1     -21.666  13.334  -3.963  1.00  0.00     0.123 A 
ATOM      9  C   UNL     1     -21.437  14.477  -3.196  1.00  0.00     0.094 A 
ATOM     10  C   UNL     1     -20.267  15.220  -3.365  1.00  0.00     0.146 A 
ATOM     11  O   UNL     1     -20.082  16.295  -2.607  1.00  0.00    -0.452 OA
ENDROOT
BRANCH   1  12
ATOM     12  C   UNL     1     -18.927  18.245  -1.790  1.00  0.00     0.025 A 
ATOM     13  C   UNL     1     -19.761  19.346  -2.044  1.00  0.00     0.016 A 
ATOM     14  C   UNL     1     -19.695  20.485  -1.238  1.00  0.00     0.051 A 
ATOM     15  C   UNL     1     -18.787  20.550  -0.177  1.00  0.00     0.157 A 
ATOM     16  C   UNL     1     -18.000  18.320  -0.735  1.00  0.00     0.062 A 
ATOM     17  C   UNL     1     -17.931  19.464   0.075  1.00  0.00     0.158 A 
BRANCH  15  18
ATOM     18  O   UNL     1     -18.746  21.698   0.613  1.00  0.00    -0.504 OA
ATOM     19  H   UNL     1     -19.467  21.911   1.291  1.00  0.00     0.293 HD
ENDBRANCH  15  18
BRANCH  17  20
ATOM     20  O   UNL     1     -17.013  19.527   1.122  1.00  0.00    -0.504 OA
ATOM     21  H   UNL     1     -17.292  19.802   2.057  1.00  0.00     0.293 HD
ENDBRANCH  17  20
ENDBRANCH   1  12
BRANCH   2  22
ATOM     22  O   UNL     1     -16.766  17.451  -3.549  1.00  0.00    -0.502 OA
ATOM     23  H   UNL     1     -16.060  17.342  -4.268  1.00  0.00     0.293 HD
ENDBRANCH   2  22
BRANCH   6  24
ATOM     24  O   UNL     1     -18.749  13.276  -6.197  1.00  0.00    -0.507 OA
ATOM     25  H   UNL     1     -19.079  12.830  -7.039  1.00  0.00     0.293 HD
ENDBRANCH   6  24
BRANCH   8  26
ATOM     26  O   UNL     1     -22.821  12.577  -3.784  1.00  0.00    -0.508 OA
ATOM     27  H   UNL     1     -23.709  12.863  -4.182  1.00  0.00     0.293 HD
ENDBRANCH   8  26
TORSDOF 6
ENDMDL
