MODEL 1
REMARK VINA RESULT:    -4.008      0.000      0.000
REMARK INTER + INTRA:          -5.367
REMARK INTER:                  -5.180
REMARK INTRA:                  -0.187
REMARK UNBOUND:                -0.187
REMARK SMILES CCCCCCC(=O)[O-]
REMARK SMILES IDX 5 1 6 2 7 3 8 4 9 5 4 6 3 7 2 8 1 9
REMARK H PARENT
REMARK Flexibility Score: inf
ROOT
ATOM      1  C   UNL     1      16.965  23.772  27.563  1.00  0.00     0.006 C 
ENDROOT
BRANCH   1   2
ATOM      2  C   UNL     1      15.981  23.638  26.394  1.00  0.00     0.053 C 
BRANCH   2   3
ATOM      3  C   UNL     1      16.275  22.401  25.605  1.00  0.00     0.041 C 
ATOM      4  O   UNL     1      17.030  21.512  26.080  1.00  0.00    -0.550 OA
ATOM      5  O   UNL     1      15.753  22.251  24.326  1.00  0.00    -0.550 OA
ENDBRANCH   2   3
ENDBRANCH   1   2
BRANCH   1   6
ATOM      6  C   UNL     1      16.286  23.598  28.931  1.00  0.00     0.000 C 
BRANCH   6   7
ATOM      7  C   UNL     1      14.754  23.663  28.844  1.00  0.00    -0.000 C 
BRANCH   7   8
ATOM      8  C   UNL     1      14.119  23.510  30.231  1.00  0.00    -0.003 C 
ATOM      9  C   UNL     1      12.863  24.367  30.362  1.00  0.00     0.004 C 
ENDBRANCH   7   8
ENDBRANCH   6   7
ENDBRANCH   1   6
TORSDOF 5
ENDMDL
MODEL 2
REMARK VINA RESULT:    -3.984      2.483      4.438
REMARK INTER + INTRA:          -5.335
REMARK INTER:                  -5.064
REMARK INTRA:                  -0.271
REMARK UNBOUND:                -0.187
REMARK SMILES CCCCCCC(=O)[O-]
REMARK SMILES IDX 5 1 6 2 7 3 8 4 9 5 4 6 3 7 2 8 1 9
REMARK H PARENT
REMARK Flexibility Score: inf
ROOT
ATOM      1  C   UNL     1      16.272  23.401  28.974  1.00  0.00     0.006 C 
ENDROOT
BRANCH   1   2
ATOM      2  C   UNL     1      14.782  23.755  29.047  1.00  0.00     0.053 C 
BRANCH   2   3
ATOM      3  C   UNL     1      13.976  22.549  29.413  1.00  0.00     0.041 C 
ATOM      4  O   UNL     1      14.097  21.483  28.753  1.00  0.00    -0.550 OA
ATOM      5  O   UNL     1      13.056  22.615  30.452  1.00  0.00    -0.550 OA
ENDBRANCH   2   3
ENDBRANCH   1   2
BRANCH   1   6
ATOM      6  C   UNL     1      16.905  23.784  27.627  1.00  0.00     0.000 C 
BRANCH   6   7
ATOM      7  C   UNL     1      15.957  23.556  26.441  1.00  0.00    -0.000 C 
BRANCH   7   8
ATOM      8  C   UNL     1      16.145  22.154  25.850  1.00  0.00    -0.003 C 
ATOM      9  C   UNL     1      16.018  22.174  24.329  1.00  0.00     0.004 C 
ENDBRANCH   7   8
ENDBRANCH   6   7
ENDBRANCH   1   6
TORSDOF 5
ENDMDL
MODEL 3
REMARK VINA RESULT:    -3.964      2.366      4.229
REMARK INTER + INTRA:          -5.310
REMARK INTER:                  -5.021
REMARK INTRA:                  -0.289
REMARK UNBOUND:                -0.187
REMARK SMILES CCCCCCC(=O)[O-]
REMARK SMILES IDX 5 1 6 2 7 3 8 4 9 5 4 6 3 7 2 8 1 9
REMARK H PARENT
REMARK Flexibility Score: inf
ROOT
ATOM      1  C   UNL     1      15.611  23.612  28.939  1.00  0.00     0.006 C 
ENDROOT
BRANCH   1   2
ATOM      2  C   UNL     1      16.050  22.582  29.987  1.00  0.00     0.053 C 
BRANCH   2   3
ATOM      3  C   UNL     1      16.289  21.253  29.344  1.00  0.00     0.041 C 
ATOM      4  O   UNL     1      15.326  20.600  28.860  1.00  0.00    -0.550 OA
ATOM      5  O   UNL     1      17.569  20.711  29.321  1.00  0.00    -0.550 OA
ENDBRANCH   2   3
ENDBRANCH   1   2
BRANCH   1   6
ATOM      6  C   UNL     1      16.629  23.764  27.798  1.00  0.00     0.000 C 
BRANCH   6   7
ATOM      7  C   UNL     1      15.991  23.604  26.410  1.00  0.00    -0.000 C 
BRANCH   7   8
ATOM      8  C   UNL     1      16.315  22.230  25.812  1.00  0.00    -0.003 C 
ATOM      9  C   UNL     1      15.981  22.183  24.324  1.00  0.00     0.004 C 
ENDBRANCH   7   8
ENDBRANCH   6   7
ENDBRANCH   1   6
TORSDOF 5
ENDMDL
MODEL 4
REMARK VINA RESULT:    -3.959      3.505      5.121
REMARK INTER + INTRA:          -5.304
REMARK INTER:                  -5.140
REMARK INTRA:                  -0.164
REMARK UNBOUND:                -0.187
REMARK SMILES CCCCCCC(=O)[O-]
REMARK SMILES IDX 5 1 6 2 7 3 8 4 9 5 4 6 3 7 2 8 1 9
REMARK H PARENT
REMARK Flexibility Score: inf
ROOT
ATOM      1  C   UNL     1      14.382  21.469  27.346  1.00  0.00     0.006 C 
ENDROOT
BRANCH   1   2
ATOM      2  C   UNL     1      13.562  20.679  28.373  1.00  0.00     0.053 C 
BRANCH   2   3
ATOM      3  C   UNL     1      12.477  21.536  28.944  1.00  0.00     0.041 C 
ATOM      4  O   UNL     1      11.308  21.473  28.477  1.00  0.00    -0.550 OA
ATOM      5  O   UNL     1      12.765  22.440  29.959  1.00  0.00    -0.550 OA
ENDBRANCH   2   3
ENDBRANCH   1   2
BRANCH   1   6
ATOM      6  C   UNL     1      15.882  21.493  27.679  1.00  0.00     0.000 C 
BRANCH   6   7
ATOM      7  C   UNL     1      16.757  21.796  26.453  1.00  0.00    -0.000 C 
BRANCH   7   8
ATOM      8  C   UNL     1      16.027  22.723  25.474  1.00  0.00    -0.003 C 
ATOM      9  C   UNL     1      15.903  22.082  24.095  1.00  0.00     0.004 C 
ENDBRANCH   7   8
ENDBRANCH   6   7
ENDBRANCH   1   6
TORSDOF 5
ENDMDL
MODEL 5
REMARK VINA RESULT:    -3.944      1.042      1.415
REMARK INTER + INTRA:          -5.284
REMARK INTER:                  -4.917
REMARK INTRA:                  -0.367
REMARK UNBOUND:                -0.187
REMARK SMILES CCCCCCC(=O)[O-]
REMARK SMILES IDX 5 1 6 2 7 3 8 4 9 5 4 6 3 7 2 8 1 9
REMARK H PARENT
REMARK Flexibility Score: inf
ROOT
ATOM      1  C   UNL     1      16.955  23.842  27.565  1.00  0.00     0.006 C 
ENDROOT
BRANCH   1   2
ATOM      2  C   UNL     1      16.022  23.687  26.357  1.00  0.00     0.053 C 
BRANCH   2   3
ATOM      3  C   UNL     1      16.352  22.439  25.601  1.00  0.00     0.041 C 
ATOM      4  O   UNL     1      17.014  21.520  26.153  1.00  0.00    -0.550 OA
ATOM      5  O   UNL     1      15.970  22.310  24.271  1.00  0.00    -0.550 OA
ENDBRANCH   2   3
ENDBRANCH   1   2
BRANCH   1   6
ATOM      6  C   UNL     1      16.258  23.518  28.896  1.00  0.00     0.000 C 
BRANCH   6   7
ATOM      7  C   UNL     1      14.727  23.532  28.781  1.00  0.00    -0.000 C 
BRANCH   7   8
ATOM      8  C   UNL     1      14.125  22.218  29.293  1.00  0.00    -0.003 C 
ATOM      9  C   UNL     1      13.797  21.275  28.140  1.00  0.00     0.004 C 
ENDBRANCH   7   8
ENDBRANCH   6   7
ENDBRANCH   1   6
TORSDOF 5
ENDMDL
MODEL 6
REMARK VINA RESULT:    -3.936      1.131      1.502
REMARK INTER + INTRA:          -5.274
REMARK INTER:                  -5.014
REMARK INTRA:                  -0.260
REMARK UNBOUND:                -0.187
REMARK SMILES CCCCCCC(=O)[O-]
REMARK SMILES IDX 5 1 6 2 7 3 8 4 9 5 4 6 3 7 2 8 1 9
REMARK H PARENT
REMARK Flexibility Score: inf
ROOT
ATOM      1  C   UNL     1      16.799  23.186  27.542  1.00  0.00     0.006 C 
ENDROOT
BRANCH   1   2
ATOM      2  C   UNL     1      16.881  21.962  26.621  1.00  0.00     0.053 C 
BRANCH   2   3
ATOM      3  C   UNL     1      15.709  21.930  25.692  1.00  0.00     0.041 C 
ATOM      4  O   UNL     1      15.861  22.200  24.471  1.00  0.00    -0.550 OA
ATOM      5  O   UNL     1      14.439  21.650  26.182  1.00  0.00    -0.550 OA
ENDBRANCH   2   3
ENDBRANCH   1   2
BRANCH   1   6
ATOM      6  C   UNL     1      16.999  22.826  29.023  1.00  0.00     0.000 C 
BRANCH   6   7
ATOM      7  C   UNL     1      15.703  22.934  29.839  1.00  0.00    -0.000 C 
BRANCH   7   8
ATOM      8  C   UNL     1      14.683  23.835  29.132  1.00  0.00    -0.003 C 
ATOM      9  C   UNL     1      13.577  24.273  30.088  1.00  0.00     0.004 C 
ENDBRANCH   7   8
ENDBRANCH   6   7
ENDBRANCH   1   6
TORSDOF 5
ENDMDL
MODEL 7
REMARK VINA RESULT:    -3.878      1.373      2.373
REMARK INTER + INTRA:          -5.199
REMARK INTER:                  -4.979
REMARK INTRA:                  -0.220
REMARK UNBOUND:                -0.187
REMARK SMILES CCCCCCC(=O)[O-]
REMARK SMILES IDX 5 1 6 2 7 3 8 4 9 5 4 6 3 7 2 8 1 9
REMARK H PARENT
REMARK Flexibility Score: inf
ROOT
ATOM      1  C   UNL     1      16.402  23.675  27.896  1.00  0.00     0.006 C 
ENDROOT
BRANCH   1   2
ATOM      2  C   UNL     1      15.928  23.750  26.439  1.00  0.00     0.053 C 
BRANCH   2   3
ATOM      3  C   UNL     1      16.322  22.512  25.699  1.00  0.00     0.041 C 
ATOM      4  O   UNL     1      15.963  22.348  24.503  1.00  0.00    -0.550 OA
ATOM      5  O   UNL     1      17.045  21.515  26.343  1.00  0.00    -0.550 OA
ENDBRANCH   2   3
ENDBRANCH   1   2
BRANCH   1   6
ATOM      6  C   UNL     1      15.242  23.761  28.900  1.00  0.00     0.000 C 
BRANCH   6   7
ATOM      7  C   UNL     1      15.440  22.842  30.115  1.00  0.00    -0.000 C 
BRANCH   7   8
ATOM      8  C   UNL     1      16.872  22.296  30.161  1.00  0.00    -0.003 C 
ATOM      9  C   UNL     1      17.370  22.172  31.599  1.00  0.00     0.004 C 
ENDBRANCH   7   8
ENDBRANCH   6   7
ENDBRANCH   1   6
TORSDOF 5
ENDMDL
MODEL 8
REMARK VINA RESULT:    -3.758      3.042      4.225
REMARK INTER + INTRA:          -5.044
REMARK INTER:                  -4.665
REMARK INTRA:                  -0.379
REMARK UNBOUND:                -0.187
REMARK SMILES CCCCCCC(=O)[O-]
REMARK SMILES IDX 5 1 6 2 7 3 8 4 9 5 4 6 3 7 2 8 1 9
REMARK H PARENT
REMARK Flexibility Score: inf
ROOT
ATOM      1  C   UNL     1      14.383  21.518  26.628  1.00  0.00     0.006 C 
ENDROOT
BRANCH   1   2
ATOM      2  C   UNL     1      14.138  20.832  27.977  1.00  0.00     0.053 C 
BRANCH   2   3
ATOM      3  C   UNL     1      13.145  21.607  28.784  1.00  0.00     0.041 C 
ATOM      4  O   UNL     1      13.497  22.658  29.383  1.00  0.00    -0.550 OA
ATOM      5  O   UNL     1      11.841  21.144  28.914  1.00  0.00    -0.550 OA
ENDBRANCH   2   3
ENDBRANCH   1   2
BRANCH   1   6
ATOM      6  C   UNL     1      15.822  22.038  26.481  1.00  0.00     0.000 C 
BRANCH   6   7
ATOM      7  C   UNL     1      15.936  23.546  26.743  1.00  0.00    -0.000 C 
BRANCH   7   8
ATOM      8  C   UNL     1      17.105  23.852  27.687  1.00  0.00    -0.003 C 
ATOM      9  C   UNL     1      17.045  22.983  28.940  1.00  0.00     0.004 C 
ENDBRANCH   7   8
ENDBRANCH   6   7
ENDBRANCH   1   6
TORSDOF 5
ENDMDL
MODEL 9
REMARK VINA RESULT:    -3.740      3.809      5.555
REMARK INTER + INTRA:          -5.020
REMARK INTER:                  -4.903
REMARK INTRA:                  -0.117
REMARK UNBOUND:                -0.187
REMARK SMILES CCCCCCC(=O)[O-]
REMARK SMILES IDX 5 1 6 2 7 3 8 4 9 5 4 6 3 7 2 8 1 9
REMARK H PARENT
REMARK Flexibility Score: inf
ROOT
ATOM      1  C   UNL     1      14.209  23.467  30.195  1.00  0.00     0.006 C 
ENDROOT
BRANCH   1   2
ATOM      2  C   UNL     1      13.274  24.576  30.692  1.00  0.00     0.053 C 
BRANCH   2   3
ATOM      3  C   UNL     1      11.870  24.070  30.792  1.00  0.00     0.041 C 
ATOM      4  O   UNL     1      11.447  23.211  29.973  1.00  0.00    -0.550 OA
ATOM      5  O   UNL     1      11.012  24.581  31.758  1.00  0.00    -0.550 OA
ENDBRANCH   2   3
ENDBRANCH   1   2
BRANCH   1   6
ATOM      6  C   UNL     1      14.871  23.810  28.852  1.00  0.00     0.000 C 
BRANCH   6   7
ATOM      7  C   UNL     1      16.327  23.327  28.769  1.00  0.00    -0.000 C 
BRANCH   7   8
ATOM      8  C   UNL     1      16.840  23.376  27.325  1.00  0.00    -0.003 C 
ATOM      9  C   UNL     1      16.756  22.005  26.661  1.00  0.00     0.004 C 
ENDBRANCH   7   8
ENDBRANCH   6   7
ENDBRANCH   1   6
TORSDOF 5
ENDMDL
