MODEL 1
REMARK VINA RESULT:    -3.963      0.000      0.000
REMARK INTER + INTRA:          -3.963
REMARK INTER:                  -3.963
REMARK INTRA:                   0.000
REMARK UNBOUND:                 0.000
REMARK SMILES c1ccc2nc3ccccc3cc2c1
REMARK SMILES IDX 1 1 2 2 3 3 4 4 13 5 14 6 12 7 11 8 10 9 9 10 8 11 7 12 6 13
REMARK SMILES IDX 5 14
REMARK H PARENT
REMARK Flexibility Score: inf
ROOT
ATOM      1  C   UNL     1      75.613  84.886  73.531  1.00  0.00     0.001 A 
ATOM      2  C   UNL     1      76.368  85.131  74.683  1.00  0.00     0.002 A 
ATOM      3  C   UNL     1      76.418  86.416  75.233  1.00  0.00     0.029 A 
ATOM      4  C   UNL     1      75.712  87.463  74.630  1.00  0.00     0.071 A 
ATOM      5  C   UNL     1      74.949  87.219  73.465  1.00  0.00     0.001 A 
ATOM      6  C   UNL     1      74.903  85.926  72.922  1.00  0.00     0.010 A 
ATOM      7  C   UNL     1      74.248  88.279  72.875  1.00  0.00     0.020 A 
ATOM      8  C   UNL     1      74.313  89.559  73.442  1.00  0.00     0.001 A 
ATOM      9  C   UNL     1      73.622  90.640  72.875  1.00  0.00     0.010 A 
ATOM     10  C   UNL     1      73.704  91.907  73.462  1.00  0.00     0.001 A 
ATOM     11  C   UNL     1      74.473  92.101  74.615  1.00  0.00     0.002 A 
ATOM     12  C   UNL     1      75.165  91.028  75.186  1.00  0.00     0.029 A 
ATOM     13  C   UNL     1      75.089  89.757  74.608  1.00  0.00     0.071 A 
ATOM     14  N   UNL     1      75.761  88.713  75.163  1.00  0.00    -0.248 NA
ENDROOT
TORSDOF 0
ENDMDL
MODEL 2
REMARK VINA RESULT:    -3.887     17.700     18.805
REMARK INTER + INTRA:          -3.887
REMARK INTER:                  -3.887
REMARK INTRA:                   0.000
REMARK UNBOUND:                 0.000
REMARK SMILES c1ccc2nc3ccccc3cc2c1
REMARK SMILES IDX 1 1 2 2 3 3 4 4 13 5 14 6 12 7 11 8 10 9 9 10 8 11 7 12 6 13
REMARK SMILES IDX 5 14
REMARK H PARENT
REMARK Flexibility Score: inf
ROOT
ATOM      1  C   UNL     1      76.562  91.418  92.424  1.00  0.00     0.001 A 
ATOM      2  C   UNL     1      77.446  90.597  91.716  1.00  0.00     0.002 A 
ATOM      3  C   UNL     1      77.104  89.270  91.438  1.00  0.00     0.029 A 
ATOM      4  C   UNL     1      75.874  88.759  91.868  1.00  0.00     0.071 A 
ATOM      5  C   UNL     1      74.979  89.586  92.583  1.00  0.00     0.001 A 
ATOM      6  C   UNL     1      75.330  90.917  92.857  1.00  0.00     0.010 A 
ATOM      7  C   UNL     1      73.752  89.058  93.006  1.00  0.00     0.020 A 
ATOM      8  C   UNL     1      73.430  87.725  92.716  1.00  0.00     0.001 A 
ATOM      9  C   UNL     1      72.209  87.167  93.125  1.00  0.00     0.010 A 
ATOM     10  C   UNL     1      71.915  85.834  92.822  1.00  0.00     0.001 A 
ATOM     11  C   UNL     1      72.832  85.053  92.112  1.00  0.00     0.002 A 
ATOM     12  C   UNL     1      74.051  85.601  91.700  1.00  0.00     0.029 A 
ATOM     13  C   UNL     1      74.356  86.934  91.998  1.00  0.00     0.071 A 
ATOM     14  N   UNL     1      75.541  87.468  91.597  1.00  0.00    -0.248 NA
ENDROOT
TORSDOF 0
ENDMDL
MODEL 3
REMARK VINA RESULT:    -3.846     18.389     18.752
REMARK INTER + INTRA:          -3.846
REMARK INTER:                  -3.846
REMARK INTRA:                   0.000
REMARK UNBOUND:                 0.000
REMARK SMILES c1ccc2nc3ccccc3cc2c1
REMARK SMILES IDX 1 1 2 2 3 3 4 4 13 5 14 6 12 7 11 8 10 9 9 10 8 11 7 12 6 13
REMARK SMILES IDX 5 14
REMARK H PARENT
REMARK Flexibility Score: inf
ROOT
ATOM      1  C   UNL     1      71.970  85.780  93.065  1.00  0.00     0.001 A 
ATOM      2  C   UNL     1      73.010  84.897  92.755  1.00  0.00     0.002 A 
ATOM      3  C   UNL     1      74.295  85.384  92.501  1.00  0.00     0.029 A 
ATOM      4  C   UNL     1      74.546  86.759  92.556  1.00  0.00     0.071 A 
ATOM      5  C   UNL     1      73.498  87.655  92.869  1.00  0.00     0.001 A 
ATOM      6  C   UNL     1      72.211  87.157  93.124  1.00  0.00     0.010 A 
ATOM      7  C   UNL     1      73.767  89.029  92.920  1.00  0.00     0.020 A 
ATOM      8  C   UNL     1      75.063  89.495  92.661  1.00  0.00     0.001 A 
ATOM      9  C   UNL     1      75.364  90.865  92.705  1.00  0.00     0.010 A 
ATOM     10  C   UNL     1      76.666  91.302  92.443  1.00  0.00     0.001 A 
ATOM     11  C   UNL     1      77.672  90.379  92.137  1.00  0.00     0.002 A 
ATOM     12  C   UNL     1      77.380  89.012  92.091  1.00  0.00     0.029 A 
ATOM     13  C   UNL     1      76.081  88.564  92.353  1.00  0.00     0.071 A 
ATOM     14  N   UNL     1      75.797  87.234  92.309  1.00  0.00    -0.248 NA
ENDROOT
TORSDOF 0
ENDMDL
MODEL 4
REMARK VINA RESULT:    -3.807      0.362      4.839
REMARK INTER + INTRA:          -3.807
REMARK INTER:                  -3.807
REMARK INTRA:                   0.000
REMARK UNBOUND:                 0.000
REMARK SMILES c1ccc2nc3ccccc3cc2c1
REMARK SMILES IDX 1 1 2 2 3 3 4 4 13 5 14 6 12 7 11 8 10 9 9 10 8 11 7 12 6 13
REMARK SMILES IDX 5 14
REMARK H PARENT
REMARK Flexibility Score: inf
ROOT
ATOM      1  C   UNL     1      74.056  91.719  73.511  1.00  0.00     0.001 A 
ATOM      2  C   UNL     1      74.714  91.832  74.741  1.00  0.00     0.002 A 
ATOM      3  C   UNL     1      75.272  90.702  75.348  1.00  0.00     0.029 A 
ATOM      4  C   UNL     1      75.172  89.453  74.726  1.00  0.00     0.071 A 
ATOM      5  C   UNL     1      74.508  89.335  73.484  1.00  0.00     0.001 A 
ATOM      6  C   UNL     1      73.952  90.474  72.881  1.00  0.00     0.010 A 
ATOM      7  C   UNL     1      74.418  88.076  72.875  1.00  0.00     0.020 A 
ATOM      8  C   UNL     1      74.983  86.957  73.501  1.00  0.00     0.001 A 
ATOM      9  C   UNL     1      74.911  85.684  72.917  1.00  0.00     0.010 A 
ATOM     10  C   UNL     1      75.484  84.585  73.564  1.00  0.00     0.001 A 
ATOM     11  C   UNL     1      76.132  84.749  74.793  1.00  0.00     0.002 A 
ATOM     12  C   UNL     1      76.209  86.015  75.383  1.00  0.00     0.029 A 
ATOM     13  C   UNL     1      75.639  87.122  74.744  1.00  0.00     0.071 A 
ATOM     14  N   UNL     1      75.714  88.353  75.315  1.00  0.00    -0.248 NA
ENDROOT
TORSDOF 0
ENDMDL
MODEL 5
REMARK VINA RESULT:    -3.745      0.816      5.275
REMARK INTER + INTRA:          -3.745
REMARK INTER:                  -3.745
REMARK INTRA:                   0.000
REMARK UNBOUND:                 0.000
REMARK SMILES c1ccc2nc3ccccc3cc2c1
REMARK SMILES IDX 1 1 2 2 3 3 4 4 13 5 14 6 12 7 11 8 10 9 9 10 8 11 7 12 6 13
REMARK SMILES IDX 5 14
REMARK H PARENT
REMARK Flexibility Score: inf
ROOT
ATOM      1  C   UNL     1      74.614  92.021  74.655  1.00  0.00     0.001 A 
ATOM      2  C   UNL     1      73.893  91.825  73.472  1.00  0.00     0.002 A 
ATOM      3  C   UNL     1      73.807  90.550  72.904  1.00  0.00     0.029 A 
ATOM      4  C   UNL     1      74.442  89.466  73.517  1.00  0.00     0.071 A 
ATOM      5  C   UNL     1      75.172  89.660  74.713  1.00  0.00     0.001 A 
ATOM      6  C   UNL     1      75.252  90.942  75.277  1.00  0.00     0.010 A 
ATOM      7  C   UNL     1      75.802  88.563  75.314  1.00  0.00     0.020 A 
ATOM      8  C   UNL     1      75.702  87.294  74.727  1.00  0.00     0.001 A 
ATOM      9  C   UNL     1      76.320  86.175  75.304  1.00  0.00     0.010 A 
ATOM     10  C   UNL     1      76.205  84.921  74.696  1.00  0.00     0.001 A 
ATOM     11  C   UNL     1      75.473  84.777  73.513  1.00  0.00     0.002 A 
ATOM     12  C   UNL     1      74.853  85.886  72.930  1.00  0.00     0.029 A 
ATOM     13  C   UNL     1      74.962  87.146  73.530  1.00  0.00     0.071 A 
ATOM     14  N   UNL     1      74.359  88.225  72.965  1.00  0.00    -0.248 NA
ENDROOT
TORSDOF 0
ENDMDL
MODEL 6
REMARK VINA RESULT:    -3.717     18.843     19.409
REMARK INTER + INTRA:          -3.717
REMARK INTER:                  -3.717
REMARK INTRA:                   0.000
REMARK UNBOUND:                 0.000
REMARK SMILES c1ccc2nc3ccccc3cc2c1
REMARK SMILES IDX 1 1 2 2 3 3 4 4 13 5 14 6 12 7 11 8 10 9 9 10 8 11 7 12 6 13
REMARK SMILES IDX 5 14
REMARK H PARENT
REMARK Flexibility Score: inf
ROOT
ATOM      1  C   UNL     1      73.758  89.347  92.725  1.00  0.00     0.001 A 
ATOM      2  C   UNL     1      74.260  88.043  92.782  1.00  0.00     0.002 A 
ATOM      3  C   UNL     1      75.639  87.823  92.866  1.00  0.00     0.029 A 
ATOM      4  C   UNL     1      76.521  88.909  92.893  1.00  0.00     0.071 A 
ATOM      5  C   UNL     1      76.016  90.228  92.836  1.00  0.00     0.001 A 
ATOM      6  C   UNL     1      74.631  90.440  92.753  1.00  0.00     0.010 A 
ATOM      7  C   UNL     1      76.913  91.304  92.865  1.00  0.00     0.020 A 
ATOM      8  C   UNL     1      78.291  91.060  92.949  1.00  0.00     0.001 A 
ATOM      9  C   UNL     1      79.214  92.116  92.981  1.00  0.00     0.010 A 
ATOM     10  C   UNL     1      80.583  91.843  93.065  1.00  0.00     0.001 A 
ATOM     11  C   UNL     1      81.037  90.521  93.119  1.00  0.00     0.002 A 
ATOM     12  C   UNL     1      80.123  89.463  93.088  1.00  0.00     0.029 A 
ATOM     13  C   UNL     1      78.751  89.724  93.004  1.00  0.00     0.071 A 
ATOM     14  N   UNL     1      77.862  88.696  92.975  1.00  0.00    -0.248 NA
ENDROOT
TORSDOF 0
ENDMDL
MODEL 7
REMARK VINA RESULT:    -3.654      2.699      4.433
REMARK INTER + INTRA:          -3.654
REMARK INTER:                  -3.654
REMARK INTRA:                   0.000
REMARK UNBOUND:                 0.000
REMARK SMILES c1ccc2nc3ccccc3cc2c1
REMARK SMILES IDX 1 1 2 2 3 3 4 4 13 5 14 6 12 7 11 8 10 9 9 10 8 11 7 12 6 13
REMARK SMILES IDX 5 14
REMARK H PARENT
REMARK Flexibility Score: inf
ROOT
ATOM      1  C   UNL     1      77.733  89.566  79.105  1.00  0.00     0.001 A 
ATOM      2  C   UNL     1      77.470  90.921  79.339  1.00  0.00     0.002 A 
ATOM      3  C   UNL     1      76.723  91.662  78.418  1.00  0.00     0.029 A 
ATOM      4  C   UNL     1      76.236  91.050  77.257  1.00  0.00     0.071 A 
ATOM      5  C   UNL     1      76.500  89.682  77.018  1.00  0.00     0.001 A 
ATOM      6  C   UNL     1      77.249  88.945  77.949  1.00  0.00     0.010 A 
ATOM      7  C   UNL     1      76.005  89.085  75.852  1.00  0.00     0.020 A 
ATOM      8  C   UNL     1      75.259  89.846  74.942  1.00  0.00     0.001 A 
ATOM      9  C   UNL     1      74.749  89.278  73.765  1.00  0.00     0.010 A 
ATOM     10  C   UNL     1      74.008  90.062  72.875  1.00  0.00     0.001 A 
ATOM     11  C   UNL     1      73.772  91.412  73.153  1.00  0.00     0.002 A 
ATOM     12  C   UNL     1      74.277  91.987  74.324  1.00  0.00     0.029 A 
ATOM     13  C   UNL     1      75.019  91.212  75.222  1.00  0.00     0.071 A 
ATOM     14  N   UNL     1      75.510  91.770  76.361  1.00  0.00    -0.248 NA
ENDROOT
TORSDOF 0
ENDMDL
MODEL 8
REMARK VINA RESULT:    -3.476     18.448     19.207
REMARK INTER + INTRA:          -3.476
REMARK INTER:                  -3.476
REMARK INTRA:                   0.000
REMARK UNBOUND:                 0.000
REMARK SMILES c1ccc2nc3ccccc3cc2c1
REMARK SMILES IDX 1 1 2 2 3 3 4 4 13 5 14 6 12 7 11 8 10 9 9 10 8 11 7 12 6 13
REMARK SMILES IDX 5 14
REMARK H PARENT
REMARK Flexibility Score: inf
ROOT
ATOM      1  C   UNL     1      79.139  91.067  93.050  1.00  0.00     0.001 A 
ATOM      2  C   UNL     1      78.193  92.056  92.761  1.00  0.00     0.002 A 
ATOM      3  C   UNL     1      76.855  91.710  92.544  1.00  0.00     0.029 A 
ATOM      4  C   UNL     1      76.459  90.370  92.616  1.00  0.00     0.071 A 
ATOM      5  C   UNL     1      77.412  89.368  92.908  1.00  0.00     0.001 A 
ATOM      6  C   UNL     1      78.751  89.724  93.125  1.00  0.00     0.010 A 
ATOM      7  C   UNL     1      76.997  88.031  92.976  1.00  0.00     0.020 A 
ATOM      8  C   UNL     1      75.652  87.707  92.755  1.00  0.00     0.001 A 
ATOM      9  C   UNL     1      75.205  86.378  92.817  1.00  0.00     0.010 A 
ATOM     10  C   UNL     1      73.857  86.083  92.592  1.00  0.00     0.001 A 
ATOM     11  C   UNL     1      72.950  87.109  92.306  1.00  0.00     0.002 A 
ATOM     12  C   UNL     1      73.386  88.436  92.242  1.00  0.00     0.029 A 
ATOM     13  C   UNL     1      74.733  88.742  92.466  1.00  0.00     0.071 A 
ATOM     14  N   UNL     1      75.158  90.032  92.405  1.00  0.00    -0.248 NA
ENDROOT
TORSDOF 0
ENDMDL
