MODEL 1
REMARK VINA RESULT:    -1.887      0.000      0.000
REMARK INTER + INTRA:          -1.887
REMARK INTER:                  -1.887
REMARK INTRA:                   0.000
REMARK UNBOUND:                 0.000
REMARK SMILES CC(=O)[O-]
REMARK SMILES IDX 1 1 2 2 3 3 4 4
REMARK H PARENT
REMARK Flexibility Score: inf
ROOT
ATOM      1  C   UNL     1     110.298 103.876 100.485  1.00  0.00     0.063 C 
ATOM      2  C   UNL     1     110.471 104.275 101.912  1.00  0.00     0.038 C 
ATOM      3  O   UNL     1     109.593 103.974 102.763  1.00  0.00    -0.550 OA
ATOM      4  O   UNL     1     111.626 104.932 102.315  1.00  0.00    -0.550 OA
ENDROOT
TORSDOF 0
ENDMDL
MODEL 2
REMARK VINA RESULT:    -1.760      9.412      9.822
REMARK INTER + INTRA:          -1.760
REMARK INTER:                  -1.760
REMARK INTRA:                   0.000
REMARK UNBOUND:                 0.000
REMARK SMILES CC(=O)[O-]
REMARK SMILES IDX 1 1 2 2 3 3 4 4
REMARK H PARENT
REMARK Flexibility Score: inf
ROOT
ATOM      1  C   UNL     1     109.453 104.174  93.531  1.00  0.00     0.063 C 
ATOM      2  C   UNL     1     109.484 105.005  92.294  1.00  0.00     0.038 C 
ATOM      3  O   UNL     1     109.139 106.215  92.336  1.00  0.00    -0.550 OA
ATOM      4  O   UNL     1     109.946 104.460  91.102  1.00  0.00    -0.550 OA
ENDROOT
TORSDOF 0
ENDMDL
MODEL 3
REMARK VINA RESULT:    -1.731      1.192      2.013
REMARK INTER + INTRA:          -1.731
REMARK INTER:                  -1.731
REMARK INTRA:                   0.000
REMARK UNBOUND:                 0.000
REMARK SMILES CC(=O)[O-]
REMARK SMILES IDX 1 1 2 2 3 3 4 4
REMARK H PARENT
REMARK Flexibility Score: inf
ROOT
ATOM      1  C   UNL     1     110.492 103.876 101.792  1.00  0.00     0.063 C 
ATOM      2  C   UNL     1     110.894 104.563 103.053  1.00  0.00     0.038 C 
ATOM      3  O   UNL     1     111.674 105.549 103.014  1.00  0.00    -0.550 OA
ATOM      4  O   UNL     1     110.365 104.148 104.269  1.00  0.00    -0.550 OA
ENDROOT
TORSDOF 0
ENDMDL
MODEL 4
REMARK VINA RESULT:    -1.727      9.560      9.891
REMARK INTER + INTRA:          -1.727
REMARK INTER:                  -1.727
REMARK INTRA:                   0.000
REMARK UNBOUND:                 0.000
REMARK SMILES CC(=O)[O-]
REMARK SMILES IDX 1 1 2 2 3 3 4 4
REMARK H PARENT
REMARK Flexibility Score: inf
ROOT
ATOM      1  C   UNL     1     109.389 106.505  92.251  1.00  0.00     0.063 C 
ATOM      2  C   UNL     1     109.392 105.015  92.224  1.00  0.00     0.038 C 
ATOM      3  O   UNL     1     108.686 104.366  93.039  1.00  0.00    -0.550 OA
ATOM      4  O   UNL     1     110.135 104.339  91.264  1.00  0.00    -0.550 OA
ENDROOT
TORSDOF 0
ENDMDL
MODEL 5
REMARK VINA RESULT:    -1.723      7.003      7.544
REMARK INTER + INTRA:          -1.723
REMARK INTER:                  -1.723
REMARK INTRA:                   0.000
REMARK UNBOUND:                 0.000
REMARK SMILES CC(=O)[O-]
REMARK SMILES IDX 1 1 2 2 3 3 4 4
REMARK H PARENT
REMARK Flexibility Score: inf
ROOT
ATOM      1  C   UNL     1     111.762 103.875  96.051  1.00  0.00     0.063 C 
ATOM      2  C   UNL     1     111.234 104.149  94.683  1.00  0.00     0.038 C 
ATOM      3  O   UNL     1     112.024 104.239  93.707  1.00  0.00    -0.550 OA
ATOM      4  O   UNL     1     109.865 104.251  94.475  1.00  0.00    -0.550 OA
ENDROOT
TORSDOF 0
ENDMDL
MODEL 6
REMARK VINA RESULT:    -1.720      6.365      6.728
REMARK INTER + INTRA:          -1.720
REMARK INTER:                  -1.720
REMARK INTRA:                   0.000
REMARK UNBOUND:                 0.000
REMARK SMILES CC(=O)[O-]
REMARK SMILES IDX 1 1 2 2 3 3 4 4
REMARK H PARENT
REMARK Flexibility Score: inf
ROOT
ATOM      1  C   UNL     1     111.792 103.921  95.876  1.00  0.00     0.063 C 
ATOM      2  C   UNL     1     110.706 104.780  95.324  1.00  0.00     0.038 C 
ATOM      3  O   UNL     1     109.874 104.301  94.510  1.00  0.00    -0.550 OA
ATOM      4  O   UNL     1     110.578 106.097  95.747  1.00  0.00    -0.550 OA
ENDROOT
TORSDOF 0
ENDMDL
MODEL 7
REMARK VINA RESULT:    -1.712      4.345      4.724
REMARK INTER + INTRA:          -1.712
REMARK INTER:                  -1.712
REMARK INTRA:                   0.000
REMARK UNBOUND:                 0.000
REMARK SMILES CC(=O)[O-]
REMARK SMILES IDX 1 1 2 2 3 3 4 4
REMARK H PARENT
REMARK Flexibility Score: inf
ROOT
ATOM      1  C   UNL     1     110.319 105.018  99.037  1.00  0.00     0.063 C 
ATOM      2  C   UNL     1     109.956 105.922  97.909  1.00  0.00     0.038 C 
ATOM      3  O   UNL     1     110.195 105.578  96.722  1.00  0.00    -0.550 OA
ATOM      4  O   UNL     1     109.305 107.123  98.162  1.00  0.00    -0.550 OA
ENDROOT
TORSDOF 0
ENDMDL
MODEL 8
REMARK VINA RESULT:    -1.707      4.694      4.934
REMARK INTER + INTRA:          -1.707
REMARK INTER:                  -1.707
REMARK INTRA:                   0.000
REMARK UNBOUND:                 0.000
REMARK SMILES CC(=O)[O-]
REMARK SMILES IDX 1 1 2 2 3 3 4 4
REMARK H PARENT
REMARK Flexibility Score: inf
ROOT
ATOM      1  C   UNL     1     109.870 105.827  98.376  1.00  0.00     0.063 C 
ATOM      2  C   UNL     1     109.513 107.274  98.349  1.00  0.00     0.038 C 
ATOM      3  O   UNL     1     109.140 107.853  99.403  1.00  0.00    -0.550 OA
ATOM      4  O   UNL     1     109.644 108.001  97.172  1.00  0.00    -0.550 OA
ENDROOT
TORSDOF 0
ENDMDL
MODEL 9
REMARK VINA RESULT:    -1.689     21.906     22.368
REMARK INTER + INTRA:          -1.689
REMARK INTER:                  -1.689
REMARK INTRA:                   0.000
REMARK UNBOUND:                 0.000
REMARK SMILES CC(=O)[O-]
REMARK SMILES IDX 1 1 2 2 3 3 4 4
REMARK H PARENT
REMARK Flexibility Score: inf
ROOT
ATOM      1  C   UNL     1     119.047 124.125  92.821  1.00  0.00     0.063 C 
ATOM      2  C   UNL     1     119.143 122.639  92.749  1.00  0.00     0.038 C 
ATOM      3  O   UNL     1     119.046 121.947  93.797  1.00  0.00    -0.550 OA
ATOM      4  O   UNL     1     119.287 122.011  91.518  1.00  0.00    -0.550 OA
ENDROOT
TORSDOF 0
ENDMDL
