MODEL 1
REMARK VINA RESULT:    -4.088      0.000      0.000
REMARK INTER + INTRA:         -13.508
REMARK INTER:                  -9.347
REMARK INTRA:                  -4.161
REMARK UNBOUND:                -4.161
REMARK SMILES CCCCCCCCCCCCCCCCCCCCCCCC(=O)[O-]
REMARK SMILES IDX 13 1 14 2 15 3 16 4 17 5 18 6 19 7 20 8 21 9 22 10 23 11
REMARK SMILES IDX 24 12 25 13 26 14 12 15 11 16 10 17 9 18 8 19 7 20 6 21 5 22
REMARK SMILES IDX 4 23 3 24 2 25 1 26
REMARK H PARENT
REMARK Flexibility Score: inf
ROOT
ATOM      1  C   UNL     1      23.133 -12.496   0.889  1.00  0.00     0.000 C 
ENDROOT
BRANCH   1   2
ATOM      2  C   UNL     1      23.980 -12.487   2.171  1.00  0.00     0.000 C 
BRANCH   2   3
ATOM      3  C   UNL     1      25.481 -12.323   1.890  1.00  0.00     0.000 C 
BRANCH   3   4
ATOM      4  C   UNL     1      26.194 -13.685   1.901  1.00  0.00     0.000 C 
BRANCH   4   5
ATOM      5  C   UNL     1      27.411 -13.714   2.839  1.00  0.00     0.000 C 
BRANCH   5   6
ATOM      6  C   UNL     1      28.092 -12.351   3.062  1.00  0.00     0.000 C 
BRANCH   6   7
ATOM      7  C   UNL     1      28.607 -12.138   4.501  1.00  0.00     0.000 C 
BRANCH   7   8
ATOM      8  C   UNL     1      27.488 -12.274   5.549  1.00  0.00     0.000 C 
BRANCH   8   9
ATOM      9  C   UNL     1      26.533 -11.069   5.555  1.00  0.00     0.000 C 
BRANCH   9  10
ATOM     10  C   UNL     1      25.627 -11.008   6.806  1.00  0.00     0.006 C 
BRANCH  10  11
ATOM     11  C   UNL     1      25.454  -9.584   7.358  1.00  0.00     0.053 C 
BRANCH  11  12
ATOM     12  C   UNL     1      24.192  -9.448   8.156  1.00  0.00     0.041 C 
ATOM     13  O   UNL     1      23.730 -10.437   8.783  1.00  0.00    -0.550 OA
ATOM     14  O   UNL     1      23.508  -8.239   8.180  1.00  0.00    -0.550 OA
ENDBRANCH  11  12
ENDBRANCH  10  11
ENDBRANCH   9  10
ENDBRANCH   8   9
ENDBRANCH   7   8
ENDBRANCH   6   7
ENDBRANCH   5   6
ENDBRANCH   4   5
ENDBRANCH   3   4
ENDBRANCH   2   3
ENDBRANCH   1   2
BRANCH   1  15
ATOM     15  C   UNL     1      21.907 -13.415   0.990  1.00  0.00     0.000 C 
BRANCH  15  16
ATOM     16  C   UNL     1      21.969 -14.272   2.259  1.00  0.00     0.000 C 
BRANCH  16  17
ATOM     17  C   UNL     1      21.501 -15.708   1.980  1.00  0.00     0.000 C 
BRANCH  17  18
ATOM     18  C   UNL     1      22.563 -16.761   2.347  1.00  0.00    -0.000 C 
BRANCH  18  19
ATOM     19  C   UNL     1      23.852 -16.192   2.973  1.00  0.00    -0.000 C 
BRANCH  19  20
ATOM     20  C   UNL     1      24.363 -16.947   4.215  1.00  0.00    -0.000 C 
BRANCH  20  21
ATOM     21  C   UNL     1      24.914 -16.052   5.343  1.00  0.00    -0.000 C 
BRANCH  21  22
ATOM     22  C   UNL     1      24.618 -14.550   5.179  1.00  0.00    -0.000 C 
BRANCH  22  23
ATOM     23  C   UNL     1      23.652 -14.014   6.249  1.00  0.00    -0.000 C 
BRANCH  23  24
ATOM     24  C   UNL     1      22.175 -14.268   5.898  1.00  0.00    -0.000 C 
BRANCH  24  25
ATOM     25  C   UNL     1      21.573 -15.538   6.524  1.00  0.00    -0.003 C 
ATOM     26  C   UNL     1      20.798 -16.391   5.519  1.00  0.00     0.004 C 
ENDBRANCH  24  25
ENDBRANCH  23  24
ENDBRANCH  22  23
ENDBRANCH  21  22
ENDBRANCH  20  21
ENDBRANCH  19  20
ENDBRANCH  18  19
ENDBRANCH  17  18
ENDBRANCH  16  17
ENDBRANCH  15  16
ENDBRANCH   1  15
TORSDOF 22
ENDMDL
MODEL 2
REMARK VINA RESULT:    -3.840      1.906      5.378
REMARK INTER + INTRA:         -12.940
REMARK INTER:                 -10.032
REMARK INTRA:                  -2.908
REMARK UNBOUND:                -4.161
REMARK SMILES CCCCCCCCCCCCCCCCCCCCCCCC(=O)[O-]
REMARK SMILES IDX 13 1 14 2 15 3 16 4 17 5 18 6 19 7 20 8 21 9 22 10 23 11
REMARK SMILES IDX 24 12 25 13 26 14 12 15 11 16 10 17 9 18 8 19 7 20 6 21 5 22
REMARK SMILES IDX 4 23 3 24 2 25 1 26
REMARK H PARENT
REMARK Flexibility Score: inf
ROOT
ATOM      1  C   UNL     1      21.874 -13.961   1.949  1.00  0.00     0.000 C 
ENDROOT
BRANCH   1   2
ATOM      2  C   UNL     1      21.424 -15.319   1.389  1.00  0.00     0.000 C 
BRANCH   2   3
ATOM      3  C   UNL     1      22.113 -16.505   2.080  1.00  0.00     0.000 C 
BRANCH   3   4
ATOM      4  C   UNL     1      23.465 -16.817   1.419  1.00  0.00     0.000 C 
BRANCH   4   5
ATOM      5  C   UNL     1      24.613 -16.933   2.434  1.00  0.00     0.000 C 
BRANCH   5   6
ATOM      6  C   UNL     1      24.548 -15.936   3.606  1.00  0.00     0.000 C 
BRANCH   6   7
ATOM      7  C   UNL     1      24.629 -16.601   4.996  1.00  0.00     0.000 C 
BRANCH   7   8
ATOM      8  C   UNL     1      23.335 -17.348   5.364  1.00  0.00     0.000 C 
BRANCH   8   9
ATOM      9  C   UNL     1      22.227 -16.405   5.859  1.00  0.00     0.000 C 
BRANCH   9  10
ATOM     10  C   UNL     1      22.762 -15.077   6.441  1.00  0.00     0.006 C 
BRANCH  10  11
ATOM     11  C   UNL     1      21.651 -14.062   6.753  1.00  0.00     0.053 C 
BRANCH  11  12
ATOM     12  C   UNL     1      21.481 -13.861   8.228  1.00  0.00     0.041 C 
ATOM     13  O   UNL     1      21.555 -14.843   9.013  1.00  0.00    -0.550 OA
ATOM     14  O   UNL     1      21.207 -12.597   8.734  1.00  0.00    -0.550 OA
ENDBRANCH  11  12
ENDBRANCH  10  11
ENDBRANCH   9  10
ENDBRANCH   8   9
ENDBRANCH   7   8
ENDBRANCH   6   7
ENDBRANCH   5   6
ENDBRANCH   4   5
ENDBRANCH   3   4
ENDBRANCH   2   3
ENDBRANCH   1   2
BRANCH   1  15
ATOM     15  C   UNL     1      22.469 -13.039   0.875  1.00  0.00     0.000 C 
BRANCH  15  16
ATOM     16  C   UNL     1      23.913 -12.658   1.222  1.00  0.00     0.000 C 
BRANCH  16  17
ATOM     17  C   UNL     1      24.096 -12.506   2.739  1.00  0.00     0.000 C 
BRANCH  17  18
ATOM     18  C   UNL     1      24.928 -11.267   3.117  1.00  0.00    -0.000 C 
BRANCH  18  19
ATOM     19  C   UNL     1      25.882 -11.464   4.311  1.00  0.00    -0.000 C 
BRANCH  19  20
ATOM     20  C   UNL     1      25.290 -12.251   5.496  1.00  0.00    -0.000 C 
BRANCH  20  21
ATOM     21  C   UNL     1      25.695 -11.734   6.891  1.00  0.00    -0.000 C 
BRANCH  21  22
ATOM     22  C   UNL     1      24.541 -11.637   7.905  1.00  0.00    -0.000 C 
BRANCH  22  23
ATOM     23  C   UNL     1      24.457 -10.256   8.579  1.00  0.00    -0.000 C 
BRANCH  23  24
ATOM     24  C   UNL     1      24.633  -9.096   7.582  1.00  0.00    -0.000 C 
BRANCH  24  25
ATOM     25  C   UNL     1      23.575  -7.984   7.695  1.00  0.00    -0.003 C 
ATOM     26  C   UNL     1      24.100  -6.613   7.269  1.00  0.00     0.004 C 
ENDBRANCH  24  25
ENDBRANCH  23  24
ENDBRANCH  22  23
ENDBRANCH  21  22
ENDBRANCH  20  21
ENDBRANCH  19  20
ENDBRANCH  18  19
ENDBRANCH  17  18
ENDBRANCH  16  17
ENDBRANCH  15  16
ENDBRANCH   1  15
TORSDOF 22
ENDMDL
MODEL 3
REMARK VINA RESULT:    -3.813      1.690      5.652
REMARK INTER + INTRA:         -12.879
REMARK INTER:                  -9.130
REMARK INTRA:                  -3.750
REMARK UNBOUND:                -4.161
REMARK SMILES CCCCCCCCCCCCCCCCCCCCCCCC(=O)[O-]
REMARK SMILES IDX 13 1 14 2 15 3 16 4 17 5 18 6 19 7 20 8 21 9 22 10 23 11
REMARK SMILES IDX 24 12 25 13 26 14 12 15 11 16 10 17 9 18 8 19 7 20 6 21 5 22
REMARK SMILES IDX 4 23 3 24 2 25 1 26
REMARK H PARENT
REMARK Flexibility Score: inf
ROOT
ATOM      1  C   UNL     1      24.094 -13.245   3.538  1.00  0.00     0.000 C 
ENDROOT
BRANCH   1   2
ATOM      2  C   UNL     1      24.205 -12.517   2.189  1.00  0.00     0.000 C 
BRANCH   2   3
ATOM      3  C   UNL     1      23.001 -12.777   1.273  1.00  0.00     0.000 C 
BRANCH   3   4
ATOM      4  C   UNL     1      21.958 -13.662   1.973  1.00  0.00     0.000 C 
BRANCH   4   5
ATOM      5  C   UNL     1      21.731 -15.001   1.252  1.00  0.00     0.000 C 
BRANCH   5   6
ATOM      6  C   UNL     1      21.473 -16.203   2.180  1.00  0.00     0.000 C 
BRANCH   6   7
ATOM      7  C   UNL     1      22.745 -16.742   2.870  1.00  0.00     0.000 C 
BRANCH   7   8
ATOM      8  C   UNL     1      22.618 -16.753   4.404  1.00  0.00     0.000 C 
BRANCH   8   9
ATOM      9  C   UNL     1      21.434 -15.911   4.906  1.00  0.00     0.000 C 
BRANCH   9  10
ATOM     10  C   UNL     1      21.476 -15.634   6.426  1.00  0.00     0.006 C 
BRANCH  10  11
ATOM     11  C   UNL     1      21.718 -14.155   6.765  1.00  0.00     0.053 C 
BRANCH  11  12
ATOM     12  C   UNL     1      21.559 -13.888   8.231  1.00  0.00     0.041 C 
ATOM     13  O   UNL     1      21.326 -12.720   8.640  1.00  0.00    -0.550 OA
ATOM     14  O   UNL     1      21.701 -14.921   9.149  1.00  0.00    -0.550 OA
ENDBRANCH  11  12
ENDBRANCH  10  11
ENDBRANCH   9  10
ENDBRANCH   8   9
ENDBRANCH   7   8
ENDBRANCH   6   7
ENDBRANCH   5   6
ENDBRANCH   4   5
ENDBRANCH   3   4
ENDBRANCH   2   3
ENDBRANCH   1   2
BRANCH   1  15
ATOM     15  C   UNL     1      25.296 -14.156   3.826  1.00  0.00     0.000 C 
BRANCH  15  16
ATOM     16  C   UNL     1      25.846 -14.761   2.529  1.00  0.00     0.000 C 
BRANCH  16  17
ATOM     17  C   UNL     1      27.322 -14.386   2.326  1.00  0.00     0.000 C 
BRANCH  17  18
ATOM     18  C   UNL     1      27.789 -13.274   3.282  1.00  0.00    -0.000 C 
BRANCH  18  19
ATOM     19  C   UNL     1      28.418 -12.047   2.592  1.00  0.00    -0.000 C 
BRANCH  19  20
ATOM     20  C   UNL     1      27.913 -10.683   3.100  1.00  0.00    -0.000 C 
BRANCH  20  21
ATOM     21  C   UNL     1      27.527 -10.644   4.593  1.00  0.00    -0.000 C 
BRANCH  21  22
ATOM     22  C   UNL     1      26.550  -9.518   4.979  1.00  0.00    -0.000 C 
BRANCH  22  23
ATOM     23  C   UNL     1      25.676  -9.880   6.192  1.00  0.00    -0.000 C 
BRANCH  23  24
ATOM     24  C   UNL     1      25.500 -11.399   6.366  1.00  0.00    -0.000 C 
BRANCH  24  25
ATOM     25  C   UNL     1      24.884 -11.827   7.710  1.00  0.00    -0.003 C 
ATOM     26  C   UNL     1      24.174 -10.682   8.434  1.00  0.00     0.004 C 
ENDBRANCH  24  25
ENDBRANCH  23  24
ENDBRANCH  22  23
ENDBRANCH  21  22
ENDBRANCH  20  21
ENDBRANCH  19  20
ENDBRANCH  18  19
ENDBRANCH  17  18
ENDBRANCH  16  17
ENDBRANCH  15  16
ENDBRANCH   1  15
TORSDOF 22
ENDMDL
MODEL 4
REMARK VINA RESULT:    -3.805      1.994      3.311
REMARK INTER + INTRA:         -12.861
REMARK INTER:                  -9.718
REMARK INTRA:                  -3.143
REMARK UNBOUND:                -4.161
REMARK SMILES CCCCCCCCCCCCCCCCCCCCCCCC(=O)[O-]
REMARK SMILES IDX 13 1 14 2 15 3 16 4 17 5 18 6 19 7 20 8 21 9 22 10 23 11
REMARK SMILES IDX 24 12 25 13 26 14 12 15 11 16 10 17 9 18 8 19 7 20 6 21 5 22
REMARK SMILES IDX 4 23 3 24 2 25 1 26
REMARK H PARENT
REMARK Flexibility Score: inf
ROOT
ATOM      1  C   UNL     1      24.083 -13.195   3.027  1.00  0.00     0.000 C 
ENDROOT
BRANCH   1   2
ATOM      2  C   UNL     1      25.542 -13.667   2.941  1.00  0.00     0.000 C 
BRANCH   2   3
ATOM      3  C   UNL     1      26.190 -13.845   4.323  1.00  0.00     0.000 C 
BRANCH   3   4
ATOM      4  C   UNL     1      25.452 -13.019   5.387  1.00  0.00     0.000 C 
BRANCH   4   5
ATOM      5  C   UNL     1      26.302 -11.864   5.942  1.00  0.00     0.000 C 
BRANCH   5   6
ATOM      6  C   UNL     1      25.571 -10.513   6.049  1.00  0.00     0.000 C 
BRANCH   6   7
ATOM      7  C   UNL     1      25.798  -9.786   7.392  1.00  0.00     0.000 C 
BRANCH   7   8
ATOM      8  C   UNL     1      24.543  -9.796   8.283  1.00  0.00     0.000 C 
BRANCH   8   9
ATOM      9  C   UNL     1      23.694  -8.524   8.124  1.00  0.00     0.000 C 
BRANCH   9  10
ATOM     10  C   UNL     1      24.293  -7.503   7.130  1.00  0.00     0.006 C 
BRANCH  10  11
ATOM     11  C   UNL     1      23.606  -6.130   7.186  1.00  0.00     0.053 C 
BRANCH  11  12
ATOM     12  C   UNL     1      24.592  -5.010   7.045  1.00  0.00     0.041 C 
ATOM     13  O   UNL     1      24.488  -3.981   7.764  1.00  0.00    -0.550 OA
ATOM     14  O   UNL     1      25.605  -5.086   6.098  1.00  0.00    -0.550 OA
ENDBRANCH  11  12
ENDBRANCH  10  11
ENDBRANCH   9  10
ENDBRANCH   8   9
ENDBRANCH   7   8
ENDBRANCH   6   7
ENDBRANCH   5   6
ENDBRANCH   4   5
ENDBRANCH   3   4
ENDBRANCH   2   3
ENDBRANCH   1   2
BRANCH   1  15
ATOM     15  C   UNL     1      23.244 -13.626   1.815  1.00  0.00     0.000 C 
BRANCH  15  16
ATOM     16  C   UNL     1      21.825 -14.019   2.244  1.00  0.00     0.000 C 
BRANCH  16  17
ATOM     17  C   UNL     1      21.526 -15.483   1.891  1.00  0.00     0.000 C 
BRANCH  17  18
ATOM     18  C   UNL     1      22.798 -16.292   1.582  1.00  0.00    -0.000 C 
BRANCH  18  19
ATOM     19  C   UNL     1      23.095 -17.439   2.569  1.00  0.00    -0.000 C 
BRANCH  19  20
ATOM     20  C   UNL     1      24.190 -17.137   3.610  1.00  0.00    -0.000 C 
BRANCH  20  21
ATOM     21  C   UNL     1      23.696 -16.443   4.896  1.00  0.00    -0.000 C 
BRANCH  21  22
ATOM     22  C   UNL     1      22.348 -16.958   5.431  1.00  0.00    -0.000 C 
BRANCH  22  23
ATOM     23  C   UNL     1      21.323 -15.831   5.643  1.00  0.00    -0.000 C 
BRANCH  23  24
ATOM     24  C   UNL     1      21.985 -14.460   5.872  1.00  0.00    -0.000 C 
BRANCH  24  25
ATOM     25  C   UNL     1      21.925 -13.951   7.323  1.00  0.00    -0.003 C 
ATOM     26  C   UNL     1      21.639 -15.061   8.336  1.00  0.00     0.004 C 
ENDBRANCH  24  25
ENDBRANCH  23  24
ENDBRANCH  22  23
ENDBRANCH  21  22
ENDBRANCH  20  21
ENDBRANCH  19  20
ENDBRANCH  18  19
ENDBRANCH  17  18
ENDBRANCH  16  17
ENDBRANCH  15  16
ENDBRANCH   1  15
TORSDOF 22
ENDMDL
MODEL 5
REMARK VINA RESULT:    -3.798      1.861      5.821
REMARK INTER + INTRA:         -12.844
REMARK INTER:                  -9.002
REMARK INTRA:                  -3.842
REMARK UNBOUND:                -4.161
REMARK SMILES CCCCCCCCCCCCCCCCCCCCCCCC(=O)[O-]
REMARK SMILES IDX 13 1 14 2 15 3 16 4 17 5 18 6 19 7 20 8 21 9 22 10 23 11
REMARK SMILES IDX 24 12 25 13 26 14 12 15 11 16 10 17 9 18 8 19 7 20 6 21 5 22
REMARK SMILES IDX 4 23 3 24 2 25 1 26
REMARK H PARENT
REMARK Flexibility Score: inf
ROOT
ATOM      1  C   UNL     1      23.757 -12.216   1.754  1.00  0.00     0.000 C 
ENDROOT
BRANCH   1   2
ATOM      2  C   UNL     1      22.749 -13.150   1.067  1.00  0.00     0.000 C 
BRANCH   2   3
ATOM      3  C   UNL     1      21.875 -13.921   2.068  1.00  0.00     0.000 C 
BRANCH   3   4
ATOM      4  C   UNL     1      21.721 -15.390   1.646  1.00  0.00     0.000 C 
BRANCH   4   5
ATOM      5  C   UNL     1      23.048 -16.165   1.688  1.00  0.00     0.000 C 
BRANCH   5   6
ATOM      6  C   UNL     1      23.072 -17.360   2.661  1.00  0.00     0.000 C 
BRANCH   6   7
ATOM      7  C   UNL     1      24.065 -17.191   3.831  1.00  0.00     0.000 C 
BRANCH   7   8
ATOM      8  C   UNL     1      23.700 -16.006   4.741  1.00  0.00     0.000 C 
BRANCH   8   9
ATOM      9  C   UNL     1      22.316 -16.163   5.392  1.00  0.00     0.000 C 
BRANCH   9  10
ATOM     10  C   UNL     1      21.660 -14.817   5.779  1.00  0.00     0.006 C 
BRANCH  10  11
ATOM     11  C   UNL     1      22.446 -14.049   6.853  1.00  0.00     0.053 C 
BRANCH  11  12
ATOM     12  C   UNL     1      21.729 -14.045   8.169  1.00  0.00     0.041 C 
ATOM     13  O   UNL     1      21.584 -15.117   8.814  1.00  0.00    -0.550 OA
ATOM     14  O   UNL     1      21.192 -12.865   8.669  1.00  0.00    -0.550 OA
ENDBRANCH  11  12
ENDBRANCH  10  11
ENDBRANCH   9  10
ENDBRANCH   8   9
ENDBRANCH   7   8
ENDBRANCH   6   7
ENDBRANCH   5   6
ENDBRANCH   4   5
ENDBRANCH   3   4
ENDBRANCH   2   3
ENDBRANCH   1   2
BRANCH   1  15
ATOM     15  C   UNL     1      24.252 -12.759   3.103  1.00  0.00     0.000 C 
BRANCH  15  16
ATOM     16  C   UNL     1      25.710 -13.221   3.003  1.00  0.00     0.000 C 
BRANCH  16  17
ATOM     17  C   UNL     1      26.394 -13.193   4.379  1.00  0.00     0.000 C 
BRANCH  17  18
ATOM     18  C   UNL     1      25.410 -12.900   5.526  1.00  0.00    -0.000 C 
BRANCH  18  19
ATOM     19  C   UNL     1      25.950 -11.959   6.621  1.00  0.00    -0.000 C 
BRANCH  19  20
ATOM     20  C   UNL     1      24.885 -11.400   7.584  1.00  0.00    -0.000 C 
BRANCH  20  21
ATOM     21  C   UNL     1      25.069  -9.918   7.972  1.00  0.00    -0.000 C 
BRANCH  21  22
ATOM     22  C   UNL     1      26.179  -9.181   7.201  1.00  0.00    -0.000 C 
BRANCH  22  23
ATOM     23  C   UNL     1      25.688  -7.870   6.563  1.00  0.00    -0.000 C 
BRANCH  23  24
ATOM     24  C   UNL     1      25.900  -7.835   5.039  1.00  0.00    -0.000 C 
BRANCH  24  25
ATOM     25  C   UNL     1      25.710  -9.188   4.331  1.00  0.00    -0.003 C 
ATOM     26  C   UNL     1      26.951  -9.639   3.560  1.00  0.00     0.004 C 
ENDBRANCH  24  25
ENDBRANCH  23  24
ENDBRANCH  22  23
ENDBRANCH  21  22
ENDBRANCH  20  21
ENDBRANCH  19  20
ENDBRANCH  18  19
ENDBRANCH  17  18
ENDBRANCH  16  17
ENDBRANCH  15  16
ENDBRANCH   1  15
TORSDOF 22
ENDMDL
MODEL 6
REMARK VINA RESULT:    -3.782      1.939      5.775
REMARK INTER + INTRA:         -12.808
REMARK INTER:                  -9.123
REMARK INTRA:                  -3.686
REMARK UNBOUND:                -4.161
REMARK SMILES CCCCCCCCCCCCCCCCCCCCCCCC(=O)[O-]
REMARK SMILES IDX 13 1 14 2 15 3 16 4 17 5 18 6 19 7 20 8 21 9 22 10 23 11
REMARK SMILES IDX 24 12 25 13 26 14 12 15 11 16 10 17 9 18 8 19 7 20 6 21 5 22
REMARK SMILES IDX 4 23 3 24 2 25 1 26
REMARK H PARENT
REMARK Flexibility Score: inf
ROOT
ATOM      1  C   UNL     1      23.131 -13.302   2.411  1.00  0.00     0.000 C 
ENDROOT
BRANCH   1   2
ATOM      2  C   UNL     1      21.856 -14.135   2.213  1.00  0.00     0.000 C 
BRANCH   2   3
ATOM      3  C   UNL     1      22.039 -15.269   1.193  1.00  0.00     0.000 C 
BRANCH   3   4
ATOM      4  C   UNL     1      21.714 -16.632   1.822  1.00  0.00     0.000 C 
BRANCH   4   5
ATOM      5  C   UNL     1      22.958 -17.513   2.014  1.00  0.00     0.000 C 
BRANCH   5   6
ATOM      6  C   UNL     1      23.322 -17.814   3.481  1.00  0.00     0.000 C 
BRANCH   6   7
ATOM      7  C   UNL     1      24.113 -16.684   4.172  1.00  0.00     0.000 C 
BRANCH   7   8
ATOM      8  C   UNL     1      23.538 -16.329   5.555  1.00  0.00     0.000 C 
BRANCH   8   9
ATOM      9  C   UNL     1      22.038 -15.997   5.505  1.00  0.00     0.000 C 
BRANCH   9  10
ATOM     10  C   UNL     1      21.721 -14.523   5.847  1.00  0.00     0.006 C 
BRANCH  10  11
ATOM     11  C   UNL     1      22.616 -13.954   6.958  1.00  0.00     0.053 C 
BRANCH  11  12
ATOM     12  C   UNL     1      21.892 -13.874   8.268  1.00  0.00     0.041 C 
ATOM     13  O   UNL     1      21.480 -12.764   8.697  1.00  0.00    -0.550 OA
ATOM     14  O   UNL     1      21.701 -15.018   9.031  1.00  0.00    -0.550 OA
ENDBRANCH  11  12
ENDBRANCH  10  11
ENDBRANCH   9  10
ENDBRANCH   8   9
ENDBRANCH   7   8
ENDBRANCH   6   7
ENDBRANCH   5   6
ENDBRANCH   4   5
ENDBRANCH   3   4
ENDBRANCH   2   3
ENDBRANCH   1   2
BRANCH   1  15
ATOM     15  C   UNL     1      24.380 -13.970   1.816  1.00  0.00     0.000 C 
BRANCH  15  16
ATOM     16  C   UNL     1      25.614 -13.690   2.683  1.00  0.00     0.000 C 
BRANCH  16  17
ATOM     17  C   UNL     1      25.233 -12.912   3.952  1.00  0.00     0.000 C 
BRANCH  17  18
ATOM     18  C   UNL     1      25.840 -11.498   3.987  1.00  0.00    -0.000 C 
BRANCH  18  19
ATOM     19  C   UNL     1      25.148 -10.471   3.069  1.00  0.00    -0.000 C 
BRANCH  19  20
ATOM     20  C   UNL     1      25.576  -9.007   3.289  1.00  0.00    -0.000 C 
BRANCH  20  21
ATOM     21  C   UNL     1      26.198  -8.709   4.669  1.00  0.00    -0.000 C 
BRANCH  21  22
ATOM     22  C   UNL     1      25.405  -7.714   5.534  1.00  0.00    -0.000 C 
BRANCH  22  23
ATOM     23  C   UNL     1      25.200  -8.212   6.975  1.00  0.00    -0.000 C 
BRANCH  23  24
ATOM     24  C   UNL     1      25.919  -9.544   7.252  1.00  0.00    -0.000 C 
BRANCH  24  25
ATOM     25  C   UNL     1      25.021 -10.652   7.832  1.00  0.00    -0.003 C 
ATOM     26  C   UNL     1      23.778 -10.108   8.536  1.00  0.00     0.004 C 
ENDBRANCH  24  25
ENDBRANCH  23  24
ENDBRANCH  22  23
ENDBRANCH  21  22
ENDBRANCH  20  21
ENDBRANCH  19  20
ENDBRANCH  18  19
ENDBRANCH  17  18
ENDBRANCH  16  17
ENDBRANCH  15  16
ENDBRANCH   1  15
TORSDOF 22
ENDMDL
MODEL 7
REMARK VINA RESULT:    -3.750      1.882      5.580
REMARK INTER + INTRA:         -12.734
REMARK INTER:                  -8.707
REMARK INTRA:                  -4.027
REMARK UNBOUND:                -4.161
REMARK SMILES CCCCCCCCCCCCCCCCCCCCCCCC(=O)[O-]
REMARK SMILES IDX 13 1 14 2 15 3 16 4 17 5 18 6 19 7 20 8 21 9 22 10 23 11
REMARK SMILES IDX 24 12 25 13 26 14 12 15 11 16 10 17 9 18 8 19 7 20 6 21 5 22
REMARK SMILES IDX 4 23 3 24 2 25 1 26
REMARK H PARENT
REMARK Flexibility Score: inf
ROOT
ATOM      1  C   UNL     1      23.803 -12.452   2.131  1.00  0.00     0.000 C 
ENDROOT
BRANCH   1   2
ATOM      2  C   UNL     1      22.959 -12.761   0.884  1.00  0.00     0.000 C 
BRANCH   2   3
ATOM      3  C   UNL     1      21.760 -13.672   1.190  1.00  0.00     0.000 C 
BRANCH   3   4
ATOM      4  C   UNL     1      21.957 -14.410   2.524  1.00  0.00     0.000 C 
BRANCH   4   5
ATOM      5  C   UNL     1      21.668 -15.916   2.420  1.00  0.00     0.000 C 
BRANCH   5   6
ATOM      6  C   UNL     1      22.851 -16.831   2.788  1.00  0.00     0.000 C 
BRANCH   6   7
ATOM      7  C   UNL     1      24.187 -16.081   2.972  1.00  0.00     0.000 C 
BRANCH   7   8
ATOM      8  C   UNL     1      24.618 -16.007   4.447  1.00  0.00     0.000 C 
BRANCH   8   9
ATOM      9  C   UNL     1      24.644 -14.568   4.985  1.00  0.00     0.000 C 
BRANCH   9  10
ATOM     10  C   UNL     1      23.529 -14.275   6.015  1.00  0.00     0.006 C 
BRANCH  10  11
ATOM     11  C   UNL     1      22.920 -15.546   6.625  1.00  0.00     0.053 C 
BRANCH  11  12
ATOM     12  C   UNL     1      21.422 -15.493   6.642  1.00  0.00     0.041 C 
ATOM     13  O   UNL     1      20.758 -16.087   5.753  1.00  0.00    -0.550 OA
ATOM     14  O   UNL     1      20.760 -14.759   7.618  1.00  0.00    -0.550 OA
ENDBRANCH  11  12
ENDBRANCH  10  11
ENDBRANCH   9  10
ENDBRANCH   8   9
ENDBRANCH   7   8
ENDBRANCH   6   7
ENDBRANCH   5   6
ENDBRANCH   4   5
ENDBRANCH   3   4
ENDBRANCH   2   3
ENDBRANCH   1   2
BRANCH   1  15
ATOM     15  C   UNL     1      25.253 -12.075   1.792  1.00  0.00     0.000 C 
BRANCH  15  16
ATOM     16  C   UNL     1      25.995 -13.265   1.172  1.00  0.00     0.000 C 
BRANCH  16  17
ATOM     17  C   UNL     1      26.948 -13.913   2.188  1.00  0.00     0.000 C 
BRANCH  17  18
ATOM     18  C   UNL     1      27.927 -12.903   2.812  1.00  0.00    -0.000 C 
BRANCH  18  19
ATOM     19  C   UNL     1      27.987 -12.924   4.353  1.00  0.00    -0.000 C 
BRANCH  19  20
ATOM     20  C   UNL     1      28.087 -11.540   5.021  1.00  0.00    -0.000 C 
BRANCH  20  21
ATOM     21  C   UNL     1      26.971 -10.547   4.637  1.00  0.00    -0.000 C 
BRANCH  21  22
ATOM     22  C   UNL     1      25.617 -10.797   5.325  1.00  0.00    -0.000 C 
BRANCH  22  23
ATOM     23  C   UNL     1      25.769 -11.207   6.801  1.00  0.00    -0.000 C 
BRANCH  23  24
ATOM     24  C   UNL     1      25.600 -10.021   7.767  1.00  0.00    -0.000 C 
BRANCH  24  25
ATOM     25  C   UNL     1      24.148  -9.733   8.187  1.00  0.00    -0.003 C 
ATOM     26  C   UNL     1      23.749  -8.269   8.001  1.00  0.00     0.004 C 
ENDBRANCH  24  25
ENDBRANCH  23  24
ENDBRANCH  22  23
ENDBRANCH  21  22
ENDBRANCH  20  21
ENDBRANCH  19  20
ENDBRANCH  18  19
ENDBRANCH  17  18
ENDBRANCH  16  17
ENDBRANCH  15  16
ENDBRANCH   1  15
TORSDOF 22
ENDMDL
MODEL 8
REMARK VINA RESULT:    -3.729      1.564      2.393
REMARK INTER + INTRA:         -12.686
REMARK INTER:                  -9.197
REMARK INTRA:                  -3.488
REMARK UNBOUND:                -4.161
REMARK SMILES CCCCCCCCCCCCCCCCCCCCCCCC(=O)[O-]
REMARK SMILES IDX 13 1 14 2 15 3 16 4 17 5 18 6 19 7 20 8 21 9 22 10 23 11
REMARK SMILES IDX 24 12 25 13 26 14 12 15 11 16 10 17 9 18 8 19 7 20 6 21 5 22
REMARK SMILES IDX 4 23 3 24 2 25 1 26
REMARK H PARENT
REMARK Flexibility Score: inf
ROOT
ATOM      1  C   UNL     1      21.830 -13.899   1.174  1.00  0.00     0.000 C 
ENDROOT
BRANCH   1   2
ATOM      2  C   UNL     1      22.713 -12.677   0.879  1.00  0.00     0.000 C 
BRANCH   2   3
ATOM      3  C   UNL     1      24.094 -12.767   1.544  1.00  0.00     0.000 C 
BRANCH   3   4
ATOM      4  C   UNL     1      24.615 -11.371   1.922  1.00  0.00     0.000 C 
BRANCH   4   5
ATOM      5  C   UNL     1      25.144 -11.302   3.363  1.00  0.00     0.000 C 
BRANCH   5   6
ATOM      6  C   UNL     1      24.688 -12.454   4.279  1.00  0.00     0.000 C 
BRANCH   6   7
ATOM      7  C   UNL     1      25.718 -12.832   5.365  1.00  0.00     0.000 C 
BRANCH   7   8
ATOM      8  C   UNL     1      26.081 -11.640   6.268  1.00  0.00     0.000 C 
BRANCH   8   9
ATOM      9  C   UNL     1      25.279 -11.624   7.579  1.00  0.00     0.000 C 
BRANCH   9  10
ATOM     10  C   UNL     1      24.643 -10.251   7.896  1.00  0.00     0.006 C 
BRANCH  10  11
ATOM     11  C   UNL     1      25.355  -9.080   7.202  1.00  0.00     0.053 C 
BRANCH  11  12
ATOM     12  C   UNL     1      24.545  -7.820   7.267  1.00  0.00     0.041 C 
ATOM     13  O   UNL     1      24.902  -6.804   6.616  1.00  0.00    -0.550 OA
ATOM     14  O   UNL     1      23.416  -7.757   8.074  1.00  0.00    -0.550 OA
ENDBRANCH  11  12
ENDBRANCH  10  11
ENDBRANCH   9  10
ENDBRANCH   8   9
ENDBRANCH   7   8
ENDBRANCH   6   7
ENDBRANCH   5   6
ENDBRANCH   4   5
ENDBRANCH   3   4
ENDBRANCH   2   3
ENDBRANCH   1   2
BRANCH   1  15
ATOM     15  C   UNL     1      21.860 -14.315   2.652  1.00  0.00     0.000 C 
BRANCH  15  16
ATOM     16  C   UNL     1      21.833 -15.842   2.790  1.00  0.00     0.000 C 
BRANCH  16  17
ATOM     17  C   UNL     1      22.980 -16.489   2.001  1.00  0.00     0.000 C 
BRANCH  17  18
ATOM     18  C   UNL     1      24.058 -17.102   2.913  1.00  0.00    -0.000 C 
BRANCH  18  19
ATOM     19  C   UNL     1      24.757 -16.102   3.856  1.00  0.00    -0.000 C 
BRANCH  19  20
ATOM     20  C   UNL     1      24.580 -16.389   5.359  1.00  0.00    -0.000 C 
BRANCH  20  21
ATOM     21  C   UNL     1      23.572 -17.508   5.696  1.00  0.00    -0.000 C 
BRANCH  21  22
ATOM     22  C   UNL     1      23.219 -17.631   7.190  1.00  0.00    -0.000 C 
BRANCH  22  23
ATOM     23  C   UNL     1      22.230 -16.549   7.657  1.00  0.00    -0.000 C 
BRANCH  23  24
ATOM     24  C   UNL     1      21.383 -15.980   6.505  1.00  0.00    -0.000 C 
BRANCH  24  25
ATOM     25  C   UNL     1      21.458 -14.451   6.345  1.00  0.00    -0.003 C 
ATOM     26  C   UNL     1      22.431 -13.793   7.324  1.00  0.00     0.004 C 
ENDBRANCH  24  25
ENDBRANCH  23  24
ENDBRANCH  22  23
ENDBRANCH  21  22
ENDBRANCH  20  21
ENDBRANCH  19  20
ENDBRANCH  18  19
ENDBRANCH  17  18
ENDBRANCH  16  17
ENDBRANCH  15  16
ENDBRANCH   1  15
TORSDOF 22
ENDMDL
MODEL 9
REMARK VINA RESULT:    -3.687      1.852      5.635
REMARK INTER + INTRA:         -12.590
REMARK INTER:                  -7.960
REMARK INTRA:                  -4.630
REMARK UNBOUND:                -4.161
REMARK SMILES CCCCCCCCCCCCCCCCCCCCCCCC(=O)[O-]
REMARK SMILES IDX 13 1 14 2 15 3 16 4 17 5 18 6 19 7 20 8 21 9 22 10 23 11
REMARK SMILES IDX 24 12 25 13 26 14 12 15 11 16 10 17 9 18 8 19 7 20 6 21 5 22
REMARK SMILES IDX 4 23 3 24 2 25 1 26
REMARK H PARENT
REMARK Flexibility Score: inf
ROOT
ATOM      1  C   UNL     1      24.047 -12.721   2.302  1.00  0.00     0.000 C 
ENDROOT
BRANCH   1   2
ATOM      2  C   UNL     1      22.975 -13.399   1.435  1.00  0.00     0.000 C 
BRANCH   2   3
ATOM      3  C   UNL     1      21.851 -14.031   2.269  1.00  0.00     0.000 C 
BRANCH   3   4
ATOM      4  C   UNL     1      21.481 -15.422   1.729  1.00  0.00     0.000 C 
BRANCH   4   5
ATOM      5  C   UNL     1      22.691 -16.364   1.629  1.00  0.00     0.000 C 
BRANCH   5   6
ATOM      6  C   UNL     1      22.976 -17.193   2.895  1.00  0.00     0.000 C 
BRANCH   6   7
ATOM      7  C   UNL     1      24.315 -16.847   3.580  1.00  0.00     0.000 C 
BRANCH   7   8
ATOM      8  C   UNL     1      24.130 -16.418   5.046  1.00  0.00     0.000 C 
BRANCH   8   9
ATOM      9  C   UNL     1      24.761 -15.049   5.347  1.00  0.00     0.000 C 
BRANCH   9  10
ATOM     10  C   UNL     1      23.722 -13.929   5.584  1.00  0.00     0.006 C 
BRANCH  10  11
ATOM     11  C   UNL     1      22.343 -14.463   6.003  1.00  0.00     0.053 C 
BRANCH  11  12
ATOM     12  C   UNL     1      22.122 -14.330   7.479  1.00  0.00     0.041 C 
ATOM     13  O   UNL     1      21.947 -15.356   8.188  1.00  0.00    -0.550 OA
ATOM     14  O   UNL     1      22.073 -13.072   8.068  1.00  0.00    -0.550 OA
ENDBRANCH  11  12
ENDBRANCH  10  11
ENDBRANCH   9  10
ENDBRANCH   8   9
ENDBRANCH   7   8
ENDBRANCH   6   7
ENDBRANCH   5   6
ENDBRANCH   4   5
ENDBRANCH   3   4
ENDBRANCH   2   3
ENDBRANCH   1   2
BRANCH   1  15
ATOM     15  C   UNL     1      25.462 -12.858   1.719  1.00  0.00     0.000 C 
BRANCH  15  16
ATOM     16  C   UNL     1      25.939 -14.314   1.782  1.00  0.00     0.000 C 
BRANCH  16  17
ATOM     17  C   UNL     1      27.390 -14.399   2.280  1.00  0.00     0.000 C 
BRANCH  17  18
ATOM     18  C   UNL     1      28.051 -13.016   2.422  1.00  0.00    -0.000 C 
BRANCH  18  19
ATOM     19  C   UNL     1      28.538 -12.672   3.844  1.00  0.00    -0.000 C 
BRANCH  19  20
ATOM     20  C   UNL     1      27.419 -12.440   4.878  1.00  0.00    -0.000 C 
BRANCH  20  21
ATOM     21  C   UNL     1      27.097 -10.961   5.171  1.00  0.00    -0.000 C 
BRANCH  21  22
ATOM     22  C   UNL     1      25.677 -10.517   4.775  1.00  0.00    -0.000 C 
BRANCH  22  23
ATOM     23  C   UNL     1      25.675  -9.294   3.842  1.00  0.00    -0.000 C 
BRANCH  23  24
ATOM     24  C   UNL     1      26.623  -9.461   2.641  1.00  0.00    -0.000 C 
BRANCH  24  25
ATOM     25  C   UNL     1      25.981  -9.184   1.270  1.00  0.00    -0.003 C 
ATOM     26  C   UNL     1      24.454  -9.271   1.296  1.00  0.00     0.004 C 
ENDBRANCH  24  25
ENDBRANCH  23  24
ENDBRANCH  22  23
ENDBRANCH  21  22
ENDBRANCH  20  21
ENDBRANCH  19  20
ENDBRANCH  18  19
ENDBRANCH  17  18
ENDBRANCH  16  17
ENDBRANCH  15  16
ENDBRANCH   1  15
TORSDOF 22
ENDMDL
