MODEL 1
REMARK VINA RESULT:    -3.415      0.000      0.000
REMARK INTER + INTRA:          -3.515
REMARK INTER:                  -3.515
REMARK INTRA:                   0.000
REMARK UNBOUND:                 0.000
REMARK SMILES CC1(C)[C@@H]2CC[C@@](C)(C2)[C@H]1O
REMARK SMILES IDX 1 1 2 2 4 3 5 4 6 5 7 6 9 7 10 8 8 9 3 10 11 11
REMARK H PARENT 11 12
REMARK Flexibility Score: inf
ROOT
ATOM      1  C   UNL     1     149.208 146.024 137.772  1.00  0.00     0.014 C 
ATOM      2  C   UNL     1     149.022 144.805 138.714  1.00  0.00    -0.006 C 
ATOM      3  C   UNL     1     147.499 144.455 138.831  1.00  0.00    -0.002 C 
ATOM      4  C   UNL     1     147.241 143.446 139.971  1.00  0.00     0.005 C 
ATOM      5  C   UNL     1     147.902 142.163 139.447  1.00  0.00     0.010 C 
ATOM      6  C   UNL     1     148.355 142.568 138.025  1.00  0.00    -0.006 C 
ATOM      7  C   UNL     1     147.278 143.554 137.629  1.00  0.00     0.013 C 
ATOM      8  C   UNL     1     149.614 143.475 138.136  1.00  0.00     0.126 C 
ATOM      9  C   UNL     1     148.493 141.374 137.071  1.00  0.00     0.014 C 
ATOM     10  C   UNL     1     149.677 145.168 140.070  1.00  0.00     0.014 C 
ENDROOT
BRANCH   8  11
ATOM     11  O   UNL     1     150.206 143.677 136.875  1.00  0.00    -0.392 OA
ATOM     12  H   UNL     1     150.180 144.653 136.694  1.00  0.00     0.211 HD
ENDBRANCH   8  11
TORSDOF 1
ENDMDL
MODEL 2
REMARK VINA RESULT:    -3.351     12.340     13.394
REMARK INTER + INTRA:          -3.449
REMARK INTER:                  -3.449
REMARK INTRA:                   0.000
REMARK UNBOUND:                 0.000
REMARK SMILES CC1(C)[C@@H]2CC[C@@](C)(C2)[C@H]1O
REMARK SMILES IDX 1 1 2 2 4 3 5 4 6 5 7 6 9 7 10 8 8 9 3 10 11 11
REMARK H PARENT 11 12
REMARK Flexibility Score: inf
ROOT
ATOM      1  C   UNL     1     137.593 150.021 137.647  1.00  0.00     0.014 C 
ATOM      2  C   UNL     1     137.271 148.666 138.329  1.00  0.00    -0.006 C 
ATOM      3  C   UNL     1     137.212 148.857 139.883  1.00  0.00    -0.002 C 
ATOM      4  C   UNL     1     137.183 147.499 140.615  1.00  0.00     0.005 C 
ATOM      5  C   UNL     1     135.806 146.935 140.235  1.00  0.00     0.010 C 
ATOM      6  C   UNL     1     135.175 148.092 139.425  1.00  0.00    -0.006 C 
ATOM      7  C   UNL     1     135.777 149.304 140.102  1.00  0.00     0.013 C 
ATOM      8  C   UNL     1     135.830 148.137 138.015  1.00  0.00     0.126 C 
ATOM      9  C   UNL     1     133.641 148.068 139.433  1.00  0.00     0.014 C 
ATOM     10  C   UNL     1     138.351 147.654 137.873  1.00  0.00     0.014 C 
ENDROOT
BRANCH   8  11
ATOM     11  O   UNL     1     135.132 149.011 137.160  1.00  0.00    -0.392 OA
ATOM     12  H   UNL     1     134.416 148.480 136.723  1.00  0.00     0.211 HD
ENDBRANCH   8  11
TORSDOF 1
ENDMDL
MODEL 3
REMARK VINA RESULT:    -3.335     15.593     16.823
REMARK INTER + INTRA:          -3.433
REMARK INTER:                  -3.433
REMARK INTRA:                   0.000
REMARK UNBOUND:                 0.000
REMARK SMILES CC1(C)[C@@H]2CC[C@@](C)(C2)[C@H]1O
REMARK SMILES IDX 1 1 2 2 4 3 5 4 6 5 7 6 9 7 10 8 8 9 3 10 11 11
REMARK H PARENT 11 12
REMARK Flexibility Score: inf
ROOT
ATOM      1  C   UNL     1     132.616 135.545 137.741  1.00  0.00     0.014 C 
ATOM      2  C   UNL     1     132.758 136.757 138.698  1.00  0.00    -0.006 C 
ATOM      3  C   UNL     1     134.267 137.163 138.817  1.00  0.00    -0.002 C 
ATOM      4  C   UNL     1     134.489 138.166 139.969  1.00  0.00     0.005 C 
ATOM      5  C   UNL     1     133.781 139.430 139.461  1.00  0.00     0.010 C 
ATOM      6  C   UNL     1     133.339 139.026 138.035  1.00  0.00    -0.006 C 
ATOM      7  C   UNL     1     134.451 138.086 137.625  1.00  0.00     0.013 C 
ATOM      8  C   UNL     1     132.115 138.072 138.138  1.00  0.00     0.126 C 
ATOM      9  C   UNL     1     133.155 140.227 137.097  1.00  0.00     0.014 C 
ATOM     10  C   UNL     1     132.120 136.353 140.050  1.00  0.00     0.014 C 
ENDROOT
BRANCH   8  11
ATOM     11  O   UNL     1     131.529 137.864 136.875  1.00  0.00    -0.392 OA
ATOM     12  H   UNL     1     132.235 138.024 136.196  1.00  0.00     0.211 HD
ENDBRANCH   8  11
TORSDOF 1
ENDMDL
MODEL 4
REMARK VINA RESULT:    -3.299     11.023     12.095
REMARK INTER + INTRA:          -3.396
REMARK INTER:                  -3.396
REMARK INTRA:                   0.000
REMARK UNBOUND:                 0.000
REMARK SMILES CC1(C)[C@@H]2CC[C@@](C)(C2)[C@H]1O
REMARK SMILES IDX 1 1 2 2 4 3 5 4 6 5 7 6 9 7 10 8 8 9 3 10 11 11
REMARK H PARENT 11 12
REMARK Flexibility Score: inf
ROOT
ATOM      1  C   UNL     1     146.245 131.990 137.620  1.00  0.00     0.014 C 
ATOM      2  C   UNL     1     145.159 132.187 138.710  1.00  0.00    -0.006 C 
ATOM      3  C   UNL     1     144.985 133.714 139.012  1.00  0.00    -0.002 C 
ATOM      4  C   UNL     1     144.135 133.942 140.280  1.00  0.00     0.005 C 
ATOM      5  C   UNL     1     142.741 133.465 139.846  1.00  0.00     0.010 C 
ATOM      6  C   UNL     1     142.944 133.130 138.350  1.00  0.00    -0.006 C 
ATOM      7  C   UNL     1     143.991 134.146 137.948  1.00  0.00     0.013 C 
ATOM      8  C   UNL     1     143.721 131.787 138.235  1.00  0.00     0.126 C 
ATOM      9  C   UNL     1     141.648 133.208 137.532  1.00  0.00     0.014 C 
ATOM     10  C   UNL     1     145.592 131.359 139.945  1.00  0.00     0.014 C 
ENDROOT
BRANCH   8  11
ATOM     11  O   UNL     1     143.725 131.317 136.908  1.00  0.00    -0.392 OA
ATOM     12  H   UNL     1     142.980 131.773 136.435  1.00  0.00     0.211 HD
ENDBRANCH   8  11
TORSDOF 1
ENDMDL
MODEL 5
REMARK VINA RESULT:    -3.272      9.749     11.301
REMARK INTER + INTRA:          -3.368
REMARK INTER:                  -3.368
REMARK INTRA:                   0.000
REMARK UNBOUND:                 0.000
REMARK SMILES CC1(C)[C@@H]2CC[C@@](C)(C2)[C@H]1O
REMARK SMILES IDX 1 1 2 2 4 3 5 4 6 5 7 6 9 7 10 8 8 9 3 10 11 11
REMARK H PARENT 11 12
REMARK Flexibility Score: inf
ROOT
ATOM      1  C   UNL     1     141.709 132.731 137.477  1.00  0.00     0.014 C 
ATOM      2  C   UNL     1     142.445 134.027 137.907  1.00  0.00    -0.006 C 
ATOM      3  C   UNL     1     142.046 134.398 139.377  1.00  0.00    -0.002 C 
ATOM      4  C   UNL     1     142.519 135.820 139.745  1.00  0.00     0.005 C 
ATOM      5  C   UNL     1     144.048 135.673 139.777  1.00  0.00     0.010 C 
ATOM      6  C   UNL     1     144.251 134.159 139.534  1.00  0.00    -0.006 C 
ATOM      7  C   UNL     1     143.023 133.575 140.198  1.00  0.00     0.013 C 
ATOM      8  C   UNL     1     143.996 133.851 138.031  1.00  0.00     0.126 C 
ATOM      9  C   UNL     1     145.578 133.631 140.094  1.00  0.00     0.014 C 
ATOM     10  C   UNL     1     142.085 135.124 136.875  1.00  0.00     0.014 C 
ENDROOT
BRANCH   8  11
ATOM     11  O   UNL     1     144.396 132.541 137.708  1.00  0.00    -0.392 OA
ATOM     12  H   UNL     1     145.274 132.609 137.249  1.00  0.00     0.211 HD
ENDBRANCH   8  11
TORSDOF 1
ENDMDL
MODEL 6
REMARK VINA RESULT:    -3.264     14.478     15.594
REMARK INTER + INTRA:          -3.360
REMARK INTER:                  -3.360
REMARK INTRA:                   0.000
REMARK UNBOUND:                 0.000
REMARK SMILES CC1(C)[C@@H]2CC[C@@](C)(C2)[C@H]1O
REMARK SMILES IDX 1 1 2 2 4 3 5 4 6 5 7 6 9 7 10 8 8 9 3 10 11 11
REMARK H PARENT 11 12
REMARK Flexibility Score: inf
ROOT
ATOM      1  C   UNL     1     132.782 139.886 137.456  1.00  0.00     0.014 C 
ATOM      2  C   UNL     1     134.070 139.143 137.896  1.00  0.00    -0.006 C 
ATOM      3  C   UNL     1     134.429 139.534 139.371  1.00  0.00    -0.002 C 
ATOM      4  C   UNL     1     135.845 139.052 139.751  1.00  0.00     0.005 C 
ATOM      5  C   UNL     1     135.691 137.525 139.774  1.00  0.00     0.010 C 
ATOM      6  C   UNL     1     134.179 137.329 139.516  1.00  0.00    -0.006 C 
ATOM      7  C   UNL     1     133.594 138.557 140.179  1.00  0.00     0.013 C 
ATOM      8  C   UNL     1     133.887 137.591 138.011  1.00  0.00     0.126 C 
ATOM      9  C   UNL     1     133.639 136.002 140.065  1.00  0.00     0.014 C 
ATOM     10  C   UNL     1     135.179 139.502 136.876  1.00  0.00     0.014 C 
ENDROOT
BRANCH   8  11
ATOM     11  O   UNL     1     132.578 137.199 137.674  1.00  0.00    -0.392 OA
ATOM     12  H   UNL     1     132.634 136.704 136.814  1.00  0.00     0.211 HD
ENDBRANCH   8  11
TORSDOF 1
ENDMDL
MODEL 7
REMARK VINA RESULT:    -3.260     10.270     11.386
REMARK INTER + INTRA:          -3.355
REMARK INTER:                  -3.355
REMARK INTRA:                   0.000
REMARK UNBOUND:                 0.000
REMARK SMILES CC1(C)[C@@H]2CC[C@@](C)(C2)[C@H]1O
REMARK SMILES IDX 1 1 2 2 4 3 5 4 6 5 7 6 9 7 10 8 8 9 3 10 11 11
REMARK H PARENT 11 12
REMARK Flexibility Score: inf
ROOT
ATOM      1  C   UNL     1     139.836 148.870 137.628  1.00  0.00     0.014 C 
ATOM      2  C   UNL     1     139.069 147.556 137.930  1.00  0.00    -0.006 C 
ATOM      3  C   UNL     1     139.348 147.108 139.406  1.00  0.00    -0.002 C 
ATOM      4  C   UNL     1     138.847 145.670 139.660  1.00  0.00     0.005 C 
ATOM      5  C   UNL     1     137.321 145.820 139.576  1.00  0.00     0.010 C 
ATOM      6  C   UNL     1     137.137 147.345 139.396  1.00  0.00    -0.006 C 
ATOM      7  C   UNL     1     138.306 147.890 140.186  1.00  0.00     0.013 C 
ATOM      8  C   UNL     1     137.512 147.730 137.936  1.00  0.00     0.126 C 
ATOM      9  C   UNL     1     135.768 147.848 139.874  1.00  0.00     0.014 C 
ATOM     10  C   UNL     1     139.512 146.513 136.875  1.00  0.00     0.014 C 
ENDROOT
BRANCH   8  11
ATOM     11  O   UNL     1     137.138 149.057 137.651  1.00  0.00    -0.392 OA
ATOM     12  H   UNL     1     136.490 149.334 138.350  1.00  0.00     0.211 HD
ENDBRANCH   8  11
TORSDOF 1
ENDMDL
MODEL 8
REMARK VINA RESULT:    -3.251     11.079     12.172
REMARK INTER + INTRA:          -3.346
REMARK INTER:                  -3.346
REMARK INTRA:                   0.000
REMARK UNBOUND:                 0.000
REMARK SMILES CC1(C)[C@@H]2CC[C@@](C)(C2)[C@H]1O
REMARK SMILES IDX 1 1 2 2 4 3 5 4 6 5 7 6 9 7 10 8 8 9 3 10 11 11
REMARK H PARENT 11 12
REMARK Flexibility Score: inf
ROOT
ATOM      1  C   UNL     1     135.224 148.547 137.921  1.00  0.00     0.014 C 
ATOM      2  C   UNL     1     136.402 148.490 138.929  1.00  0.00    -0.006 C 
ATOM      3  C   UNL     1     136.960 147.028 139.007  1.00  0.00    -0.002 C 
ATOM      4  C   UNL     1     137.930 146.860 140.196  1.00  0.00     0.005 C 
ATOM      5  C   UNL     1     139.132 147.719 139.779  1.00  0.00     0.010 C 
ATOM      6  C   UNL     1     138.747 148.180 138.354  1.00  0.00    -0.006 C 
ATOM      7  C   UNL     1     137.949 146.995 137.855  1.00  0.00     0.013 C 
ATOM      8  C   UNL     1     137.663 149.291 138.459  1.00  0.00     0.126 C 
ATOM      9  C   UNL     1     139.960 148.531 137.483  1.00  0.00     0.014 C 
ATOM     10  C   UNL     1     135.873 149.021 140.284  1.00  0.00     0.014 C 
ENDROOT
BRANCH   8  11
ATOM     11  O   UNL     1     137.449 149.909 137.212  1.00  0.00    -0.392 OA
ATOM     12  H   UNL     1     136.594 149.552 136.854  1.00  0.00     0.211 HD
ENDBRANCH   8  11
TORSDOF 1
ENDMDL
