MODEL 1
REMARK VINA RESULT:    -4.098      0.000      0.000
REMARK INTER + INTRA:          -8.421
REMARK INTER:                  -6.972
REMARK INTRA:                  -1.449
REMARK UNBOUND:                -1.449
REMARK SMILES CCCCCCCCCCCCCC(=O)[O-]
REMARK SMILES IDX 8 1 9 2 10 3 11 4 12 5 13 6 14 7 15 8 16 9 7 10 6 11 5 12
REMARK SMILES IDX 4 13 3 14 2 15 1 16
REMARK H PARENT
REMARK Flexibility Score: inf
ROOT
ATOM      1  C   UNL     1     174.657 174.454 151.119  1.00  0.00     0.000 C 
ENDROOT
BRANCH   1   2
ATOM      2  C   UNL     1     173.834 175.747 151.024  1.00  0.00     0.000 C 
BRANCH   2   3
ATOM      3  C   UNL     1     174.675 176.957 150.585  1.00  0.00     0.000 C 
BRANCH   3   4
ATOM      4  C   UNL     1     174.595 178.125 151.584  1.00  0.00     0.000 C 
BRANCH   4   5
ATOM      5  C   UNL     1     174.402 177.648 153.033  1.00  0.00     0.006 C 
BRANCH   5   6
ATOM      6  C   UNL     1     175.732 177.365 153.746  1.00  0.00     0.053 C 
BRANCH   6   7
ATOM      7  C   UNL     1     175.644 176.093 154.527  1.00  0.00     0.041 C 
ATOM      8  O   UNL     1     174.572 175.433 154.546  1.00  0.00    -0.550 OA
ATOM      9  O   UNL     1     176.761 175.610 155.198  1.00  0.00    -0.550 OA
ENDBRANCH   6   7
ENDBRANCH   5   6
ENDBRANCH   4   5
ENDBRANCH   3   4
ENDBRANCH   2   3
ENDBRANCH   1   2
BRANCH   1  10
ATOM     10  C   UNL     1     176.163 174.757 151.043  1.00  0.00     0.000 C 
BRANCH  10  11
ATOM     11  C   UNL     1     177.014 173.482 150.932  1.00  0.00    -0.000 C 
BRANCH  11  12
ATOM     12  C   UNL     1     176.311 172.249 151.525  1.00  0.00    -0.000 C 
BRANCH  12  13
ATOM     13  C   UNL     1     176.445 171.010 150.614  1.00  0.00    -0.000 C 
BRANCH  13  14
ATOM     14  C   UNL     1     175.862 171.216 149.205  1.00  0.00    -0.000 C 
BRANCH  14  15
ATOM     15  C   UNL     1     174.332 171.344 149.203  1.00  0.00    -0.003 C 
ATOM     16  C   UNL     1     173.689 170.272 150.078  1.00  0.00     0.004 C 
ENDBRANCH  14  15
ENDBRANCH  13  14
ENDBRANCH  12  13
ENDBRANCH  11  12
ENDBRANCH  10  11
ENDBRANCH   1  10
TORSDOF 12
ENDMDL
MODEL 2
REMARK VINA RESULT:    -3.911      2.273      6.280
REMARK INTER + INTRA:          -8.103
REMARK INTER:                  -6.541
REMARK INTRA:                  -1.563
REMARK UNBOUND:                -1.449
REMARK SMILES CCCCCCCCCCCCCC(=O)[O-]
REMARK SMILES IDX 8 1 9 2 10 3 11 4 12 5 13 6 14 7 15 8 16 9 7 10 6 11 5 12
REMARK SMILES IDX 4 13 3 14 2 15 1 16
REMARK H PARENT
REMARK Flexibility Score: inf
ROOT
ATOM      1  C   UNL     1     174.489 174.493 151.569  1.00  0.00     0.000 C 
ENDROOT
BRANCH   1   2
ATOM      2  C   UNL     1     175.989 174.691 151.306  1.00  0.00     0.000 C 
BRANCH   2   3
ATOM      3  C   UNL     1     176.781 173.375 151.359  1.00  0.00     0.000 C 
BRANCH   3   4
ATOM      4  C   UNL     1     176.891 172.696 149.982  1.00  0.00     0.000 C 
BRANCH   4   5
ATOM      5  C   UNL     1     176.315 171.271 149.980  1.00  0.00     0.006 C 
BRANCH   5   6
ATOM      6  C   UNL     1     174.943 171.187 149.298  1.00  0.00     0.053 C 
BRANCH   6   7
ATOM      7  C   UNL     1     173.851 171.192 150.319  1.00  0.00     0.041 C 
ATOM      8  O   UNL     1     174.093 170.857 151.509  1.00  0.00    -0.550 OA
ATOM      9  O   UNL     1     172.574 171.614 149.970  1.00  0.00    -0.550 OA
ENDBRANCH   6   7
ENDBRANCH   5   6
ENDBRANCH   4   5
ENDBRANCH   3   4
ENDBRANCH   2   3
ENDBRANCH   1   2
BRANCH   1  10
ATOM     10  C   UNL     1     173.652 175.490 150.749  1.00  0.00     0.000 C 
BRANCH  10  11
ATOM     11  C   UNL     1     172.642 176.260 151.614  1.00  0.00    -0.000 C 
BRANCH  11  12
ATOM     12  C   UNL     1     172.896 177.777 151.610  1.00  0.00    -0.000 C 
BRANCH  12  13
ATOM     13  C   UNL     1     174.341 178.125 152.025  1.00  0.00    -0.000 C 
BRANCH  13  14
ATOM     14  C   UNL     1     174.581 178.048 153.543  1.00  0.00    -0.000 C 
BRANCH  14  15
ATOM     15  C   UNL     1     175.917 177.384 153.904  1.00  0.00    -0.003 C 
ATOM     16  C   UNL     1     175.697 176.114 154.721  1.00  0.00     0.004 C 
ENDBRANCH  14  15
ENDBRANCH  13  14
ENDBRANCH  12  13
ENDBRANCH  11  12
ENDBRANCH  10  11
ENDBRANCH   1  10
TORSDOF 12
ENDMDL
MODEL 3
REMARK VINA RESULT:    -3.894      1.654      3.291
REMARK INTER + INTRA:          -8.074
REMARK INTER:                  -6.207
REMARK INTRA:                  -1.867
REMARK UNBOUND:                -1.449
REMARK SMILES CCCCCCCCCCCCCC(=O)[O-]
REMARK SMILES IDX 8 1 9 2 10 3 11 4 12 5 13 6 14 7 15 8 16 9 7 10 6 11 5 12
REMARK SMILES IDX 4 13 3 14 2 15 1 16
REMARK H PARENT
REMARK Flexibility Score: inf
ROOT
ATOM      1  C   UNL     1     172.834 177.936 152.017  1.00  0.00     0.000 C 
ENDROOT
BRANCH   1   2
ATOM      2  C   UNL     1     173.563 177.826 153.364  1.00  0.00     0.000 C 
BRANCH   2   3
ATOM      3  C   UNL     1     175.068 178.123 153.252  1.00  0.00     0.000 C 
BRANCH   3   4
ATOM      4  C   UNL     1     175.929 177.116 154.034  1.00  0.00     0.000 C 
BRANCH   4   5
ATOM      5  C   UNL     1     175.082 176.070 154.777  1.00  0.00     0.006 C 
BRANCH   5   6
ATOM      6  C   UNL     1     175.606 174.640 154.586  1.00  0.00     0.053 C 
BRANCH   6   7
ATOM      7  C   UNL     1     176.267 174.155 155.837  1.00  0.00     0.041 C 
ATOM      8  O   UNL     1     175.611 173.494 156.685  1.00  0.00    -0.550 OA
ATOM      9  O   UNL     1     177.620 174.391 156.046  1.00  0.00    -0.550 OA
ENDBRANCH   6   7
ENDBRANCH   5   6
ENDBRANCH   4   5
ENDBRANCH   3   4
ENDBRANCH   2   3
ENDBRANCH   1   2
BRANCH   1  10
ATOM     10  C   UNL     1     173.340 176.871 151.031  1.00  0.00     0.000 C 
BRANCH  10  11
ATOM     11  C   UNL     1     173.028 175.441 151.500  1.00  0.00    -0.000 C 
BRANCH  11  12
ATOM     12  C   UNL     1     174.153 174.448 151.156  1.00  0.00    -0.000 C 
BRANCH  12  13
ATOM     13  C   UNL     1     175.469 175.166 150.791  1.00  0.00    -0.000 C 
BRANCH  13  14
ATOM     14  C   UNL     1     176.728 174.339 151.107  1.00  0.00    -0.000 C 
BRANCH  14  15
ATOM     15  C   UNL     1     176.445 172.835 151.218  1.00  0.00    -0.003 C 
ATOM     16  C   UNL     1     176.619 172.141 149.870  1.00  0.00     0.004 C 
ENDBRANCH  14  15
ENDBRANCH  13  14
ENDBRANCH  12  13
ENDBRANCH  11  12
ENDBRANCH  10  11
ENDBRANCH   1  10
TORSDOF 12
ENDMDL
MODEL 4
REMARK VINA RESULT:    -3.875     10.475     12.047
REMARK INTER + INTRA:          -8.042
REMARK INTER:                  -6.620
REMARK INTRA:                  -1.423
REMARK UNBOUND:                -1.449
REMARK SMILES CCCCCCCCCCCCCC(=O)[O-]
REMARK SMILES IDX 8 1 9 2 10 3 11 4 12 5 13 6 14 7 15 8 16 9 7 10 6 11 5 12
REMARK SMILES IDX 4 13 3 14 2 15 1 16
REMARK H PARENT
REMARK Flexibility Score: inf
ROOT
ATOM      1  C   UNL     1     164.857 177.262 153.081  1.00  0.00     0.000 C 
ENDROOT
BRANCH   1   2
ATOM      2  C   UNL     1     163.439 177.667 152.651  1.00  0.00     0.000 C 
BRANCH   2   3
ATOM      3  C   UNL     1     163.243 177.622 151.127  1.00  0.00     0.000 C 
BRANCH   3   4
ATOM      4  C   UNL     1     161.782 177.356 150.726  1.00  0.00     0.000 C 
BRANCH   4   5
ATOM      5  C   UNL     1     161.317 175.940 151.102  1.00  0.00     0.006 C 
BRANCH   5   6
ATOM      6  C   UNL     1     160.131 175.944 152.076  1.00  0.00     0.053 C 
BRANCH   6   7
ATOM      7  C   UNL     1     160.578 175.534 153.443  1.00  0.00     0.041 C 
ATOM      8  O   UNL     1     161.452 174.638 153.583  1.00  0.00    -0.550 OA
ATOM      9  O   UNL     1     160.064 176.173 154.565  1.00  0.00    -0.550 OA
ENDBRANCH   6   7
ENDBRANCH   5   6
ENDBRANCH   4   5
ENDBRANCH   3   4
ENDBRANCH   2   3
ENDBRANCH   1   2
BRANCH   1  10
ATOM     10  C   UNL     1     165.899 177.758 152.065  1.00  0.00     0.000 C 
BRANCH  10  11
ATOM     11  C   UNL     1     167.281 177.122 152.283  1.00  0.00    -0.000 C 
BRANCH  11  12
ATOM     12  C   UNL     1     168.073 176.967 150.972  1.00  0.00    -0.000 C 
BRANCH  12  13
ATOM     13  C   UNL     1     167.150 176.947 149.735  1.00  0.00    -0.000 C 
BRANCH  13  14
ATOM     14  C   UNL     1     167.208 175.628 148.945  1.00  0.00    -0.000 C 
BRANCH  14  15
ATOM     15  C   UNL     1     166.593 174.447 149.706  1.00  0.00    -0.003 C 
ATOM     16  C   UNL     1     165.144 174.733 150.090  1.00  0.00     0.004 C 
ENDBRANCH  14  15
ENDBRANCH  13  14
ENDBRANCH  12  13
ENDBRANCH  11  12
ENDBRANCH  10  11
ENDBRANCH   1  10
TORSDOF 12
ENDMDL
MODEL 5
REMARK VINA RESULT:    -3.848      2.953      6.389
REMARK INTER + INTRA:          -7.997
REMARK INTER:                  -6.853
REMARK INTRA:                  -1.144
REMARK UNBOUND:                -1.449
REMARK SMILES CCCCCCCCCCCCCC(=O)[O-]
REMARK SMILES IDX 8 1 9 2 10 3 11 4 12 5 13 6 14 7 15 8 16 9 7 10 6 11 5 12
REMARK SMILES IDX 4 13 3 14 2 15 1 16
REMARK H PARENT
REMARK Flexibility Score: inf
ROOT
ATOM      1  C   UNL     1     174.513 174.692 151.488  1.00  0.00     0.000 C 
ENDROOT
BRANCH   1   2
ATOM      2  C   UNL     1     176.022 174.878 151.270  1.00  0.00     0.000 C 
BRANCH   2   3
ATOM      3  C   UNL     1     176.690 173.639 150.650  1.00  0.00     0.000 C 
BRANCH   3   4
ATOM      4  C   UNL     1     176.299 172.336 151.368  1.00  0.00     0.000 C 
BRANCH   4   5
ATOM      5  C   UNL     1     176.350 171.113 150.438  1.00  0.00     0.006 C 
BRANCH   5   6
ATOM      6  C   UNL     1     175.548 171.319 149.145  1.00  0.00     0.053 C 
BRANCH   6   7
ATOM      7  C   UNL     1     174.081 171.216 149.420  1.00  0.00     0.041 C 
ATOM      8  O   UNL     1     173.329 172.208 149.229  1.00  0.00    -0.550 OA
ATOM      9  O   UNL     1     173.535 170.009 149.841  1.00  0.00    -0.550 OA
ENDBRANCH   6   7
ENDBRANCH   5   6
ENDBRANCH   4   5
ENDBRANCH   3   4
ENDBRANCH   2   3
ENDBRANCH   1   2
BRANCH   1  10
ATOM     10  C   UNL     1     173.714 175.756 150.717  1.00  0.00     0.000 C 
BRANCH  10  11
ATOM     11  C   UNL     1     174.405 177.129 150.723  1.00  0.00    -0.000 C 
BRANCH  11  12
ATOM     12  C   UNL     1     173.866 178.057 151.826  1.00  0.00    -0.000 C 
BRANCH  12  13
ATOM     13  C   UNL     1     172.324 178.106 151.842  1.00  0.00    -0.000 C 
BRANCH  13  14
ATOM     14  C   UNL     1     171.698 177.414 153.066  1.00  0.00    -0.000 C 
BRANCH  14  15
ATOM     15  C   UNL     1     170.564 176.450 152.693  1.00  0.00    -0.003 C 
ATOM     16  C   UNL     1     169.745 176.988 151.523  1.00  0.00     0.004 C 
ENDBRANCH  14  15
ENDBRANCH  13  14
ENDBRANCH  12  13
ENDBRANCH  11  12
ENDBRANCH  10  11
ENDBRANCH   1  10
TORSDOF 12
ENDMDL
MODEL 6
REMARK VINA RESULT:    -3.846     10.833     12.597
REMARK INTER + INTRA:          -7.994
REMARK INTER:                  -6.722
REMARK INTRA:                  -1.272
REMARK UNBOUND:                -1.449
REMARK SMILES CCCCCCCCCCCCCC(=O)[O-]
REMARK SMILES IDX 8 1 9 2 10 3 11 4 12 5 13 6 14 7 15 8 16 9 7 10 6 11 5 12
REMARK SMILES IDX 4 13 3 14 2 15 1 16
REMARK H PARENT
REMARK Flexibility Score: inf
ROOT
ATOM      1  C   UNL     1     162.696 176.868 150.913  1.00  0.00     0.000 C 
ENDROOT
BRANCH   1   2
ATOM      2  C   UNL     1     164.203 176.751 151.187  1.00  0.00     0.000 C 
BRANCH   2   3
ATOM      3  C   UNL     1     164.927 178.105 151.114  1.00  0.00     0.000 C 
BRANCH   3   4
ATOM      4  C   UNL     1     166.036 178.124 150.048  1.00  0.00     0.000 C 
BRANCH   4   5
ATOM      5  C   UNL     1     167.112 177.055 150.297  1.00  0.00     0.006 C 
BRANCH   5   6
ATOM      6  C   UNL     1     167.315 176.126 149.093  1.00  0.00     0.053 C 
BRANCH   6   7
ATOM      7  C   UNL     1     167.030 174.708 149.473  1.00  0.00     0.041 C 
ATOM      8  O   UNL     1     167.939 173.988 149.965  1.00  0.00    -0.550 OA
ATOM      9  O   UNL     1     165.747 174.193 149.330  1.00  0.00    -0.550 OA
ENDBRANCH   6   7
ENDBRANCH   5   6
ENDBRANCH   4   5
ENDBRANCH   3   4
ENDBRANCH   2   3
ENDBRANCH   1   2
BRANCH   1  10
ATOM     10  C   UNL     1     162.015 177.757 151.967  1.00  0.00     0.000 C 
BRANCH  10  11
ATOM     11  C   UNL     1     160.553 177.358 152.218  1.00  0.00    -0.000 C 
BRANCH  11  12
ATOM     12  C   UNL     1     160.071 176.251 151.263  1.00  0.00    -0.000 C 
BRANCH  12  13
ATOM     13  C   UNL     1     159.553 175.012 152.023  1.00  0.00    -0.000 C 
BRANCH  13  14
ATOM     14  C   UNL     1     160.394 173.746 151.781  1.00  0.00    -0.000 C 
BRANCH  14  15
ATOM     15  C   UNL     1     161.605 173.644 152.718  1.00  0.00    -0.003 C 
ATOM     16  C   UNL     1     162.880 173.336 151.939  1.00  0.00     0.004 C 
ENDBRANCH  14  15
ENDBRANCH  13  14
ENDBRANCH  12  13
ENDBRANCH  11  12
ENDBRANCH  10  11
ENDBRANCH   1  10
TORSDOF 12
ENDMDL
MODEL 7
REMARK VINA RESULT:    -3.831      1.052      2.255
REMARK INTER + INTRA:          -7.968
REMARK INTER:                  -6.467
REMARK INTRA:                  -1.501
REMARK UNBOUND:                -1.449
REMARK SMILES CCCCCCCCCCCCCC(=O)[O-]
REMARK SMILES IDX 8 1 9 2 10 3 11 4 12 5 13 6 14 7 15 8 16 9 7 10 6 11 5 12
REMARK SMILES IDX 4 13 3 14 2 15 1 16
REMARK H PARENT
REMARK Flexibility Score: inf
ROOT
ATOM      1  C   UNL     1     173.263 174.607 150.657  1.00  0.00     0.000 C 
ENDROOT
BRANCH   1   2
ATOM      2  C   UNL     1     173.812 175.856 151.362  1.00  0.00     0.000 C 
BRANCH   2   3
ATOM      3  C   UNL     1     174.590 176.781 150.412  1.00  0.00     0.000 C 
BRANCH   3   4
ATOM      4  C   UNL     1     175.209 177.988 151.139  1.00  0.00     0.000 C 
BRANCH   4   5
ATOM      5  C   UNL     1     174.706 178.125 152.586  1.00  0.00     0.006 C 
BRANCH   5   6
ATOM      6  C   UNL     1     175.827 177.953 153.621  1.00  0.00     0.053 C 
BRANCH   6   7
ATOM      7  C   UNL     1     175.558 176.765 154.488  1.00  0.00     0.041 C 
ATOM      8  O   UNL     1     174.378 176.476 154.821  1.00  0.00    -0.550 OA
ATOM      9  O   UNL     1     176.606 175.947 154.892  1.00  0.00    -0.550 OA
ENDBRANCH   6   7
ENDBRANCH   5   6
ENDBRANCH   4   5
ENDBRANCH   3   4
ENDBRANCH   2   3
ENDBRANCH   1   2
BRANCH   1  10
ATOM     10  C   UNL     1     172.941 173.501 151.675  1.00  0.00     0.000 C 
BRANCH  10  11
ATOM     11  C   UNL     1     173.373 172.109 151.187  1.00  0.00    -0.000 C 
BRANCH  11  12
ATOM     12  C   UNL     1     174.013 172.145 149.788  1.00  0.00    -0.000 C 
BRANCH  12  13
ATOM     13  C   UNL     1     175.189 171.154 149.662  1.00  0.00    -0.000 C 
BRANCH  13  14
ATOM     14  C   UNL     1     176.489 171.654 150.315  1.00  0.00    -0.000 C 
BRANCH  14  15
ATOM     15  C   UNL     1     176.717 173.159 150.118  1.00  0.00    -0.003 C 
ATOM     16  C   UNL     1     176.986 173.854 151.449  1.00  0.00     0.004 C 
ENDBRANCH  14  15
ENDBRANCH  13  14
ENDBRANCH  12  13
ENDBRANCH  11  12
ENDBRANCH  10  11
ENDBRANCH   1  10
TORSDOF 12
ENDMDL
MODEL 8
REMARK VINA RESULT:    -3.813      1.743      5.174
REMARK INTER + INTRA:          -7.937
REMARK INTER:                  -6.361
REMARK INTRA:                  -1.576
REMARK UNBOUND:                -1.449
REMARK SMILES CCCCCCCCCCCCCC(=O)[O-]
REMARK SMILES IDX 8 1 9 2 10 3 11 4 12 5 13 6 14 7 15 8 16 9 7 10 6 11 5 12
REMARK SMILES IDX 4 13 3 14 2 15 1 16
REMARK H PARENT
REMARK Flexibility Score: inf
ROOT
ATOM      1  C   UNL     1     176.038 172.093 149.954  1.00  0.00     0.000 C 
ENDROOT
BRANCH   1   2
ATOM      2  C   UNL     1     176.493 170.698 150.408  1.00  0.00     0.000 C 
BRANCH   2   3
ATOM      3  C   UNL     1     175.523 170.053 151.411  1.00  0.00     0.000 C 
BRANCH   3   4
ATOM      4  C   UNL     1     175.192 170.982 152.593  1.00  0.00     0.000 C 
BRANCH   4   5
ATOM      5  C   UNL     1     176.284 170.969 153.675  1.00  0.00     0.006 C 
BRANCH   5   6
ATOM      6  C   UNL     1     177.047 172.298 153.763  1.00  0.00     0.053 C 
BRANCH   6   7
ATOM      7  C   UNL     1     176.517 173.130 154.887  1.00  0.00     0.041 C 
ATOM      8  O   UNL     1     176.471 174.384 154.781  1.00  0.00    -0.550 OA
ATOM      9  O   UNL     1     176.030 172.518 156.035  1.00  0.00    -0.550 OA
ENDBRANCH   6   7
ENDBRANCH   5   6
ENDBRANCH   4   5
ENDBRANCH   3   4
ENDBRANCH   2   3
ENDBRANCH   1   2
BRANCH   1  10
ATOM     10  C   UNL     1     177.110 173.149 150.274  1.00  0.00     0.000 C 
BRANCH  10  11
ATOM     11  C   UNL     1     176.503 174.469 150.775  1.00  0.00    -0.000 C 
BRANCH  11  12
ATOM     12  C   UNL     1     175.019 174.330 151.159  1.00  0.00    -0.000 C 
BRANCH  12  13
ATOM     13  C   UNL     1     174.511 175.544 151.965  1.00  0.00    -0.000 C 
BRANCH  13  14
ATOM     14  C   UNL     1     175.576 176.636 152.170  1.00  0.00    -0.000 C 
BRANCH  14  15
ATOM     15  C   UNL     1     175.164 177.992 151.581  1.00  0.00    -0.003 C 
ATOM     16  C   UNL     1     174.444 177.817 150.247  1.00  0.00     0.004 C 
ENDBRANCH  14  15
ENDBRANCH  13  14
ENDBRANCH  12  13
ENDBRANCH  11  12
ENDBRANCH  10  11
ENDBRANCH   1  10
TORSDOF 12
ENDMDL
MODEL 9
REMARK VINA RESULT:    -3.789      2.542      5.656
REMARK INTER + INTRA:          -7.896
REMARK INTER:                  -6.180
REMARK INTRA:                  -1.716
REMARK UNBOUND:                -1.449
REMARK SMILES CCCCCCCCCCCCCC(=O)[O-]
REMARK SMILES IDX 8 1 9 2 10 3 11 4 12 5 13 6 14 7 15 8 16 9 7 10 6 11 5 12
REMARK SMILES IDX 4 13 3 14 2 15 1 16
REMARK H PARENT
REMARK Flexibility Score: inf
ROOT
ATOM      1  C   UNL     1     175.231 175.602 153.444  1.00  0.00     0.000 C 
ENDROOT
BRANCH   1   2
ATOM      2  C   UNL     1     176.240 174.708 152.708  1.00  0.00     0.000 C 
BRANCH   2   3
ATOM      3  C   UNL     1     175.875 174.491 151.230  1.00  0.00     0.000 C 
BRANCH   3   4
ATOM      4  C   UNL     1     174.528 173.767 151.055  1.00  0.00     0.000 C 
BRANCH   4   5
ATOM      5  C   UNL     1     174.673 172.425 150.320  1.00  0.00     0.006 C 
BRANCH   5   6
ATOM      6  C   UNL     1     176.123 171.923 150.283  1.00  0.00     0.053 C 
BRANCH   6   7
ATOM      7  C   UNL     1     176.331 170.855 151.310  1.00  0.00     0.041 C 
ATOM      8  O   UNL     1     176.004 169.664 151.062  1.00  0.00    -0.550 OA
ATOM      9  O   UNL     1     176.931 171.165 152.524  1.00  0.00    -0.550 OA
ENDBRANCH   6   7
ENDBRANCH   5   6
ENDBRANCH   4   5
ENDBRANCH   3   4
ENDBRANCH   2   3
ENDBRANCH   1   2
BRANCH   1  10
ATOM     10  C   UNL     1     175.852 176.968 153.779  1.00  0.00     0.000 C 
BRANCH  10  11
ATOM     11  C   UNL     1     175.162 178.125 153.038  1.00  0.00    -0.000 C 
BRANCH  11  12
ATOM     12  C   UNL     1     175.400 178.078 151.518  1.00  0.00    -0.000 C 
BRANCH  12  13
ATOM     13  C   UNL     1     174.090 177.854 150.733  1.00  0.00    -0.000 C 
BRANCH  13  14
ATOM     14  C   UNL     1     172.827 177.922 151.609  1.00  0.00    -0.000 C 
BRANCH  14  15
ATOM     15  C   UNL     1     172.105 176.573 151.723  1.00  0.00    -0.003 C 
ATOM     16  C   UNL     1     171.545 176.364 153.127  1.00  0.00     0.004 C 
ENDBRANCH  14  15
ENDBRANCH  13  14
ENDBRANCH  12  13
ENDBRANCH  11  12
ENDBRANCH  10  11
ENDBRANCH   1  10
TORSDOF 12
ENDMDL
