MODEL 1
REMARK VINA RESULT:    -3.959      0.000      0.000
REMARK INTER + INTRA:          -4.959
REMARK INTER:                  -4.885
REMARK INTRA:                  -0.074
REMARK UNBOUND:                -0.074
REMARK SMILES O=c1c(O)c(-c2cc(O)c(O)c(O)c2)oc2cc(O)cc(O)c12
REMARK SMILES IDX 5 1 3 2 2 3 1 4 23 5 21 6 20 7 18 8 17 9 16 10 15 11 6 12
REMARK SMILES IDX 7 13 8 14 14 15 10 16 12 17 9 18 11 20 13 22 4 24 22 26
REMARK SMILES IDX 19 28
REMARK H PARENT 9 19 11 21 13 23 4 25 22 27 19 29
REMARK Flexibility Score: inf
ROOT
ATOM      1  C   UNL     1     -13.013 -33.474  31.567  1.00  0.00     0.180 A 
ATOM      2  C   UNL     1     -12.895 -34.871  31.428  1.00  0.00     0.208 A 
ATOM      3  C   UNL     1     -13.187 -35.455  30.185  1.00  0.00     0.238 A 
ATOM      4  O   UNL     1     -13.074 -36.704  30.045  1.00  0.00    -0.285 OA
ATOM      5  C   UNL     1     -13.607 -34.641  29.113  1.00  0.00     0.111 A 
ATOM      6  C   UNL     1     -13.922 -35.152  27.831  1.00  0.00     0.134 A 
ATOM      7  C   UNL     1     -14.344 -34.276  26.818  1.00  0.00     0.093 A 
ATOM      8  C   UNL     1     -14.454 -32.903  27.063  1.00  0.00     0.123 A 
ATOM      9  C   UNL     1     -14.142 -32.395  28.326  1.00  0.00     0.094 A 
ATOM     10  C   UNL     1     -13.721 -33.250  29.348  1.00  0.00     0.146 A 
ATOM     11  O   UNL     1     -13.427 -32.740  30.539  1.00  0.00    -0.452 OA
ENDROOT
BRANCH   1  12
ATOM     12  C   UNL     1     -12.706 -32.783  32.840  1.00  0.00     0.029 A 
ATOM     13  C   UNL     1     -11.458 -32.978  33.448  1.00  0.00     0.062 A 
ATOM     14  C   UNL     1     -11.143 -32.358  34.662  1.00  0.00     0.162 A 
ATOM     15  C   UNL     1     -13.662 -31.982  33.485  1.00  0.00     0.062 A 
ATOM     16  C   UNL     1     -12.102 -31.531  35.296  1.00  0.00     0.200 A 
ATOM     17  C   UNL     1     -13.364 -31.355  34.698  1.00  0.00     0.162 A 
BRANCH  14  18
ATOM     18  O   UNL     1      -9.875 -32.590  35.199  1.00  0.00    -0.504 OA
ATOM     19  H   UNL     1      -9.087 -32.931  34.667  1.00  0.00     0.293 HD
ENDBRANCH  14  18
BRANCH  16  20
ATOM     20  O   UNL     1     -11.843 -30.880  36.504  1.00  0.00    -0.502 OA
ATOM     21  H   UNL     1     -11.988 -31.292  37.414  1.00  0.00     0.293 HD
ENDBRANCH  16  20
BRANCH  17  22
ATOM     22  O   UNL     1     -14.342 -30.562  35.299  1.00  0.00    -0.504 OA
ATOM     23  H   UNL     1     -15.012 -30.937  35.960  1.00  0.00     0.293 HD
ENDBRANCH  17  22
ENDBRANCH   1  12
BRANCH   2  24
ATOM     24  O   UNL     1     -12.525 -35.661  32.519  1.00  0.00    -0.502 OA
ATOM     25  H   UNL     1     -12.172 -36.604  32.411  1.00  0.00     0.293 HD
ENDBRANCH   2  24
BRANCH   6  26
ATOM     26  O   UNL     1     -13.823 -36.516  27.556  1.00  0.00    -0.507 OA
ATOM     27  H   UNL     1     -13.236 -37.130  28.108  1.00  0.00     0.293 HD
ENDBRANCH   6  26
BRANCH   8  28
ATOM     28  O   UNL     1     -14.872 -32.033  26.059  1.00  0.00    -0.508 OA
ATOM     29  H   UNL     1     -14.439 -32.035  25.142  1.00  0.00     0.293 HD
ENDBRANCH   8  28
TORSDOF 7
ENDMDL
MODEL 2
REMARK VINA RESULT:    -3.565      1.610      3.314
REMARK INTER + INTRA:          -4.472
REMARK INTER:                  -4.416
REMARK INTRA:                  -0.056
REMARK UNBOUND:                -0.074
REMARK SMILES O=c1c(O)c(-c2cc(O)c(O)c(O)c2)oc2cc(O)cc(O)c12
REMARK SMILES IDX 5 1 3 2 2 3 1 4 23 5 21 6 20 7 18 8 17 9 16 10 15 11 6 12
REMARK SMILES IDX 7 13 8 14 14 15 10 16 12 17 9 18 11 20 13 22 4 24 22 26
REMARK SMILES IDX 19 28
REMARK H PARENT 9 19 11 21 13 23 4 25 22 27 19 29
REMARK Flexibility Score: inf
ROOT
ATOM      1  C   UNL     1     -13.024 -33.490  32.308  1.00  0.00     0.180 A 
ATOM      2  C   UNL     1     -13.598 -33.037  31.104  1.00  0.00     0.208 A 
ATOM      3  C   UNL     1     -13.874 -33.969  30.092  1.00  0.00     0.238 A 
ATOM      4  O   UNL     1     -14.399 -33.577  29.014  1.00  0.00    -0.285 OA
ATOM      5  C   UNL     1     -13.556 -35.328  30.290  1.00  0.00     0.111 A 
ATOM      6  C   UNL     1     -13.799 -36.330  29.319  1.00  0.00     0.134 A 
ATOM      7  C   UNL     1     -13.444 -37.660  29.588  1.00  0.00     0.093 A 
ATOM      8  C   UNL     1     -12.853 -38.007  30.808  1.00  0.00     0.123 A 
ATOM      9  C   UNL     1     -12.612 -37.023  31.769  1.00  0.00     0.094 A 
ATOM     10  C   UNL     1     -12.959 -35.692  31.521  1.00  0.00     0.146 A 
ATOM     11  O   UNL     1     -12.723 -34.777  32.454  1.00  0.00    -0.452 OA
ENDROOT
BRANCH   1  12
ATOM     12  C   UNL     1     -12.719 -32.571  33.429  1.00  0.00     0.029 A 
ATOM     13  C   UNL     1     -11.464 -32.632  34.049  1.00  0.00     0.062 A 
ATOM     14  C   UNL     1     -11.150 -31.794  35.125  1.00  0.00     0.162 A 
ATOM     15  C   UNL     1     -13.683 -31.679  33.924  1.00  0.00     0.062 A 
ATOM     16  C   UNL     1     -12.118 -30.879  35.605  1.00  0.00     0.200 A 
ATOM     17  C   UNL     1     -13.387 -30.835  34.998  1.00  0.00     0.162 A 
BRANCH  14  18
ATOM     18  O   UNL     1      -9.875 -31.904  35.683  1.00  0.00    -0.504 OA
ATOM     19  H   UNL     1      -9.017 -31.833  35.155  1.00  0.00     0.293 HD
ENDBRANCH  14  18
BRANCH  16  20
ATOM     20  O   UNL     1     -11.861 -30.012  36.670  1.00  0.00    -0.502 OA
ATOM     21  H   UNL     1     -12.534 -29.772  37.383  1.00  0.00     0.293 HD
ENDBRANCH  16  20
BRANCH  17  22
ATOM     22  O   UNL     1     -14.373 -29.959  35.452  1.00  0.00    -0.504 OA
ATOM     23  H   UNL     1     -15.337 -30.026  35.149  1.00  0.00     0.293 HD
ENDBRANCH  17  22
ENDBRANCH   1  12
BRANCH   2  24
ATOM     24  O   UNL     1     -13.858 -31.678  30.914  1.00  0.00    -0.502 OA
ATOM     25  H   UNL     1     -13.396 -31.132  30.197  1.00  0.00     0.293 HD
ENDBRANCH   2  24
BRANCH   6  26
ATOM     26  O   UNL     1     -14.386 -36.015  28.093  1.00  0.00    -0.507 OA
ATOM     27  H   UNL     1     -14.149 -36.514  27.244  1.00  0.00     0.293 HD
ENDBRANCH   6  26
BRANCH   8  28
ATOM     28  O   UNL     1     -12.500 -39.328  31.076  1.00  0.00    -0.508 OA
ATOM     29  H   UNL     1     -11.626 -39.720  30.743  1.00  0.00     0.293 HD
ENDBRANCH   8  28
TORSDOF 7
ENDMDL
MODEL 3
REMARK VINA RESULT:    -3.541      1.980      7.197
REMARK INTER + INTRA:          -4.443
REMARK INTER:                  -4.128
REMARK INTRA:                  -0.315
REMARK UNBOUND:                -0.074
REMARK SMILES O=c1c(O)c(-c2cc(O)c(O)c(O)c2)oc2cc(O)cc(O)c12
REMARK SMILES IDX 5 1 3 2 2 3 1 4 23 5 21 6 20 7 18 8 17 9 16 10 15 11 6 12
REMARK SMILES IDX 7 13 8 14 14 15 10 16 12 17 9 18 11 20 13 22 4 24 22 26
REMARK SMILES IDX 19 28
REMARK H PARENT 9 19 11 21 13 23 4 25 22 27 19 29
REMARK Flexibility Score: inf
ROOT
ATOM      1  C   UNL     1     -13.135 -33.509  32.397  1.00  0.00     0.180 A 
ATOM      2  C   UNL     1     -14.313 -32.748  32.523  1.00  0.00     0.208 A 
ATOM      3  C   UNL     1     -14.373 -31.750  33.508  1.00  0.00     0.238 A 
ATOM      4  O   UNL     1     -15.419 -31.053  33.623  1.00  0.00    -0.285 OA
ATOM      5  C   UNL     1     -13.269 -31.543  34.360  1.00  0.00     0.111 A 
ATOM      6  C   UNL     1     -13.251 -30.561  35.380  1.00  0.00     0.134 A 
ATOM      7  C   UNL     1     -12.116 -30.424  36.194  1.00  0.00     0.093 A 
ATOM      8  C   UNL     1     -11.002 -31.249  36.007  1.00  0.00     0.123 A 
ATOM      9  C   UNL     1     -11.015 -32.218  35.002  1.00  0.00     0.094 A 
ATOM     10  C   UNL     1     -12.135 -32.370  34.180  1.00  0.00     0.146 A 
ATOM     11  O   UNL     1     -12.118 -33.297  33.229  1.00  0.00    -0.452 OA
ENDROOT
BRANCH   1  12
ATOM     12  C   UNL     1     -12.987 -34.567  31.372  1.00  0.00     0.029 A 
ATOM     13  C   UNL     1     -13.004 -35.913  31.762  1.00  0.00     0.062 A 
ATOM     14  C   UNL     1     -12.846 -36.938  30.822  1.00  0.00     0.162 A 
ATOM     15  C   UNL     1     -12.771 -34.250  30.022  1.00  0.00     0.062 A 
ATOM     16  C   UNL     1     -12.652 -36.613  29.458  1.00  0.00     0.200 A 
ATOM     17  C   UNL     1     -12.611 -35.261  29.070  1.00  0.00     0.162 A 
BRANCH  14  18
ATOM     18  O   UNL     1     -12.887 -38.255  31.286  1.00  0.00    -0.504 OA
ATOM     19  H   UNL     1     -13.498 -38.579  32.022  1.00  0.00     0.293 HD
ENDBRANCH  14  18
BRANCH  16  20
ATOM     20  O   UNL     1     -12.496 -37.592  28.473  1.00  0.00    -0.502 OA
ATOM     21  H   UNL     1     -12.698 -38.571  28.609  1.00  0.00     0.293 HD
ENDBRANCH  16  20
BRANCH  17  22
ATOM     22  O   UNL     1     -12.406 -34.900  27.738  1.00  0.00    -0.504 OA
ATOM     23  H   UNL     1     -12.862 -34.099  27.318  1.00  0.00     0.293 HD
ENDBRANCH  17  22
ENDBRANCH   1  12
BRANCH   2  24
ATOM     24  O   UNL     1     -15.410 -33.005  31.698  1.00  0.00    -0.502 OA
ATOM     25  H   UNL     1     -16.056 -33.765  31.876  1.00  0.00     0.293 HD
ENDBRANCH   2  24
BRANCH   6  26
ATOM     26  O   UNL     1     -14.348 -29.724  35.591  1.00  0.00    -0.507 OA
ATOM     27  H   UNL     1     -15.299 -30.055  35.485  1.00  0.00     0.293 HD
ENDBRANCH   6  26
BRANCH   8  28
ATOM     28  O   UNL     1      -9.875 -31.115  36.815  1.00  0.00    -0.508 OA
ATOM     29  H   UNL     1      -9.948 -30.808  37.779  1.00  0.00     0.293 HD
ENDBRANCH   8  28
TORSDOF 7
ENDMDL
MODEL 4
REMARK VINA RESULT:    -3.440      2.035      3.215
REMARK INTER + INTRA:          -4.318
REMARK INTER:                  -4.225
REMARK INTRA:                  -0.093
REMARK UNBOUND:                -0.074
REMARK SMILES O=c1c(O)c(-c2cc(O)c(O)c(O)c2)oc2cc(O)cc(O)c12
REMARK SMILES IDX 5 1 3 2 2 3 1 4 23 5 21 6 20 7 18 8 17 9 16 10 15 11 6 12
REMARK SMILES IDX 7 13 8 14 14 15 10 16 12 17 9 18 11 20 13 22 4 24 22 26
REMARK SMILES IDX 19 28
REMARK H PARENT 9 19 11 21 13 23 4 25 22 27 19 29
REMARK Flexibility Score: inf
ROOT
ATOM      1  C   UNL     1     -11.971 -33.415  32.019  1.00  0.00     0.180 A 
ATOM      2  C   UNL     1     -10.964 -33.153  31.069  1.00  0.00     0.208 A 
ATOM      3  C   UNL     1     -10.992 -33.840  29.846  1.00  0.00     0.238 A 
ATOM      4  O   UNL     1     -10.102 -33.607  28.982  1.00  0.00    -0.285 OA
ATOM      5  C   UNL     1     -12.008 -34.787  29.600  1.00  0.00     0.111 A 
ATOM      6  C   UNL     1     -12.104 -35.525  28.395  1.00  0.00     0.134 A 
ATOM      7  C   UNL     1     -13.140 -36.458  28.232  1.00  0.00     0.093 A 
ATOM      8  C   UNL     1     -14.079 -36.665  29.248  1.00  0.00     0.123 A 
ATOM      9  C   UNL     1     -13.988 -35.940  30.437  1.00  0.00     0.094 A 
ATOM     10  C   UNL     1     -12.965 -35.006  30.620  1.00  0.00     0.146 A 
ATOM     11  O   UNL     1     -12.904 -34.326  31.760  1.00  0.00    -0.452 OA
ENDROOT
BRANCH   1  12
ATOM     12  C   UNL     1     -12.020 -32.717  33.324  1.00  0.00     0.029 A 
ATOM     13  C   UNL     1     -13.157 -31.970  33.665  1.00  0.00     0.062 A 
ATOM     14  C   UNL     1     -13.229 -31.281  34.880  1.00  0.00     0.162 A 
ATOM     15  C   UNL     1     -10.928 -32.738  34.205  1.00  0.00     0.062 A 
ATOM     16  C   UNL     1     -12.133 -31.325  35.776  1.00  0.00     0.200 A 
ATOM     17  C   UNL     1     -10.983 -32.054  35.423  1.00  0.00     0.162 A 
BRANCH  14  18
ATOM     18  O   UNL     1     -14.399 -30.569  35.154  1.00  0.00    -0.504 OA
ATOM     19  H   UNL     1     -15.293 -30.762  34.726  1.00  0.00     0.293 HD
ENDBRANCH  14  18
BRANCH  16  20
ATOM     20  O   UNL     1     -12.149 -30.663  37.007  1.00  0.00    -0.502 OA
ATOM     21  H   UNL     1     -12.184 -31.129  37.901  1.00  0.00     0.293 HD
ENDBRANCH  16  20
BRANCH  17  22
ATOM     22  O   UNL     1      -9.876 -32.109  36.271  1.00  0.00    -0.504 OA
ATOM     23  H   UNL     1      -9.948 -31.935  37.266  1.00  0.00     0.293 HD
ENDBRANCH  17  22
ENDBRANCH   1  12
BRANCH   2  24
ATOM     24  O   UNL     1      -9.942 -32.246  31.356  1.00  0.00    -0.502 OA
ATOM     25  H   UNL     1      -8.966 -32.457  31.184  1.00  0.00     0.293 HD
ENDBRANCH   2  24
BRANCH   6  26
ATOM     26  O   UNL     1     -11.182 -35.341  27.364  1.00  0.00    -0.507 OA
ATOM     27  H   UNL     1     -11.389 -34.758  26.562  1.00  0.00     0.293 HD
ENDBRANCH   6  26
BRANCH   8  28
ATOM     28  O   UNL     1     -15.107 -37.591  29.087  1.00  0.00    -0.508 OA
ATOM     29  H   UNL     1     -14.914 -38.575  28.934  1.00  0.00     0.293 HD
ENDBRANCH   8  28
TORSDOF 7
ENDMDL
MODEL 5
REMARK VINA RESULT:    -3.355      1.641      3.758
REMARK INTER + INTRA:          -4.214
REMARK INTER:                  -4.247
REMARK INTRA:                   0.033
REMARK UNBOUND:                -0.074
REMARK SMILES O=c1c(O)c(-c2cc(O)c(O)c(O)c2)oc2cc(O)cc(O)c12
REMARK SMILES IDX 5 1 3 2 2 3 1 4 23 5 21 6 20 7 18 8 17 9 16 10 15 11 6 12
REMARK SMILES IDX 7 13 8 14 14 15 10 16 12 17 9 18 11 20 13 22 4 24 22 26
REMARK SMILES IDX 19 28
REMARK H PARENT 9 19 11 21 13 23 4 25 22 27 19 29
REMARK Flexibility Score: inf
ROOT
ATOM      1  C   UNL     1     -12.999 -33.498  32.396  1.00  0.00     0.180 A 
ATOM      2  C   UNL     1     -13.580 -33.020  31.205  1.00  0.00     0.208 A 
ATOM      3  C   UNL     1     -13.865 -33.931  30.177  1.00  0.00     0.238 A 
ATOM      4  O   UNL     1     -14.395 -33.517  29.110  1.00  0.00    -0.285 OA
ATOM      5  C   UNL     1     -13.548 -35.295  30.346  1.00  0.00     0.111 A 
ATOM      6  C   UNL     1     -13.799 -36.277  29.357  1.00  0.00     0.134 A 
ATOM      7  C   UNL     1     -13.445 -37.613  29.597  1.00  0.00     0.093 A 
ATOM      8  C   UNL     1     -12.847 -37.985  30.806  1.00  0.00     0.123 A 
ATOM      9  C   UNL     1     -12.598 -37.021  31.785  1.00  0.00     0.094 A 
ATOM     10  C   UNL     1     -12.944 -35.685  31.565  1.00  0.00     0.146 A 
ATOM     11  O   UNL     1     -12.700 -34.788  32.515  1.00  0.00    -0.452 OA
ENDROOT
BRANCH   1  12
ATOM     12  C   UNL     1     -12.686 -32.602  33.533  1.00  0.00     0.029 A 
ATOM     13  C   UNL     1     -13.645 -31.676  33.966  1.00  0.00     0.062 A 
ATOM     14  C   UNL     1     -13.376 -30.799  35.023  1.00  0.00     0.162 A 
ATOM     15  C   UNL     1     -11.426 -32.618  34.150  1.00  0.00     0.062 A 
ATOM     16  C   UNL     1     -12.110 -30.836  35.657  1.00  0.00     0.200 A 
ATOM     17  C   UNL     1     -11.139 -31.749  35.206  1.00  0.00     0.162 A 
BRANCH  14  18
ATOM     18  O   UNL     1     -14.386 -29.915  35.405  1.00  0.00    -0.504 OA
ATOM     19  H   UNL     1     -14.310 -28.909  35.351  1.00  0.00     0.293 HD
ENDBRANCH  14  18
BRANCH  16  20
ATOM     20  O   UNL     1     -11.786 -29.992  36.722  1.00  0.00    -0.502 OA
ATOM     21  H   UNL     1     -11.132 -30.226  37.454  1.00  0.00     0.293 HD
ENDBRANCH  16  20
BRANCH  17  22
ATOM     22  O   UNL     1      -9.875 -31.805  35.794  1.00  0.00    -0.504 OA
ATOM     23  H   UNL     1      -9.086 -32.248  35.340  1.00  0.00     0.293 HD
ENDBRANCH  17  22
ENDBRANCH   1  12
BRANCH   2  24
ATOM     24  O   UNL     1     -13.839 -31.657  31.044  1.00  0.00    -0.502 OA
ATOM     25  H   UNL     1     -13.332 -30.945  31.556  1.00  0.00     0.293 HD
ENDBRANCH   2  24
BRANCH   6  26
ATOM     26  O   UNL     1     -14.394 -35.936  28.141  1.00  0.00    -0.507 OA
ATOM     27  H   UNL     1     -14.296 -36.519  27.318  1.00  0.00     0.293 HD
ENDBRANCH   6  26
BRANCH   8  28
ATOM     28  O   UNL     1     -12.495 -39.311  31.046  1.00  0.00    -0.508 OA
ATOM     29  H   UNL     1     -11.945 -39.842  30.379  1.00  0.00     0.293 HD
ENDBRANCH   8  28
TORSDOF 7
ENDMDL
MODEL 6
REMARK VINA RESULT:    -2.158      1.322      6.945
REMARK INTER + INTRA:          -2.737
REMARK INTER:                  -2.519
REMARK INTRA:                  -0.218
REMARK UNBOUND:                -0.074
REMARK SMILES O=c1c(O)c(-c2cc(O)c(O)c(O)c2)oc2cc(O)cc(O)c12
REMARK SMILES IDX 5 1 3 2 2 3 1 4 23 5 21 6 20 7 18 8 17 9 16 10 15 11 6 12
REMARK SMILES IDX 7 13 8 14 14 15 10 16 12 17 9 18 11 20 13 22 4 24 22 26
REMARK SMILES IDX 19 28
REMARK H PARENT 9 19 11 21 13 23 4 25 22 27 19 29
REMARK Flexibility Score: inf
ROOT
ATOM      1  C   UNL     1     -12.775 -33.432  32.007  1.00  0.00     0.180 A 
ATOM      2  C   UNL     1     -11.489 -33.755  32.484  1.00  0.00     0.208 A 
ATOM      3  C   UNL     1     -11.020 -33.126  33.648  1.00  0.00     0.238 A 
ATOM      4  O   UNL     1      -9.875 -33.416  34.091  1.00  0.00    -0.285 OA
ATOM      5  C   UNL     1     -11.831 -32.176  34.302  1.00  0.00     0.111 A 
ATOM      6  C   UNL     1     -11.431 -31.496  35.478  1.00  0.00     0.134 A 
ATOM      7  C   UNL     1     -12.292 -30.555  36.065  1.00  0.00     0.093 A 
ATOM      8  C   UNL     1     -13.542 -30.284  35.499  1.00  0.00     0.123 A 
ATOM      9  C   UNL     1     -13.941 -30.953  34.341  1.00  0.00     0.094 A 
ATOM     10  C   UNL     1     -13.099 -31.894  33.741  1.00  0.00     0.146 A 
ATOM     11  O   UNL     1     -13.506 -32.519  32.642  1.00  0.00    -0.452 OA
ENDROOT
BRANCH   1  12
ATOM     12  C   UNL     1     -13.347 -34.065  30.797  1.00  0.00     0.029 A 
ATOM     13  C   UNL     1     -13.635 -35.437  30.807  1.00  0.00     0.062 A 
ATOM     14  C   UNL     1     -14.155 -36.073  29.674  1.00  0.00     0.162 A 
ATOM     15  C   UNL     1     -13.553 -33.333  29.618  1.00  0.00     0.062 A 
ATOM     16  C   UNL     1     -14.383 -35.324  28.494  1.00  0.00     0.200 A 
ATOM     17  C   UNL     1     -14.071 -33.952  28.477  1.00  0.00     0.162 A 
BRANCH  14  18
ATOM     18  O   UNL     1     -14.428 -37.439  29.766  1.00  0.00    -0.504 OA
ATOM     19  H   UNL     1     -13.765 -38.167  29.540  1.00  0.00     0.293 HD
ENDBRANCH  14  18
BRANCH  16  20
ATOM     20  O   UNL     1     -14.908 -35.901  27.335  1.00  0.00    -0.502 OA
ATOM     21  H   UNL     1     -14.430 -36.596  26.781  1.00  0.00     0.293 HD
ENDBRANCH  16  20
BRANCH  17  22
ATOM     22  O   UNL     1     -14.266 -33.184  27.329  1.00  0.00    -0.504 OA
ATOM     23  H   UNL     1     -14.925 -33.447  26.606  1.00  0.00     0.293 HD
ENDBRANCH  17  22
ENDBRANCH   1  12
BRANCH   2  24
ATOM     24  O   UNL     1     -10.687 -34.663  31.790  1.00  0.00    -0.502 OA
ATOM     25  H   UNL     1     -10.225 -35.439  32.248  1.00  0.00     0.293 HD
ENDBRANCH   2  24
BRANCH   6  26
ATOM     26  O   UNL     1     -10.190 -31.744  36.065  1.00  0.00    -0.507 OA
ATOM     27  H   UNL     1      -9.919 -32.671  36.369  1.00  0.00     0.293 HD
ENDBRANCH   6  26
BRANCH   8  28
ATOM     28  O   UNL     1     -14.397 -29.351  36.080  1.00  0.00    -0.508 OA
ATOM     29  H   UNL     1     -15.345 -29.594  36.348  1.00  0.00     0.293 HD
ENDBRANCH   8  28
TORSDOF 7
ENDMDL
MODEL 7
REMARK VINA RESULT:    -2.072      2.075      2.878
REMARK INTER + INTRA:          -2.631
REMARK INTER:                  -2.460
REMARK INTRA:                  -0.171
REMARK UNBOUND:                -0.074
REMARK SMILES O=c1c(O)c(-c2cc(O)c(O)c(O)c2)oc2cc(O)cc(O)c12
REMARK SMILES IDX 5 1 3 2 2 3 1 4 23 5 21 6 20 7 18 8 17 9 16 10 15 11 6 12
REMARK SMILES IDX 7 13 8 14 14 15 10 16 12 17 9 18 11 20 13 22 4 24 22 26
REMARK SMILES IDX 19 28
REMARK H PARENT 9 19 11 21 13 23 4 25 22 27 19 29
REMARK Flexibility Score: inf
ROOT
ATOM      1  C   UNL     1     -12.678 -33.156  32.754  1.00  0.00     0.180 A 
ATOM      2  C   UNL     1     -13.738 -34.082  32.703  1.00  0.00     0.208 A 
ATOM      3  C   UNL     1     -13.867 -34.901  31.570  1.00  0.00     0.238 A 
ATOM      4  O   UNL     1     -14.806 -35.743  31.517  1.00  0.00    -0.285 OA
ATOM      5  C   UNL     1     -12.953 -34.769  30.505  1.00  0.00     0.111 A 
ATOM      6  C   UNL     1     -13.016 -35.553  29.328  1.00  0.00     0.134 A 
ATOM      7  C   UNL     1     -12.074 -35.354  28.308  1.00  0.00     0.093 A 
ATOM      8  C   UNL     1     -11.071 -34.387  28.443  1.00  0.00     0.123 A 
ATOM      9  C   UNL     1     -11.004 -33.612  29.602  1.00  0.00     0.094 A 
ATOM     10  C   UNL     1     -11.933 -33.796  30.630  1.00  0.00     0.146 A 
ATOM     11  O   UNL     1     -11.843 -33.048  31.724  1.00  0.00    -0.452 OA
ENDROOT
BRANCH   1  12
ATOM     12  C   UNL     1     -12.464 -32.270  33.921  1.00  0.00     0.029 A 
ATOM     13  C   UNL     1     -13.430 -31.306  34.242  1.00  0.00     0.062 A 
ATOM     14  C   UNL     1     -13.251 -30.437  35.324  1.00  0.00     0.162 A 
ATOM     15  C   UNL     1     -11.285 -32.334  34.681  1.00  0.00     0.062 A 
ATOM     16  C   UNL     1     -12.070 -30.523  36.102  1.00  0.00     0.200 A 
ATOM     17  C   UNL     1     -11.090 -31.474  35.765  1.00  0.00     0.162 A 
BRANCH  14  18
ATOM     18  O   UNL     1     -14.263 -29.513  35.588  1.00  0.00    -0.504 OA
ATOM     19  H   UNL     1     -15.015 -29.666  36.245  1.00  0.00     0.293 HD
ENDBRANCH  14  18
BRANCH  16  20
ATOM     20  O   UNL     1     -11.838 -29.689  37.199  1.00  0.00    -0.502 OA
ATOM     21  H   UNL     1     -11.379 -29.982  38.048  1.00  0.00     0.293 HD
ENDBRANCH  16  20
BRANCH  17  22
ATOM     22  O   UNL     1      -9.906 -31.578  36.496  1.00  0.00    -0.504 OA
ATOM     23  H   UNL     1      -9.284 -30.791  36.634  1.00  0.00     0.293 HD
ENDBRANCH  17  22
ENDBRANCH   1  12
BRANCH   2  24
ATOM     24  O   UNL     1     -14.659 -34.160  33.750  1.00  0.00    -0.502 OA
ATOM     25  H   UNL     1     -14.954 -33.345  34.274  1.00  0.00     0.293 HD
ENDBRANCH   2  24
BRANCH   6  26
ATOM     26  O   UNL     1     -14.005 -36.524  29.164  1.00  0.00    -0.507 OA
ATOM     27  H   UNL     1     -14.724 -36.676  29.861  1.00  0.00     0.293 HD
ENDBRANCH   6  26
BRANCH   8  28
ATOM     28  O   UNL     1     -10.136 -34.188  27.430  1.00  0.00    -0.508 OA
ATOM     29  H   UNL     1     -10.394 -33.763  26.546  1.00  0.00     0.293 HD
ENDBRANCH   8  28
TORSDOF 7
ENDMDL
