MODEL 1
REMARK VINA RESULT:    -5.414      0.000      0.000
REMARK INTER + INTRA:         -10.040
REMARK INTER:                  -8.262
REMARK INTRA:                  -1.778
REMARK UNBOUND:                -1.778
REMARK SMILES OC[C@@H]1O[C@H](O[C@]2(CO)O[C@H](CO)[C@@H](O)[C@@H]2O)[C@@H](O)[C@H](O)[C@@H]1O
REMARK SMILES IDX 6 1 5 2 3 3 22 4 4 5 20 6 18 7 2 8 1 9 23 11 21 13 19 15
REMARK SMILES IDX 7 17 16 18 10 19 14 20 11 21 8 22 9 23 17 25 15 27 12 29
REMARK SMILES IDX 13 30
REMARK H PARENT 1 10 23 12 21 14 19 16 9 24 17 26 15 28 13 31
REMARK Flexibility Score: inf
ROOT
ATOM      1  O   UNL     1     -22.871 -27.867   2.406  1.00  0.00    -0.313 OA
ENDROOT
BRANCH   1   2
ATOM      2  C   UNL     1     -22.261 -26.614   2.692  1.00  0.00     0.285 C 
ATOM      3  C   UNL     1     -20.217 -26.510   1.393  1.00  0.00     0.178 C 
ATOM      4  C   UNL     1     -21.148 -26.558   0.161  1.00  0.00     0.177 C 
ATOM      5  O   UNL     1     -20.853 -26.785   2.637  1.00  0.00    -0.341 OA
ATOM      6  C   UNL     1     -22.261 -25.515   0.340  1.00  0.00     0.179 C 
ATOM      7  C   UNL     1     -22.794 -25.463   1.792  1.00  0.00     0.202 C 
BRANCH   3   8
ATOM      8  C   UNL     1     -19.033 -27.475   1.236  1.00  0.00     0.191 C 
BRANCH   8   9
ATOM      9  O   UNL     1     -19.453 -28.811   1.314  1.00  0.00    -0.394 OA
ATOM     10  H   UNL     1     -19.954 -29.012   0.479  1.00  0.00     0.210 HD
ENDBRANCH   8   9
ENDBRANCH   3   8
BRANCH   4  11
ATOM     11  O   UNL     1     -21.677 -27.850  -0.004  1.00  0.00    -0.387 OA
ATOM     12  H   UNL     1     -21.096 -28.467   0.516  1.00  0.00     0.211 HD
ENDBRANCH   4  11
BRANCH   6  13
ATOM     13  O   UNL     1     -23.312 -25.761  -0.560  1.00  0.00    -0.387 OA
ATOM     14  H   UNL     1     -23.208 -25.115  -1.316  1.00  0.00     0.211 HD
ENDBRANCH   6  13
BRANCH   7  15
ATOM     15  O   UNL     1     -22.431 -24.237   2.363  1.00  0.00    -0.385 OA
ATOM     16  H   UNL     1     -21.448 -24.146   2.259  1.00  0.00     0.211 HD
ENDBRANCH   7  15
ENDBRANCH   1   2
BRANCH   1  17
ATOM     17  C   UNL     1     -23.067 -28.810   3.476  1.00  0.00     0.224 C 
ATOM     18  C   UNL     1     -22.663 -30.220   3.011  1.00  0.00     0.208 C 
ATOM     19  O   UNL     1     -22.157 -28.453   4.495  1.00  0.00    -0.337 OA
ATOM     20  C   UNL     1     -21.989 -30.836   4.223  1.00  0.00     0.180 C 
ATOM     21  C   UNL     1     -21.700 -29.633   5.126  1.00  0.00     0.179 C 
BRANCH  17  22
ATOM     22  C   UNL     1     -24.490 -28.846   4.125  1.00  0.00     0.225 C 
BRANCH  22  23
ATOM     23  O   UNL     1     -24.880 -27.566   4.555  1.00  0.00    -0.391 OA
ATOM     24  H   UNL     1     -24.287 -27.320   5.313  1.00  0.00     0.210 HD
ENDBRANCH  22  23
ENDBRANCH  17  22
BRANCH  18  25
ATOM     25  O   UNL     1     -21.722 -30.142   1.969  1.00  0.00    -0.385 OA
ATOM     26  H   UNL     1     -21.463 -29.182   1.885  1.00  0.00     0.211 HD
ENDBRANCH  18  25
BRANCH  20  27
ATOM     27  O   UNL     1     -22.853 -31.732   4.876  1.00  0.00    -0.387 OA
ATOM     28  H   UNL     1     -23.674 -31.789   4.316  1.00  0.00     0.211 HD
ENDBRANCH  20  27
BRANCH  21  29
ATOM     29  C   UNL     1     -20.207 -29.480   5.443  1.00  0.00     0.191 C 
BRANCH  29  30
ATOM     30  O   UNL     1     -19.500 -29.100   4.293  1.00  0.00    -0.394 OA
ATOM     31  H   UNL     1     -18.662 -28.659   4.604  1.00  0.00     0.210 HD
ENDBRANCH  29  30
ENDBRANCH  21  29
ENDBRANCH   1  17
TORSDOF 13
ENDMDL
MODEL 2
REMARK VINA RESULT:    -5.273     11.389     13.984
REMARK INTER + INTRA:          -9.826
REMARK INTER:                  -7.815
REMARK INTRA:                  -2.011
REMARK UNBOUND:                -1.778
REMARK SMILES OC[C@@H]1O[C@H](O[C@]2(CO)O[C@H](CO)[C@@H](O)[C@@H]2O)[C@@H](O)[C@H](O)[C@@H]1O
REMARK SMILES IDX 6 1 5 2 3 3 22 4 4 5 20 6 18 7 2 8 1 9 23 11 21 13 19 15
REMARK SMILES IDX 7 17 16 18 10 19 14 20 11 21 8 22 9 23 17 25 15 27 12 29
REMARK SMILES IDX 13 30
REMARK H PARENT 1 10 23 12 21 14 19 16 9 24 17 26 15 28 13 31
REMARK Flexibility Score: inf
ROOT
ATOM      1  O   UNL     1     -21.449 -25.599  15.807  1.00  0.00    -0.313 OA
ENDROOT
BRANCH   1   2
ATOM      2  C   UNL     1     -22.752 -26.151  15.656  1.00  0.00     0.285 C 
ATOM      3  C   UNL     1     -22.925 -27.989  17.227  1.00  0.00     0.178 C 
ATOM      4  C   UNL     1     -22.757 -26.907  18.317  1.00  0.00     0.177 C 
ATOM      5  O   UNL     1     -22.670 -27.548  15.898  1.00  0.00    -0.341 OA
ATOM      6  C   UNL     1     -23.733 -25.757  18.027  1.00  0.00     0.179 C 
ATOM      7  C   UNL     1     -23.820 -25.421  16.520  1.00  0.00     0.202 C 
BRANCH   3   8
ATOM      8  C   UNL     1     -22.032 -29.207  17.507  1.00  0.00     0.191 C 
BRANCH   8   9
ATOM      9  O   UNL     1     -20.698 -28.950  17.158  1.00  0.00    -0.394 OA
ATOM     10  H   UNL     1     -20.439 -29.620  16.471  1.00  0.00     0.210 HD
ENDBRANCH   8   9
ENDBRANCH   3   8
BRANCH   4  11
ATOM     11  O   UNL     1     -21.427 -26.454  18.357  1.00  0.00    -0.387 OA
ATOM     12  H   UNL     1     -21.392 -25.615  17.823  1.00  0.00     0.211 HD
ENDBRANCH   4  11
BRANCH   6  13
ATOM     13  O   UNL     1     -23.376 -24.615  18.764  1.00  0.00    -0.387 OA
ATOM     14  H   UNL     1     -22.505 -24.290  18.397  1.00  0.00     0.211 HD
ENDBRANCH   6  13
BRANCH   7  15
ATOM     15  O   UNL     1     -25.094 -25.770  16.052  1.00  0.00    -0.385 OA
ATOM     16  H   UNL     1     -25.204 -26.745  16.204  1.00  0.00     0.211 HD
ENDBRANCH   7  15
ENDBRANCH   1   2
BRANCH   1  17
ATOM     17  C   UNL     1     -20.533 -25.652  14.697  1.00  0.00     0.224 C 
ATOM     18  C   UNL     1     -19.122 -26.002  15.200  1.00  0.00     0.208 C 
ATOM     19  O   UNL     1     -20.947 -26.735  13.890  1.00  0.00    -0.337 OA
ATOM     20  C   UNL     1     -18.562 -26.925  14.133  1.00  0.00     0.180 C 
ATOM     21  C   UNL     1     -19.800 -27.349  13.336  1.00  0.00     0.179 C 
BRANCH  17  22
ATOM     22  C   UNL     1     -20.477 -24.390  13.775  1.00  0.00     0.225 C 
BRANCH  22  23
ATOM     23  O   UNL     1     -19.297 -23.657  13.995  1.00  0.00    -0.391 OA
ATOM     24  H   UNL     1     -18.608 -24.302  14.303  1.00  0.00     0.210 HD
ENDBRANCH  22  23
ENDBRANCH  17  22
BRANCH  18  25
ATOM     25  O   UNL     1     -19.195 -26.713  16.412  1.00  0.00    -0.385 OA
ATOM     26  H   UNL     1     -20.113 -27.099  16.464  1.00  0.00     0.211 HD
ENDBRANCH  18  25
BRANCH  20  27
ATOM     27  O   UNL     1     -17.663 -26.241  13.299  1.00  0.00    -0.387 OA
ATOM     28  H   UNL     1     -18.142 -25.432  12.971  1.00  0.00     0.211 HD
ENDBRANCH  20  27
BRANCH  21  29
ATOM     29  C   UNL     1     -20.004 -28.869  13.329  1.00  0.00     0.191 C 
BRANCH  29  30
ATOM     30  O   UNL     1     -21.082 -29.220  14.155  1.00  0.00    -0.394 OA
ATOM     31  H   UNL     1     -21.203 -28.471  14.802  1.00  0.00     0.210 HD
ENDBRANCH  29  30
ENDBRANCH  21  29
ENDBRANCH   1  17
TORSDOF 13
ENDMDL
MODEL 3
REMARK VINA RESULT:    -5.229      5.927      8.318
REMARK INTER + INTRA:          -9.759
REMARK INTER:                  -7.959
REMARK INTRA:                  -1.800
REMARK UNBOUND:                -1.778
REMARK SMILES OC[C@@H]1O[C@H](O[C@]2(CO)O[C@H](CO)[C@@H](O)[C@@H]2O)[C@@H](O)[C@H](O)[C@@H]1O
REMARK SMILES IDX 6 1 5 2 3 3 22 4 4 5 20 6 18 7 2 8 1 9 23 11 21 13 19 15
REMARK SMILES IDX 7 17 16 18 10 19 14 20 11 21 8 22 9 23 17 25 15 27 12 29
REMARK SMILES IDX 13 30
REMARK H PARENT 1 10 23 12 21 14 19 16 9 24 17 26 15 28 13 31
REMARK Flexibility Score: inf
ROOT
ATOM      1  O   UNL     1     -19.939 -29.725   9.176  1.00  0.00    -0.313 OA
ENDROOT
BRANCH   1   2
ATOM      2  C   UNL     1     -19.730 -29.328  10.527  1.00  0.00     0.285 C 
ATOM      3  C   UNL     1     -17.420 -29.832  11.061  1.00  0.00     0.178 C 
ATOM      4  C   UNL     1     -17.075 -28.788   9.975  1.00  0.00     0.177 C 
ATOM      5  O   UNL     1     -18.789 -30.219  11.108  1.00  0.00    -0.341 OA
ATOM      6  C   UNL     1     -17.895 -27.516  10.231  1.00  0.00     0.179 C 
ATOM      7  C   UNL     1     -19.348 -27.827  10.663  1.00  0.00     0.202 C 
BRANCH   3   8
ATOM      8  C   UNL     1     -16.568 -31.100  10.907  1.00  0.00     0.191 C 
BRANCH   8   9
ATOM      9  O   UNL     1     -16.860 -31.766   9.708  1.00  0.00    -0.394 OA
ATOM     10  H   UNL     1     -17.279 -32.635   9.948  1.00  0.00     0.210 HD
ENDBRANCH   8   9
ENDBRANCH   3   8
BRANCH   4  11
ATOM     11  O   UNL     1     -17.325 -29.312   8.695  1.00  0.00    -0.387 OA
ATOM     12  H   UNL     1     -17.851 -28.627   8.201  1.00  0.00     0.211 HD
ENDBRANCH   4  11
BRANCH   6  13
ATOM     13  O   UNL     1     -17.887 -26.691   9.094  1.00  0.00    -0.387 OA
ATOM     14  H   UNL     1     -18.152 -27.261   8.317  1.00  0.00     0.211 HD
ENDBRANCH   6  13
BRANCH   7  15
ATOM     15  O   UNL     1     -19.517 -27.437  11.997  1.00  0.00    -0.385 OA
ATOM     16  H   UNL     1     -20.451 -27.114  12.091  1.00  0.00     0.211 HD
ENDBRANCH   7  15
ENDBRANCH   1   2
BRANCH   1  17
ATOM     17  C   UNL     1     -21.089 -30.530   8.853  1.00  0.00     0.224 C 
ATOM     18  C   UNL     1     -20.635 -31.886   8.286  1.00  0.00     0.208 C 
ATOM     19  O   UNL     1     -21.738 -30.808  10.076  1.00  0.00    -0.337 OA
ATOM     20  C   UNL     1     -21.620 -32.884   8.868  1.00  0.00     0.180 C 
ATOM     21  C   UNL     1     -22.286 -32.110  10.010  1.00  0.00     0.179 C 
BRANCH  17  22
ATOM     22  C   UNL     1     -22.153 -29.881   7.906  1.00  0.00     0.225 C 
BRANCH  22  23
ATOM     23  O   UNL     1     -22.107 -30.460   6.626  1.00  0.00    -0.391 OA
ATOM     24  H   UNL     1     -21.823 -31.404   6.743  1.00  0.00     0.210 HD
ENDBRANCH  22  23
ENDBRANCH  17  22
BRANCH  18  25
ATOM     25  O   UNL     1     -19.347 -32.206   8.752  1.00  0.00    -0.385 OA
ATOM     26  H   UNL     1     -19.453 -32.537   9.688  1.00  0.00     0.211 HD
ENDBRANCH  18  25
BRANCH  20  27
ATOM     27  O   UNL     1     -22.580 -33.256   7.913  1.00  0.00    -0.387 OA
ATOM     28  H   UNL     1     -22.208 -34.044   7.432  1.00  0.00     0.211 HD
ENDBRANCH  20  27
BRANCH  21  29
ATOM     29  C   UNL     1     -22.105 -32.794  11.370  1.00  0.00     0.191 C 
BRANCH  29  30
ATOM     30  O   UNL     1     -20.751 -32.803  11.735  1.00  0.00    -0.394 OA
ATOM     31  H   UNL     1     -20.668 -32.222  12.542  1.00  0.00     0.210 HD
ENDBRANCH  29  30
ENDBRANCH  21  29
ENDBRANCH   1  17
TORSDOF 13
ENDMDL
MODEL 4
REMARK VINA RESULT:    -5.213      5.921      8.356
REMARK INTER + INTRA:          -9.734
REMARK INTER:                  -7.908
REMARK INTRA:                  -1.826
REMARK UNBOUND:                -1.778
REMARK SMILES OC[C@@H]1O[C@H](O[C@]2(CO)O[C@H](CO)[C@@H](O)[C@@H]2O)[C@@H](O)[C@H](O)[C@@H]1O
REMARK SMILES IDX 6 1 5 2 3 3 22 4 4 5 20 6 18 7 2 8 1 9 23 11 21 13 19 15
REMARK SMILES IDX 7 17 16 18 10 19 14 20 11 21 8 22 9 23 17 25 15 27 12 29
REMARK SMILES IDX 13 30
REMARK H PARENT 1 10 23 12 21 14 19 16 9 24 17 26 15 28 13 31
REMARK Flexibility Score: inf
ROOT
ATOM      1  O   UNL     1     -19.134 -28.710   9.575  1.00  0.00    -0.313 OA
ENDROOT
BRANCH   1   2
ATOM      2  C   UNL     1     -19.747 -28.795   8.294  1.00  0.00     0.285 C 
ATOM      3  C   UNL     1     -19.174 -30.966   7.380  1.00  0.00     0.178 C 
ATOM      4  C   UNL     1     -19.981 -31.537   8.568  1.00  0.00     0.177 C 
ATOM      5  O   UNL     1     -18.906 -29.570   7.452  1.00  0.00    -0.341 OA
ATOM      6  C   UNL     1     -21.336 -30.819   8.638  1.00  0.00     0.179 C 
ATOM      7  C   UNL     1     -21.216 -29.302   8.359  1.00  0.00     0.202 C 
BRANCH   3   8
ATOM      8  C   UNL     1     -17.838 -31.703   7.206  1.00  0.00     0.191 C 
BRANCH   8   9
ATOM      9  O   UNL     1     -16.846 -30.846   6.710  1.00  0.00    -0.394 OA
ATOM     10  H   UNL     1     -16.053 -31.405   6.498  1.00  0.00     0.210 HD
ENDBRANCH   8   9
ENDBRANCH   3   8
BRANCH   4  11
ATOM     11  O   UNL     1     -19.259 -31.390   9.766  1.00  0.00    -0.387 OA
ATOM     12  H   UNL     1     -19.148 -30.414   9.917  1.00  0.00     0.211 HD
ENDBRANCH   4  11
BRANCH   6  13
ATOM     13  O   UNL     1     -21.944 -31.041   9.885  1.00  0.00    -0.387 OA
ATOM     14  H   UNL     1     -22.755 -31.602   9.719  1.00  0.00     0.211 HD
ENDBRANCH   6  13
BRANCH   7  15
ATOM     15  O   UNL     1     -21.848 -29.015   7.142  1.00  0.00    -0.385 OA
ATOM     16  H   UNL     1     -21.149 -29.043   6.437  1.00  0.00     0.211 HD
ENDBRANCH   7  15
ENDBRANCH   1   2
BRANCH   1  17
ATOM     17  C   UNL     1     -18.132 -27.703   9.806  1.00  0.00     0.224 C 
ATOM     18  C   UNL     1     -16.797 -28.370  10.181  1.00  0.00     0.208 C 
ATOM     19  O   UNL     1     -17.919 -27.059   8.567  1.00  0.00    -0.337 OA
ATOM     20  C   UNL     1     -15.746 -27.524   9.487  1.00  0.00     0.180 C 
ATOM     21  C   UNL     1     -16.552 -26.712   8.468  1.00  0.00     0.179 C 
BRANCH  17  22
ATOM     22  C   UNL     1     -18.486 -26.589  10.846  1.00  0.00     0.225 C 
BRANCH  22  23
ATOM     23  O   UNL     1     -17.757 -26.761  12.036  1.00  0.00    -0.391 OA
ATOM     24  H   UNL     1     -16.795 -26.772  11.789  1.00  0.00     0.210 HD
ENDBRANCH  22  23
ENDBRANCH  17  22
BRANCH  18  25
ATOM     25  O   UNL     1     -16.737 -29.675   9.657  1.00  0.00    -0.385 OA
ATOM     26  H   UNL     1     -16.666 -29.585   8.666  1.00  0.00     0.211 HD
ENDBRANCH  18  25
BRANCH  20  27
ATOM     27  O   UNL     1     -15.114 -26.662  10.398  1.00  0.00    -0.387 OA
ATOM     28  H   UNL     1     -14.189 -26.521  10.058  1.00  0.00     0.211 HD
ENDBRANCH  20  27
BRANCH  21  29
ATOM     29  C   UNL     1     -16.084 -26.944   7.027  1.00  0.00     0.191 C 
BRANCH  29  30
ATOM     30  O   UNL     1     -15.678 -28.275   6.854  1.00  0.00    -0.394 OA
ATOM     31  H   UNL     1     -16.248 -28.829   7.455  1.00  0.00     0.210 HD
ENDBRANCH  29  30
ENDBRANCH  21  29
ENDBRANCH   1  17
TORSDOF 13
ENDMDL
MODEL 5
REMARK VINA RESULT:    -5.169     12.944     15.179
REMARK INTER + INTRA:          -9.666
REMARK INTER:                  -8.251
REMARK INTRA:                  -1.416
REMARK UNBOUND:                -1.778
REMARK SMILES OC[C@@H]1O[C@H](O[C@]2(CO)O[C@H](CO)[C@@H](O)[C@@H]2O)[C@@H](O)[C@H](O)[C@@H]1O
REMARK SMILES IDX 6 1 5 2 3 3 22 4 4 5 20 6 18 7 2 8 1 9 23 11 21 13 19 15
REMARK SMILES IDX 7 17 16 18 10 19 14 20 11 21 8 22 9 23 17 25 15 27 12 29
REMARK SMILES IDX 13 30
REMARK H PARENT 1 10 23 12 21 14 19 16 9 24 17 26 15 28 13 31
REMARK Flexibility Score: inf
ROOT
ATOM      1  O   UNL     1     -30.765 -16.754   7.690  1.00  0.00    -0.313 OA
ENDROOT
BRANCH   1   2
ATOM      2  C   UNL     1     -30.886 -17.990   8.384  1.00  0.00     0.285 C 
ATOM      3  C   UNL     1     -28.790 -18.353   9.548  1.00  0.00     0.178 C 
ATOM      4  C   UNL     1     -29.157 -17.079  10.341  1.00  0.00     0.177 C 
ATOM      5  O   UNL     1     -29.608 -18.608   8.411  1.00  0.00    -0.341 OA
ATOM      6  C   UNL     1     -30.603 -17.205  10.843  1.00  0.00     0.179 C 
ATOM      7  C   UNL     1     -31.542 -17.833   9.786  1.00  0.00     0.202 C 
BRANCH   3   8
ATOM      8  C   UNL     1     -27.326 -18.323   9.089  1.00  0.00     0.191 C 
BRANCH   8   9
ATOM      9  O   UNL     1     -27.114 -17.320   8.132  1.00  0.00    -0.394 OA
ATOM     10  H   UNL     1     -27.964 -17.209   7.629  1.00  0.00     0.210 HD
ENDBRANCH   8   9
ENDBRANCH   3   8
BRANCH   4  11
ATOM     11  O   UNL     1     -28.990 -15.937   9.538  1.00  0.00    -0.387 OA
ATOM     12  H   UNL     1     -29.337 -15.165  10.060  1.00  0.00     0.211 HD
ENDBRANCH   4  11
BRANCH   6  13
ATOM     13  O   UNL     1     -31.091 -15.952  11.250  1.00  0.00    -0.387 OA
ATOM     14  H   UNL     1     -31.449 -15.498  10.435  1.00  0.00     0.211 HD
ENDBRANCH   6  13
BRANCH   7  15
ATOM     15  O   UNL     1     -31.951 -19.095  10.237  1.00  0.00    -0.385 OA
ATOM     16  H   UNL     1     -32.915 -19.025  10.465  1.00  0.00     0.211 HD
ENDBRANCH   7  15
ENDBRANCH   1   2
BRANCH   1  17
ATOM     17  C   UNL     1     -31.220 -16.670   6.326  1.00  0.00     0.224 C 
ATOM     18  C   UNL     1     -30.013 -16.554   5.379  1.00  0.00     0.208 C 
ATOM     19  O   UNL     1     -31.835 -17.907   6.034  1.00  0.00    -0.337 OA
ATOM     20  C   UNL     1     -30.398 -17.394   4.175  1.00  0.00     0.180 C 
ATOM     21  C   UNL     1     -31.576 -18.232   4.682  1.00  0.00     0.179 C 
BRANCH  17  22
ATOM     22  C   UNL     1     -32.265 -15.551   6.004  1.00  0.00     0.225 C 
BRANCH  22  23
ATOM     23  O   UNL     1     -33.553 -15.930   6.421  1.00  0.00    -0.391 OA
ATOM     24  H   UNL     1     -34.163 -15.782   5.652  1.00  0.00     0.210 HD
ENDBRANCH  22  23
ENDBRANCH  17  22
BRANCH  18  25
ATOM     25  O   UNL     1     -28.869 -17.119   5.971  1.00  0.00    -0.385 OA
ATOM     26  H   UNL     1     -28.123 -16.471   5.834  1.00  0.00     0.211 HD
ENDBRANCH  18  25
BRANCH  20  27
ATOM     27  O   UNL     1     -30.809 -16.580   3.107  1.00  0.00    -0.387 OA
ATOM     28  H   UNL     1     -30.700 -15.639   3.411  1.00  0.00     0.211 HD
ENDBRANCH  20  27
BRANCH  21  29
ATOM     29  C   UNL     1     -31.316 -19.739   4.574  1.00  0.00     0.191 C 
BRANCH  29  30
ATOM     30  O   UNL     1     -32.320 -20.354   3.812  1.00  0.00    -0.394 OA
ATOM     31  H   UNL     1     -32.896 -19.623   3.454  1.00  0.00     0.210 HD
ENDBRANCH  29  30
ENDBRANCH  21  29
ENDBRANCH   1  17
TORSDOF 13
ENDMDL
MODEL 6
REMARK VINA RESULT:    -5.127      6.958      9.559
REMARK INTER + INTRA:          -9.603
REMARK INTER:                  -7.984
REMARK INTRA:                  -1.619
REMARK UNBOUND:                -1.778
REMARK SMILES OC[C@@H]1O[C@H](O[C@]2(CO)O[C@H](CO)[C@@H](O)[C@@H]2O)[C@@H](O)[C@H](O)[C@@H]1O
REMARK SMILES IDX 6 1 5 2 3 3 22 4 4 5 20 6 18 7 2 8 1 9 23 11 21 13 19 15
REMARK SMILES IDX 7 17 16 18 10 19 14 20 11 21 8 22 9 23 17 25 15 27 12 29
REMARK SMILES IDX 13 30
REMARK H PARENT 1 10 23 12 21 14 19 16 9 24 17 26 15 28 13 31
REMARK Flexibility Score: inf
ROOT
ATOM      1  O   UNL     1     -19.253 -28.681   9.744  1.00  0.00    -0.313 OA
ENDROOT
BRANCH   1   2
ATOM      2  C   UNL     1     -20.288 -28.744  10.719  1.00  0.00     0.285 C 
ATOM      3  C   UNL     1     -21.618 -30.706  10.211  1.00  0.00     0.178 C 
ATOM      4  C   UNL     1     -20.330 -31.502  10.520  1.00  0.00     0.177 C 
ATOM      5  O   UNL     1     -21.442 -29.297  10.104  1.00  0.00    -0.341 OA
ATOM      6  C   UNL     1     -19.756 -31.015  11.858  1.00  0.00     0.179 C 
ATOM      7  C   UNL     1     -19.850 -29.479  12.018  1.00  0.00     0.202 C 
BRANCH   3   8
ATOM      8  C   UNL     1     -22.287 -31.205   8.922  1.00  0.00     0.191 C 
BRANCH   8   9
ATOM      9  O   UNL     1     -22.022 -32.565   8.706  1.00  0.00    -0.394 OA
ATOM     10  H   UNL     1     -21.392 -32.859   9.417  1.00  0.00     0.210 HD
ENDBRANCH   8   9
ENDBRANCH   3   8
BRANCH   4  11
ATOM     11  O   UNL     1     -19.399 -31.353   9.477  1.00  0.00    -0.387 OA
ATOM     12  H   UNL     1     -19.599 -32.063   8.810  1.00  0.00     0.211 HD
ENDBRANCH   4  11
BRANCH   6  13
ATOM     13  O   UNL     1     -18.425 -31.443  12.005  1.00  0.00    -0.387 OA
ATOM     14  H   UNL     1     -17.846 -30.747  11.582  1.00  0.00     0.211 HD
ENDBRANCH   6  13
BRANCH   7  15
ATOM     15  O   UNL     1     -20.767 -29.185  13.035  1.00  0.00    -0.385 OA
ATOM     16  H   UNL     1     -21.239 -28.353  12.771  1.00  0.00     0.211 HD
ENDBRANCH   7  15
ENDBRANCH   1   2
BRANCH   1  17
ATOM     17  C   UNL     1     -18.220 -27.687   9.884  1.00  0.00     0.224 C 
ATOM     18  C   UNL     1     -16.884 -28.367  10.228  1.00  0.00     0.208 C 
ATOM     19  O   UNL     1     -18.051 -27.105   8.608  1.00  0.00    -0.337 OA
ATOM     20  C   UNL     1     -15.849 -27.577   9.449  1.00  0.00     0.180 C 
ATOM     21  C   UNL     1     -16.684 -26.793   8.432  1.00  0.00     0.179 C 
BRANCH  17  22
ATOM     22  C   UNL     1     -18.503 -26.520  10.886  1.00  0.00     0.225 C 
BRANCH  22  23
ATOM     23  O   UNL     1     -17.697 -26.634  12.032  1.00  0.00    -0.391 OA
ATOM     24  H   UNL     1     -16.782 -26.347  11.776  1.00  0.00     0.210 HD
ENDBRANCH  22  23
ENDBRANCH  17  22
BRANCH  18  25
ATOM     25  O   UNL     1     -16.875 -29.695   9.763  1.00  0.00    -0.385 OA
ATOM     26  H   UNL     1     -15.954 -29.876   9.426  1.00  0.00     0.211 HD
ENDBRANCH  18  25
BRANCH  20  27
ATOM     27  O   UNL     1     -15.158 -26.690  10.291  1.00  0.00    -0.387 OA
ATOM     28  H   UNL     1     -14.719 -26.022   9.698  1.00  0.00     0.211 HD
ENDBRANCH  20  27
BRANCH  21  29
ATOM     29  C   UNL     1     -16.287 -27.100   6.983  1.00  0.00     0.191 C 
BRANCH  29  30
ATOM     30  O   UNL     1     -15.700 -28.371   6.897  1.00  0.00    -0.394 OA
ATOM     31  H   UNL     1     -16.412 -28.996   6.586  1.00  0.00     0.210 HD
ENDBRANCH  29  30
ENDBRANCH  21  29
ENDBRANCH   1  17
TORSDOF 13
ENDMDL
MODEL 7
REMARK VINA RESULT:    -5.059      6.970      9.454
REMARK INTER + INTRA:          -9.500
REMARK INTER:                  -7.480
REMARK INTRA:                  -2.020
REMARK UNBOUND:                -1.778
REMARK SMILES OC[C@@H]1O[C@H](O[C@]2(CO)O[C@H](CO)[C@@H](O)[C@@H]2O)[C@@H](O)[C@H](O)[C@@H]1O
REMARK SMILES IDX 6 1 5 2 3 3 22 4 4 5 20 6 18 7 2 8 1 9 23 11 21 13 19 15
REMARK SMILES IDX 7 17 16 18 10 19 14 20 11 21 8 22 9 23 17 25 15 27 12 29
REMARK SMILES IDX 13 30
REMARK H PARENT 1 10 23 12 21 14 19 16 9 24 17 26 15 28 13 31
REMARK Flexibility Score: inf
ROOT
ATOM      1  O   UNL     1     -17.112 -28.843  10.800  1.00  0.00    -0.313 OA
ENDROOT
BRANCH   1   2
ATOM      2  C   UNL     1     -16.792 -28.293   9.527  1.00  0.00     0.285 C 
ATOM      3  C   UNL     1     -18.063 -26.240   9.307  1.00  0.00     0.178 C 
ATOM      4  C   UNL     1     -17.222 -25.742  10.504  1.00  0.00     0.177 C 
ATOM      5  O   UNL     1     -17.946 -27.632   9.030  1.00  0.00    -0.341 OA
ATOM      6  C   UNL     1     -15.740 -26.023  10.220  1.00  0.00     0.179 C 
ATOM      7  C   UNL     1     -15.517 -27.403   9.557  1.00  0.00     0.202 C 
BRANCH   3   8
ATOM      8  C   UNL     1     -19.551 -25.912   9.494  1.00  0.00     0.191 C 
BRANCH   8   9
ATOM      9  O   UNL     1     -20.231 -26.970  10.114  1.00  0.00    -0.394 OA
ATOM     10  H   UNL     1     -20.084 -26.881  11.094  1.00  0.00     0.210 HD
ENDBRANCH   8   9
ENDBRANCH   3   8
BRANCH   4  11
ATOM     11  O   UNL     1     -17.645 -26.363  11.692  1.00  0.00    -0.387 OA
ATOM     12  H   UNL     1     -17.314 -25.802  12.444  1.00  0.00     0.211 HD
ENDBRANCH   4  11
BRANCH   6  13
ATOM     13  O   UNL     1     -14.987 -25.920  11.402  1.00  0.00    -0.387 OA
ATOM     14  H   UNL     1     -15.263 -26.678  11.993  1.00  0.00     0.211 HD
ENDBRANCH   6  13
BRANCH   7  15
ATOM     15  O   UNL     1     -15.072 -27.207   8.244  1.00  0.00    -0.385 OA
ATOM     16  H   UNL     1     -14.152 -27.577   8.188  1.00  0.00     0.211 HD
ENDBRANCH   7  15
ENDBRANCH   1   2
BRANCH   1  17
ATOM     17  C   UNL     1     -17.776 -30.120  10.863  1.00  0.00     0.224 C 
ATOM     18  C   UNL     1     -18.871 -30.086  11.943  1.00  0.00     0.208 C 
ATOM     19  O   UNL     1     -18.441 -30.286   9.629  1.00  0.00    -0.337 OA
ATOM     20  C   UNL     1     -20.011 -30.892  11.346  1.00  0.00     0.180 C 
ATOM     21  C   UNL     1     -19.654 -30.974   9.859  1.00  0.00     0.179 C 
BRANCH  17  22
ATOM     22  C   UNL     1     -16.862 -31.374  11.064  1.00  0.00     0.225 C 
BRANCH  22  23
ATOM     23  O   UNL     1     -17.114 -31.987  12.304  1.00  0.00    -0.391 OA
ATOM     24  H   UNL     1     -16.836 -32.936  12.222  1.00  0.00     0.210 HD
ENDBRANCH  22  23
ENDBRANCH  17  22
BRANCH  18  25
ATOM     25  O   UNL     1     -19.317 -28.768  12.149  1.00  0.00    -0.385 OA
ATOM     26  H   UNL     1     -20.087 -28.624  11.531  1.00  0.00     0.211 HD
ENDBRANCH  18  25
BRANCH  20  27
ATOM     27  O   UNL     1     -20.059 -32.180  11.903  1.00  0.00    -0.387 OA
ATOM     28  H   UNL     1     -20.193 -32.060  12.882  1.00  0.00     0.211 HD
ENDBRANCH  20  27
BRANCH  21  29
ATOM     29  C   UNL     1     -20.742 -30.377   8.958  1.00  0.00     0.191 C 
BRANCH  29  30
ATOM     30  O   UNL     1     -20.245 -29.264   8.265  1.00  0.00    -0.394 OA
ATOM     31  H   UNL     1     -19.747 -28.711   8.929  1.00  0.00     0.210 HD
ENDBRANCH  29  30
ENDBRANCH  21  29
ENDBRANCH   1  17
TORSDOF 13
ENDMDL
MODEL 8
REMARK VINA RESULT:    -4.956      4.322      6.991
REMARK INTER + INTRA:          -9.342
REMARK INTER:                  -7.767
REMARK INTRA:                  -1.576
REMARK UNBOUND:                -1.778
REMARK SMILES OC[C@@H]1O[C@H](O[C@]2(CO)O[C@H](CO)[C@@H](O)[C@@H]2O)[C@@H](O)[C@H](O)[C@@H]1O
REMARK SMILES IDX 6 1 5 2 3 3 22 4 4 5 20 6 18 7 2 8 1 9 23 11 21 13 19 15
REMARK SMILES IDX 7 17 16 18 10 19 14 20 11 21 8 22 9 23 17 25 15 27 12 29
REMARK SMILES IDX 13 30
REMARK H PARENT 1 10 23 12 21 14 19 16 9 24 17 26 15 28 13 31
REMARK Flexibility Score: inf
ROOT
ATOM      1  O   UNL     1     -23.566 -30.457   7.403  1.00  0.00    -0.313 OA
ENDROOT
BRANCH   1   2
ATOM      2  C   UNL     1     -23.877 -29.697   6.241  1.00  0.00     0.285 C 
ATOM      3  C   UNL     1     -26.160 -28.923   6.494  1.00  0.00     0.178 C 
ATOM      4  C   UNL     1     -25.623 -28.133   7.709  1.00  0.00     0.177 C 
ATOM      5  O   UNL     1     -25.255 -29.879   5.951  1.00  0.00    -0.341 OA
ATOM      6  C   UNL     1     -24.360 -27.370   7.285  1.00  0.00     0.179 C 
ATOM      7  C   UNL     1     -23.446 -28.208   6.359  1.00  0.00     0.202 C 
BRANCH   3   8
ATOM      8  C   UNL     1     -27.473 -29.644   6.833  1.00  0.00     0.191 C 
BRANCH   8   9
ATOM      9  O   UNL     1     -27.971 -29.234   8.078  1.00  0.00    -0.394 OA
ATOM     10  H   UNL     1     -28.845 -28.790   7.914  1.00  0.00     0.210 HD
ENDBRANCH   8   9
ENDBRANCH   3   8
BRANCH   4  11
ATOM     11  O   UNL     1     -25.361 -29.003   8.782  1.00  0.00    -0.387 OA
ATOM     12  H   UNL     1     -25.822 -28.625   9.578  1.00  0.00     0.211 HD
ENDBRANCH   4  11
BRANCH   6  13
ATOM     13  O   UNL     1     -23.647 -26.936   8.415  1.00  0.00    -0.387 OA
ATOM     14  H   UNL     1     -24.193 -27.179   9.217  1.00  0.00     0.211 HD
ENDBRANCH   6  13
BRANCH   7  15
ATOM     15  O   UNL     1     -23.448 -27.634   5.082  1.00  0.00    -0.385 OA
ATOM     16  H   UNL     1     -23.226 -28.355   4.437  1.00  0.00     0.211 HD
ENDBRANCH   7  15
ENDBRANCH   1   2
BRANCH   1  17
ATOM     17  C   UNL     1     -22.240 -30.999   7.551  1.00  0.00     0.224 C 
ATOM     18  C   UNL     1     -21.438 -30.152   8.555  1.00  0.00     0.208 C 
ATOM     19  O   UNL     1     -22.393 -32.273   8.140  1.00  0.00    -0.337 OA
ATOM     20  C   UNL     1     -20.623 -31.167   9.335  1.00  0.00     0.180 C 
ATOM     21  C   UNL     1     -21.303 -32.502   9.011  1.00  0.00     0.179 C 
BRANCH  17  22
ATOM     22  C   UNL     1     -21.415 -31.198   6.237  1.00  0.00     0.225 C 
BRANCH  22  23
ATOM     23  O   UNL     1     -20.369 -30.262   6.152  1.00  0.00    -0.391 OA
ATOM     24  H   UNL     1     -20.004 -30.316   5.230  1.00  0.00     0.210 HD
ENDBRANCH  22  23
ENDBRANCH  17  22
BRANCH  18  25
ATOM     25  O   UNL     1     -22.306 -29.496   9.447  1.00  0.00    -0.385 OA
ATOM     26  H   UNL     1     -22.884 -28.896   8.898  1.00  0.00     0.211 HD
ENDBRANCH  18  25
BRANCH  20  27
ATOM     27  O   UNL     1     -19.290 -31.186   8.893  1.00  0.00    -0.387 OA
ATOM     28  H   UNL     1     -18.918 -32.071   9.156  1.00  0.00     0.211 HD
ENDBRANCH  20  27
BRANCH  21  29
ATOM     29  C   UNL     1     -21.811 -33.223  10.265  1.00  0.00     0.191 C 
BRANCH  29  30
ATOM     30  O   UNL     1     -21.011 -32.901  11.371  1.00  0.00    -0.394 OA
ATOM     31  H   UNL     1     -21.348 -32.031  11.725  1.00  0.00     0.210 HD
ENDBRANCH  29  30
ENDBRANCH  21  29
ENDBRANCH   1  17
TORSDOF 13
ENDMDL
MODEL 9
REMARK VINA RESULT:    -4.937      6.016      8.783
REMARK INTER + INTRA:          -9.312
REMARK INTER:                  -7.391
REMARK INTRA:                  -1.921
REMARK UNBOUND:                -1.778
REMARK SMILES OC[C@@H]1O[C@H](O[C@]2(CO)O[C@H](CO)[C@@H](O)[C@@H]2O)[C@@H](O)[C@H](O)[C@@H]1O
REMARK SMILES IDX 6 1 5 2 3 3 22 4 4 5 20 6 18 7 2 8 1 9 23 11 21 13 19 15
REMARK SMILES IDX 7 17 16 18 10 19 14 20 11 21 8 22 9 23 17 25 15 27 12 29
REMARK SMILES IDX 13 30
REMARK H PARENT 1 10 23 12 21 14 19 16 9 24 17 26 15 28 13 31
REMARK Flexibility Score: inf
ROOT
ATOM      1  O   UNL     1     -19.776 -31.647   9.165  1.00  0.00    -0.313 OA
ENDROOT
BRANCH   1   2
ATOM      2  C   UNL     1     -20.348 -31.064  10.330  1.00  0.00     0.285 C 
ATOM      3  C   UNL     1     -22.563 -30.292   9.717  1.00  0.00     0.178 C 
ATOM      4  C   UNL     1     -22.876 -31.785   9.470  1.00  0.00     0.177 C 
ATOM      5  O   UNL     1     -21.186 -29.993   9.921  1.00  0.00    -0.341 OA
ATOM      6  C   UNL     1     -22.412 -32.597  10.688  1.00  0.00     0.179 C 
ATOM      7  C   UNL     1     -21.054 -32.106  11.243  1.00  0.00     0.202 C 
BRANCH   3   8
ATOM      8  C   UNL     1     -23.079 -29.415   8.567  1.00  0.00     0.191 C 
BRANCH   8   9
ATOM      9  O   UNL     1     -22.128 -28.453   8.195  1.00  0.00    -0.394 OA
ATOM     10  H   UNL     1     -21.244 -28.907   8.175  1.00  0.00     0.210 HD
ENDBRANCH   8   9
ENDBRANCH   3   8
BRANCH   4  11
ATOM     11  O   UNL     1     -22.253 -32.227   8.290  1.00  0.00    -0.387 OA
ATOM     12  H   UNL     1     -22.820 -31.922   7.533  1.00  0.00     0.211 HD
ENDBRANCH   4  11
BRANCH   6  13
ATOM     13  O   UNL     1     -22.347 -33.964  10.369  1.00  0.00    -0.387 OA
ATOM     14  H   UNL     1     -23.260 -34.342  10.515  1.00  0.00     0.211 HD
ENDBRANCH   6  13
BRANCH   7  15
ATOM     15  O   UNL     1     -21.261 -31.535  12.505  1.00  0.00    -0.385 OA
ATOM     16  H   UNL     1     -22.146 -31.849  12.826  1.00  0.00     0.211 HD
ENDBRANCH   7  15
ENDBRANCH   1   2
BRANCH   1  17
ATOM     17  C   UNL     1     -18.564 -31.087   8.625  1.00  0.00     0.224 C 
ATOM     18  C   UNL     1     -18.829 -30.529   7.216  1.00  0.00     0.208 C 
ATOM     19  O   UNL     1     -18.240 -29.978   9.436  1.00  0.00    -0.337 OA
ATOM     20  C   UNL     1     -18.002 -29.258   7.155  1.00  0.00     0.180 C 
ATOM     21  C   UNL     1     -17.665 -28.976   8.622  1.00  0.00     0.179 C 
BRANCH  17  22
ATOM     22  C   UNL     1     -17.310 -32.023   8.605  1.00  0.00     0.225 C 
BRANCH  22  23
ATOM     23  O   UNL     1     -16.626 -31.975   9.832  1.00  0.00    -0.391 OA
ATOM     24  H   UNL     1     -15.678 -32.204   9.647  1.00  0.00     0.210 HD
ENDBRANCH  22  23
ENDBRANCH  17  22
BRANCH  18  25
ATOM     25  O   UNL     1     -20.186 -30.187   7.071  1.00  0.00    -0.385 OA
ATOM     26  H   UNL     1     -20.282 -29.247   7.391  1.00  0.00     0.211 HD
ENDBRANCH  18  25
BRANCH  20  27
ATOM     27  O   UNL     1     -16.823 -29.461   6.419  1.00  0.00    -0.387 OA
ATOM     28  H   UNL     1     -16.108 -29.664   7.082  1.00  0.00     0.211 HD
ENDBRANCH  20  27
BRANCH  21  29
ATOM     29  C   UNL     1     -18.169 -27.606   9.090  1.00  0.00     0.191 C 
BRANCH  29  30
ATOM     30  O   UNL     1     -19.569 -27.553   9.025  1.00  0.00    -0.394 OA
ATOM     31  H   UNL     1     -19.818 -27.695   8.070  1.00  0.00     0.210 HD
ENDBRANCH  29  30
ENDBRANCH  21  29
ENDBRANCH   1  17
TORSDOF 13
ENDMDL
