MODEL 1
REMARK VINA RESULT:    -4.580      0.000      0.000
REMARK INTER + INTRA:          -4.977
REMARK INTER:                  -4.848
REMARK INTRA:                  -0.129
REMARK UNBOUND:                -0.129
REMARK SMILES C=C(C)[C@@H]1CC=C(C)CC1
REMARK SMILES IDX 8 1 7 2 6 3 5 4 4 5 10 6 9 7 2 8 1 9 3 10
REMARK H PARENT
REMARK Flexibility Score: inf
ROOT
ATOM      1  C   UNL     1       8.752  -2.097  16.382  1.00  0.00     0.039 C 
ATOM      2  C   UNL     1       7.275  -2.289  16.599  1.00  0.00    -0.077 C 
ATOM      3  C   UNL     1       6.432  -2.114  15.560  1.00  0.00    -0.027 C 
ATOM      4  C   UNL     1       4.942  -2.334  15.662  1.00  0.00     0.035 C 
ATOM      5  C   UNL     1       4.438  -2.227  17.112  1.00  0.00     0.018 C 
ATOM      6  C   UNL     1       5.329  -3.068  18.039  1.00  0.00     0.013 C 
ATOM      7  C   UNL     1       6.770  -2.543  18.006  1.00  0.00     0.031 C 
ENDROOT
BRANCH   5   8
ATOM      8  C   UNL     1       2.975  -2.635  17.222  1.00  0.00    -0.077 C 
ATOM      9  C   UNL     1       2.632  -3.732  17.914  1.00  0.00     0.008 C 
ATOM     10  C   UNL     1       1.881  -1.820  16.575  1.00  0.00     0.039 C 
ENDBRANCH   5   8
TORSDOF 1
ENDMDL
MODEL 2
REMARK VINA RESULT:    -4.563      0.113      1.098
REMARK INTER + INTRA:          -4.958
REMARK INTER:                  -4.835
REMARK INTRA:                  -0.124
REMARK UNBOUND:                -0.129
REMARK SMILES C=C(C)[C@@H]1CC=C(C)CC1
REMARK SMILES IDX 8 1 7 2 6 3 5 4 4 5 10 6 9 7 2 8 1 9 3 10
REMARK H PARENT
REMARK Flexibility Score: inf
ROOT
ATOM      1  C   UNL     1       8.758  -2.092  16.399  1.00  0.00     0.039 C 
ATOM      2  C   UNL     1       7.274  -2.257  16.582  1.00  0.00    -0.077 C 
ATOM      3  C   UNL     1       6.457  -2.054  15.526  1.00  0.00    -0.027 C 
ATOM      4  C   UNL     1       4.961  -2.247  15.594  1.00  0.00     0.035 C 
ATOM      5  C   UNL     1       4.427  -2.145  17.033  1.00  0.00     0.018 C 
ATOM      6  C   UNL     1       5.281  -3.013  17.970  1.00  0.00     0.013 C 
ATOM      7  C   UNL     1       6.732  -2.517  17.975  1.00  0.00     0.031 C 
ENDROOT
BRANCH   5   8
ATOM      8  C   UNL     1       2.954  -2.524  17.106  1.00  0.00    -0.077 C 
ATOM      9  C   UNL     1       2.031  -1.758  16.504  1.00  0.00     0.008 C 
ATOM     10  C   UNL     1       2.497  -3.763  17.838  1.00  0.00     0.039 C 
ENDBRANCH   5   8
TORSDOF 1
ENDMDL
MODEL 3
REMARK VINA RESULT:    -4.489      0.654      1.707
REMARK INTER + INTRA:          -4.880
REMARK INTER:                  -4.759
REMARK INTRA:                  -0.121
REMARK UNBOUND:                -0.129
REMARK SMILES C=C(C)[C@@H]1CC=C(C)CC1
REMARK SMILES IDX 8 1 7 2 6 3 5 4 4 5 10 6 9 7 2 8 1 9 3 10
REMARK H PARENT
REMARK Flexibility Score: inf
ROOT
ATOM      1  C   UNL     1       8.764  -2.308  16.581  1.00  0.00     0.039 C 
ATOM      2  C   UNL     1       7.260  -2.271  16.579  1.00  0.00    -0.077 C 
ATOM      3  C   UNL     1       6.601  -2.375  17.752  1.00  0.00    -0.027 C 
ATOM      4  C   UNL     1       5.097  -2.294  17.861  1.00  0.00     0.035 C 
ATOM      5  C   UNL     1       4.400  -2.637  16.533  1.00  0.00     0.018 C 
ATOM      6  C   UNL     1       5.054  -1.857  15.383  1.00  0.00     0.013 C 
ATOM      7  C   UNL     1       6.530  -2.250  15.249  1.00  0.00     0.031 C 
ENDROOT
BRANCH   5   8
ATOM      8  C   UNL     1       2.902  -2.371  16.608  1.00  0.00    -0.077 C 
ATOM      9  C   UNL     1       2.091  -3.256  17.209  1.00  0.00     0.008 C 
ATOM     10  C   UNL     1       2.296  -1.117  16.028  1.00  0.00     0.039 C 
ENDBRANCH   5   8
TORSDOF 1
ENDMDL
MODEL 4
REMARK VINA RESULT:    -4.333      8.350     10.534
REMARK INTER + INTRA:          -4.715
REMARK INTER:                  -4.589
REMARK INTRA:                  -0.126
REMARK UNBOUND:                -0.129
REMARK SMILES C=C(C)[C@@H]1CC=C(C)CC1
REMARK SMILES IDX 8 1 7 2 6 3 5 4 4 5 10 6 9 7 2 8 1 9 3 10
REMARK H PARENT
REMARK Flexibility Score: inf
ROOT
ATOM      1  C   UNL     1       6.881   2.239  23.147  1.00  0.00     0.039 C 
ATOM      2  C   UNL     1       8.134   1.635  23.720  1.00  0.00    -0.077 C 
ATOM      3  C   UNL     1       8.257   1.533  25.060  1.00  0.00    -0.027 C 
ATOM      4  C   UNL     1       9.450   0.894  25.731  1.00  0.00     0.035 C 
ATOM      5  C   UNL     1      10.692   0.889  24.822  1.00  0.00     0.018 C 
ATOM      6  C   UNL     1      10.318   0.365  23.428  1.00  0.00     0.013 C 
ATOM      7  C   UNL     1       9.272   1.282  22.782  1.00  0.00     0.031 C 
ENDROOT
BRANCH   5   8
ATOM      8  C   UNL     1      11.826   0.080  25.438  1.00  0.00    -0.077 C 
ATOM      9  C   UNL     1      12.254   0.358  26.679  1.00  0.00     0.008 C 
ATOM     10  C   UNL     1      12.484  -1.051  24.685  1.00  0.00     0.039 C 
ENDBRANCH   5   8
TORSDOF 1
ENDMDL
MODEL 5
REMARK VINA RESULT:    -4.324      9.291     10.891
REMARK INTER + INTRA:          -4.706
REMARK INTER:                  -4.577
REMARK INTRA:                  -0.130
REMARK UNBOUND:                -0.129
REMARK SMILES C=C(C)[C@@H]1CC=C(C)CC1
REMARK SMILES IDX 8 1 7 2 6 3 5 4 4 5 10 6 9 7 2 8 1 9 3 10
REMARK H PARENT
REMARK Flexibility Score: inf
ROOT
ATOM      1  C   UNL     1      14.107  -1.408  26.883  1.00  0.00     0.039 C 
ATOM      2  C   UNL     1      12.896  -0.768  26.261  1.00  0.00    -0.077 C 
ATOM      3  C   UNL     1      12.716  -0.865  24.927  1.00  0.00    -0.027 C 
ATOM      4  C   UNL     1      11.508  -0.303  24.216  1.00  0.00     0.035 C 
ATOM      5  C   UNL     1      10.828   0.817  25.023  1.00  0.00     0.018 C 
ATOM      6  C   UNL     1      10.630   0.366  26.478  1.00  0.00     0.013 C 
ATOM      7  C   UNL     1      11.986   0.077  27.133  1.00  0.00     0.031 C 
ENDROOT
BRANCH   5   8
ATOM      8  C   UNL     1       9.513   1.241  24.384  1.00  0.00    -0.077 C 
ATOM      9  C   UNL     1       8.453   1.533  25.155  1.00  0.00     0.008 C 
ATOM     10  C   UNL     1       9.368   1.356  22.886  1.00  0.00     0.039 C 
ENDBRANCH   5   8
TORSDOF 1
ENDMDL
MODEL 6
REMARK VINA RESULT:    -4.302      1.594      2.936
REMARK INTER + INTRA:          -4.683
REMARK INTER:                  -4.553
REMARK INTRA:                  -0.130
REMARK UNBOUND:                -0.129
REMARK SMILES C=C(C)[C@@H]1CC=C(C)CC1
REMARK SMILES IDX 8 1 7 2 6 3 5 4 4 5 10 6 9 7 2 8 1 9 3 10
REMARK H PARENT
REMARK Flexibility Score: inf
ROOT
ATOM      1  C   UNL     1       6.044  -2.990  18.264  1.00  0.00     0.039 C 
ATOM      2  C   UNL     1       4.873  -2.514  17.449  1.00  0.00    -0.077 C 
ATOM      3  C   UNL     1       5.046  -2.275  16.132  1.00  0.00    -0.027 C 
ATOM      4  C   UNL     1       3.922  -1.846  15.219  1.00  0.00     0.035 C 
ATOM      5  C   UNL     1       2.762  -1.195  15.992  1.00  0.00     0.018 C 
ATOM      6  C   UNL     1       2.382  -2.069  17.197  1.00  0.00     0.013 C 
ATOM      7  C   UNL     1       3.571  -2.192  18.157  1.00  0.00     0.031 C 
ENDROOT
BRANCH   5   8
ATOM      8  C   UNL     1       1.565  -0.941  15.085  1.00  0.00    -0.077 C 
ATOM      9  C   UNL     1       0.331  -0.858  15.606  1.00  0.00     0.008 C 
ATOM     10  C   UNL     1       1.731  -0.764  13.595  1.00  0.00     0.039 C 
ENDBRANCH   5   8
TORSDOF 1
ENDMDL
MODEL 7
REMARK VINA RESULT:    -4.290      1.784      4.800
REMARK INTER + INTRA:          -4.669
REMARK INTER:                  -4.542
REMARK INTRA:                  -0.127
REMARK UNBOUND:                -0.129
REMARK SMILES C=C(C)[C@@H]1CC=C(C)CC1
REMARK SMILES IDX 8 1 7 2 6 3 5 4 4 5 10 6 9 7 2 8 1 9 3 10
REMARK H PARENT
REMARK Flexibility Score: inf
ROOT
ATOM      1  C   UNL     1       0.055  -0.636  15.268  1.00  0.00     0.039 C 
ATOM      2  C   UNL     1       1.211  -1.272  15.991  1.00  0.00    -0.077 C 
ATOM      3  C   UNL     1       0.992  -1.861  17.186  1.00  0.00    -0.027 C 
ATOM      4  C   UNL     1       2.074  -2.572  17.963  1.00  0.00     0.035 C 
ATOM      5  C   UNL     1       3.482  -2.098  17.565  1.00  0.00     0.018 C 
ATOM      6  C   UNL     1       3.618  -2.091  16.035  1.00  0.00     0.013 C 
ATOM      7  C   UNL     1       2.607  -1.118  15.418  1.00  0.00     0.031 C 
ENDROOT
BRANCH   5   8
ATOM      8  C   UNL     1       4.560  -2.952  18.219  1.00  0.00    -0.077 C 
ATOM      9  C   UNL     1       5.844  -2.563  18.176  1.00  0.00     0.008 C 
ATOM     10  C   UNL     1       4.220  -4.236  18.935  1.00  0.00     0.039 C 
ENDBRANCH   5   8
TORSDOF 1
ENDMDL
MODEL 8
REMARK VINA RESULT:    -4.283      2.339      3.565
REMARK INTER + INTRA:          -4.663
REMARK INTER:                  -4.531
REMARK INTRA:                  -0.132
REMARK UNBOUND:                -0.129
REMARK SMILES C=C(C)[C@@H]1CC=C(C)CC1
REMARK SMILES IDX 8 1 7 2 6 3 5 4 4 5 10 6 9 7 2 8 1 9 3 10
REMARK H PARENT
REMARK Flexibility Score: inf
ROOT
ATOM      1  C   UNL     1       4.642  -5.148  19.722  1.00  0.00     0.039 C 
ATOM      2  C   UNL     1       3.990  -4.145  18.810  1.00  0.00    -0.077 C 
ATOM      3  C   UNL     1       2.786  -4.435  18.272  1.00  0.00    -0.027 C 
ATOM      4  C   UNL     1       2.026  -3.474  17.389  1.00  0.00     0.035 C 
ATOM      5  C   UNL     1       2.950  -2.431  16.736  1.00  0.00     0.018 C 
ATOM      6  C   UNL     1       3.875  -1.815  17.797  1.00  0.00     0.013 C 
ATOM      7  C   UNL     1       4.763  -2.900  18.419  1.00  0.00     0.031 C 
ENDROOT
BRANCH   5   8
ATOM      8  C   UNL     1       2.150  -1.363  16.003  1.00  0.00    -0.077 C 
ATOM      9  C   UNL     1       0.826  -1.265  16.194  1.00  0.00     0.008 C 
ATOM     10  C   UNL     1       2.817  -0.389  15.062  1.00  0.00     0.039 C 
ENDBRANCH   5   8
TORSDOF 1
ENDMDL
MODEL 9
REMARK VINA RESULT:    -4.230      1.085      4.210
REMARK INTER + INTRA:          -4.606
REMARK INTER:                  -4.476
REMARK INTRA:                  -0.130
REMARK UNBOUND:                -0.129
REMARK SMILES C=C(C)[C@@H]1CC=C(C)CC1
REMARK SMILES IDX 8 1 7 2 6 3 5 4 4 5 10 6 9 7 2 8 1 9 3 10
REMARK H PARENT
REMARK Flexibility Score: inf
ROOT
ATOM      1  C   UNL     1       1.040  -1.875  14.939  1.00  0.00     0.039 C 
ATOM      2  C   UNL     1       2.334  -1.997  15.696  1.00  0.00    -0.077 C 
ATOM      3  C   UNL     1       3.490  -2.094  15.006  1.00  0.00    -0.027 C 
ATOM      4  C   UNL     1       4.843  -2.166  15.673  1.00  0.00     0.035 C 
ATOM      5  C   UNL     1       4.748  -2.664  17.125  1.00  0.00     0.018 C 
ATOM      6  C   UNL     1       3.648  -1.895  17.871  1.00  0.00     0.013 C 
ATOM      7  C   UNL     1       2.288  -2.138  17.206  1.00  0.00     0.031 C 
ENDROOT
BRANCH   5   8
ATOM      8  C   UNL     1       6.090  -2.554  17.838  1.00  0.00    -0.077 C 
ATOM      9  C   UNL     1       6.153  -2.666  19.174  1.00  0.00     0.008 C 
ATOM     10  C   UNL     1       7.371  -2.332  17.071  1.00  0.00     0.039 C 
ENDBRANCH   5   8
TORSDOF 1
ENDMDL
