MODEL 1
REMARK VINA RESULT:    -5.758      0.000      0.000
REMARK INTER + INTRA:         -10.291
REMARK INTER:                  -8.787
REMARK INTRA:                  -1.504
REMARK UNBOUND:                -1.504
REMARK SMILES C[C@@H]1O[C@@H](Oc2c(-c3ccc(O)cc3)oc3cc(O[C@@H]4O[C@H](C)[C@H](O)[C@@H](O)[C@H]4O)cc(O)c3c2=O)[C@H](O)[C@@H](O)[C@@H]1O
REMARK SMILES IDX 18 1 30 2 31 3 33 4 16 5 17 6 15 7 7 8 6 9 34 10 35 11 19 12
REMARK SMILES IDX 20 13 23 14 22 15 24 16 21 17 26 18 28 19 25 20 27 22 29 24
REMARK SMILES IDX 32 26 8 28 9 29 14 30 10 31 13 32 11 33 12 34 5 36 4 37
REMARK SMILES IDX 36 38 3 39 38 40 2 41 40 42 1 43 37 44 39 46 41 48
REMARK H PARENT 25 21 27 23 29 25 32 27 12 35 37 45 39 47 41 49
REMARK Flexibility Score: inf
ROOT
ATOM      1  C   UNL     1       0.262  -7.946  28.142  1.00  0.00     0.130 A 
ATOM      2  C   UNL     1      -0.589  -8.460  29.138  1.00  0.00     0.093 A 
ATOM      3  C   UNL     1      -1.967  -8.590  28.908  1.00  0.00     0.134 A 
ATOM      4  C   UNL     1      -2.509  -8.210  27.658  1.00  0.00     0.111 A 
ATOM      5  C   UNL     1      -1.646  -7.699  26.660  1.00  0.00     0.146 A 
ATOM      6  C   UNL     1      -0.280  -7.557  26.916  1.00  0.00     0.094 A 
ATOM      7  O   UNL     1      -2.121  -7.346  25.471  1.00  0.00    -0.452 OA
ATOM      8  C   UNL     1      -3.404  -7.444  25.142  1.00  0.00     0.180 A 
ATOM      9  C   UNL     1      -4.329  -7.965  26.070  1.00  0.00     0.214 A 
ATOM     10  C   UNL     1      -3.879  -8.328  27.343  1.00  0.00     0.239 A 
ATOM     11  O   UNL     1      -4.707  -8.771  28.185  1.00  0.00    -0.285 OA
ENDROOT
BRANCH   1  12
ATOM     12  O   UNL     1       1.647  -7.800  28.323  1.00  0.00    -0.462 OA
BRANCH  12  13
ATOM     13  C   UNL     1       2.599  -7.497  27.298  1.00  0.00     0.339 C 
ATOM     14  C   UNL     1       3.899  -8.289  29.996  1.00  0.00     0.042 C 
ATOM     15  C   UNL     1       4.520  -7.743  28.695  1.00  0.00     0.151 C 
ATOM     16  C   UNL     1       4.776  -6.215  28.709  1.00  0.00     0.174 C 
ATOM     17  O   UNL     1       3.821  -8.183  27.535  1.00  0.00    -0.335 OA
ATOM     18  C   UNL     1       3.483  -5.433  28.430  1.00  0.00     0.180 C 
ATOM     19  C   UNL     1       2.813  -5.978  27.162  1.00  0.00     0.214 C 
BRANCH  16  20
ATOM     20  O   UNL     1       5.318  -5.829  29.949  1.00  0.00    -0.388 OA
ATOM     21  H   UNL     1       6.145  -6.359  30.088  1.00  0.00     0.211 HD
ENDBRANCH  16  20
BRANCH  18  22
ATOM     22  O   UNL     1       3.761  -4.067  28.257  1.00  0.00    -0.387 OA
ATOM     23  H   UNL     1       3.145  -3.571  28.858  1.00  0.00     0.211 HD
ENDBRANCH  18  22
BRANCH  19  24
ATOM     24  O   UNL     1       3.612  -5.723  26.033  1.00  0.00    -0.384 OA
ATOM     25  H   UNL     1       4.351  -6.386  26.046  1.00  0.00     0.211 HD
ENDBRANCH  19  24
ENDBRANCH  12  13
ENDBRANCH   1  12
BRANCH   3  26
ATOM     26  O   UNL     1      -2.783  -9.100  29.920  1.00  0.00    -0.507 OA
ATOM     27  H   UNL     1      -3.199 -10.022  29.856  1.00  0.00     0.293 HD
ENDBRANCH   3  26
BRANCH   8  28
ATOM     28  C   UNL     1      -3.817  -6.987  23.799  1.00  0.00     0.021 A 
ATOM     29  C   UNL     1      -4.029  -5.623  23.532  1.00  0.00     0.016 A 
ATOM     30  C   UNL     1      -3.957  -7.921  22.761  1.00  0.00     0.016 A 
ATOM     31  C   UNL     1      -4.405  -5.206  22.252  1.00  0.00     0.047 A 
ATOM     32  C   UNL     1      -4.336  -7.503  21.483  1.00  0.00     0.047 A 
ATOM     33  C   UNL     1      -4.562  -6.144  21.226  1.00  0.00     0.115 A 
BRANCH  33  34
ATOM     34  O   UNL     1      -4.942  -5.716  19.956  1.00  0.00    -0.508 OA
ATOM     35  H   UNL     1      -4.258  -5.396  19.279  1.00  0.00     0.293 HD
ENDBRANCH  33  34
ENDBRANCH   8  28
BRANCH   9  36
ATOM     36  O   UNL     1      -5.677  -8.147  25.736  1.00  0.00    -0.454 OA
BRANCH  36  37
ATOM     37  C   UNL     1      -6.647  -7.102  25.863  1.00  0.00     0.339 C 
ATOM     38  C   UNL     1      -7.238  -6.741  24.485  1.00  0.00     0.214 C 
ATOM     39  O   UNL     1      -7.659  -7.460  26.791  1.00  0.00    -0.335 OA
ATOM     40  C   UNL     1      -8.152  -7.873  23.964  1.00  0.00     0.180 C 
ATOM     41  C   UNL     1      -8.374  -8.606  26.365  1.00  0.00     0.151 C 
ATOM     42  C   UNL     1      -9.142  -8.315  25.057  1.00  0.00     0.174 C 
ATOM     43  C   UNL     1      -9.328  -9.035  27.481  1.00  0.00     0.042 C 
BRANCH  38  44
ATOM     44  O   UNL     1      -7.963  -5.543  24.596  1.00  0.00    -0.384 OA
ATOM     45  H   UNL     1      -8.873  -5.724  24.241  1.00  0.00     0.211 HD
ENDBRANCH  38  44
BRANCH  40  46
ATOM     46  O   UNL     1      -7.381  -8.977  23.564  1.00  0.00    -0.387 OA
ATOM     47  H   UNL     1      -6.739  -9.163  24.300  1.00  0.00     0.211 HD
ENDBRANCH  40  46
BRANCH  42  48
ATOM     48  O   UNL     1     -10.098  -7.309  25.279  1.00  0.00    -0.388 OA
ATOM     49  H   UNL     1     -10.614  -7.576  26.084  1.00  0.00     0.211 HD
ENDBRANCH  42  48
ENDBRANCH  36  37
ENDBRANCH   9  36
TORSDOF 13
ENDMDL
MODEL 2
REMARK VINA RESULT:    -4.648      1.761      4.189
REMARK INTER + INTRA:          -8.598
REMARK INTER:                  -8.301
REMARK INTRA:                  -0.297
REMARK UNBOUND:                -1.504
REMARK SMILES C[C@@H]1O[C@@H](Oc2c(-c3ccc(O)cc3)oc3cc(O[C@@H]4O[C@H](C)[C@H](O)[C@@H](O)[C@H]4O)cc(O)c3c2=O)[C@H](O)[C@@H](O)[C@@H]1O
REMARK SMILES IDX 18 1 30 2 31 3 33 4 16 5 17 6 15 7 7 8 6 9 34 10 35 11 19 12
REMARK SMILES IDX 20 13 23 14 22 15 24 16 21 17 26 18 28 19 25 20 27 22 29 24
REMARK SMILES IDX 32 26 8 28 9 29 14 30 10 31 13 32 11 33 12 34 5 36 4 37
REMARK SMILES IDX 36 38 3 39 38 40 2 41 40 42 1 43 37 44 39 46 41 48
REMARK H PARENT 25 21 27 23 29 25 32 27 12 35 37 45 39 47 41 49
REMARK Flexibility Score: inf
ROOT
ATOM      1  C   UNL     1      -0.216  -7.512  27.574  1.00  0.00     0.130 A 
ATOM      2  C   UNL     1       0.308  -7.997  26.361  1.00  0.00     0.093 A 
ATOM      3  C   UNL     1      -0.535  -8.275  25.276  1.00  0.00     0.134 A 
ATOM      4  C   UNL     1      -1.928  -8.057  25.395  1.00  0.00     0.111 A 
ATOM      5  C   UNL     1      -2.446  -7.563  26.615  1.00  0.00     0.146 A 
ATOM      6  C   UNL     1      -1.592  -7.312  27.692  1.00  0.00     0.094 A 
ATOM      7  O   UNL     1      -3.747  -7.333  26.755  1.00  0.00    -0.452 OA
ATOM      8  C   UNL     1      -4.631  -7.546  25.786  1.00  0.00     0.180 A 
ATOM      9  C   UNL     1      -4.196  -8.015  24.529  1.00  0.00     0.214 A 
ATOM     10  C   UNL     1      -2.839  -8.293  24.344  1.00  0.00     0.239 A 
ATOM     11  O   UNL     1      -2.449  -8.737  23.229  1.00  0.00    -0.285 OA
ENDROOT
BRANCH   1  12
ATOM     12  O   UNL     1       0.588  -7.215  28.687  1.00  0.00    -0.462 OA
BRANCH  12  13
ATOM     13  C   UNL     1       1.924  -7.682  28.905  1.00  0.00     0.339 C 
ATOM     14  C   UNL     1       1.381  -4.883  30.117  1.00  0.00     0.042 C 
ATOM     15  C   UNL     1       2.688  -5.688  29.975  1.00  0.00     0.151 C 
ATOM     16  C   UNL     1       3.546  -5.291  28.748  1.00  0.00     0.174 C 
ATOM     17  O   UNL     1       2.473  -7.093  30.076  1.00  0.00    -0.335 OA
ATOM     18  C   UNL     1       3.003  -5.929  27.459  1.00  0.00     0.180 C 
ATOM     19  C   UNL     1       2.813  -7.437  27.671  1.00  0.00     0.214 C 
BRANCH  16  20
ATOM     20  O   UNL     1       3.579  -3.889  28.618  1.00  0.00    -0.388 OA
ATOM     21  H   UNL     1       2.682  -3.548  28.866  1.00  0.00     0.211 HD
ENDBRANCH  16  20
BRANCH  18  22
ATOM     22  O   UNL     1       3.891  -5.718  26.392  1.00  0.00    -0.387 OA
ATOM     23  H   UNL     1       4.544  -5.035  26.694  1.00  0.00     0.211 HD
ENDBRANCH  18  22
BRANCH  19  24
ATOM     24  O   UNL     1       4.054  -8.068  27.863  1.00  0.00    -0.384 OA
ATOM     25  H   UNL     1       4.361  -8.381  26.973  1.00  0.00     0.211 HD
ENDBRANCH  19  24
ENDBRANCH  12  13
ENDBRANCH   1  12
BRANCH   3  26
ATOM     26  O   UNL     1       0.017  -8.760  24.088  1.00  0.00    -0.507 OA
ATOM     27  H   UNL     1      -0.475  -9.426  23.504  1.00  0.00     0.293 HD
ENDBRANCH   3  26
BRANCH   8  28
ATOM     28  C   UNL     1      -6.056  -7.285  26.073  1.00  0.00     0.021 A 
ATOM     29  C   UNL     1      -6.681  -6.108  25.623  1.00  0.00     0.016 A 
ATOM     30  C   UNL     1      -6.812  -8.244  26.764  1.00  0.00     0.016 A 
ATOM     31  C   UNL     1      -8.035  -5.884  25.891  1.00  0.00     0.047 A 
ATOM     32  C   UNL     1      -8.164  -8.016  27.034  1.00  0.00     0.047 A 
ATOM     33  C   UNL     1      -8.778  -6.835  26.598  1.00  0.00     0.115 A 
BRANCH  33  34
ATOM     34  O   UNL     1     -10.125  -6.597  26.862  1.00  0.00    -0.508 OA
ATOM     35  H   UNL     1     -10.532  -5.676  26.745  1.00  0.00     0.293 HD
ENDBRANCH  33  34
ENDBRANCH   8  28
BRANCH   9  36
ATOM     36  O   UNL     1      -5.088  -8.186  23.464  1.00  0.00    -0.454 OA
BRANCH  36  37
ATOM     37  C   UNL     1      -4.745  -7.854  22.114  1.00  0.00     0.339 C 
ATOM     38  C   UNL     1      -5.665  -8.595  21.123  1.00  0.00     0.214 C 
ATOM     39  O   UNL     1      -4.779  -6.449  21.914  1.00  0.00    -0.335 OA
ATOM     40  C   UNL     1      -7.100  -8.020  21.168  1.00  0.00     0.180 C 
ATOM     41  C   UNL     1      -6.078  -5.925  22.126  1.00  0.00     0.151 C 
ATOM     42  C   UNL     1      -7.070  -6.483  21.082  1.00  0.00     0.174 C 
ATOM     43  C   UNL     1      -6.010  -4.399  22.061  1.00  0.00     0.042 C 
BRANCH  38  44
ATOM     44  O   UNL     1      -5.135  -8.476  19.828  1.00  0.00    -0.384 OA
ATOM     45  H   UNL     1      -4.535  -7.683  19.834  1.00  0.00     0.211 HD
ENDBRANCH  38  44
BRANCH  40  46
ATOM     46  O   UNL     1      -7.741  -8.405  22.358  1.00  0.00    -0.387 OA
ATOM     47  H   UNL     1      -7.037  -8.754  22.965  1.00  0.00     0.211 HD
ENDBRANCH  40  46
BRANCH  42  48
ATOM     48  O   UNL     1      -6.683  -6.079  19.793  1.00  0.00    -0.388 OA
ATOM     49  H   UNL     1      -6.242  -6.861  19.367  1.00  0.00     0.211 HD
ENDBRANCH  42  48
ENDBRANCH  36  37
ENDBRANCH   9  36
TORSDOF 13
ENDMDL
MODEL 3
REMARK VINA RESULT:    -4.525     12.365     17.544
REMARK INTER + INTRA:          -8.409
REMARK INTER:                  -6.840
REMARK INTRA:                  -1.569
REMARK UNBOUND:                -1.504
REMARK SMILES C[C@@H]1O[C@@H](Oc2c(-c3ccc(O)cc3)oc3cc(O[C@@H]4O[C@H](C)[C@H](O)[C@@H](O)[C@H]4O)cc(O)c3c2=O)[C@H](O)[C@@H](O)[C@@H]1O
REMARK SMILES IDX 18 1 30 2 31 3 33 4 16 5 17 6 15 7 7 8 6 9 34 10 35 11 19 12
REMARK SMILES IDX 20 13 23 14 22 15 24 16 21 17 26 18 28 19 25 20 27 22 29 24
REMARK SMILES IDX 32 26 8 28 9 29 14 30 10 31 13 32 11 33 12 34 5 36 4 37
REMARK SMILES IDX 36 38 3 39 38 40 2 41 40 42 1 43 37 44 39 46 41 48
REMARK H PARENT 25 21 27 23 29 25 32 27 12 35 37 45 39 47 41 49
REMARK Flexibility Score: inf
ROOT
ATOM      1  C   UNL     1      -5.158   1.393  17.793  1.00  0.00     0.130 A 
ATOM      2  C   UNL     1      -3.771   1.629  17.844  1.00  0.00     0.093 A 
ATOM      3  C   UNL     1      -3.213   2.762  17.235  1.00  0.00     0.134 A 
ATOM      4  C   UNL     1      -4.052   3.687  16.571  1.00  0.00     0.111 A 
ATOM      5  C   UNL     1      -5.446   3.447  16.529  1.00  0.00     0.146 A 
ATOM      6  C   UNL     1      -5.980   2.301  17.123  1.00  0.00     0.094 A 
ATOM      7  O   UNL     1      -6.263   4.302  15.925  1.00  0.00    -0.452 OA
ATOM      8  C   UNL     1      -5.842   5.414  15.332  1.00  0.00     0.180 A 
ATOM      9  C   UNL     1      -4.471   5.743  15.348  1.00  0.00     0.214 A 
ATOM     10  C   UNL     1      -3.571   4.860  15.951  1.00  0.00     0.239 A 
ATOM     11  O   UNL     1      -2.340   5.137  15.945  1.00  0.00    -0.285 OA
ENDROOT
BRANCH   1  12
ATOM     12  O   UNL     1      -5.763   0.276  18.391  1.00  0.00    -0.462 OA
BRANCH  12  13
ATOM     13  C   UNL     1      -6.509  -0.738  17.708  1.00  0.00     0.339 C 
ATOM     14  C   UNL     1      -7.945   0.373  20.219  1.00  0.00     0.042 C 
ATOM     15  C   UNL     1      -8.294  -0.809  19.293  1.00  0.00     0.151 C 
ATOM     16  C   UNL     1      -7.839  -2.189  19.830  1.00  0.00     0.174 C 
ATOM     17  O   UNL     1      -7.901  -0.576  17.944  1.00  0.00    -0.335 OA
ATOM     18  C   UNL     1      -6.341  -2.419  19.572  1.00  0.00     0.180 C 
ATOM     19  C   UNL     1      -6.024  -2.148  18.095  1.00  0.00     0.214 C 
BRANCH  16  20
ATOM     20  O   UNL     1      -8.113  -2.285  21.207  1.00  0.00    -0.388 OA
ATOM     21  H   UNL     1      -7.244  -2.257  21.685  1.00  0.00     0.211 HD
ENDBRANCH  16  20
BRANCH  18  22
ATOM     22  O   UNL     1      -5.982  -3.739  19.889  1.00  0.00    -0.387 OA
ATOM     23  H   UNL     1      -5.180  -3.957  19.346  1.00  0.00     0.211 HD
ENDBRANCH  18  22
BRANCH  19  24
ATOM     24  O   UNL     1      -6.657  -3.096  17.272  1.00  0.00    -0.384 OA
ATOM     25  H   UNL     1      -6.153  -3.946  17.368  1.00  0.00     0.211 HD
ENDBRANCH  19  24
ENDBRANCH  12  13
ENDBRANCH   1  12
BRANCH   3  26
ATOM     26  O   UNL     1      -1.832   2.964  17.301  1.00  0.00    -0.507 OA
ATOM     27  H   UNL     1      -1.430   3.744  17.807  1.00  0.00     0.293 HD
ENDBRANCH   3  26
BRANCH   8  28
ATOM     28  C   UNL     1      -6.844   6.270  14.664  1.00  0.00     0.021 A 
ATOM     29  C   UNL     1      -7.111   6.133  13.291  1.00  0.00     0.016 A 
ATOM     30  C   UNL     1      -7.573   7.202  15.418  1.00  0.00     0.016 A 
ATOM     31  C   UNL     1      -8.073   6.941  12.677  1.00  0.00     0.047 A 
ATOM     32  C   UNL     1      -8.532   8.011  14.801  1.00  0.00     0.047 A 
ATOM     33  C   UNL     1      -8.783   7.883  13.429  1.00  0.00     0.115 A 
BRANCH  33  34
ATOM     34  O   UNL     1      -9.735   8.685  12.805  1.00  0.00    -0.508 OA
ATOM     35  H   UNL     1     -10.726   8.569  12.987  1.00  0.00     0.293 HD
ENDBRANCH  33  34
ENDBRANCH   8  28
BRANCH   9  36
ATOM     36  O   UNL     1      -3.999   6.939  14.794  1.00  0.00    -0.454 OA
BRANCH  36  37
ATOM     37  C   UNL     1      -3.323   6.987  13.533  1.00  0.00     0.339 C 
ATOM     38  C   UNL     1      -4.250   7.558  12.442  1.00  0.00     0.214 C 
ATOM     39  O   UNL     1      -2.114   7.725  13.634  1.00  0.00    -0.335 OA
ATOM     40  C   UNL     1      -4.491   9.070  12.658  1.00  0.00     0.180 C 
ATOM     41  C   UNL     1      -2.357   9.072  13.998  1.00  0.00     0.151 C 
ATOM     42  C   UNL     1      -3.157   9.800  12.896  1.00  0.00     0.174 C 
ATOM     43  C   UNL     1      -1.015   9.762  14.253  1.00  0.00     0.042 C 
BRANCH  38  44
ATOM     44  O   UNL     1      -3.671   7.333  11.183  1.00  0.00    -0.384 OA
ATOM     45  H   UNL     1      -2.694   7.226  11.331  1.00  0.00     0.211 HD
ENDBRANCH  38  44
BRANCH  40  46
ATOM     46  O   UNL     1      -5.335   9.276  13.762  1.00  0.00    -0.387 OA
ATOM     47  H   UNL     1      -4.878   9.927  14.357  1.00  0.00     0.211 HD
ENDBRANCH  40  46
BRANCH  42  48
ATOM     48  O   UNL     1      -2.407   9.838  11.708  1.00  0.00    -0.388 OA
ATOM     49  H   UNL     1      -1.450   9.844  11.973  1.00  0.00     0.211 HD
ENDBRANCH  42  48
ENDBRANCH  36  37
ENDBRANCH   9  36
TORSDOF 13
ENDMDL
MODEL 4
REMARK VINA RESULT:    -3.783     12.243     17.444
REMARK INTER + INTRA:          -7.277
REMARK INTER:                  -5.930
REMARK INTRA:                  -1.347
REMARK UNBOUND:                -1.504
REMARK SMILES C[C@@H]1O[C@@H](Oc2c(-c3ccc(O)cc3)oc3cc(O[C@@H]4O[C@H](C)[C@H](O)[C@@H](O)[C@H]4O)cc(O)c3c2=O)[C@H](O)[C@@H](O)[C@@H]1O
REMARK SMILES IDX 18 1 30 2 31 3 33 4 16 5 17 6 15 7 7 8 6 9 34 10 35 11 19 12
REMARK SMILES IDX 20 13 23 14 22 15 24 16 21 17 26 18 28 19 25 20 27 22 29 24
REMARK SMILES IDX 32 26 8 28 9 29 14 30 10 31 13 32 11 33 12 34 5 36 4 37
REMARK SMILES IDX 36 38 3 39 38 40 2 41 40 42 1 43 37 44 39 46 41 48
REMARK H PARENT 25 21 27 23 29 25 32 27 12 35 37 45 39 47 41 49
REMARK Flexibility Score: inf
ROOT
ATOM      1  C   UNL     1      -4.799   1.315  17.970  1.00  0.00     0.130 A 
ATOM      2  C   UNL     1      -3.422   1.591  17.889  1.00  0.00     0.093 A 
ATOM      3  C   UNL     1      -2.958   2.736  17.224  1.00  0.00     0.134 A 
ATOM      4  C   UNL     1      -3.882   3.629  16.635  1.00  0.00     0.111 A 
ATOM      5  C   UNL     1      -5.266   3.348  16.726  1.00  0.00     0.146 A 
ATOM      6  C   UNL     1      -5.707   2.191  17.374  1.00  0.00     0.094 A 
ATOM      7  O   UNL     1      -6.162   4.173  16.196  1.00  0.00    -0.452 OA
ATOM      8  C   UNL     1      -5.832   5.292  15.560  1.00  0.00     0.180 A 
ATOM      9  C   UNL     1      -4.476   5.661  15.445  1.00  0.00     0.214 A 
ATOM     10  C   UNL     1      -3.497   4.810  15.967  1.00  0.00     0.239 A 
ATOM     11  O   UNL     1      -2.281   5.124  15.844  1.00  0.00    -0.285 OA
ENDROOT
BRANCH   1  12
ATOM     12  O   UNL     1      -5.313   0.185  18.628  1.00  0.00    -0.462 OA
BRANCH  12  13
ATOM     13  C   UNL     1      -6.698  -0.159  18.747  1.00  0.00     0.339 C 
ATOM     14  C   UNL     1      -4.783  -2.376  19.755  1.00  0.00     0.042 C 
ATOM     15  C   UNL     1      -6.311  -2.374  19.551  1.00  0.00     0.151 C 
ATOM     16  C   UNL     1      -6.771  -3.001  18.211  1.00  0.00     0.174 C 
ATOM     17  O   UNL     1      -6.890  -1.096  19.798  1.00  0.00    -0.335 OA
ATOM     18  C   UNL     1      -6.605  -2.010  17.048  1.00  0.00     0.180 C 
ATOM     19  C   UNL     1      -7.265  -0.673  17.411  1.00  0.00     0.214 C 
BRANCH  16  20
ATOM     20  O   UNL     1      -6.040  -4.177  17.955  1.00  0.00    -0.388 OA
ATOM     21  H   UNL     1      -6.224  -4.440  17.016  1.00  0.00     0.211 HD
ENDBRANCH  16  20
BRANCH  18  22
ATOM     22  O   UNL     1      -7.197  -2.518  15.880  1.00  0.00    -0.387 OA
ATOM     23  H   UNL     1      -7.499  -3.440  16.089  1.00  0.00     0.211 HD
ENDBRANCH  18  22
BRANCH  19  24
ATOM     24  O   UNL     1      -8.657  -0.826  17.529  1.00  0.00    -0.384 OA
ATOM     25  H   UNL     1      -8.917  -0.447  18.409  1.00  0.00     0.211 HD
ENDBRANCH  19  24
ENDBRANCH  12  13
ENDBRANCH   1  12
BRANCH   3  26
ATOM     26  O   UNL     1      -1.584   2.978  17.159  1.00  0.00    -0.507 OA
ATOM     27  H   UNL     1      -1.021   3.088  17.994  1.00  0.00     0.293 HD
ENDBRANCH   3  26
BRANCH   8  28
ATOM     28  C   UNL     1      -6.917   6.112  14.984  1.00  0.00     0.021 A 
ATOM     29  C   UNL     1      -7.275   5.989  13.630  1.00  0.00     0.016 A 
ATOM     30  C   UNL     1      -7.632   6.995  15.807  1.00  0.00     0.016 A 
ATOM     31  C   UNL     1      -8.315   6.762  13.104  1.00  0.00     0.047 A 
ATOM     32  C   UNL     1      -8.668   7.769  15.279  1.00  0.00     0.047 A 
ATOM     33  C   UNL     1      -9.011   7.655  13.925  1.00  0.00     0.115 A 
BRANCH  33  34
ATOM     34  O   UNL     1     -10.041   8.423  13.387  1.00  0.00    -0.508 OA
ATOM     35  H   UNL     1      -9.929   8.919  12.510  1.00  0.00     0.293 HD
ENDBRANCH  33  34
ENDBRANCH   8  28
BRANCH   9  36
ATOM     36  O   UNL     1      -4.094   6.866  14.842  1.00  0.00    -0.454 OA
BRANCH  36  37
ATOM     37  C   UNL     1      -3.463   6.916  13.558  1.00  0.00     0.339 C 
ATOM     38  C   UNL     1      -4.463   7.383  12.481  1.00  0.00     0.214 C 
ATOM     39  O   UNL     1      -2.307   7.738  13.593  1.00  0.00    -0.335 OA
ATOM     40  C   UNL     1      -4.801   8.881  12.656  1.00  0.00     0.180 C 
ATOM     41  C   UNL     1      -2.631   9.077  13.921  1.00  0.00     0.151 C 
ATOM     42  C   UNL     1      -3.514   9.710  12.824  1.00  0.00     0.174 C 
ATOM     43  C   UNL     1      -1.333   9.866  14.107  1.00  0.00     0.042 C 
BRANCH  38  44
ATOM     44  O   UNL     1      -3.909   7.154  11.211  1.00  0.00    -0.384 OA
ATOM     45  H   UNL     1      -2.944   7.382  11.273  1.00  0.00     0.211 HD
ENDBRANCH  38  44
BRANCH  40  46
ATOM     46  O   UNL     1      -5.622   9.068  13.781  1.00  0.00    -0.387 OA
ATOM     47  H   UNL     1      -6.418   9.578  13.476  1.00  0.00     0.211 HD
ENDBRANCH  40  46
BRANCH  42  48
ATOM     48  O   UNL     1      -2.808   9.757  11.610  1.00  0.00    -0.388 OA
ATOM     49  H   UNL     1      -3.265   9.132  10.987  1.00  0.00     0.211 HD
ENDBRANCH  42  48
ENDBRANCH  36  37
ENDBRANCH   9  36
TORSDOF 13
ENDMDL
MODEL 5
REMARK VINA RESULT:    -3.515     11.920     17.078
REMARK INTER + INTRA:          -6.868
REMARK INTER:                  -5.754
REMARK INTRA:                  -1.114
REMARK UNBOUND:                -1.504
REMARK SMILES C[C@@H]1O[C@@H](Oc2c(-c3ccc(O)cc3)oc3cc(O[C@@H]4O[C@H](C)[C@H](O)[C@@H](O)[C@H]4O)cc(O)c3c2=O)[C@H](O)[C@@H](O)[C@@H]1O
REMARK SMILES IDX 18 1 30 2 31 3 33 4 16 5 17 6 15 7 7 8 6 9 34 10 35 11 19 12
REMARK SMILES IDX 20 13 23 14 22 15 24 16 21 17 26 18 28 19 25 20 27 22 29 24
REMARK SMILES IDX 32 26 8 28 9 29 14 30 10 31 13 32 11 33 12 34 5 36 4 37
REMARK SMILES IDX 36 38 3 39 38 40 2 41 40 42 1 43 37 44 39 46 41 48
REMARK H PARENT 25 21 27 23 29 25 32 27 12 35 37 45 39 47 41 49
REMARK Flexibility Score: inf
ROOT
ATOM      1  C   UNL     1      -4.843   1.101  18.192  1.00  0.00     0.130 A 
ATOM      2  C   UNL     1      -3.466   1.384  18.240  1.00  0.00     0.093 A 
ATOM      3  C   UNL     1      -2.908   2.375  17.419  1.00  0.00     0.134 A 
ATOM      4  C   UNL     1      -3.739   3.107  16.538  1.00  0.00     0.111 A 
ATOM      5  C   UNL     1      -5.124   2.820  16.500  1.00  0.00     0.146 A 
ATOM      6  C   UNL     1      -5.657   1.814  17.310  1.00  0.00     0.094 A 
ATOM      7  O   UNL     1      -5.934   3.497  15.695  1.00  0.00    -0.452 OA
ATOM      8  C   UNL     1      -5.514   4.467  14.889  1.00  0.00     0.180 A 
ATOM      9  C   UNL     1      -4.152   4.834  14.881  1.00  0.00     0.214 A 
ATOM     10  C   UNL     1      -3.259   4.131  15.696  1.00  0.00     0.239 A 
ATOM     11  O   UNL     1      -2.036   4.439  15.674  1.00  0.00    -0.285 OA
ENDROOT
BRANCH   1  12
ATOM     12  O   UNL     1      -5.448   0.121  18.997  1.00  0.00    -0.462 OA
BRANCH  12  13
ATOM     13  C   UNL     1      -6.835  -0.235  18.984  1.00  0.00     0.339 C 
ATOM     14  C   UNL     1      -4.984  -2.514  19.972  1.00  0.00     0.042 C 
ATOM     15  C   UNL     1      -6.492  -2.501  19.652  1.00  0.00     0.151 C 
ATOM     16  C   UNL     1      -6.843  -3.031  18.239  1.00  0.00     0.174 C 
ATOM     17  O   UNL     1      -7.098  -1.247  19.947  1.00  0.00    -0.335 OA
ATOM     18  C   UNL     1      -6.598  -1.956  17.167  1.00  0.00     0.180 C 
ATOM     19  C   UNL     1      -7.295  -0.652  17.575  1.00  0.00     0.214 C 
BRANCH  16  20
ATOM     20  O   UNL     1      -6.085  -4.182  17.954  1.00  0.00    -0.388 OA
ATOM     21  H   UNL     1      -6.716  -4.946  17.900  1.00  0.00     0.211 HD
ENDBRANCH  16  20
BRANCH  18  22
ATOM     22  O   UNL     1      -7.096  -2.379  15.923  1.00  0.00    -0.387 OA
ATOM     23  H   UNL     1      -8.000  -2.753  16.088  1.00  0.00     0.211 HD
ENDBRANCH  18  22
BRANCH  19  24
ATOM     24  O   UNL     1      -8.691  -0.817  17.575  1.00  0.00    -0.384 OA
ATOM     25  H   UNL     1      -8.908  -1.447  18.310  1.00  0.00     0.211 HD
ENDBRANCH  19  24
ENDBRANCH  12  13
ENDBRANCH   1  12
BRANCH   3  26
ATOM     26  O   UNL     1      -1.537   2.629  17.489  1.00  0.00    -0.507 OA
ATOM     27  H   UNL     1      -1.004   2.456  18.333  1.00  0.00     0.293 HD
ENDBRANCH   3  26
BRANCH   8  28
ATOM     28  C   UNL     1      -6.506   5.125  14.014  1.00  0.00     0.021 A 
ATOM     29  C   UNL     1      -6.318   5.180  12.621  1.00  0.00     0.016 A 
ATOM     30  C   UNL     1      -7.675   5.664  14.573  1.00  0.00     0.016 A 
ATOM     31  C   UNL     1      -7.274   5.794  11.807  1.00  0.00     0.047 A 
ATOM     32  C   UNL     1      -8.627   6.280  13.757  1.00  0.00     0.047 A 
ATOM     33  C   UNL     1      -8.428   6.347  12.371  1.00  0.00     0.115 A 
BRANCH  33  34
ATOM     34  O   UNL     1      -9.370   6.961  11.549  1.00  0.00    -0.508 OA
ATOM     35  H   UNL     1      -9.141   7.785  11.005  1.00  0.00     0.293 HD
ENDBRANCH  33  34
ENDBRANCH   8  28
BRANCH   9  36
ATOM     36  O   UNL     1      -3.685   5.895  14.097  1.00  0.00    -0.454 OA
BRANCH  36  37
ATOM     37  C   UNL     1      -3.188   7.110  14.667  1.00  0.00     0.339 C 
ATOM     38  C   UNL     1      -2.249   7.829  13.677  1.00  0.00     0.214 C 
ATOM     39  O   UNL     1      -4.255   7.948  15.082  1.00  0.00    -0.335 OA
ATOM     40  C   UNL     1      -3.046   8.414  12.488  1.00  0.00     0.180 C 
ATOM     41  C   UNL     1      -5.069   8.334  13.989  1.00  0.00     0.151 C 
ATOM     42  C   UNL     1      -4.269   9.201  12.993  1.00  0.00     0.174 C 
ATOM     43  C   UNL     1      -6.286   9.090  14.525  1.00  0.00     0.042 C 
BRANCH  38  44
ATOM     44  O   UNL     1      -1.565   8.852  14.353  1.00  0.00    -0.384 OA
ATOM     45  H   UNL     1      -1.063   9.365  13.665  1.00  0.00     0.211 HD
ENDBRANCH  38  44
BRANCH  40  46
ATOM     46  O   UNL     1      -3.478   7.383  11.637  1.00  0.00    -0.387 OA
ATOM     47  H   UNL     1      -2.970   6.568  11.889  1.00  0.00     0.211 HD
ENDBRANCH  40  46
BRANCH  42  48
ATOM     48  O   UNL     1      -3.854  10.389  13.619  1.00  0.00    -0.388 OA
ATOM     49  H   UNL     1      -3.563  11.007  12.898  1.00  0.00     0.211 HD
ENDBRANCH  42  48
ENDBRANCH  36  37
ENDBRANCH   9  36
TORSDOF 13
ENDMDL
MODEL 6
REMARK VINA RESULT:    -3.013      1.344      2.307
REMARK INTER + INTRA:          -6.102
REMARK INTER:                  -8.702
REMARK INTRA:                   2.600
REMARK UNBOUND:                -1.504
REMARK SMILES C[C@@H]1O[C@@H](Oc2c(-c3ccc(O)cc3)oc3cc(O[C@@H]4O[C@H](C)[C@H](O)[C@@H](O)[C@H]4O)cc(O)c3c2=O)[C@H](O)[C@@H](O)[C@@H]1O
REMARK SMILES IDX 18 1 30 2 31 3 33 4 16 5 17 6 15 7 7 8 6 9 34 10 35 11 19 12
REMARK SMILES IDX 20 13 23 14 22 15 24 16 21 17 26 18 28 19 25 20 27 22 29 24
REMARK SMILES IDX 32 26 8 28 9 29 14 30 10 31 13 32 11 33 12 34 5 36 4 37
REMARK SMILES IDX 36 38 3 39 38 40 2 41 40 42 1 43 37 44 39 46 41 48
REMARK H PARENT 25 21 27 23 29 25 32 27 12 35 37 45 39 47 41 49
REMARK Flexibility Score: inf
ROOT
ATOM      1  C   UNL     1      -1.095  -7.192  27.678  1.00  0.00     0.130 A 
ATOM      2  C   UNL     1      -1.902  -7.941  28.555  1.00  0.00     0.093 A 
ATOM      3  C   UNL     1      -3.198  -8.328  28.184  1.00  0.00     0.134 A 
ATOM      4  C   UNL     1      -3.699  -7.972  26.910  1.00  0.00     0.111 A 
ATOM      5  C   UNL     1      -2.880  -7.225  26.031  1.00  0.00     0.146 A 
ATOM      6  C   UNL     1      -1.600  -6.830  26.428  1.00  0.00     0.094 A 
ATOM      7  O   UNL     1      -3.315  -6.886  24.823  1.00  0.00    -0.452 OA
ATOM      8  C   UNL     1      -4.518  -7.216  24.364  1.00  0.00     0.180 A 
ATOM      9  C   UNL     1      -5.390  -7.982  25.167  1.00  0.00     0.214 A 
ATOM     10  C   UNL     1      -4.983  -8.340  26.456  1.00  0.00     0.239 A 
ATOM     11  O   UNL     1      -5.769  -9.003  27.186  1.00  0.00    -0.285 OA
ENDROOT
BRANCH   1  12
ATOM     12  O   UNL     1       0.209  -6.785  28.002  1.00  0.00    -0.462 OA
BRANCH  12  13
ATOM     13  C   UNL     1       1.385  -7.599  27.926  1.00  0.00     0.339 C 
ATOM     14  C   UNL     1       1.647  -5.231  29.907  1.00  0.00     0.042 C 
ATOM     15  C   UNL     1       2.690  -6.246  29.399  1.00  0.00     0.151 C 
ATOM     16  C   UNL     1       3.567  -5.723  28.234  1.00  0.00     0.174 C 
ATOM     17  O   UNL     1       2.120  -7.526  29.141  1.00  0.00    -0.335 OA
ATOM     18  C   UNL     1       2.819  -5.809  26.894  1.00  0.00     0.180 C 
ATOM     19  C   UNL     1       2.251  -7.222  26.709  1.00  0.00     0.214 C 
BRANCH  16  20
ATOM     20  O   UNL     1       3.960  -4.395  28.486  1.00  0.00    -0.388 OA
ATOM     21  H   UNL     1       3.439  -4.076  29.267  1.00  0.00     0.211 HD
ENDBRANCH  16  20
BRANCH  18  22
ATOM     22  O   UNL     1       3.683  -5.513  25.827  1.00  0.00    -0.387 OA
ATOM     23  H   UNL     1       3.824  -6.360  25.329  1.00  0.00     0.211 HD
ENDBRANCH  18  22
BRANCH  19  24
ATOM     24  O   UNL     1       3.291  -8.159  26.576  1.00  0.00    -0.384 OA
ATOM     25  H   UNL     1       2.873  -9.021  26.318  1.00  0.00     0.211 HD
ENDBRANCH  19  24
ENDBRANCH  12  13
ENDBRANCH   1  12
BRANCH   3  26
ATOM     26  O   UNL     1      -3.973  -9.067  29.080  1.00  0.00    -0.507 OA
ATOM     27  H   UNL     1      -4.083 -10.070  28.990  1.00  0.00     0.293 HD
ENDBRANCH   3  26
BRANCH   8  28
ATOM     28  C   UNL     1      -4.901  -6.753  23.015  1.00  0.00     0.021 A 
ATOM     29  C   UNL     1      -5.129  -7.670  21.974  1.00  0.00     0.016 A 
ATOM     30  C   UNL     1      -5.087  -5.383  22.779  1.00  0.00     0.016 A 
ATOM     31  C   UNL     1      -5.505  -7.214  20.706  1.00  0.00     0.047 A 
ATOM     32  C   UNL     1      -5.460  -4.930  21.511  1.00  0.00     0.047 A 
ATOM     33  C   UNL     1      -5.670  -5.846  20.471  1.00  0.00     0.115 A 
BRANCH  33  34
ATOM     34  O   UNL     1      -6.041  -5.405  19.203  1.00  0.00    -0.508 OA
ATOM     35  H   UNL     1      -5.369  -4.980  18.574  1.00  0.00     0.293 HD
ENDBRANCH  33  34
ENDBRANCH   8  28
BRANCH   9  36
ATOM     36  O   UNL     1      -6.637  -8.406  24.693  1.00  0.00    -0.454 OA
BRANCH  36  37
ATOM     37  C   UNL     1      -7.816  -8.381  25.505  1.00  0.00     0.339 C 
ATOM     38  C   UNL     1      -7.674  -7.341  26.635  1.00  0.00     0.214 C 
ATOM     39  O   UNL     1      -8.970  -8.144  24.714  1.00  0.00    -0.335 OA
ATOM     40  C   UNL     1      -7.725  -5.903  26.070  1.00  0.00     0.180 C 
ATOM     41  C   UNL     1      -8.911  -6.882  24.074  1.00  0.00     0.151 C 
ATOM     42  C   UNL     1      -8.920  -5.740  25.113  1.00  0.00     0.174 C 
ATOM     43  C   UNL     1     -10.096  -6.762  23.113  1.00  0.00     0.042 C 
BRANCH  38  44
ATOM     44  O   UNL     1      -8.705  -7.533  27.568  1.00  0.00    -0.384 OA
ATOM     45  H   UNL     1      -9.101  -6.639  27.747  1.00  0.00     0.211 HD
ENDBRANCH  38  44
BRANCH  40  46
ATOM     46  O   UNL     1      -6.537  -5.608  25.380  1.00  0.00    -0.387 OA
ATOM     47  H   UNL     1      -6.541  -6.155  24.551  1.00  0.00     0.211 HD
ENDBRANCH  40  46
BRANCH  42  48
ATOM     48  O   UNL     1     -10.125  -5.763  25.837  1.00  0.00    -0.388 OA
ATOM     49  H   UNL     1     -10.439  -4.823  25.902  1.00  0.00     0.211 HD
ENDBRANCH  42  48
ENDBRANCH  36  37
ENDBRANCH   9  36
TORSDOF 13
ENDMDL
