MODEL 1
REMARK VINA RESULT:    -4.227      0.000      0.000
REMARK INTER + INTRA:          -4.892
REMARK INTER:                  -4.845
REMARK INTRA:                  -0.047
REMARK UNBOUND:                -0.047
REMARK SMILES O=C([O-])c1cc(O)c(O)c(O)c1
REMARK SMILES IDX 4 1 5 2 12 3 6 4 10 5 8 6 2 7 1 8 3 9 7 10 11 12 9 14
REMARK H PARENT 7 11 11 13 9 15
REMARK Flexibility Score: inf
ROOT
ATOM      1  C   UNL     1      15.626 -20.129  16.735  1.00  0.00     0.005 A 
ATOM      2  C   UNL     1      16.730 -20.444  17.546  1.00  0.00     0.060 A 
ATOM      3  C   UNL     1      14.566 -21.046  16.641  1.00  0.00     0.060 A 
ATOM      4  C   UNL     1      16.775 -21.654  18.253  1.00  0.00     0.162 A 
ATOM      5  C   UNL     1      14.606 -22.257  17.345  1.00  0.00     0.162 A 
ATOM      6  C   UNL     1      15.709 -22.563  18.152  1.00  0.00     0.200 A 
ENDROOT
BRANCH   1   7
ATOM      7  C   UNL     1      15.577 -18.852  15.988  1.00  0.00     0.072 C 
ATOM      8  O   UNL     1      16.468 -18.570  15.142  1.00  0.00    -0.545 OA
ATOM      9  O   UNL     1      14.546 -17.945  16.208  1.00  0.00    -0.545 OA
ENDBRANCH   1   7
BRANCH   4  10
ATOM     10  O   UNL     1      17.875 -21.954  19.055  1.00  0.00    -0.504 OA
ATOM     11  H   UNL     1      18.718 -22.362  18.669  1.00  0.00     0.293 HD
ENDBRANCH   4  10
BRANCH   5  12
ATOM     12  O   UNL     1      13.551 -23.163  17.248  1.00  0.00    -0.504 OA
ATOM     13  H   UNL     1      13.689 -24.103  16.896  1.00  0.00     0.293 HD
ENDBRANCH   5  12
BRANCH   6  14
ATOM     14  O   UNL     1      15.731 -23.774  18.845  1.00  0.00    -0.502 OA
ATOM     15  H   UNL     1      16.020 -24.640  18.408  1.00  0.00     0.293 HD
ENDBRANCH   6  14
TORSDOF 4
ENDMDL
MODEL 2
REMARK VINA RESULT:    -4.227      0.034      2.422
REMARK INTER + INTRA:          -4.891
REMARK INTER:                  -4.844
REMARK INTRA:                  -0.047
REMARK UNBOUND:                -0.047
REMARK SMILES O=C([O-])c1cc(O)c(O)c(O)c1
REMARK SMILES IDX 4 1 5 2 12 3 6 4 10 5 8 6 2 7 1 8 3 9 7 10 11 12 9 14
REMARK H PARENT 7 11 11 13 9 15
REMARK Flexibility Score: inf
ROOT
ATOM      1  C   UNL     1      15.612 -20.134  16.736  1.00  0.00     0.005 A 
ATOM      2  C   UNL     1      14.565 -21.065  16.641  1.00  0.00     0.060 A 
ATOM      3  C   UNL     1      16.719 -20.433  17.548  1.00  0.00     0.060 A 
ATOM      4  C   UNL     1      14.621 -22.278  17.343  1.00  0.00     0.162 A 
ATOM      5  C   UNL     1      16.781 -21.643  18.252  1.00  0.00     0.162 A 
ATOM      6  C   UNL     1      15.733 -22.567  18.152  1.00  0.00     0.200 A 
ENDROOT
BRANCH   1   7
ATOM      7  C   UNL     1      15.554 -18.854  15.995  1.00  0.00     0.072 C 
ATOM      8  O   UNL     1      16.445 -18.561  15.153  1.00  0.00    -0.545 OA
ATOM      9  O   UNL     1      14.516 -17.956  16.217  1.00  0.00    -0.545 OA
ENDBRANCH   1   7
BRANCH   4  10
ATOM     10  O   UNL     1      13.576 -23.195  17.240  1.00  0.00    -0.504 OA
ATOM     11  H   UNL     1      12.608 -22.897  17.212  1.00  0.00     0.293 HD
ENDBRANCH   4  10
BRANCH   5  12
ATOM     12  O   UNL     1      17.881 -21.935  19.056  1.00  0.00    -0.504 OA
ATOM     13  H   UNL     1      18.828 -21.895  18.696  1.00  0.00     0.293 HD
ENDBRANCH   5  12
BRANCH   6  14
ATOM     14  O   UNL     1      15.811 -23.766  18.860  1.00  0.00    -0.502 OA
ATOM     15  H   UNL     1      15.183 -23.983  19.624  1.00  0.00     0.293 HD
ENDBRANCH   6  14
TORSDOF 4
ENDMDL
MODEL 3
REMARK VINA RESULT:    -4.199      1.694      3.104
REMARK INTER + INTRA:          -4.859
REMARK INTER:                  -4.814
REMARK INTRA:                  -0.046
REMARK UNBOUND:                -0.047
REMARK SMILES O=C([O-])c1cc(O)c(O)c(O)c1
REMARK SMILES IDX 4 1 5 2 12 3 6 4 10 5 8 6 2 7 1 8 3 9 7 10 11 12 9 14
REMARK H PARENT 7 11 11 13 9 15
REMARK Flexibility Score: inf
ROOT
ATOM      1  C   UNL     1      15.768 -21.657  17.672  1.00  0.00     0.005 A 
ATOM      2  C   UNL     1      14.505 -22.260  17.552  1.00  0.00     0.060 A 
ATOM      3  C   UNL     1      16.870 -22.449  18.037  1.00  0.00     0.060 A 
ATOM      4  C   UNL     1      14.343 -23.633  17.791  1.00  0.00     0.162 A 
ATOM      5  C   UNL     1      16.715 -23.821  18.276  1.00  0.00     0.162 A 
ATOM      6  C   UNL     1      15.453 -24.415  18.154  1.00  0.00     0.200 A 
ENDROOT
BRANCH   1   7
ATOM      7  C   UNL     1      15.941 -20.209  17.421  1.00  0.00     0.072 C 
ATOM      8  O   UNL     1      15.801 -19.739  16.259  1.00  0.00    -0.545 OA
ATOM      9  O   UNL     1      16.259 -19.345  18.462  1.00  0.00    -0.545 OA
ENDBRANCH   1   7
BRANCH   4  10
ATOM     10  O   UNL     1      13.085 -24.220  17.668  1.00  0.00    -0.504 OA
ATOM     11  H   UNL     1      12.621 -24.654  18.457  1.00  0.00     0.293 HD
ENDBRANCH   4  10
BRANCH   5  12
ATOM     12  O   UNL     1      17.811 -24.601  18.638  1.00  0.00    -0.504 OA
ATOM     13  H   UNL     1      18.456 -24.309  19.363  1.00  0.00     0.293 HD
ENDBRANCH   5  12
BRANCH   6  14
ATOM     14  O   UNL     1      15.316 -25.782  18.397  1.00  0.00    -0.502 OA
ATOM     15  H   UNL     1      16.116 -26.390  18.524  1.00  0.00     0.293 HD
ENDBRANCH   6  14
TORSDOF 4
ENDMDL
MODEL 4
REMARK VINA RESULT:    -4.161      1.368      1.630
REMARK INTER + INTRA:          -4.815
REMARK INTER:                  -4.763
REMARK INTRA:                  -0.053
REMARK UNBOUND:                -0.047
REMARK SMILES O=C([O-])c1cc(O)c(O)c(O)c1
REMARK SMILES IDX 4 1 5 2 12 3 6 4 10 5 8 6 2 7 1 8 3 9 7 10 11 12 9 14
REMARK H PARENT 7 11 11 13 9 15
REMARK Flexibility Score: inf
ROOT
ATOM      1  C   UNL     1      15.579 -21.523  17.315  1.00  0.00     0.005 A 
ATOM      2  C   UNL     1      16.698 -22.142  17.896  1.00  0.00     0.060 A 
ATOM      3  C   UNL     1      14.366 -22.229  17.252  1.00  0.00     0.060 A 
ATOM      4  C   UNL     1      16.609 -23.444  18.408  1.00  0.00     0.162 A 
ATOM      5  C   UNL     1      14.271 -23.530  17.762  1.00  0.00     0.162 A 
ATOM      6  C   UNL     1      15.391 -24.141  18.341  1.00  0.00     0.200 A 
ENDROOT
BRANCH   1   7
ATOM      7  C   UNL     1      15.671 -20.148  16.775  1.00  0.00     0.072 C 
ATOM      8  O   UNL     1      16.791 -19.583  16.650  1.00  0.00    -0.545 OA
ATOM      9  O   UNL     1      14.524 -19.460  16.396  1.00  0.00    -0.545 OA
ENDBRANCH   1   7
BRANCH   4  10
ATOM     10  O   UNL     1      17.727 -24.047  18.983  1.00  0.00    -0.504 OA
ATOM     11  H   UNL     1      17.653 -24.902  19.521  1.00  0.00     0.293 HD
ENDBRANCH   4  10
BRANCH   5  12
ATOM     12  O   UNL     1      13.065 -24.226  17.697  1.00  0.00    -0.504 OA
ATOM     13  H   UNL     1      12.174 -23.756  17.806  1.00  0.00     0.293 HD
ENDBRANCH   5  12
BRANCH   6  14
ATOM     14  O   UNL     1      15.278 -25.438  18.842  1.00  0.00    -0.502 OA
ATOM     15  H   UNL     1      14.520 -26.054  18.578  1.00  0.00     0.293 HD
ENDBRANCH   6  14
TORSDOF 4
ENDMDL
MODEL 5
REMARK VINA RESULT:    -4.137      4.217      6.959
REMARK INTER + INTRA:          -4.788
REMARK INTER:                  -4.735
REMARK INTRA:                  -0.053
REMARK UNBOUND:                -0.047
REMARK SMILES O=C([O-])c1cc(O)c(O)c(O)c1
REMARK SMILES IDX 4 1 5 2 12 3 6 4 10 5 8 6 2 7 1 8 3 9 7 10 11 12 9 14
REMARK H PARENT 7 11 11 13 9 15
REMARK Flexibility Score: inf
ROOT
ATOM      1  C   UNL     1      15.234 -16.365  17.481  1.00  0.00     0.005 A 
ATOM      2  C   UNL     1      15.739 -15.780  18.654  1.00  0.00     0.060 A 
ATOM      3  C   UNL     1      15.314 -15.651  16.274  1.00  0.00     0.060 A 
ATOM      4  C   UNL     1      16.317 -14.503  18.624  1.00  0.00     0.162 A 
ATOM      5  C   UNL     1      15.890 -14.374  16.238  1.00  0.00     0.162 A 
ATOM      6  C   UNL     1      16.392 -13.797  17.411  1.00  0.00     0.200 A 
ENDROOT
BRANCH   1   7
ATOM      7  C   UNL     1      14.624 -17.714  17.511  1.00  0.00     0.072 C 
ATOM      8  O   UNL     1      14.439 -18.308  18.607  1.00  0.00    -0.545 OA
ATOM      9  O   UNL     1      14.247 -18.344  16.331  1.00  0.00    -0.545 OA
ENDBRANCH   1   7
BRANCH   4  10
ATOM     10  O   UNL     1      16.816 -13.933  19.795  1.00  0.00    -0.504 OA
ATOM     11  H   UNL     1      17.034 -12.946  19.855  1.00  0.00     0.293 HD
ENDBRANCH   4  10
BRANCH   5  12
ATOM     12  O   UNL     1      15.967 -13.670  15.038  1.00  0.00    -0.504 OA
ATOM     13  H   UNL     1      15.272 -12.978  14.782  1.00  0.00     0.293 HD
ENDBRANCH   5  12
BRANCH   6  14
ATOM     14  O   UNL     1      16.962 -12.525  17.357  1.00  0.00    -0.502 OA
ATOM     15  H   UNL     1      16.957 -11.898  18.151  1.00  0.00     0.293 HD
ENDBRANCH   6  14
TORSDOF 4
ENDMDL
MODEL 6
REMARK VINA RESULT:    -4.058     13.333     13.981
REMARK INTER + INTRA:          -4.697
REMARK INTER:                  -4.646
REMARK INTRA:                  -0.051
REMARK UNBOUND:                -0.047
REMARK SMILES O=C([O-])c1cc(O)c(O)c(O)c1
REMARK SMILES IDX 4 1 5 2 12 3 6 4 10 5 8 6 2 7 1 8 3 9 7 10 11 12 9 14
REMARK H PARENT 7 11 11 13 9 15
REMARK Flexibility Score: inf
ROOT
ATOM      1  C   UNL     1       4.347 -17.066  11.065  1.00  0.00     0.005 A 
ATOM      2  C   UNL     1       5.196 -15.968  10.841  1.00  0.00     0.060 A 
ATOM      3  C   UNL     1       3.470 -17.038  12.161  1.00  0.00     0.060 A 
ATOM      4  C   UNL     1       5.168 -14.858  11.698  1.00  0.00     0.162 A 
ATOM      5  C   UNL     1       3.438 -15.931  13.020  1.00  0.00     0.162 A 
ATOM      6  C   UNL     1       4.286 -14.840  12.791  1.00  0.00     0.200 A 
ENDROOT
BRANCH   1   7
ATOM      7  C   UNL     1       4.375 -18.238  10.161  1.00  0.00     0.072 C 
ATOM      8  O   UNL     1       3.373 -18.996  10.064  1.00  0.00    -0.545 OA
ATOM      9  O   UNL     1       5.508 -18.520   9.406  1.00  0.00    -0.545 OA
ENDBRANCH   1   7
BRANCH   4  10
ATOM     10  O   UNL     1       6.014 -13.775  11.465  1.00  0.00    -0.504 OA
ATOM     11  H   UNL     1       5.724 -12.985  10.902  1.00  0.00     0.293 HD
ENDBRANCH   4  10
BRANCH   5  12
ATOM     12  O   UNL     1       2.565 -15.908  14.107  1.00  0.00    -0.504 OA
ATOM     13  H   UNL     1       2.906 -15.886  15.061  1.00  0.00     0.293 HD
ENDBRANCH   5  12
BRANCH   6  14
ATOM     14  O   UNL     1       4.241 -13.747  13.657  1.00  0.00    -0.502 OA
ATOM     15  H   UNL     1       3.585 -12.986  13.531  1.00  0.00     0.293 HD
ENDBRANCH   6  14
TORSDOF 4
ENDMDL
MODEL 7
REMARK VINA RESULT:    -4.056      4.467      7.379
REMARK INTER + INTRA:          -4.695
REMARK INTER:                  -4.643
REMARK INTRA:                  -0.053
REMARK UNBOUND:                -0.047
REMARK SMILES O=C([O-])c1cc(O)c(O)c(O)c1
REMARK SMILES IDX 4 1 5 2 12 3 6 4 10 5 8 6 2 7 1 8 3 9 7 10 11 12 9 14
REMARK H PARENT 7 11 11 13 9 15
REMARK Flexibility Score: inf
ROOT
ATOM      1  C   UNL     1      15.366 -16.187  17.829  1.00  0.00     0.005 A 
ATOM      2  C   UNL     1      15.461 -15.596  16.559  1.00  0.00     0.060 A 
ATOM      3  C   UNL     1      15.748 -15.443  18.958  1.00  0.00     0.060 A 
ATOM      4  C   UNL     1      15.928 -14.281  16.416  1.00  0.00     0.162 A 
ATOM      5  C   UNL     1      16.215 -14.130  18.821  1.00  0.00     0.162 A 
ATOM      6  C   UNL     1      16.307 -13.546  17.552  1.00  0.00     0.200 A 
ENDROOT
BRANCH   1   7
ATOM      7  C   UNL     1      14.873 -17.575  17.981  1.00  0.00     0.072 C 
ATOM      8  O   UNL     1      14.633 -18.047  19.125  1.00  0.00    -0.545 OA
ATOM      9  O   UNL     1      14.667 -18.377  16.865  1.00  0.00    -0.545 OA
ENDBRANCH   1   7
BRANCH   4  10
ATOM     10  O   UNL     1      16.017 -13.705  15.149  1.00  0.00    -0.504 OA
ATOM     11  H   UNL     1      16.228 -14.257  14.327  1.00  0.00     0.293 HD
ENDBRANCH   4  10
BRANCH   5  12
ATOM     12  O   UNL     1      16.593 -13.396  19.945  1.00  0.00    -0.504 OA
ATOM     13  H   UNL     1      15.914 -13.093  20.634  1.00  0.00     0.293 HD
ENDBRANCH   5  12
BRANCH   6  14
ATOM     14  O   UNL     1      16.775 -12.237  17.435  1.00  0.00    -0.502 OA
ATOM     15  H   UNL     1      16.153 -11.438  17.449  1.00  0.00     0.293 HD
ENDBRANCH   6  14
TORSDOF 4
ENDMDL
MODEL 8
REMARK VINA RESULT:    -4.050     13.346     14.063
REMARK INTER + INTRA:          -4.689
REMARK INTER:                  -4.638
REMARK INTRA:                  -0.051
REMARK UNBOUND:                -0.047
REMARK SMILES O=C([O-])c1cc(O)c(O)c(O)c1
REMARK SMILES IDX 4 1 5 2 12 3 6 4 10 5 8 6 2 7 1 8 3 9 7 10 11 12 9 14
REMARK H PARENT 7 11 11 13 9 15
REMARK Flexibility Score: inf
ROOT
ATOM      1  C   UNL     1       4.405 -17.062  11.015  1.00  0.00     0.005 A 
ATOM      2  C   UNL     1       3.554 -17.046  12.133  1.00  0.00     0.060 A 
ATOM      3  C   UNL     1       5.230 -15.951  10.770  1.00  0.00     0.060 A 
ATOM      4  C   UNL     1       3.526 -15.939  12.994  1.00  0.00     0.162 A 
ATOM      5  C   UNL     1       5.206 -14.843  11.627  1.00  0.00     0.162 A 
ATOM      6  C   UNL     1       4.355 -14.834  12.740  1.00  0.00     0.200 A 
ENDROOT
BRANCH   1   7
ATOM      7  C   UNL     1       4.436 -18.229  10.106  1.00  0.00     0.072 C 
ATOM      8  O   UNL     1       3.435 -18.989  10.006  1.00  0.00    -0.545 OA
ATOM      9  O   UNL     1       5.568 -18.503   9.347  1.00  0.00    -0.545 OA
ENDBRANCH   1   7
BRANCH   4  10
ATOM     10  O   UNL     1       2.677 -15.936  14.100  1.00  0.00    -0.504 OA
ATOM     11  H   UNL     1       2.626 -15.142  14.728  1.00  0.00     0.293 HD
ENDBRANCH   4  10
BRANCH   5  12
ATOM     12  O   UNL     1       6.026 -13.743  11.379  1.00  0.00    -0.504 OA
ATOM     13  H   UNL     1       6.763 -13.776  10.684  1.00  0.00     0.293 HD
ENDBRANCH   5  12
BRANCH   6  14
ATOM     14  O   UNL     1       4.345 -13.722  13.582  1.00  0.00    -0.502 OA
ATOM     15  H   UNL     1       5.197 -13.271  13.890  1.00  0.00     0.293 HD
ENDBRANCH   6  14
TORSDOF 4
ENDMDL
MODEL 9
REMARK VINA RESULT:    -4.020      2.691      3.485
REMARK INTER + INTRA:          -4.654
REMARK INTER:                  -4.601
REMARK INTRA:                  -0.053
REMARK UNBOUND:                -0.047
REMARK SMILES O=C([O-])c1cc(O)c(O)c(O)c1
REMARK SMILES IDX 4 1 5 2 12 3 6 4 10 5 8 6 2 7 1 8 3 9 7 10 11 12 9 14
REMARK H PARENT 7 11 11 13 9 15
REMARK Flexibility Score: inf
ROOT
ATOM      1  C   UNL     1      14.978 -17.129  17.422  1.00  0.00     0.005 A 
ATOM      2  C   UNL     1      15.065 -17.810  18.647  1.00  0.00     0.060 A 
ATOM      3  C   UNL     1      14.505 -17.816  16.291  1.00  0.00     0.060 A 
ATOM      4  C   UNL     1      14.686 -19.156  18.745  1.00  0.00     0.162 A 
ATOM      5  C   UNL     1      14.124 -19.161  16.383  1.00  0.00     0.162 A 
ATOM      6  C   UNL     1      14.213 -19.834  17.608  1.00  0.00     0.200 A 
ENDROOT
BRANCH   1   7
ATOM      7  C   UNL     1      15.378 -15.707  17.318  1.00  0.00     0.072 C 
ATOM      8  O   UNL     1      15.391 -15.126  16.199  1.00  0.00    -0.545 OA
ATOM      9  O   UNL     1      15.744 -14.992  18.452  1.00  0.00    -0.545 OA
ENDBRANCH   1   7
BRANCH   4  10
ATOM     10  O   UNL     1      14.776 -19.822  19.966  1.00  0.00    -0.504 OA
ATOM     11  H   UNL     1      14.025 -20.410  20.309  1.00  0.00     0.293 HD
ENDBRANCH   4  10
BRANCH   5  12
ATOM     12  O   UNL     1      13.656 -19.839  15.258  1.00  0.00    -0.504 OA
ATOM     13  H   UNL     1      13.720 -20.847  15.180  1.00  0.00     0.293 HD
ENDBRANCH   5  12
BRANCH   6  14
ATOM     14  O   UNL     1      13.830 -21.174  17.680  1.00  0.00    -0.502 OA
ATOM     15  H   UNL     1      14.478 -21.906  17.942  1.00  0.00     0.293 HD
ENDBRANCH   6  14
TORSDOF 4
ENDMDL
