MODEL 1
REMARK VINA RESULT:    -4.001      0.000      0.000
REMARK INTER + INTRA:          -7.598
REMARK INTER:                  -6.340
REMARK INTRA:                  -1.258
REMARK UNBOUND:                -1.258
REMARK SMILES CCCCCCCCCCCC(=O)[O-]
REMARK SMILES IDX 7 1 8 2 9 3 10 4 11 5 12 6 13 7 14 8 6 9 5 10 4 11 3 12 2 13
REMARK SMILES IDX 1 14
REMARK H PARENT
REMARK Flexibility Score: inf
ROOT
ATOM      1  C   UNL     1     172.701 171.877 149.762  1.00  0.00     0.000 C 
ENDROOT
BRANCH   1   2
ATOM      2  C   UNL     1     173.513 170.912 150.633  1.00  0.00     0.000 C 
BRANCH   2   3
ATOM      3  C   UNL     1     175.009 171.006 150.311  1.00  0.00     0.000 C 
BRANCH   3   4
ATOM      4  C   UNL     1     175.694 169.640 150.473  1.00  0.00     0.006 C 
BRANCH   4   5
ATOM      5  C   UNL     1     174.783 168.610 151.154  1.00  0.00     0.053 C 
BRANCH   5   6
ATOM      6  C   UNL     1     175.303 168.213 152.502  1.00  0.00     0.041 C 
ATOM      7  O   UNL     1     175.734 169.089 153.297  1.00  0.00    -0.550 OA
ATOM      8  O   UNL     1     175.343 166.874 152.866  1.00  0.00    -0.550 OA
ENDBRANCH   5   6
ENDBRANCH   4   5
ENDBRANCH   3   4
ENDBRANCH   2   3
ENDBRANCH   1   2
BRANCH   1   9
ATOM      9  C   UNL     1     173.317 173.281 149.774  1.00  0.00     0.000 C 
BRANCH   9  10
ATOM     10  C   UNL     1     172.564 174.206 150.739  1.00  0.00    -0.000 C 
BRANCH  10  11
ATOM     11  C   UNL     1     173.263 174.268 152.102  1.00  0.00    -0.000 C 
BRANCH  11  12
ATOM     12  C   UNL     1     174.790 174.269 151.936  1.00  0.00    -0.000 C 
BRANCH  12  13
ATOM     13  C   UNL     1     175.522 173.805 153.205  1.00  0.00    -0.003 C 
ATOM     14  C   UNL     1     174.969 172.492 153.760  1.00  0.00     0.004 C 
ENDBRANCH  12  13
ENDBRANCH  11  12
ENDBRANCH  10  11
ENDBRANCH   9  10
ENDBRANCH   1   9
TORSDOF 10
ENDMDL
MODEL 2
REMARK VINA RESULT:    -3.981      1.930      5.074
REMARK INTER + INTRA:          -7.566
REMARK INTER:                  -6.394
REMARK INTRA:                  -1.172
REMARK UNBOUND:                -1.258
REMARK SMILES CCCCCCCCCCCC(=O)[O-]
REMARK SMILES IDX 7 1 8 2 9 3 10 4 11 5 12 6 13 7 14 8 6 9 5 10 4 11 3 12 2 13
REMARK SMILES IDX 1 14
REMARK H PARENT
REMARK Flexibility Score: inf
ROOT
ATOM      1  C   UNL     1     173.624 171.626 150.184  1.00  0.00     0.000 C 
ENDROOT
BRANCH   1   2
ATOM      2  C   UNL     1     173.645 173.100 149.763  1.00  0.00     0.000 C 
BRANCH   2   3
ATOM      3  C   UNL     1     174.768 173.860 150.480  1.00  0.00     0.000 C 
BRANCH   3   4
ATOM      4  C   UNL     1     174.341 174.263 151.899  1.00  0.00     0.006 C 
BRANCH   4   5
ATOM      5  C   UNL     1     175.368 173.839 152.958  1.00  0.00     0.053 C 
BRANCH   5   6
ATOM      6  C   UNL     1     174.935 172.604 153.687  1.00  0.00     0.041 C 
ATOM      7  O   UNL     1     173.725 172.258 153.684  1.00  0.00    -0.550 OA
ATOM      8  O   UNL     1     175.864 171.855 154.398  1.00  0.00    -0.550 OA
ENDBRANCH   5   6
ENDBRANCH   4   5
ENDBRANCH   3   4
ENDBRANCH   2   3
ENDBRANCH   1   2
BRANCH   1   9
ATOM      9  C   UNL     1     175.039 171.036 150.196  1.00  0.00     0.000 C 
BRANCH   9  10
ATOM     10  C   UNL     1     175.131 169.841 151.152  1.00  0.00    -0.000 C 
BRANCH  10  11
ATOM     11  C   UNL     1     174.148 168.735 150.749  1.00  0.00    -0.000 C 
BRANCH  11  12
ATOM     12  C   UNL     1     174.644 167.988 149.502  1.00  0.00    -0.000 C 
BRANCH  12  13
ATOM     13  C   UNL     1     173.494 167.525 148.595  1.00  0.00    -0.003 C 
ATOM     14  C   UNL     1     172.220 168.349 148.787  1.00  0.00     0.004 C 
ENDBRANCH  12  13
ENDBRANCH  11  12
ENDBRANCH  10  11
ENDBRANCH   9  10
ENDBRANCH   1   9
TORSDOF 10
ENDMDL
MODEL 3
REMARK VINA RESULT:    -3.816      1.073      1.929
REMARK INTER + INTRA:          -7.305
REMARK INTER:                  -5.873
REMARK INTRA:                  -1.432
REMARK UNBOUND:                -1.258
REMARK SMILES CCCCCCCCCCCC(=O)[O-]
REMARK SMILES IDX 7 1 8 2 9 3 10 4 11 5 12 6 13 7 14 8 6 9 5 10 4 11 3 12 2 13
REMARK SMILES IDX 1 14
REMARK H PARENT
REMARK Flexibility Score: inf
ROOT
ATOM      1  C   UNL     1     172.754 173.005 150.197  1.00  0.00     0.000 C 
ENDROOT
BRANCH   1   2
ATOM      2  C   UNL     1     174.223 173.107 149.770  1.00  0.00     0.000 C 
BRANCH   2   3
ATOM      3  C   UNL     1     174.992 171.831 150.137  1.00  0.00     0.000 C 
BRANCH   3   4
ATOM      4  C   UNL     1     174.064 170.799 150.796  1.00  0.00     0.006 C 
BRANCH   4   5
ATOM      5  C   UNL     1     174.288 169.383 150.249  1.00  0.00     0.053 C 
BRANCH   5   6
ATOM      6  C   UNL     1     175.039 168.524 151.221  1.00  0.00     0.041 C 
ATOM      7  O   UNL     1     174.791 167.293 151.299  1.00  0.00    -0.550 OA
ATOM      8  O   UNL     1     175.987 169.091 152.063  1.00  0.00    -0.550 OA
ENDBRANCH   5   6
ENDBRANCH   4   5
ENDBRANCH   3   4
ENDBRANCH   2   3
ENDBRANCH   1   2
BRANCH   1   9
ATOM      9  C   UNL     1     172.375 174.151 151.142  1.00  0.00     0.000 C 
BRANCH   9  10
ATOM     10  C   UNL     1     171.890 173.613 152.494  1.00  0.00    -0.000 C 
BRANCH  10  11
ATOM     11  C   UNL     1     172.922 173.883 153.597  1.00  0.00    -0.000 C 
BRANCH  11  12
ATOM     12  C   UNL     1     173.825 172.660 153.814  1.00  0.00    -0.000 C 
BRANCH  12  13
ATOM     13  C   UNL     1     175.315 173.028 153.861  1.00  0.00    -0.003 C 
ATOM     14  C   UNL     1     175.645 174.271 153.034  1.00  0.00     0.004 C 
ENDBRANCH  12  13
ENDBRANCH  11  12
ENDBRANCH  10  11
ENDBRANCH   9  10
ENDBRANCH   1   9
TORSDOF 10
ENDMDL
MODEL 4
REMARK VINA RESULT:    -3.806      2.493      4.511
REMARK INTER + INTRA:          -7.289
REMARK INTER:                  -5.740
REMARK INTRA:                  -1.550
REMARK UNBOUND:                -1.258
REMARK SMILES CCCCCCCCCCCC(=O)[O-]
REMARK SMILES IDX 7 1 8 2 9 3 10 4 11 5 12 6 13 7 14 8 6 9 5 10 4 11 3 12 2 13
REMARK SMILES IDX 1 14
REMARK H PARENT
REMARK Flexibility Score: inf
ROOT
ATOM      1  C   UNL     1     174.321 173.299 149.737  1.00  0.00     0.000 C 
ENDROOT
BRANCH   1   2
ATOM      2  C   UNL     1     175.075 174.230 150.693  1.00  0.00     0.000 C 
BRANCH   2   3
ATOM      3  C   UNL     1     174.451 174.202 152.094  1.00  0.00     0.000 C 
BRANCH   3   4
ATOM      4  C   UNL     1     175.439 173.641 153.127  1.00  0.00     0.006 C 
BRANCH   4   5
ATOM      5  C   UNL     1     174.768 172.669 154.106  1.00  0.00     0.053 C 
BRANCH   5   6
ATOM      6  C   UNL     1     173.578 173.287 154.775  1.00  0.00     0.041 C 
ATOM      7  O   UNL     1     172.433 172.791 154.614  1.00  0.00    -0.550 OA
ATOM      8  O   UNL     1     173.731 174.431 155.548  1.00  0.00    -0.550 OA
ENDBRANCH   5   6
ENDBRANCH   4   5
ENDBRANCH   3   4
ENDBRANCH   2   3
ENDBRANCH   1   2
BRANCH   1   9
ATOM      9  C   UNL     1     172.844 173.182 150.132  1.00  0.00     0.000 C 
BRANCH   9  10
ATOM     10  C   UNL     1     172.383 171.720 150.115  1.00  0.00    -0.000 C 
BRANCH  10  11
ATOM     11  C   UNL     1     172.632 171.047 151.470  1.00  0.00    -0.000 C 
BRANCH  11  12
ATOM     12  C   UNL     1     173.492 169.785 151.308  1.00  0.00    -0.000 C 
BRANCH  12  13
ATOM     13  C   UNL     1     174.994 170.070 151.465  1.00  0.00    -0.003 C 
ATOM     14  C   UNL     1     175.755 169.980 150.141  1.00  0.00     0.004 C 
ENDBRANCH  12  13
ENDBRANCH  11  12
ENDBRANCH  10  11
ENDBRANCH   9  10
ENDBRANCH   1   9
TORSDOF 10
ENDMDL
MODEL 5
REMARK VINA RESULT:    -3.777      2.340      5.251
REMARK INTER + INTRA:          -7.243
REMARK INTER:                  -6.526
REMARK INTRA:                  -0.717
REMARK UNBOUND:                -1.258
REMARK SMILES CCCCCCCCCCCC(=O)[O-]
REMARK SMILES IDX 7 1 8 2 9 3 10 4 11 5 12 6 13 7 14 8 6 9 5 10 4 11 3 12 2 13
REMARK SMILES IDX 1 14
REMARK H PARENT
REMARK Flexibility Score: inf
ROOT
ATOM      1  C   UNL     1     173.271 172.615 150.273  1.00  0.00     0.000 C 
ENDROOT
BRANCH   1   2
ATOM      2  C   UNL     1     174.408 173.484 149.724  1.00  0.00     0.000 C 
BRANCH   2   3
ATOM      3  C   UNL     1     175.075 174.291 150.846  1.00  0.00     0.000 C 
BRANCH   3   4
ATOM      4  C   UNL     1     174.275 174.181 152.153  1.00  0.00     0.006 C 
BRANCH   4   5
ATOM      5  C   UNL     1     175.160 173.801 153.347  1.00  0.00     0.053 C 
BRANCH   5   6
ATOM      6  C   UNL     1     174.357 173.621 154.599  1.00  0.00     0.041 C 
ATOM      7  O   UNL     1     173.363 174.359 154.825  1.00  0.00    -0.550 OA
ATOM      8  O   UNL     1     174.728 172.661 155.532  1.00  0.00    -0.550 OA
ENDBRANCH   5   6
ENDBRANCH   4   5
ENDBRANCH   3   4
ENDBRANCH   2   3
ENDBRANCH   1   2
BRANCH   1   9
ATOM      9  C   UNL     1     173.631 171.127 150.199  1.00  0.00     0.000 C 
BRANCH   9  10
ATOM     10  C   UNL     1     175.150 170.928 150.140  1.00  0.00    -0.000 C 
BRANCH  10  11
ATOM     11  C   UNL     1     175.545 169.541 150.662  1.00  0.00    -0.000 C 
BRANCH  11  12
ATOM     12  C   UNL     1     174.382 168.548 150.519  1.00  0.00    -0.000 C 
BRANCH  12  13
ATOM     13  C   UNL     1     174.523 167.648 149.282  1.00  0.00    -0.003 C 
ATOM     14  C   UNL     1     173.221 167.522 148.490  1.00  0.00     0.004 C 
ENDBRANCH  12  13
ENDBRANCH  11  12
ENDBRANCH  10  11
ENDBRANCH   9  10
ENDBRANCH   1   9
TORSDOF 10
ENDMDL
MODEL 6
REMARK VINA RESULT:    -3.775      1.903      3.643
REMARK INTER + INTRA:          -7.240
REMARK INTER:                  -5.549
REMARK INTRA:                  -1.690
REMARK UNBOUND:                -1.258
REMARK SMILES CCCCCCCCCCCC(=O)[O-]
REMARK SMILES IDX 7 1 8 2 9 3 10 4 11 5 12 6 13 7 14 8 6 9 5 10 4 11 3 12 2 13
REMARK SMILES IDX 1 14
REMARK H PARENT
REMARK Flexibility Score: inf
ROOT
ATOM      1  C   UNL     1     174.638 173.737 150.227  1.00  0.00     0.000 C 
ENDROOT
BRANCH   1   2
ATOM      2  C   UNL     1     175.415 174.233 151.452  1.00  0.00     0.000 C 
BRANCH   2   3
ATOM      3  C   UNL     1     174.564 174.128 152.723  1.00  0.00     0.000 C 
BRANCH   3   4
ATOM      4  C   UNL     1     175.105 173.037 153.660  1.00  0.00     0.006 C 
BRANCH   4   5
ATOM      5  C   UNL     1     174.062 171.950 153.950  1.00  0.00     0.053 C 
BRANCH   5   6
ATOM      6  C   UNL     1     174.670 170.580 153.940  1.00  0.00     0.041 C 
ATOM      7  O   UNL     1     175.303 170.177 152.929  1.00  0.00    -0.550 OA
ATOM      8  O   UNL     1     174.507 169.738 155.032  1.00  0.00    -0.550 OA
ENDBRANCH   5   6
ENDBRANCH   4   5
ENDBRANCH   3   4
ENDBRANCH   2   3
ENDBRANCH   1   2
BRANCH   1   9
ATOM      9  C   UNL     1     174.748 172.214 150.084  1.00  0.00     0.000 C 
BRANCH   9  10
ATOM     10  C   UNL     1     173.377 171.546 150.241  1.00  0.00    -0.000 C 
BRANCH  10  11
ATOM     11  C   UNL     1     172.250 172.586 150.215  1.00  0.00    -0.000 C 
BRANCH  11  12
ATOM     12  C   UNL     1     171.329 172.428 151.434  1.00  0.00    -0.000 C 
BRANCH  12  13
ATOM     13  C   UNL     1     170.950 173.776 152.066  1.00  0.00    -0.003 C 
ATOM     14  C   UNL     1     171.319 174.968 151.183  1.00  0.00     0.004 C 
ENDBRANCH  12  13
ENDBRANCH  11  12
ENDBRANCH  10  11
ENDBRANCH   9  10
ENDBRANCH   1   9
TORSDOF 10
ENDMDL
MODEL 7
REMARK VINA RESULT:    -3.763      1.590      2.956
REMARK INTER + INTRA:          -7.221
REMARK INTER:                  -5.733
REMARK INTRA:                  -1.488
REMARK UNBOUND:                -1.258
REMARK SMILES CCCCCCCCCCCC(=O)[O-]
REMARK SMILES IDX 7 1 8 2 9 3 10 4 11 5 12 6 13 7 14 8 6 9 5 10 4 11 3 12 2 13
REMARK SMILES IDX 1 14
REMARK H PARENT
REMARK Flexibility Score: inf
ROOT
ATOM      1  C   UNL     1     175.041 174.240 150.817  1.00  0.00     0.000 C 
ENDROOT
BRANCH   1   2
ATOM      2  C   UNL     1     174.479 173.328 149.721  1.00  0.00     0.000 C 
BRANCH   2   3
ATOM      3  C   UNL     1     173.288 172.514 150.241  1.00  0.00     0.000 C 
BRANCH   3   4
ATOM      4  C   UNL     1     173.576 171.007 150.163  1.00  0.00     0.006 C 
BRANCH   4   5
ATOM      5  C   UNL     1     175.070 170.692 150.318  1.00  0.00     0.053 C 
BRANCH   5   6
ATOM      6  C   UNL     1     175.295 169.291 150.802  1.00  0.00     0.041 C 
ATOM      7  O   UNL     1     175.962 169.084 151.850  1.00  0.00    -0.550 OA
ATOM      8  O   UNL     1     174.797 168.216 150.078  1.00  0.00    -0.550 OA
ENDBRANCH   5   6
ENDBRANCH   4   5
ENDBRANCH   3   4
ENDBRANCH   2   3
ENDBRANCH   1   2
BRANCH   1   9
ATOM      9  C   UNL     1     174.169 174.189 152.077  1.00  0.00     0.000 C 
BRANCH   9  10
ATOM     10  C   UNL     1     175.021 173.939 153.328  1.00  0.00    -0.000 C 
BRANCH  10  11
ATOM     11  C   UNL     1     175.091 172.442 153.656  1.00  0.00    -0.000 C 
BRANCH  11  12
ATOM     12  C   UNL     1     173.790 171.964 154.318  1.00  0.00    -0.000 C 
BRANCH  12  13
ATOM     13  C   UNL     1     173.379 170.556 153.861  1.00  0.00    -0.003 C 
ATOM     14  C   UNL     1     171.932 170.492 153.373  1.00  0.00     0.004 C 
ENDBRANCH  12  13
ENDBRANCH  11  12
ENDBRANCH  10  11
ENDBRANCH   9  10
ENDBRANCH   1   9
TORSDOF 10
ENDMDL
MODEL 8
REMARK VINA RESULT:    -3.763      2.543      2.988
REMARK INTER + INTRA:          -7.221
REMARK INTER:                  -6.157
REMARK INTRA:                  -1.064
REMARK UNBOUND:                -1.258
REMARK SMILES CCCCCCCCCCCC(=O)[O-]
REMARK SMILES IDX 7 1 8 2 9 3 10 4 11 5 12 6 13 7 14 8 6 9 5 10 4 11 3 12 2 13
REMARK SMILES IDX 1 14
REMARK H PARENT
REMARK Flexibility Score: inf
ROOT
ATOM      1  C   UNL     1     173.679 171.542 150.144  1.00  0.00     0.000 C 
ENDROOT
BRANCH   1   2
ATOM      2  C   UNL     1     175.165 171.169 150.136  1.00  0.00     0.000 C 
BRANCH   2   3
ATOM      3  C   UNL     1     175.351 169.649 150.222  1.00  0.00     0.000 C 
BRANCH   3   4
ATOM      4  C   UNL     1     174.002 168.938 150.411  1.00  0.00     0.006 C 
BRANCH   4   5
ATOM      5  C   UNL     1     173.745 167.882 149.328  1.00  0.00     0.053 C 
BRANCH   5   6
ATOM      6  C   UNL     1     172.320 167.901 148.862  1.00  0.00     0.041 C 
ATOM      7  O   UNL     1     171.651 166.836 148.829  1.00  0.00    -0.550 OA
ATOM      8  O   UNL     1     171.745 169.090 148.431  1.00  0.00    -0.550 OA
ENDBRANCH   5   6
ENDBRANCH   4   5
ENDBRANCH   3   4
ENDBRANCH   2   3
ENDBRANCH   1   2
BRANCH   1   9
ATOM      9  C   UNL     1     173.482 173.029 149.827  1.00  0.00     0.000 C 
BRANCH   9  10
ATOM     10  C   UNL     1     174.582 173.880 150.472  1.00  0.00    -0.000 C 
BRANCH  10  11
ATOM     11  C   UNL     1     174.240 174.211 151.930  1.00  0.00    -0.000 C 
BRANCH  11  12
ATOM     12  C   UNL     1     175.433 173.921 152.854  1.00  0.00    -0.000 C 
BRANCH  12  13
ATOM     13  C   UNL     1     175.035 173.105 154.093  1.00  0.00    -0.003 C 
ATOM     14  C   UNL     1     174.694 171.652 153.761  1.00  0.00     0.004 C 
ENDBRANCH  12  13
ENDBRANCH  11  12
ENDBRANCH  10  11
ENDBRANCH   9  10
ENDBRANCH   1   9
TORSDOF 10
ENDMDL
MODEL 9
REMARK VINA RESULT:    -3.759      1.393      3.613
REMARK INTER + INTRA:          -7.215
REMARK INTER:                  -5.997
REMARK INTRA:                  -1.218
REMARK UNBOUND:                -1.258
REMARK SMILES CCCCCCCCCCCC(=O)[O-]
REMARK SMILES IDX 7 1 8 2 9 3 10 4 11 5 12 6 13 7 14 8 6 9 5 10 4 11 3 12 2 13
REMARK SMILES IDX 1 14
REMARK H PARENT
REMARK Flexibility Score: inf
ROOT
ATOM      1  C   UNL     1     174.360 174.070 152.202  1.00  0.00     0.000 C 
ENDROOT
BRANCH   1   2
ATOM      2  C   UNL     1     175.324 174.121 153.392  1.00  0.00     0.000 C 
BRANCH   2   3
ATOM      3  C   UNL     1     175.412 172.756 154.088  1.00  0.00     0.000 C 
BRANCH   3   4
ATOM      4  C   UNL     1     174.213 171.871 153.717  1.00  0.00     0.006 C 
BRANCH   4   5
ATOM      5  C   UNL     1     174.028 170.703 154.695  1.00  0.00     0.053 C 
BRANCH   5   6
ATOM      6  C   UNL     1     175.297 169.929 154.883  1.00  0.00     0.041 C 
ATOM      7  O   UNL     1     175.860 169.901 156.008  1.00  0.00    -0.550 OA
ATOM      8  O   UNL     1     175.875 169.267 153.807  1.00  0.00    -0.550 OA
ENDBRANCH   5   6
ENDBRANCH   4   5
ENDBRANCH   3   4
ENDBRANCH   2   3
ENDBRANCH   1   2
BRANCH   1   9
ATOM      9  C   UNL     1     175.098 174.330 150.883  1.00  0.00     0.000 C 
BRANCH   9  10
ATOM     10  C   UNL     1     174.547 173.444 149.759  1.00  0.00    -0.000 C 
BRANCH  10  11
ATOM     11  C   UNL     1     173.292 172.691 150.215  1.00  0.00    -0.000 C 
BRANCH  11  12
ATOM     12  C   UNL     1     173.498 171.172 150.119  1.00  0.00    -0.000 C 
BRANCH  12  13
ATOM     13  C   UNL     1     174.974 170.767 150.256  1.00  0.00    -0.003 C 
ATOM     14  C   UNL     1     175.164 169.254 150.368  1.00  0.00     0.004 C 
ENDBRANCH  12  13
ENDBRANCH  11  12
ENDBRANCH  10  11
ENDBRANCH   9  10
ENDBRANCH   1   9
TORSDOF 10
ENDMDL
