MODEL 1
REMARK VINA RESULT:    -4.134      0.000      0.000
REMARK INTER + INTRA:          -5.610
REMARK INTER:                  -5.343
REMARK INTRA:                  -0.267
REMARK UNBOUND:                -0.267
REMARK SMILES CCO[C@H]1O[C@@H](CO)[C@H](O)[C@H](O)[C@H]1O
REMARK SMILES IDX 4 1 13 2 11 3 9 4 6 5 5 6 3 7 2 8 1 9 14 10 12 12 7 14 8 15
REMARK SMILES IDX 10 17
REMARK H PARENT 14 11 12 13 8 16 10 18
REMARK Flexibility Score: inf
ROOT
ATOM      1  C   UNL     1     -22.621 -11.603  38.576  1.00  0.00     0.281 C 
ATOM      2  C   UNL     1     -23.130 -12.939  37.994  1.00  0.00     0.202 C 
ATOM      3  C   UNL     1     -22.753 -14.126  38.899  1.00  0.00     0.179 C 
ATOM      4  C   UNL     1     -21.267 -14.078  39.309  1.00  0.00     0.177 C 
ATOM      5  C   UNL     1     -20.832 -12.658  39.768  1.00  0.00     0.178 C 
ATOM      6  O   UNL     1     -21.230 -11.621  38.874  1.00  0.00    -0.341 OA
ENDROOT
BRANCH   1   7
ATOM      7  O   UNL     1     -23.378 -11.232  39.719  1.00  0.00    -0.350 OA
BRANCH   7   8
ATOM      8  C   UNL     1     -23.583  -9.832  39.751  1.00  0.00     0.160 C 
ATOM      9  C   UNL     1     -24.884  -9.522  40.475  1.00  0.00     0.035 C 
ENDBRANCH   7   8
ENDBRANCH   1   7
BRANCH   2  10
ATOM     10  O   UNL     1     -24.529 -12.903  37.854  1.00  0.00    -0.385 OA
ATOM     11  H   UNL     1     -24.741 -12.246  37.140  1.00  0.00     0.211 HD
ENDBRANCH   2  10
BRANCH   3  12
ATOM     12  O   UNL     1     -23.062 -15.359  38.287  1.00  0.00    -0.387 OA
ATOM     13  H   UNL     1     -22.786 -15.302  37.333  1.00  0.00     0.211 HD
ENDBRANCH   3  12
BRANCH   5  14
ATOM     14  C   UNL     1     -21.122 -12.327  41.250  1.00  0.00     0.191 C 
BRANCH  14  15
ATOM     15  O   UNL     1     -22.198 -13.070  41.753  1.00  0.00    -0.394 OA
ATOM     16  H   UNL     1     -23.017 -12.722  41.308  1.00  0.00     0.210 HD
ENDBRANCH  14  15
ENDBRANCH   5  14
BRANCH   4  17
ATOM     17  O   UNL     1     -20.433 -14.532  38.269  1.00  0.00    -0.387 OA
ATOM     18  H   UNL     1     -19.626 -14.945  38.680  1.00  0.00     0.211 HD
ENDBRANCH   4  17
TORSDOF 7
ENDMDL
MODEL 2
REMARK VINA RESULT:    -4.127      1.385      3.480
REMARK INTER + INTRA:          -5.600
REMARK INTER:                  -5.378
REMARK INTRA:                  -0.222
REMARK UNBOUND:                -0.267
REMARK SMILES CCO[C@H]1O[C@@H](CO)[C@H](O)[C@H](O)[C@H]1O
REMARK SMILES IDX 4 1 13 2 11 3 9 4 6 5 5 6 3 7 2 8 1 9 14 10 12 12 7 14 8 15
REMARK SMILES IDX 10 17
REMARK H PARENT 14 11 12 13 8 16 10 18
REMARK Flexibility Score: inf
ROOT
ATOM      1  C   UNL     1     -21.382 -13.267  40.212  1.00  0.00     0.281 C 
ATOM      2  C   UNL     1     -21.470 -14.200  38.986  1.00  0.00     0.202 C 
ATOM      3  C   UNL     1     -22.124 -13.490  37.786  1.00  0.00     0.179 C 
ATOM      4  C   UNL     1     -23.424 -12.768  38.194  1.00  0.00     0.177 C 
ATOM      5  C   UNL     1     -23.255 -11.953  39.506  1.00  0.00     0.178 C 
ATOM      6  O   UNL     1     -22.634 -12.685  40.559  1.00  0.00    -0.341 OA
ENDROOT
BRANCH   1   7
ATOM      7  O   UNL     1     -20.398 -12.263  40.012  1.00  0.00    -0.350 OA
BRANCH   7   8
ATOM      8  C   UNL     1     -19.802 -11.893  41.242  1.00  0.00     0.160 C 
ATOM      9  C   UNL     1     -19.267 -10.473  41.144  1.00  0.00     0.035 C 
ENDBRANCH   7   8
ENDBRANCH   1   7
BRANCH   2  10
ATOM     10  O   UNL     1     -20.183 -14.627  38.612  1.00  0.00    -0.385 OA
ATOM     11  H   UNL     1     -19.951 -14.169  37.763  1.00  0.00     0.211 HD
ENDBRANCH   2  10
BRANCH   3  12
ATOM     12  O   UNL     1     -22.363 -14.387  36.724  1.00  0.00    -0.387 OA
ATOM     13  H   UNL     1     -23.237 -14.831  36.893  1.00  0.00     0.211 HD
ENDBRANCH   3  12
BRANCH   5  14
ATOM     14  C   UNL     1     -22.671 -10.532  39.328  1.00  0.00     0.191 C 
BRANCH  14  15
ATOM     15  O   UNL     1     -23.589  -9.537  39.688  1.00  0.00    -0.394 OA
ATOM     16  H   UNL     1     -23.525  -8.827  38.994  1.00  0.00     0.210 HD
ENDBRANCH  14  15
ENDBRANCH   5  14
BRANCH   4  17
ATOM     17  O   UNL     1     -24.497 -13.673  38.317  1.00  0.00    -0.387 OA
ATOM     18  H   UNL     1     -25.343 -13.150  38.315  1.00  0.00     0.211 HD
ENDBRANCH   4  17
TORSDOF 7
ENDMDL
MODEL 3
REMARK VINA RESULT:    -4.094      1.516      3.218
REMARK INTER + INTRA:          -5.558
REMARK INTER:                  -5.253
REMARK INTRA:                  -0.306
REMARK UNBOUND:                -0.267
REMARK SMILES CCO[C@H]1O[C@@H](CO)[C@H](O)[C@H](O)[C@H]1O
REMARK SMILES IDX 4 1 13 2 11 3 9 4 6 5 5 6 3 7 2 8 1 9 14 10 12 12 7 14 8 15
REMARK SMILES IDX 10 17
REMARK H PARENT 14 11 12 13 8 16 10 18
REMARK Flexibility Score: inf
ROOT
ATOM      1  C   UNL     1     -21.994 -12.674  37.976  1.00  0.00     0.281 C 
ATOM      2  C   UNL     1     -21.919 -13.981  38.794  1.00  0.00     0.202 C 
ATOM      3  C   UNL     1     -22.598 -13.823  40.167  1.00  0.00     0.179 C 
ATOM      4  C   UNL     1     -22.138 -12.538  40.884  1.00  0.00     0.177 C 
ATOM      5  C   UNL     1     -22.139 -11.306  39.937  1.00  0.00     0.178 C 
ATOM      6  O   UNL     1     -21.498 -11.545  38.687  1.00  0.00    -0.341 OA
ENDROOT
BRANCH   1   7
ATOM      7  O   UNL     1     -23.318 -12.441  37.520  1.00  0.00    -0.350 OA
BRANCH   7   8
ATOM      8  C   UNL     1     -23.312 -11.963  36.187  1.00  0.00     0.160 C 
ATOM      9  C   UNL     1     -22.262 -12.712  35.381  1.00  0.00     0.035 C 
ENDBRANCH   7   8
ENDBRANCH   1   7
BRANCH   2  10
ATOM     10  O   UNL     1     -22.550 -15.025  38.094  1.00  0.00    -0.385 OA
ATOM     11  H   UNL     1     -23.166 -15.479  38.726  1.00  0.00     0.211 HD
ENDBRANCH   2  10
BRANCH   3  12
ATOM     12  O   UNL     1     -22.381 -14.955  40.982  1.00  0.00    -0.387 OA
ATOM     13  H   UNL     1     -21.403 -15.139  40.991  1.00  0.00     0.211 HD
ENDBRANCH   3  12
BRANCH   5  14
ATOM     14  C   UNL     1     -23.501 -10.589  39.793  1.00  0.00     0.191 C 
BRANCH  14  15
ATOM     15  O   UNL     1     -23.351  -9.242  39.436  1.00  0.00    -0.394 OA
ATOM     16  H   UNL     1     -23.844  -9.118  38.581  1.00  0.00     0.210 HD
ENDBRANCH  14  15
ENDBRANCH   5  14
BRANCH   4  17
ATOM     17  O   UNL     1     -20.866 -12.703  41.468  1.00  0.00    -0.387 OA
ATOM     18  H   UNL     1     -20.642 -11.867  41.958  1.00  0.00     0.211 HD
ENDBRANCH   4  17
TORSDOF 7
ENDMDL
MODEL 4
REMARK VINA RESULT:    -4.031      1.759      2.883
REMARK INTER + INTRA:          -5.476
REMARK INTER:                  -5.020
REMARK INTRA:                  -0.456
REMARK UNBOUND:                -0.267
REMARK SMILES CCO[C@H]1O[C@@H](CO)[C@H](O)[C@H](O)[C@H]1O
REMARK SMILES IDX 4 1 13 2 11 3 9 4 6 5 5 6 3 7 2 8 1 9 14 10 12 12 7 14 8 15
REMARK SMILES IDX 10 17
REMARK H PARENT 14 11 12 13 8 16 10 18
REMARK Flexibility Score: inf
ROOT
ATOM      1  C   UNL     1     -20.949 -12.044  39.046  1.00  0.00     0.281 C 
ATOM      2  C   UNL     1     -22.267 -11.748  38.300  1.00  0.00     0.202 C 
ATOM      3  C   UNL     1     -23.194 -12.977  38.288  1.00  0.00     0.179 C 
ATOM      4  C   UNL     1     -22.439 -14.254  37.867  1.00  0.00     0.177 C 
ATOM      5  C   UNL     1     -21.072 -14.392  38.592  1.00  0.00     0.178 C 
ATOM      6  O   UNL     1     -20.285 -13.205  38.560  1.00  0.00    -0.341 OA
ENDROOT
BRANCH   1   7
ATOM      7  O   UNL     1     -21.174 -12.140  40.445  1.00  0.00    -0.350 OA
BRANCH   7   8
ATOM      8  C   UNL     1     -20.055 -11.654  41.166  1.00  0.00     0.160 C 
ATOM      9  C   UNL     1     -19.484 -10.435  40.461  1.00  0.00     0.035 C 
ENDBRANCH   7   8
ENDBRANCH   1   7
BRANCH   2  10
ATOM     10  O   UNL     1     -22.941 -10.678  38.916  1.00  0.00    -0.385 OA
ATOM     11  H   UNL     1     -23.512 -10.249  38.228  1.00  0.00     0.211 HD
ENDBRANCH   2  10
BRANCH   3  12
ATOM     12  O   UNL     1     -24.319 -12.766  37.462  1.00  0.00    -0.387 OA
ATOM     13  H   UNL     1     -24.000 -12.728  36.520  1.00  0.00     0.211 HD
ENDBRANCH   3  12
BRANCH   5  14
ATOM     14  C   UNL     1     -21.134 -15.042  39.994  1.00  0.00     0.191 C 
BRANCH  14  15
ATOM     15  O   UNL     1     -19.887 -15.035  40.632  1.00  0.00    -0.394 OA
ATOM     16  H   UNL     1     -19.250 -15.488  40.016  1.00  0.00     0.210 HD
ENDBRANCH  14  15
ENDBRANCH   5  14
BRANCH   4  17
ATOM     17  O   UNL     1     -22.258 -14.306  36.471  1.00  0.00    -0.387 OA
ATOM     18  H   UNL     1     -21.381 -14.738  36.290  1.00  0.00     0.211 HD
ENDBRANCH   4  17
TORSDOF 7
ENDMDL
MODEL 5
REMARK VINA RESULT:    -4.026      1.498      3.878
REMARK INTER + INTRA:          -5.470
REMARK INTER:                  -5.206
REMARK INTRA:                  -0.263
REMARK UNBOUND:                -0.267
REMARK SMILES CCO[C@H]1O[C@@H](CO)[C@H](O)[C@H](O)[C@H]1O
REMARK SMILES IDX 4 1 13 2 11 3 9 4 6 5 5 6 3 7 2 8 1 9 14 10 12 12 7 14 8 15
REMARK SMILES IDX 10 17
REMARK H PARENT 14 11 12 13 8 16 10 18
REMARK Flexibility Score: inf
ROOT
ATOM      1  C   UNL     1     -22.175 -13.743  40.164  1.00  0.00     0.281 C 
ATOM      2  C   UNL     1     -23.213 -13.723  39.022  1.00  0.00     0.202 C 
ATOM      3  C   UNL     1     -23.019 -12.500  38.108  1.00  0.00     0.179 C 
ATOM      4  C   UNL     1     -22.870 -11.200  38.922  1.00  0.00     0.177 C 
ATOM      5  C   UNL     1     -21.891 -11.366  40.118  1.00  0.00     0.178 C 
ATOM      6  O   UNL     1     -22.140 -12.528  40.904  1.00  0.00    -0.341 OA
ENDROOT
BRANCH   1   7
ATOM      7  O   UNL     1     -20.886 -14.068  39.666  1.00  0.00    -0.350 OA
BRANCH   7   8
ATOM      8  C   UNL     1     -20.130 -14.760  40.644  1.00  0.00     0.160 C 
ATOM      9  C   UNL     1     -20.750 -16.125  40.896  1.00  0.00     0.035 C 
ENDBRANCH   7   8
ENDBRANCH   1   7
BRANCH   2  10
ATOM     10  O   UNL     1     -23.100 -14.891  38.247  1.00  0.00    -0.385 OA
ATOM     11  H   UNL     1     -22.991 -15.655  38.872  1.00  0.00     0.211 HD
ENDBRANCH   2  10
BRANCH   3  12
ATOM     12  O   UNL     1     -24.068 -12.386  37.171  1.00  0.00    -0.387 OA
ATOM     13  H   UNL     1     -23.671 -12.102  36.304  1.00  0.00     0.211 HD
ENDBRANCH   3  12
BRANCH   5  14
ATOM     14  C   UNL     1     -20.396 -11.174  39.775  1.00  0.00     0.191 C 
BRANCH  14  15
ATOM     15  O   UNL     1     -19.819 -10.126  40.505  1.00  0.00    -0.394 OA
ATOM     16  H   UNL     1     -18.834 -10.260  40.464  1.00  0.00     0.210 HD
ENDBRANCH  14  15
ENDBRANCH   5  14
BRANCH   4  17
ATOM     17  O   UNL     1     -24.119 -10.733  39.376  1.00  0.00    -0.387 OA
ATOM     18  H   UNL     1     -23.960  -9.940  39.956  1.00  0.00     0.211 HD
ENDBRANCH   4  17
TORSDOF 7
ENDMDL
MODEL 6
REMARK VINA RESULT:    -3.939      1.925      3.201
REMARK INTER + INTRA:          -5.357
REMARK INTER:                  -5.074
REMARK INTRA:                  -0.283
REMARK UNBOUND:                -0.267
REMARK SMILES CCO[C@H]1O[C@@H](CO)[C@H](O)[C@H](O)[C@H]1O
REMARK SMILES IDX 4 1 13 2 11 3 9 4 6 5 5 6 3 7 2 8 1 9 14 10 12 12 7 14 8 15
REMARK SMILES IDX 10 17
REMARK H PARENT 14 11 12 13 8 16 10 18
REMARK Flexibility Score: inf
ROOT
ATOM      1  C   UNL     1     -22.834 -13.532  39.975  1.00  0.00     0.281 C 
ATOM      2  C   UNL     1     -23.013 -14.205  38.597  1.00  0.00     0.202 C 
ATOM      3  C   UNL     1     -22.012 -13.651  37.568  1.00  0.00     0.179 C 
ATOM      4  C   UNL     1     -21.979 -12.110  37.579  1.00  0.00     0.177 C 
ATOM      5  C   UNL     1     -21.916 -11.536  39.022  1.00  0.00     0.178 C 
ATOM      6  O   UNL     1     -22.872 -12.111  39.908  1.00  0.00    -0.341 OA
ENDROOT
BRANCH   1   7
ATOM      7  O   UNL     1     -21.638 -13.975  40.599  1.00  0.00    -0.350 OA
BRANCH   7   8
ATOM      8  C   UNL     1     -21.745 -13.883  42.009  1.00  0.00     0.160 C 
ATOM      9  C   UNL     1     -23.042 -14.532  42.466  1.00  0.00     0.035 C 
ENDBRANCH   7   8
ENDBRANCH   1   7
BRANCH   2  10
ATOM     10  O   UNL     1     -22.826 -15.594  38.711  1.00  0.00    -0.385 OA
ATOM     11  H   UNL     1     -22.398 -15.766  39.590  1.00  0.00     0.211 HD
ENDBRANCH   2  10
BRANCH   3  12
ATOM     12  O   UNL     1     -22.286 -14.135  36.271  1.00  0.00    -0.387 OA
ATOM     13  H   UNL     1     -21.418 -14.365  35.843  1.00  0.00     0.211 HD
ENDBRANCH   3  12
BRANCH   5  14
ATOM     14  C   UNL     1     -20.499 -11.446  39.633  1.00  0.00     0.191 C 
BRANCH  14  15
ATOM     15  O   UNL     1     -20.396 -10.413  40.574  1.00  0.00    -0.394 OA
ATOM     16  H   UNL     1     -20.010 -10.816  41.398  1.00  0.00     0.210 HD
ENDBRANCH  14  15
ENDBRANCH   5  14
BRANCH   4  17
ATOM     17  O   UNL     1     -23.079 -11.567  36.886  1.00  0.00    -0.387 OA
ATOM     18  H   UNL     1     -22.796 -10.698  36.492  1.00  0.00     0.211 HD
ENDBRANCH   4  17
TORSDOF 7
ENDMDL
MODEL 7
REMARK VINA RESULT:    -3.875      1.840      3.884
REMARK INTER + INTRA:          -5.274
REMARK INTER:                  -4.828
REMARK INTRA:                  -0.446
REMARK UNBOUND:                -0.267
REMARK SMILES CCO[C@H]1O[C@@H](CO)[C@H](O)[C@H](O)[C@H]1O
REMARK SMILES IDX 4 1 13 2 11 3 9 4 6 5 5 6 3 7 2 8 1 9 14 10 12 12 7 14 8 15
REMARK SMILES IDX 10 17
REMARK H PARENT 14 11 12 13 8 16 10 18
REMARK Flexibility Score: inf
ROOT
ATOM      1  C   UNL     1     -22.472 -12.035  39.589  1.00  0.00     0.281 C 
ATOM      2  C   UNL     1     -21.455 -11.555  40.646  1.00  0.00     0.202 C 
ATOM      3  C   UNL     1     -20.535 -12.702  41.101  1.00  0.00     0.179 C 
ATOM      4  C   UNL     1     -21.339 -13.971  41.449  1.00  0.00     0.177 C 
ATOM      5  C   UNL     1     -22.414 -14.296  40.375  1.00  0.00     0.178 C 
ATOM      6  O   UNL     1     -23.213 -13.174  40.008  1.00  0.00    -0.341 OA
ENDROOT
BRANCH   1   7
ATOM      7  O   UNL     1     -21.828 -12.281  38.347  1.00  0.00    -0.350 OA
BRANCH   7   8
ATOM      8  C   UNL     1     -22.683 -11.955  37.266  1.00  0.00     0.160 C 
ATOM      9  C   UNL     1     -22.219 -12.680  36.012  1.00  0.00     0.035 C 
ENDBRANCH   7   8
ENDBRANCH   1   7
BRANCH   2  10
ATOM     10  O   UNL     1     -20.662 -10.520  40.118  1.00  0.00    -0.385 OA
ATOM     11  H   UNL     1     -20.128 -10.142  40.865  1.00  0.00     0.211 HD
ENDBRANCH   2  10
BRANCH   3  12
ATOM     12  O   UNL     1     -19.724 -12.311  42.188  1.00  0.00    -0.387 OA
ATOM     13  H   UNL     1     -19.129 -11.578  41.875  1.00  0.00     0.211 HD
ENDBRANCH   3  12
BRANCH   5  14
ATOM     14  C   UNL     1     -21.905 -15.103  39.158  1.00  0.00     0.191 C 
BRANCH  14  15
ATOM     15  O   UNL     1     -22.916 -15.322  38.213  1.00  0.00    -0.394 OA
ATOM     16  H   UNL     1     -23.775 -15.346  38.715  1.00  0.00     0.210 HD
ENDBRANCH  14  15
ENDBRANCH   5  14
BRANCH   4  17
ATOM     17  O   UNL     1     -21.935 -13.868  42.721  1.00  0.00    -0.387 OA
ATOM     18  H   UNL     1     -22.754 -14.433  42.723  1.00  0.00     0.211 HD
ENDBRANCH   4  17
TORSDOF 7
ENDMDL
MODEL 8
REMARK VINA RESULT:    -3.799      1.663      4.307
REMARK INTER + INTRA:          -5.177
REMARK INTER:                  -4.906
REMARK INTRA:                  -0.270
REMARK UNBOUND:                -0.267
REMARK SMILES CCO[C@H]1O[C@@H](CO)[C@H](O)[C@H](O)[C@H]1O
REMARK SMILES IDX 4 1 13 2 11 3 9 4 6 5 5 6 3 7 2 8 1 9 14 10 12 12 7 14 8 15
REMARK SMILES IDX 10 17
REMARK H PARENT 14 11 12 13 8 16 10 18
REMARK Flexibility Score: inf
ROOT
ATOM      1  C   UNL     1     -20.546 -12.664  39.297  1.00  0.00     0.281 C 
ATOM      2  C   UNL     1     -21.055 -11.214  39.441  1.00  0.00     0.202 C 
ATOM      3  C   UNL     1     -22.593 -11.157  39.445  1.00  0.00     0.179 C 
ATOM      4  C   UNL     1     -23.195 -11.984  38.292  1.00  0.00     0.177 C 
ATOM      5  C   UNL     1     -22.529 -13.382  38.163  1.00  0.00     0.178 C 
ATOM      6  O   UNL     1     -21.105 -13.340  38.176  1.00  0.00    -0.341 OA
ENDROOT
BRANCH   1   7
ATOM      7  O   UNL     1     -20.771 -13.397  40.492  1.00  0.00    -0.350 OA
BRANCH   7   8
ATOM      8  C   UNL     1     -19.667 -14.236  40.781  1.00  0.00     0.160 C 
ATOM      9  C   UNL     1     -20.142 -15.672  40.928  1.00  0.00     0.035 C 
ENDBRANCH   7   8
ENDBRANCH   1   7
BRANCH   2  10
ATOM     10  O   UNL     1     -20.577 -10.652  40.638  1.00  0.00    -0.385 OA
ATOM     11  H   UNL     1     -20.913  -9.719  40.685  1.00  0.00     0.211 HD
ENDBRANCH   2  10
BRANCH   3  12
ATOM     12  O   UNL     1     -23.059  -9.825  39.401  1.00  0.00    -0.387 OA
ATOM     13  H   UNL     1     -22.723  -9.414  38.560  1.00  0.00     0.211 HD
ENDBRANCH   3  12
BRANCH   5  14
ATOM     14  C   UNL     1     -23.113 -14.476  39.086  1.00  0.00     0.191 C 
BRANCH  14  15
ATOM     15  O   UNL     1     -24.501 -14.602  38.940  1.00  0.00    -0.394 OA
ATOM     16  H   UNL     1     -24.709 -15.571  39.028  1.00  0.00     0.210 HD
ENDBRANCH  14  15
ENDBRANCH   5  14
BRANCH   4  17
ATOM     17  O   UNL     1     -23.116 -11.291  37.067  1.00  0.00    -0.387 OA
ATOM     18  H   UNL     1     -22.950 -10.331  37.267  1.00  0.00     0.211 HD
ENDBRANCH   4  17
TORSDOF 7
ENDMDL
MODEL 9
REMARK VINA RESULT:    -3.745      1.846      3.889
REMARK INTER + INTRA:          -5.107
REMARK INTER:                  -4.628
REMARK INTRA:                  -0.479
REMARK UNBOUND:                -0.267
REMARK SMILES CCO[C@H]1O[C@@H](CO)[C@H](O)[C@H](O)[C@H]1O
REMARK SMILES IDX 4 1 13 2 11 3 9 4 6 5 5 6 3 7 2 8 1 9 14 10 12 12 7 14 8 15
REMARK SMILES IDX 10 17
REMARK H PARENT 14 11 12 13 8 16 10 18
REMARK Flexibility Score: inf
ROOT
ATOM      1  C   UNL     1     -22.352 -13.526  37.666  1.00  0.00     0.281 C 
ATOM      2  C   UNL     1     -23.555 -12.684  38.141  1.00  0.00     0.202 C 
ATOM      3  C   UNL     1     -23.096 -11.445  38.931  1.00  0.00     0.179 C 
ATOM      4  C   UNL     1     -22.049 -11.811  40.002  1.00  0.00     0.177 C 
ATOM      5  C   UNL     1     -20.948 -12.757  39.447  1.00  0.00     0.178 C 
ATOM      6  O   UNL     1     -21.464 -13.871  38.723  1.00  0.00    -0.341 OA
ENDROOT
BRANCH   1   7
ATOM      7  O   UNL     1     -21.657 -12.865  36.618  1.00  0.00    -0.350 OA
BRANCH   7   8
ATOM      8  C   UNL     1     -21.444 -13.743  35.527  1.00  0.00     0.160 C 
ATOM      9  C   UNL     1     -22.036 -13.139  34.263  1.00  0.00     0.035 C 
ENDBRANCH   7   8
ENDBRANCH   1   7
BRANCH   2  10
ATOM     10  O   UNL     1     -24.313 -12.260  37.035  1.00  0.00    -0.385 OA
ATOM     11  H   UNL     1     -23.919 -12.677  36.225  1.00  0.00     0.211 HD
ENDBRANCH   2  10
BRANCH   3  12
ATOM     12  O   UNL     1     -24.190 -10.770  39.513  1.00  0.00    -0.387 OA
ATOM     13  H   UNL     1     -23.848 -10.247  40.287  1.00  0.00     0.211 HD
ENDBRANCH   3  12
BRANCH   5  14
ATOM     14  C   UNL     1     -19.778 -12.052  38.724  1.00  0.00     0.191 C 
BRANCH  14  15
ATOM     15  O   UNL     1     -18.964 -12.959  38.032  1.00  0.00    -0.394 OA
ATOM     16  H   UNL     1     -19.431 -13.164  37.177  1.00  0.00     0.210 HD
ENDBRANCH  14  15
ENDBRANCH   5  14
BRANCH   4  17
ATOM     17  O   UNL     1     -22.655 -12.382  41.139  1.00  0.00    -0.387 OA
ATOM     18  H   UNL     1     -23.260 -11.702  41.540  1.00  0.00     0.211 HD
ENDBRANCH   4  17
TORSDOF 7
ENDMDL
