MODEL 1
REMARK VINA RESULT:    -4.901      0.000      0.000
REMARK INTER + INTRA:          -5.359
REMARK INTER:                  -5.330
REMARK INTRA:                  -0.028
REMARK UNBOUND:                -0.028
REMARK SMILES O=C([O-])c1ccc(O)cc1
REMARK SMILES IDX 4 1 5 2 10 3 6 4 9 5 7 6 2 7 1 8 3 9 8 10
REMARK H PARENT 8 11
REMARK Flexibility Score: inf
ROOT
ATOM      1  C   UNL     1       5.546  10.934   6.848  1.00  0.00    -0.003 A 
ATOM      2  C   UNL     1       5.749  11.957   7.792  1.00  0.00     0.014 A 
ATOM      3  C   UNL     1       4.889   9.756   7.249  1.00  0.00     0.014 A 
ATOM      4  C   UNL     1       5.304  11.805   9.109  1.00  0.00     0.047 A 
ATOM      5  C   UNL     1       4.446   9.608   8.568  1.00  0.00     0.047 A 
ATOM      6  C   UNL     1       4.652  10.628   9.500  1.00  0.00     0.115 A 
ENDROOT
BRANCH   1   7
ATOM      7  C   UNL     1       6.013  11.089   5.453  1.00  0.00     0.071 C 
ATOM      8  O   UNL     1       5.499  11.958   4.699  1.00  0.00    -0.545 OA
ATOM      9  O   UNL     1       7.026  10.279   4.954  1.00  0.00    -0.545 OA
ENDBRANCH   1   7
BRANCH   6  10
ATOM     10  O   UNL     1       4.206  10.465  10.809  1.00  0.00    -0.508 OA
ATOM     11  H   UNL     1       4.728   9.915  11.481  1.00  0.00     0.293 HD
ENDBRANCH   6  10
TORSDOF 2
ENDMDL
MODEL 2
REMARK VINA RESULT:    -4.899      0.027      1.532
REMARK INTER + INTRA:          -5.356
REMARK INTER:                  -5.328
REMARK INTRA:                  -0.028
REMARK UNBOUND:                -0.028
REMARK SMILES O=C([O-])c1ccc(O)cc1
REMARK SMILES IDX 4 1 5 2 10 3 6 4 9 5 7 6 2 7 1 8 3 9 8 10
REMARK H PARENT 8 11
REMARK Flexibility Score: inf
ROOT
ATOM      1  C   UNL     1       5.534  10.934   6.846  1.00  0.00    -0.003 A 
ATOM      2  C   UNL     1       4.869   9.758   7.239  1.00  0.00     0.014 A 
ATOM      3  C   UNL     1       5.735  11.953   7.796  1.00  0.00     0.014 A 
ATOM      4  C   UNL     1       4.415   9.605   8.552  1.00  0.00     0.047 A 
ATOM      5  C   UNL     1       5.279  11.796   9.109  1.00  0.00     0.047 A 
ATOM      6  C   UNL     1       4.619  10.625   9.491  1.00  0.00     0.115 A 
ENDROOT
BRANCH   1   7
ATOM      7  C   UNL     1       6.017  11.102   5.458  1.00  0.00     0.071 C 
ATOM      8  O   UNL     1       5.523  11.989   4.711  1.00  0.00    -0.545 OA
ATOM      9  O   UNL     1       7.024  10.285   4.959  1.00  0.00    -0.545 OA
ENDBRANCH   1   7
BRANCH   6  10
ATOM     10  O   UNL     1       4.171  10.484  10.801  1.00  0.00    -0.508 OA
ATOM     11  H   UNL     1       4.469  11.117  11.534  1.00  0.00     0.293 HD
ENDBRANCH   6  10
TORSDOF 2
ENDMDL
MODEL 3
REMARK VINA RESULT:    -4.661      2.033      4.503
REMARK INTER + INTRA:          -5.098
REMARK INTER:                  -5.063
REMARK INTRA:                  -0.035
REMARK UNBOUND:                -0.028
REMARK SMILES O=C([O-])c1ccc(O)cc1
REMARK SMILES IDX 4 1 5 2 10 3 6 4 9 5 7 6 2 7 1 8 3 9 8 10
REMARK H PARENT 8 11
REMARK Flexibility Score: inf
ROOT
ATOM      1  C   UNL     1       5.521  10.574   6.449  1.00  0.00    -0.003 A 
ATOM      2  C   UNL     1       6.890  10.615   6.770  1.00  0.00     0.014 A 
ATOM      3  C   UNL     1       5.100  11.062   5.198  1.00  0.00     0.014 A 
ATOM      4  C   UNL     1       7.817  11.132   5.860  1.00  0.00     0.047 A 
ATOM      5  C   UNL     1       6.030  11.580   4.291  1.00  0.00     0.047 A 
ATOM      6  C   UNL     1       7.388  11.616   4.618  1.00  0.00     0.115 A 
ENDROOT
BRANCH   1   7
ATOM      7  C   UNL     1       4.535  10.027   7.407  1.00  0.00     0.071 C 
ATOM      8  O   UNL     1       4.912   9.319   8.379  1.00  0.00    -0.545 OA
ATOM      9  O   UNL     1       3.179  10.287   7.248  1.00  0.00    -0.545 OA
ENDBRANCH   1   7
BRANCH   6  10
ATOM     10  O   UNL     1       8.303  12.135   3.704  1.00  0.00    -0.508 OA
ATOM     11  H   UNL     1       8.300  11.849   2.732  1.00  0.00     0.293 HD
ENDBRANCH   6  10
TORSDOF 2
ENDMDL
MODEL 4
REMARK VINA RESULT:    -4.641      1.988      4.559
REMARK INTER + INTRA:          -5.076
REMARK INTER:                  -5.041
REMARK INTRA:                  -0.035
REMARK UNBOUND:                -0.028
REMARK SMILES O=C([O-])c1ccc(O)cc1
REMARK SMILES IDX 4 1 5 2 10 3 6 4 9 5 7 6 2 7 1 8 3 9 8 10
REMARK H PARENT 8 11
REMARK Flexibility Score: inf
ROOT
ATOM      1  C   UNL     1       5.497  10.538   6.504  1.00  0.00    -0.003 A 
ATOM      2  C   UNL     1       5.036  11.011   5.262  1.00  0.00     0.014 A 
ATOM      3  C   UNL     1       6.873  10.600   6.790  1.00  0.00     0.014 A 
ATOM      4  C   UNL     1       5.933  11.535   4.325  1.00  0.00     0.047 A 
ATOM      5  C   UNL     1       7.767  11.124   5.850  1.00  0.00     0.047 A 
ATOM      6  C   UNL     1       7.302  11.592   4.618  1.00  0.00     0.115 A 
ENDROOT
BRANCH   1   7
ATOM      7  C   UNL     1       4.553   9.984   7.499  1.00  0.00     0.071 C 
ATOM      8  O   UNL     1       4.975   9.302   8.472  1.00  0.00    -0.545 OA
ATOM      9  O   UNL     1       3.187  10.208   7.377  1.00  0.00    -0.545 OA
ENDBRANCH   1   7
BRANCH   6  10
ATOM     10  O   UNL     1       8.205  12.110   3.693  1.00  0.00    -0.508 OA
ATOM     11  H   UNL     1       8.967  11.551   3.327  1.00  0.00     0.293 HD
ENDBRANCH   6  10
TORSDOF 2
ENDMDL
MODEL 5
REMARK VINA RESULT:    -4.558      1.684      1.979
REMARK INTER + INTRA:          -4.986
REMARK INTER:                  -4.951
REMARK INTRA:                  -0.035
REMARK UNBOUND:                -0.028
REMARK SMILES O=C([O-])c1ccc(O)cc1
REMARK SMILES IDX 4 1 5 2 10 3 6 4 9 5 7 6 2 7 1 8 3 9 8 10
REMARK H PARENT 8 11
REMARK Flexibility Score: inf
ROOT
ATOM      1  C   UNL     1       5.360  10.744   7.643  1.00  0.00    -0.003 A 
ATOM      2  C   UNL     1       5.219  11.423   8.867  1.00  0.00     0.014 A 
ATOM      3  C   UNL     1       4.226  10.150   7.059  1.00  0.00     0.014 A 
ATOM      4  C   UNL     1       3.972  11.506   9.493  1.00  0.00     0.047 A 
ATOM      5  C   UNL     1       2.980  10.234   7.689  1.00  0.00     0.047 A 
ATOM      6  C   UNL     1       2.849  10.910   8.905  1.00  0.00     0.115 A 
ENDROOT
BRANCH   1   7
ATOM      7  C   UNL     1       6.677  10.654   6.975  1.00  0.00     0.071 C 
ATOM      8  O   UNL     1       7.740  10.813   7.632  1.00  0.00    -0.545 OA
ATOM      9  O   UNL     1       6.760  10.392   5.613  1.00  0.00    -0.545 OA
ENDBRANCH   1   7
BRANCH   6  10
ATOM     10  O   UNL     1       1.602  10.985   9.520  1.00  0.00    -0.508 OA
ATOM     11  H   UNL     1       1.316  10.311  10.221  1.00  0.00     0.293 HD
ENDBRANCH   6  10
TORSDOF 2
ENDMDL
MODEL 6
REMARK VINA RESULT:    -4.448     17.911     19.099
REMARK INTER + INTRA:          -4.867
REMARK INTER:                  -4.839
REMARK INTRA:                  -0.028
REMARK UNBOUND:                -0.028
REMARK SMILES O=C([O-])c1ccc(O)cc1
REMARK SMILES IDX 4 1 5 2 10 3 6 4 9 5 7 6 2 7 1 8 3 9 8 10
REMARK H PARENT 8 11
REMARK Flexibility Score: inf
ROOT
ATOM      1  C   UNL     1      -6.488  10.326  -6.981  1.00  0.00    -0.003 A 
ATOM      2  C   UNL     1      -6.265   9.785  -8.261  1.00  0.00     0.014 A 
ATOM      3  C   UNL     1      -5.527  11.192  -6.430  1.00  0.00     0.014 A 
ATOM      4  C   UNL     1      -5.104  10.104  -8.973  1.00  0.00     0.047 A 
ATOM      5  C   UNL     1      -4.367  11.508  -7.145  1.00  0.00     0.047 A 
ATOM      6  C   UNL     1      -4.152  10.967  -8.415  1.00  0.00     0.115 A 
ENDROOT
BRANCH   1   7
ATOM      7  C   UNL     1      -7.715   9.994  -6.224  1.00  0.00     0.071 C 
ATOM      8  O   UNL     1      -7.854   8.857  -5.698  1.00  0.00    -0.545 OA
ATOM      9  O   UNL     1      -8.731  10.931  -6.081  1.00  0.00    -0.545 OA
ENDBRANCH   1   7
BRANCH   6  10
ATOM     10  O   UNL     1      -2.992  11.290  -9.114  1.00  0.00    -0.508 OA
ATOM     11  H   UNL     1      -2.877  12.192  -9.562  1.00  0.00     0.293 HD
ENDBRANCH   6  10
TORSDOF 2
ENDMDL
MODEL 7
REMARK VINA RESULT:    -4.426     17.937     19.069
REMARK INTER + INTRA:          -4.842
REMARK INTER:                  -4.815
REMARK INTRA:                  -0.028
REMARK UNBOUND:                -0.028
REMARK SMILES O=C([O-])c1ccc(O)cc1
REMARK SMILES IDX 4 1 5 2 10 3 6 4 9 5 7 6 2 7 1 8 3 9 8 10
REMARK H PARENT 8 11
REMARK Flexibility Score: inf
ROOT
ATOM      1  C   UNL     1      -6.502  10.351  -6.999  1.00  0.00    -0.003 A 
ATOM      2  C   UNL     1      -5.558  11.236  -6.448  1.00  0.00     0.014 A 
ATOM      3  C   UNL     1      -6.256   9.795  -8.268  1.00  0.00     0.014 A 
ATOM      4  C   UNL     1      -4.393  11.559  -7.151  1.00  0.00     0.047 A 
ATOM      5  C   UNL     1      -5.090  10.121  -8.968  1.00  0.00     0.047 A 
ATOM      6  C   UNL     1      -4.157  11.001  -8.414  1.00  0.00     0.115 A 
ENDROOT
BRANCH   1   7
ATOM      7  C   UNL     1      -7.736  10.005  -6.259  1.00  0.00     0.071 C 
ATOM      8  O   UNL     1      -7.874   8.863  -5.744  1.00  0.00    -0.545 OA
ATOM      9  O   UNL     1      -8.759  10.935  -6.121  1.00  0.00    -0.545 OA
ENDBRANCH   1   7
BRANCH   6  10
ATOM     10  O   UNL     1      -3.001  11.316  -9.125  1.00  0.00    -0.508 OA
ATOM     11  H   UNL     1      -2.633  12.260  -9.145  1.00  0.00     0.293 HD
ENDBRANCH   6  10
TORSDOF 2
ENDMDL
MODEL 8
REMARK VINA RESULT:    -4.211     17.543     18.579
REMARK INTER + INTRA:          -4.608
REMARK INTER:                  -4.577
REMARK INTRA:                  -0.031
REMARK UNBOUND:                -0.028
REMARK SMILES O=C([O-])c1ccc(O)cc1
REMARK SMILES IDX 4 1 5 2 10 3 6 4 9 5 7 6 2 7 1 8 3 9 8 10
REMARK H PARENT 8 11
REMARK Flexibility Score: inf
ROOT
ATOM      1  C   UNL     1      -4.959  10.919  -7.497  1.00  0.00    -0.003 A 
ATOM      2  C   UNL     1      -5.817  11.308  -6.453  1.00  0.00     0.014 A 
ATOM      3  C   UNL     1      -5.305   9.807  -8.285  1.00  0.00     0.014 A 
ATOM      4  C   UNL     1      -6.996  10.599  -6.202  1.00  0.00     0.047 A 
ATOM      5  C   UNL     1      -6.484   9.099  -8.031  1.00  0.00     0.047 A 
ATOM      6  C   UNL     1      -7.331   9.492  -6.992  1.00  0.00     0.115 A 
ENDROOT
BRANCH   1   7
ATOM      7  C   UNL     1      -3.711  11.667  -7.768  1.00  0.00     0.071 C 
ATOM      8  O   UNL     1      -2.932  11.975  -6.826  1.00  0.00    -0.545 OA
ATOM      9  O   UNL     1      -3.378  12.037  -9.065  1.00  0.00    -0.545 OA
ENDBRANCH   1   7
BRANCH   6  10
ATOM     10  O   UNL     1      -8.502   8.777  -6.751  1.00  0.00    -0.508 OA
ATOM     11  H   UNL     1      -8.479   7.817  -6.425  1.00  0.00     0.293 HD
ENDBRANCH   6  10
TORSDOF 2
ENDMDL
MODEL 9
REMARK VINA RESULT:    -4.143      1.563      2.011
REMARK INTER + INTRA:          -4.535
REMARK INTER:                  -4.500
REMARK INTRA:                  -0.035
REMARK UNBOUND:                -0.028
REMARK SMILES O=C([O-])c1ccc(O)cc1
REMARK SMILES IDX 4 1 5 2 10 3 6 4 9 5 7 6 2 7 1 8 3 9 8 10
REMARK H PARENT 8 11
REMARK Flexibility Score: inf
ROOT
ATOM      1  C   UNL     1       6.477  10.895   6.557  1.00  0.00    -0.003 A 
ATOM      2  C   UNL     1       5.197  10.808   5.982  1.00  0.00     0.014 A 
ATOM      3  C   UNL     1       6.635  10.581   7.920  1.00  0.00     0.014 A 
ATOM      4  C   UNL     1       4.098  10.416   6.753  1.00  0.00     0.047 A 
ATOM      5  C   UNL     1       5.534  10.190   8.687  1.00  0.00     0.047 A 
ATOM      6  C   UNL     1       4.265  10.106   8.108  1.00  0.00     0.115 A 
ENDROOT
BRANCH   1   7
ATOM      7  C   UNL     1       7.644  11.309   5.747  1.00  0.00     0.071 C 
ATOM      8  O   UNL     1       7.485  11.979   4.691  1.00  0.00    -0.545 OA
ATOM      9  O   UNL     1       8.932  10.965   6.139  1.00  0.00    -0.545 OA
ENDBRANCH   1   7
BRANCH   6  10
ATOM     10  O   UNL     1       3.178   9.715   8.886  1.00  0.00    -0.508 OA
ATOM     11  H   UNL     1       3.140   8.801   9.322  1.00  0.00     0.293 HD
ENDBRANCH   6  10
TORSDOF 2
ENDMDL
