MODEL 1
REMARK VINA RESULT:    -3.589      0.000      0.000
REMARK INTER + INTRA:          -4.852
REMARK INTER:                  -4.638
REMARK INTRA:                  -0.213
REMARK UNBOUND:                -0.213
REMARK SMILES CCCCCCC(=O)[O-]
REMARK SMILES IDX 5 1 6 2 7 3 8 4 9 5 4 6 3 7 2 8 1 9
REMARK H PARENT
REMARK Flexibility Score: inf
ROOT
ATOM      1  C   UNL     1     104.766  11.494  15.051  1.00  0.00     0.006 C 
ENDROOT
BRANCH   1   2
ATOM      2  C   UNL     1     103.788  11.790  16.195  1.00  0.00     0.053 C 
BRANCH   2   3
ATOM      3  C   UNL     1     102.419  11.293  15.852  1.00  0.00     0.041 C 
ATOM      4  O   UNL     1     101.871  10.404  16.557  1.00  0.00    -0.550 OA
ATOM      5  O   UNL     1     101.726  11.846  14.782  1.00  0.00    -0.550 OA
ENDBRANCH   2   3
ENDBRANCH   1   2
BRANCH   1   6
ATOM      6  C   UNL     1     106.230  11.449  15.518  1.00  0.00     0.000 C 
BRANCH   6   7
ATOM      7  C   UNL     1     106.370  11.632  17.039  1.00  0.00    -0.000 C 
BRANCH   7   8
ATOM      8  C   UNL     1     107.457  10.730  17.643  1.00  0.00    -0.003 C 
ATOM      9  C   UNL     1     107.892   9.611  16.697  1.00  0.00     0.004 C 
ENDBRANCH   7   8
ENDBRANCH   6   7
ENDBRANCH   1   6
TORSDOF 5
ENDMDL
MODEL 2
REMARK VINA RESULT:    -3.371     12.388     13.973
REMARK INTER + INTRA:          -4.570
REMARK INTER:                  -4.152
REMARK INTRA:                  -0.417
REMARK UNBOUND:                -0.213
REMARK SMILES CCCCCCC(=O)[O-]
REMARK SMILES IDX 5 1 6 2 7 3 8 4 9 5 4 6 3 7 2 8 1 9
REMARK H PARENT
REMARK Flexibility Score: inf
ROOT
ATOM      1  C   UNL     1      97.013   4.906  26.102  1.00  0.00     0.006 C 
ENDROOT
BRANCH   1   2
ATOM      2  C   UNL     1      97.011   3.392  25.848  1.00  0.00     0.053 C 
BRANCH   2   3
ATOM      3  C   UNL     1      97.127   3.110  24.383  1.00  0.00     0.041 C 
ATOM      4  O   UNL     1      96.125   2.709  23.734  1.00  0.00    -0.550 OA
ATOM      5  O   UNL     1      98.329   3.335  23.723  1.00  0.00    -0.550 OA
ENDBRANCH   2   3
ENDBRANCH   1   2
BRANCH   1   6
ATOM      6  C   UNL     1      95.634   5.547  25.877  1.00  0.00     0.000 C 
BRANCH   6   7
ATOM      7  C   UNL     1      95.684   6.722  24.885  1.00  0.00    -0.000 C 
BRANCH   7   8
ATOM      8  C   UNL     1      95.047   6.375  23.530  1.00  0.00    -0.003 C 
ATOM      9  C   UNL     1      96.084   6.107  22.439  1.00  0.00     0.004 C 
ENDBRANCH   7   8
ENDBRANCH   6   7
ENDBRANCH   1   6
TORSDOF 5
ENDMDL
MODEL 3
REMARK VINA RESULT:    -3.357     12.754     13.770
REMARK INTER + INTRA:          -4.552
REMARK INTER:                  -4.383
REMARK INTRA:                  -0.169
REMARK UNBOUND:                -0.213
REMARK SMILES CCCCCCC(=O)[O-]
REMARK SMILES IDX 5 1 6 2 7 3 8 4 9 5 4 6 3 7 2 8 1 9
REMARK H PARENT
REMARK Flexibility Score: inf
ROOT
ATOM      1  C   UNL     1      95.732   5.362  24.453  1.00  0.00     0.006 C 
ENDROOT
BRANCH   1   2
ATOM      2  C   UNL     1      96.547   4.318  23.679  1.00  0.00     0.053 C 
BRANCH   2   3
ATOM      3  C   UNL     1      96.360   2.961  24.278  1.00  0.00     0.041 C 
ATOM      4  O   UNL     1      95.884   2.022  23.587  1.00  0.00    -0.550 OA
ATOM      5  O   UNL     1      96.756   2.718  25.588  1.00  0.00    -0.550 OA
ENDBRANCH   2   3
ENDBRANCH   1   2
BRANCH   1   6
ATOM      6  C   UNL     1      95.122   6.437  23.537  1.00  0.00     0.000 C 
BRANCH   6   7
ATOM      7  C   UNL     1      95.646   6.349  22.094  1.00  0.00    -0.000 C 
BRANCH   7   8
ATOM      8  C   UNL     1      94.802   7.175  21.110  1.00  0.00    -0.003 C 
ATOM      9  C   UNL     1      94.302   8.487  21.715  1.00  0.00     0.004 C 
ENDBRANCH   7   8
ENDBRANCH   6   7
ENDBRANCH   1   6
TORSDOF 5
ENDMDL
MODEL 4
REMARK VINA RESULT:    -3.328     11.980     13.074
REMARK INTER + INTRA:          -4.514
REMARK INTER:                  -4.152
REMARK INTRA:                  -0.362
REMARK UNBOUND:                -0.213
REMARK SMILES CCCCCCC(=O)[O-]
REMARK SMILES IDX 5 1 6 2 7 3 8 4 9 5 4 6 3 7 2 8 1 9
REMARK H PARENT
REMARK Flexibility Score: inf
ROOT
ATOM      1  C   UNL     1      96.672   4.557  23.467  1.00  0.00     0.006 C 
ENDROOT
BRANCH   1   2
ATOM      2  C   UNL     1      96.130   3.620  24.554  1.00  0.00     0.053 C 
BRANCH   2   3
ATOM      3  C   UNL     1      96.658   2.234  24.358  1.00  0.00     0.041 C 
ATOM      4  O   UNL     1      96.104   1.454  23.538  1.00  0.00    -0.550 OA
ATOM      5  O   UNL     1      97.792   1.817  25.044  1.00  0.00    -0.550 OA
ENDBRANCH   2   3
ENDBRANCH   1   2
BRANCH   1   6
ATOM      6  C   UNL     1      98.014   5.202  23.854  1.00  0.00     0.000 C 
BRANCH   6   7
ATOM      7  C   UNL     1      99.109   4.963  22.801  1.00  0.00    -0.000 C 
BRANCH   7   8
ATOM      8  C   UNL     1     100.018   3.777  23.158  1.00  0.00    -0.003 C 
ATOM      9  C   UNL     1     100.629   3.897  24.554  1.00  0.00     0.004 C 
ENDBRANCH   7   8
ENDBRANCH   6   7
ENDBRANCH   1   6
TORSDOF 5
ENDMDL
MODEL 5
REMARK VINA RESULT:    -3.317     11.872     13.356
REMARK INTER + INTRA:          -4.500
REMARK INTER:                  -4.115
REMARK INTRA:                  -0.386
REMARK UNBOUND:                -0.213
REMARK SMILES CCCCCCC(=O)[O-]
REMARK SMILES IDX 5 1 6 2 7 3 8 4 9 5 4 6 3 7 2 8 1 9
REMARK H PARENT
REMARK Flexibility Score: inf
ROOT
ATOM      1  C   UNL     1      95.676   6.498  24.764  1.00  0.00     0.006 C 
ENDROOT
BRANCH   1   2
ATOM      2  C   UNL     1      95.018   6.371  23.383  1.00  0.00     0.053 C 
BRANCH   2   3
ATOM      3  C   UNL     1      96.060   6.314  22.312  1.00  0.00     0.041 C 
ATOM      4  O   UNL     1      95.806   6.745  21.156  1.00  0.00    -0.550 OA
ATOM      5  O   UNL     1      97.330   5.829  22.602  1.00  0.00    -0.550 OA
ENDBRANCH   2   3
ENDBRANCH   1   2
BRANCH   1   6
ATOM      6  C   UNL     1      95.497   5.236  25.624  1.00  0.00     0.000 C 
BRANCH   6   7
ATOM      7  C   UNL     1      96.799   4.428  25.763  1.00  0.00    -0.000 C 
BRANCH   7   8
ATOM      8  C   UNL     1      96.616   2.949  25.386  1.00  0.00    -0.003 C 
ATOM      9  C   UNL     1      96.161   2.759  23.939  1.00  0.00     0.004 C 
ENDBRANCH   7   8
ENDBRANCH   6   7
ENDBRANCH   1   6
TORSDOF 5
ENDMDL
MODEL 6
REMARK VINA RESULT:    -3.316      1.626      1.935
REMARK INTER + INTRA:          -4.498
REMARK INTER:                  -4.291
REMARK INTRA:                  -0.207
REMARK UNBOUND:                -0.213
REMARK SMILES CCCCCCC(=O)[O-]
REMARK SMILES IDX 5 1 6 2 7 3 8 4 9 5 4 6 3 7 2 8 1 9
REMARK H PARENT
REMARK Flexibility Score: inf
ROOT
ATOM      1  C   UNL     1     104.510  11.946  16.938  1.00  0.00     0.006 C 
ENDROOT
BRANCH   1   2
ATOM      2  C   UNL     1     103.751  12.830  15.940  1.00  0.00     0.053 C 
BRANCH   2   3
ATOM      3  C   UNL     1     103.695  12.172  14.598  1.00  0.00     0.041 C 
ATOM      4  O   UNL     1     104.682  11.514  14.173  1.00  0.00    -0.550 OA
ATOM      5  O   UNL     1     102.536  12.242  13.836  1.00  0.00    -0.550 OA
ENDBRANCH   2   3
ENDBRANCH   1   2
BRANCH   1   6
ATOM      6  C   UNL     1     105.724  12.658  17.558  1.00  0.00     0.000 C 
BRANCH   6   7
ATOM      7  C   UNL     1     106.977  11.767  17.590  1.00  0.00    -0.000 C 
BRANCH   7   8
ATOM      8  C   UNL     1     106.988  10.726  16.459  1.00  0.00    -0.003 C 
ATOM      9  C   UNL     1     107.897   9.534  16.759  1.00  0.00     0.004 C 
ENDBRANCH   7   8
ENDBRANCH   6   7
ENDBRANCH   1   6
TORSDOF 5
ENDMDL
MODEL 7
REMARK VINA RESULT:    -3.286     12.173     13.129
REMARK INTER + INTRA:          -4.460
REMARK INTER:                  -4.029
REMARK INTRA:                  -0.430
REMARK UNBOUND:                -0.213
REMARK SMILES CCCCCCC(=O)[O-]
REMARK SMILES IDX 5 1 6 2 7 3 8 4 9 5 4 6 3 7 2 8 1 9
REMARK H PARENT
REMARK Flexibility Score: inf
ROOT
ATOM      1  C   UNL     1      97.982   5.056  23.998  1.00  0.00     0.006 C 
ENDROOT
BRANCH   1   2
ATOM      2  C   UNL     1      96.596   4.499  23.649  1.00  0.00     0.053 C 
BRANCH   2   3
ATOM      3  C   UNL     1      96.383   3.176  24.313  1.00  0.00     0.041 C 
ATOM      4  O   UNL     1      95.987   2.186  23.643  1.00  0.00    -0.550 OA
ATOM      5  O   UNL     1      96.671   3.021  25.664  1.00  0.00    -0.550 OA
ENDBRANCH   2   3
ENDBRANCH   1   2
BRANCH   1   6
ATOM      6  C   UNL     1      99.092   4.494  23.094  1.00  0.00     0.000 C 
BRANCH   6   7
ATOM      7  C   UNL     1     100.123   3.662  23.876  1.00  0.00    -0.000 C 
BRANCH   7   8
ATOM      8  C   UNL     1      99.938   2.150  23.667  1.00  0.00    -0.003 C 
ATOM      9  C   UNL     1      99.714   1.394  24.977  1.00  0.00     0.004 C 
ENDBRANCH   7   8
ENDBRANCH   6   7
ENDBRANCH   1   6
TORSDOF 5
ENDMDL
MODEL 8
REMARK VINA RESULT:    -3.265     12.383     13.414
REMARK INTER + INTRA:          -4.432
REMARK INTER:                  -3.962
REMARK INTRA:                  -0.470
REMARK UNBOUND:                -0.213
REMARK SMILES CCCCCCC(=O)[O-]
REMARK SMILES IDX 5 1 6 2 7 3 8 4 9 5 4 6 3 7 2 8 1 9
REMARK H PARENT
REMARK Flexibility Score: inf
ROOT
ATOM      1  C   UNL     1      98.398   3.372  26.372  1.00  0.00     0.006 C 
ENDROOT
BRANCH   1   2
ATOM      2  C   UNL     1      96.947   3.238  25.891  1.00  0.00     0.053 C 
BRANCH   2   3
ATOM      3  C   UNL     1      96.894   2.485  24.599  1.00  0.00     0.041 C 
ATOM      4  O   UNL     1      96.132   2.868  23.672  1.00  0.00    -0.550 OA
ATOM      5  O   UNL     1      97.722   1.388  24.399  1.00  0.00    -0.550 OA
ENDBRANCH   2   3
ENDBRANCH   1   2
BRANCH   1   6
ATOM      6  C   UNL     1      99.199   4.406  25.564  1.00  0.00     0.000 C 
BRANCH   6   7
ATOM      7  C   UNL     1     100.361   3.771  24.781  1.00  0.00    -0.000 C 
BRANCH   7   8
ATOM      8  C   UNL     1     100.118   3.773  23.264  1.00  0.00    -0.003 C 
ATOM      9  C   UNL     1      99.157   4.875  22.818  1.00  0.00     0.004 C 
ENDBRANCH   7   8
ENDBRANCH   6   7
ENDBRANCH   1   6
TORSDOF 5
ENDMDL
MODEL 9
REMARK VINA RESULT:    -3.227     13.465     14.368
REMARK INTER + INTRA:          -4.384
REMARK INTER:                  -3.948
REMARK INTRA:                  -0.436
REMARK UNBOUND:                -0.213
REMARK SMILES CCCCCCC(=O)[O-]
REMARK SMILES IDX 5 1 6 2 7 3 8 4 9 5 4 6 3 7 2 8 1 9
REMARK H PARENT
REMARK Flexibility Score: inf
ROOT
ATOM      1  C   UNL     1      99.068   3.067  26.229  1.00  0.00     0.006 C 
ENDROOT
BRANCH   1   2
ATOM      2  C   UNL     1      99.515   1.658  25.821  1.00  0.00     0.053 C 
BRANCH   2   3
ATOM      3  C   UNL     1      99.478   1.509  24.333  1.00  0.00     0.041 C 
ATOM      4  O   UNL     1      99.088   0.430  23.813  1.00  0.00    -0.550 OA
ATOM      5  O   UNL     1      99.826   2.579  23.518  1.00  0.00    -0.550 OA
ENDBRANCH   2   3
ENDBRANCH   1   2
BRANCH   1   6
ATOM      6  C   UNL     1      97.541   3.245  26.173  1.00  0.00     0.000 C 
BRANCH   6   7
ATOM      7  C   UNL     1      97.116   4.416  25.271  1.00  0.00    -0.000 C 
BRANCH   7   8
ATOM      8  C   UNL     1      96.428   3.945  23.981  1.00  0.00    -0.003 C 
ATOM      9  C   UNL     1      96.067   2.459  24.010  1.00  0.00     0.004 C 
ENDBRANCH   7   8
ENDBRANCH   6   7
ENDBRANCH   1   6
TORSDOF 5
ENDMDL
