MODEL 1
REMARK VINA RESULT:    -3.338      0.000      0.000
REMARK INTER + INTRA:          -5.177
REMARK INTER:                  -5.094
REMARK INTRA:                  -0.082
REMARK UNBOUND:                -0.082
REMARK SMILES CC1=CCC[C@@H](C)C(=O)C[C@H](C(C)C)C(=O)C1
REMARK SMILES IDX 8 1 9 2 6 3 7 4 5 5 4 6 3 7 2 8 1 9 10 11 11 12 15 13 16 14
REMARK SMILES IDX 17 15 12 17 13 18 14 19
REMARK H PARENT
REMARK Flexibility Score: 70.00
ROOT
ATOM      1  C   UNL     1      44.993  58.584  26.274  1.00  0.00     0.136 C 
ATOM      2  O   UNL     1      44.409  59.626  26.012  1.00  0.00    -0.299 OA
ENDROOT
BRANCH   1   3
ATOM      3  C   UNL     1      45.413  58.354  27.724  1.00  0.00     0.053 C 
ATOM      4  C   UNL     1      46.945  58.268  27.785  1.00  0.00     0.016 C 
BRANCH   3   5
ATOM      5  C   UNL     1      44.796  57.124  28.443  1.00  0.00     0.015 C 
BRANCH   5   6
ATOM      6  C   UNL     1      43.258  57.186  28.606  1.00  0.00     0.028 C 
BRANCH   6   7
ATOM      7  C   UNL     1      42.616  55.857  28.275  1.00  0.00    -0.028 C 
ATOM      8  C   UNL     1      42.162  55.482  27.056  1.00  0.00    -0.070 CG0
ATOM      9  C   UNL     1      41.607  54.087  26.909  1.00  0.00     0.039 C 
ATOM     10  G   UNL     1      42.170  56.400  25.848  1.00  0.00     0.000 G0
ENDBRANCH   6   7
ENDBRANCH   5   6
ENDBRANCH   3   5
ENDBRANCH   1   3
BRANCH   1  11
ATOM     11  C   UNL     1      45.290  57.634  25.129  1.00  0.00     0.087 C 
BRANCH  11  12
ATOM     12  C   UNL     1      44.741  56.194  25.344  1.00  0.00     0.066 C 
BRANCH  12  13
ATOM     13  C   UNL     1      43.289  56.122  24.895  1.00  0.00     0.140 C 
ATOM     14  O   UNL     1      43.028  55.812  23.741  1.00  0.00    -0.299 OA
BRANCH  13  15
ATOM     15  C   UNL     1      42.154  56.396  25.845  1.00  0.00     0.106 CG0
ATOM     16  G   UNL     1      42.176  55.479  27.054  1.00  0.00     0.000 G0
ENDBRANCH  13  15
ENDBRANCH  12  13
BRANCH  12  17
ATOM     17  C   UNL     1      45.595  55.061  24.684  1.00  0.00    -0.006 C 
ATOM     18  C   UNL     1      46.073  54.051  25.746  1.00  0.00     0.008 C 
ATOM     19  C   UNL     1      46.822  55.607  23.932  1.00  0.00     0.008 C 
ENDBRANCH  12  17
ENDBRANCH  11  12
ENDBRANCH   1  11
TORSDOF 1
ENDMDL
MODEL 2
REMARK VINA RESULT:    -3.319      1.953      3.917
REMARK INTER + INTRA:          -5.148
REMARK INTER:                  -4.891
REMARK INTRA:                  -0.257
REMARK UNBOUND:                -0.082
REMARK SMILES CC1=CCC[C@@H](C)C(=O)C[C@H](C(C)C)C(=O)C1
REMARK SMILES IDX 8 1 9 2 6 3 7 4 5 5 4 6 3 7 2 8 1 9 10 11 11 12 15 13 16 14
REMARK SMILES IDX 17 15 12 17 13 18 14 19
REMARK H PARENT
REMARK Flexibility Score: 70.00
ROOT
ATOM      1  C   UNL     1      46.528  57.892  26.898  1.00  0.00     0.136 C 
ATOM      2  O   UNL     1      46.556  58.664  27.847  1.00  0.00    -0.299 OA
ENDROOT
BRANCH   1   3
ATOM      3  C   UNL     1      47.166  58.355  25.591  1.00  0.00     0.053 C 
ATOM      4  C   UNL     1      48.593  58.839  25.884  1.00  0.00     0.016 C 
BRANCH   3   5
ATOM      5  C   UNL     1      46.404  59.446  24.790  1.00  0.00     0.015 C 
BRANCH   5   6
ATOM      6  C   UNL     1      45.095  58.952  24.127  1.00  0.00     0.028 C 
BRANCH   6   7
ATOM      7  C   UNL     1      45.322  57.679  23.344  1.00  0.00    -0.028 C 
ATOM      8  C   UNL     1      44.577  56.552  23.436  1.00  0.00    -0.070 CG0
ATOM      9  C   UNL     1      44.923  55.401  22.523  1.00  0.00     0.039 C 
ATOM     10  G   UNL     1      43.432  56.391  24.418  1.00  0.00     0.000 G0
ENDBRANCH   6   7
ENDBRANCH   5   6
ENDBRANCH   3   5
ENDBRANCH   1   3
BRANCH   1  11
ATOM     11  C   UNL     1      45.821  56.564  27.090  1.00  0.00     0.087 C 
BRANCH  11  12
ATOM     12  C   UNL     1      44.277  56.639  26.912  1.00  0.00     0.066 C 
BRANCH  12  13
ATOM     13  C   UNL     1      43.850  55.776  25.734  1.00  0.00     0.140 C 
ATOM     14  O   UNL     1      43.829  54.559  25.852  1.00  0.00    -0.299 OA
BRANCH  13  15
ATOM     15  C   UNL     1      43.422  56.383  24.425  1.00  0.00     0.106 CG0
ATOM     16  G   UNL     1      44.576  56.540  23.453  1.00  0.00     0.000 G0
ENDBRANCH  13  15
ENDBRANCH  12  13
BRANCH  12  17
ATOM     17  C   UNL     1      43.451  56.295  28.196  1.00  0.00    -0.006 C 
ATOM     18  C   UNL     1      41.939  56.368  27.907  1.00  0.00     0.008 C 
ATOM     19  C   UNL     1      43.776  57.227  29.376  1.00  0.00     0.008 C 
ENDBRANCH  12  17
ENDBRANCH  11  12
ENDBRANCH   1  11
TORSDOF 1
ENDMDL
MODEL 3
REMARK VINA RESULT:    -3.266      1.421      1.654
REMARK INTER + INTRA:          -5.066
REMARK INTER:                  -4.738
REMARK INTRA:                  -0.328
REMARK UNBOUND:                -0.082
REMARK SMILES CC1=CCC[C@@H](C)C(=O)C[C@H](C(C)C)C(=O)C1
REMARK SMILES IDX 8 1 9 2 6 3 7 4 5 5 4 6 3 7 2 8 1 9 10 11 11 12 15 13 16 14
REMARK SMILES IDX 17 15 12 17 13 18 14 19
REMARK H PARENT
REMARK Flexibility Score: 70.00
ROOT
ATOM      1  C   UNL     1      46.159  58.705  25.933  1.00  0.00     0.136 C 
ATOM      2  O   UNL     1      47.119  59.277  25.436  1.00  0.00    -0.299 OA
ENDROOT
BRANCH   1   3
ATOM      3  C   UNL     1      46.251  58.318  27.407  1.00  0.00     0.053 C 
ATOM      4  C   UNL     1      47.028  57.000  27.523  1.00  0.00     0.016 C 
BRANCH   3   5
ATOM      5  C   UNL     1      44.911  58.200  28.183  1.00  0.00     0.015 C 
BRANCH   5   6
ATOM      6  C   UNL     1      44.411  56.748  28.373  1.00  0.00     0.028 C 
BRANCH   6   7
ATOM      7  C   UNL     1      42.922  56.643  28.132  1.00  0.00    -0.028 C 
ATOM      8  C   UNL     1      42.334  56.030  27.078  1.00  0.00    -0.070 CG0
ATOM      9  C   UNL     1      40.827  55.975  27.044  1.00  0.00     0.039 C 
ATOM     10  G   UNL     1      43.117  55.418  25.931  1.00  0.00     0.000 G0
ENDBRANCH   6   7
ENDBRANCH   5   6
ENDBRANCH   3   5
ENDBRANCH   1   3
BRANCH   1  11
ATOM     11  C   UNL     1      44.982  58.387  25.029  1.00  0.00     0.087 C 
BRANCH  11  12
ATOM     12  C   UNL     1      44.885  56.888  24.622  1.00  0.00     0.066 C 
BRANCH  12  13
ATOM     13  C   UNL     1      43.464  56.387  24.830  1.00  0.00     0.140 C 
ATOM     14  O   UNL     1      42.575  56.760  24.077  1.00  0.00    -0.299 OA
BRANCH  13  15
ATOM     15  C   UNL     1      43.122  55.414  25.926  1.00  0.00     0.106 CG0
ATOM     16  G   UNL     1      42.336  56.061  27.051  1.00  0.00     0.000 G0
ENDBRANCH  13  15
ENDBRANCH  12  13
BRANCH  12  17
ATOM     17  C   UNL     1      45.395  56.567  23.178  1.00  0.00    -0.006 C 
ATOM     18  C   UNL     1      46.823  55.990  23.219  1.00  0.00     0.008 C 
ATOM     19  C   UNL     1      45.385  57.801  22.258  1.00  0.00     0.008 C 
ENDBRANCH  12  17
ENDBRANCH  11  12
ENDBRANCH   1  11
TORSDOF 1
ENDMDL
MODEL 4
REMARK VINA RESULT:    -3.156      2.145      3.374
REMARK INTER + INTRA:          -4.900
REMARK INTER:                  -4.730
REMARK INTRA:                  -0.169
REMARK UNBOUND:                -0.082
REMARK SMILES CC1=CCC[C@@H](C)C(=O)C[C@H](C(C)C)C(=O)C1
REMARK SMILES IDX 8 1 9 2 6 3 7 4 5 5 4 6 3 7 2 8 1 9 10 11 11 12 15 13 16 14
REMARK SMILES IDX 17 15 12 17 13 18 14 19
REMARK H PARENT
REMARK Flexibility Score: 70.00
ROOT
ATOM      1  C   UNL     1      44.944  58.188  27.284  1.00  0.00     0.136 C 
ATOM      2  O   UNL     1      45.812  58.493  28.090  1.00  0.00    -0.299 OA
ENDROOT
BRANCH   1   3
ATOM      3  C   UNL     1      43.856  57.223  27.748  1.00  0.00     0.053 C 
ATOM      4  C   UNL     1      43.890  57.141  29.281  1.00  0.00     0.016 C 
BRANCH   3   5
ATOM      5  C   UNL     1      43.894  55.789  27.152  1.00  0.00     0.015 C 
BRANCH   5   6
ATOM      6  C   UNL     1      43.011  55.598  25.896  1.00  0.00     0.028 C 
BRANCH   6   7
ATOM      7  C   UNL     1      43.773  54.906  24.788  1.00  0.00    -0.028 C 
ATOM      8  C   UNL     1      44.251  55.500  23.669  1.00  0.00    -0.070 CG0
ATOM      9  C   UNL     1      45.043  54.652  22.705  1.00  0.00     0.039 C 
ATOM     10  G   UNL     1      44.012  56.961  23.338  1.00  0.00     0.000 G0
ENDBRANCH   6   7
ENDBRANCH   5   6
ENDBRANCH   3   5
ENDBRANCH   1   3
BRANCH   1  11
ATOM     11  C   UNL     1      45.051  58.757  25.882  1.00  0.00     0.087 C 
BRANCH  11  12
ATOM     12  C   UNL     1      45.913  57.895  24.915  1.00  0.00     0.066 C 
BRANCH  12  13
ATOM     13  C   UNL     1      45.238  57.816  23.554  1.00  0.00     0.140 C 
ATOM     14  O   UNL     1      45.711  58.429  22.608  1.00  0.00    -0.299 OA
BRANCH  13  15
ATOM     15  C   UNL     1      44.010  56.974  23.328  1.00  0.00     0.106 CG0
ATOM     16  G   UNL     1      44.237  55.514  23.673  1.00  0.00     0.000 G0
ENDBRANCH  13  15
ENDBRANCH  12  13
BRANCH  12  17
ATOM     17  C   UNL     1      47.405  58.349  24.783  1.00  0.00    -0.006 C 
ATOM     18  C   UNL     1      48.320  57.476  25.663  1.00  0.00     0.008 C 
ATOM     19  C   UNL     1      47.610  59.826  25.165  1.00  0.00     0.008 C 
ENDBRANCH  12  17
ENDBRANCH  11  12
ENDBRANCH   1  11
TORSDOF 1
ENDMDL
MODEL 5
REMARK VINA RESULT:    -3.118      3.061      4.546
REMARK INTER + INTRA:          -4.841
REMARK INTER:                  -4.708
REMARK INTRA:                  -0.133
REMARK UNBOUND:                -0.082
REMARK SMILES CC1=CCC[C@@H](C)C(=O)C[C@H](C(C)C)C(=O)C1
REMARK SMILES IDX 8 1 9 2 6 3 7 4 5 5 4 6 3 7 2 8 1 9 10 11 11 12 15 13 16 14
REMARK SMILES IDX 17 15 12 17 13 18 14 19
REMARK H PARENT
REMARK Flexibility Score: 70.00
ROOT
ATOM      1  C   UNL     1      46.609  57.817  27.540  1.00  0.00     0.136 C 
ATOM      2  O   UNL     1      47.458  58.649  27.827  1.00  0.00    -0.299 OA
ENDROOT
BRANCH   1   3
ATOM      3  C   UNL     1      45.146  58.254  27.590  1.00  0.00     0.053 C 
ATOM      4  C   UNL     1      44.308  57.105  28.168  1.00  0.00     0.016 C 
BRANCH   3   5
ATOM      5  C   UNL     1      44.516  58.734  26.254  1.00  0.00     0.015 C 
BRANCH   5   6
ATOM      6  C   UNL     1      45.433  59.650  25.409  1.00  0.00     0.028 C 
BRANCH   6   7
ATOM      7  C   UNL     1      45.593  59.122  24.002  1.00  0.00    -0.028 C 
ATOM      8  C   UNL     1      46.628  58.374  23.552  1.00  0.00    -0.070 CG0
ATOM      9  C   UNL     1      46.579  57.887  22.125  1.00  0.00     0.039 C 
ATOM     10  G   UNL     1      47.832  58.024  24.407  1.00  0.00     0.000 G0
ENDBRANCH   6   7
ENDBRANCH   5   6
ENDBRANCH   3   5
ENDBRANCH   1   3
BRANCH   1  11
ATOM     11  C   UNL     1      47.079  56.414  27.208  1.00  0.00     0.087 C 
BRANCH  11  12
ATOM     12  C   UNL     1      46.812  55.990  25.735  1.00  0.00     0.066 C 
BRANCH  12  13
ATOM     13  C   UNL     1      47.880  56.579  24.826  1.00  0.00     0.140 C 
ATOM     14  O   UNL     1      48.779  55.864  24.407  1.00  0.00    -0.299 OA
BRANCH  13  15
ATOM     15  C   UNL     1      47.847  58.022  24.400  1.00  0.00     0.106 CG0
ATOM     16  G   UNL     1      46.629  58.350  23.557  1.00  0.00     0.000 G0
ENDBRANCH  13  15
ENDBRANCH  12  13
BRANCH  12  17
ATOM     17  C   UNL     1      46.665  54.448  25.512  1.00  0.00    -0.006 C 
ATOM     18  C   UNL     1      45.179  54.040  25.487  1.00  0.00     0.008 C 
ATOM     19  C   UNL     1      47.388  53.622  26.592  1.00  0.00     0.008 C 
ENDBRANCH  12  17
ENDBRANCH  11  12
ENDBRANCH   1  11
TORSDOF 1
ENDMDL
MODEL 6
REMARK VINA RESULT:    -3.109      2.646      4.399
REMARK INTER + INTRA:          -4.827
REMARK INTER:                  -4.668
REMARK INTRA:                  -0.160
REMARK UNBOUND:                -0.082
REMARK SMILES CC1=CCC[C@@H](C)C(=O)C[C@H](C(C)C)C(=O)C1
REMARK SMILES IDX 8 1 9 2 6 3 7 4 5 5 4 6 3 7 2 8 1 9 10 11 11 12 15 13 16 14
REMARK SMILES IDX 17 15 12 17 13 18 14 19
REMARK H PARENT
REMARK Flexibility Score: 70.00
ROOT
ATOM      1  C   UNL     1      44.306  56.358  26.946  1.00  0.00     0.136 C 
ATOM      2  O   UNL     1      43.193  56.690  26.562  1.00  0.00    -0.299 OA
ENDROOT
BRANCH   1   3
ATOM      3  C   UNL     1      44.890  57.099  28.147  1.00  0.00     0.053 C 
ATOM      4  C   UNL     1      43.833  57.144  29.259  1.00  0.00     0.016 C 
BRANCH   3   5
ATOM      5  C   UNL     1      45.430  58.532  27.888  1.00  0.00     0.015 C 
BRANCH   5   6
ATOM      6  C   UNL     1      46.962  58.608  27.682  1.00  0.00     0.028 C 
BRANCH   6   7
ATOM      7  C   UNL     1      47.308  58.969  26.255  1.00  0.00    -0.028 C 
ATOM      8  C   UNL     1      47.592  58.090  25.265  1.00  0.00    -0.070 CG0
ATOM      9  C   UNL     1      47.854  58.642  23.886  1.00  0.00     0.039 C 
ATOM     10  G   UNL     1      47.675  56.591  25.484  1.00  0.00     0.000 G0
ENDBRANCH   6   7
ENDBRANCH   5   6
ENDBRANCH   3   5
ENDBRANCH   1   3
BRANCH   1  11
ATOM     11  C   UNL     1      45.027  55.275  26.167  1.00  0.00     0.087 C 
BRANCH  11  12
ATOM     12  C   UNL     1      45.348  55.662  24.694  1.00  0.00     0.066 C 
BRANCH  12  13
ATOM     13  C   UNL     1      46.851  55.803  24.512  1.00  0.00     0.140 C 
ATOM     14  O   UNL     1      47.393  55.291  23.543  1.00  0.00    -0.299 OA
BRANCH  13  15
ATOM     15  C   UNL     1      47.695  56.585  25.483  1.00  0.00     0.106 CG0
ATOM     16  G   UNL     1      47.607  58.082  25.253  1.00  0.00     0.000 G0
ENDBRANCH  13  15
ENDBRANCH  12  13
BRANCH  12  17
ATOM     17  C   UNL     1      44.732  54.710  23.616  1.00  0.00    -0.006 C 
ATOM     18  C   UNL     1      43.959  55.515  22.554  1.00  0.00     0.008 C 
ATOM     19  C   UNL     1      43.787  53.658  24.226  1.00  0.00     0.008 C 
ENDBRANCH  12  17
ENDBRANCH  11  12
ENDBRANCH   1  11
TORSDOF 1
ENDMDL
MODEL 7
REMARK VINA RESULT:    -3.108      2.199      4.239
REMARK INTER + INTRA:          -4.825
REMARK INTER:                  -4.624
REMARK INTRA:                  -0.201
REMARK UNBOUND:                -0.082
REMARK SMILES CC1=CCC[C@@H](C)C(=O)C[C@H](C(C)C)C(=O)C1
REMARK SMILES IDX 8 1 9 2 6 3 7 4 5 5 4 6 3 7 2 8 1 9 10 11 11 12 15 13 16 14
REMARK SMILES IDX 17 15 12 17 13 18 14 19
REMARK H PARENT
REMARK Flexibility Score: 70.00
ROOT
ATOM      1  C   UNL     1      43.403  55.823  27.416  1.00  0.00     0.136 C 
ATOM      2  O   UNL     1      42.460  55.477  28.114  1.00  0.00    -0.299 OA
ENDROOT
BRANCH   1   3
ATOM      3  C   UNL     1      44.429  56.770  28.034  1.00  0.00     0.053 C 
ATOM      4  C   UNL     1      43.908  57.239  29.400  1.00  0.00     0.016 C 
BRANCH   3   5
ATOM      5  C   UNL     1      44.841  58.004  27.185  1.00  0.00     0.015 C 
BRANCH   5   6
ATOM      6  C   UNL     1      46.085  57.779  26.294  1.00  0.00     0.028 C 
BRANCH   6   7
ATOM      7  C   UNL     1      45.948  58.492  24.968  1.00  0.00    -0.028 C 
ATOM      8  C   UNL     1      45.375  57.982  23.853  1.00  0.00    -0.070 CG0
ATOM      9  C   UNL     1      45.277  58.873  22.639  1.00  0.00     0.039 C 
ATOM     10  G   UNL     1      44.847  56.562  23.765  1.00  0.00     0.000 G0
ENDBRANCH   6   7
ENDBRANCH   5   6
ENDBRANCH   3   5
ENDBRANCH   1   3
BRANCH   1  11
ATOM     11  C   UNL     1      43.445  55.320  25.986  1.00  0.00     0.087 C 
BRANCH  11  12
ATOM     12  C   UNL     1      42.557  56.136  25.003  1.00  0.00     0.066 C 
BRANCH  12  13
ATOM     13  C   UNL     1      43.346  56.465  23.745  1.00  0.00     0.140 C 
ATOM     14  O   UNL     1      42.752  56.697  22.702  1.00  0.00    -0.299 OA
BRANCH  13  15
ATOM     15  C   UNL     1      44.850  56.542  23.752  1.00  0.00     0.106 CG0
ATOM     16  G   UNL     1      45.357  57.969  23.850  1.00  0.00     0.000 G0
ENDBRANCH  13  15
ENDBRANCH  12  13
BRANCH  12  17
ATOM     17  C   UNL     1      41.184  55.473  24.654  1.00  0.00    -0.006 C 
ATOM     18  C   UNL     1      40.076  55.984  25.596  1.00  0.00     0.008 C 
ATOM     19  C   UNL     1      41.232  53.937  24.733  1.00  0.00     0.008 C 
ENDBRANCH  12  17
ENDBRANCH  11  12
ENDBRANCH   1  11
TORSDOF 1
ENDMDL
MODEL 8
REMARK VINA RESULT:    -3.106      2.568      3.972
REMARK INTER + INTRA:          -4.822
REMARK INTER:                  -4.734
REMARK INTRA:                  -0.087
REMARK UNBOUND:                -0.082
REMARK SMILES CC1=CCC[C@@H](C)C(=O)C[C@H](C(C)C)C(=O)C1
REMARK SMILES IDX 8 1 9 2 6 3 7 4 5 5 4 6 3 7 2 8 1 9 10 11 11 12 15 13 16 14
REMARK SMILES IDX 17 15 12 17 13 18 14 19
REMARK H PARENT
REMARK Flexibility Score: 70.00
ROOT
ATOM      1  C   UNL     1      44.975  56.081  27.147  1.00  0.00     0.136 C 
ATOM      2  O   UNL     1      43.895  55.514  27.051  1.00  0.00    -0.299 OA
ENDROOT
BRANCH   1   3
ATOM      3  C   UNL     1      45.106  57.179  28.201  1.00  0.00     0.053 C 
ATOM      4  C   UNL     1      43.853  57.163  29.087  1.00  0.00     0.016 C 
BRANCH   3   5
ATOM      5  C   UNL     1      45.354  58.621  27.680  1.00  0.00     0.015 C 
BRANCH   5   6
ATOM      6  C   UNL     1      44.645  58.947  26.343  1.00  0.00     0.028 C 
BRANCH   6   7
ATOM      7  C   UNL     1      45.627  59.451  25.309  1.00  0.00    -0.028 C 
ATOM      8  C   UNL     1      45.827  58.913  24.083  1.00  0.00    -0.070 CG0
ATOM      9  C   UNL     1      46.809  59.597  23.165  1.00  0.00     0.039 C 
ATOM     10  G   UNL     1      45.126  57.656  23.603  1.00  0.00     0.000 G0
ENDBRANCH   6   7
ENDBRANCH   5   6
ENDBRANCH   3   5
ENDBRANCH   1   3
BRANCH   1  11
ATOM     11  C   UNL     1      46.072  55.678  26.180  1.00  0.00     0.087 C 
BRANCH  11  12
ATOM     12  C   UNL     1      45.559  55.318  24.756  1.00  0.00     0.066 C 
BRANCH  12  13
ATOM     13  C   UNL     1      45.958  56.407  23.772  1.00  0.00     0.140 C 
ATOM     14  O   UNL     1      46.959  56.263  23.084  1.00  0.00    -0.299 OA
BRANCH  13  15
ATOM     15  C   UNL     1      45.134  57.654  23.597  1.00  0.00     0.106 CG0
ATOM     16  G   UNL     1      45.850  58.897  24.093  1.00  0.00     0.000 G0
ENDBRANCH  13  15
ENDBRANCH  12  13
BRANCH  12  17
ATOM     17  C   UNL     1      45.987  53.904  24.242  1.00  0.00    -0.006 C 
ATOM     18  C   UNL     1      44.773  52.957  24.173  1.00  0.00     0.008 C 
ATOM     19  C   UNL     1      47.070  53.257  25.124  1.00  0.00     0.008 C 
ENDBRANCH  12  17
ENDBRANCH  11  12
ENDBRANCH   1  11
TORSDOF 1
ENDMDL
MODEL 9
REMARK VINA RESULT:    -2.979      2.096      4.205
REMARK INTER + INTRA:          -4.629
REMARK INTER:                  -4.649
REMARK INTRA:                   0.020
REMARK UNBOUND:                -0.082
REMARK SMILES CC1=CCC[C@@H](C)C(=O)C[C@H](C(C)C)C(=O)C1
REMARK SMILES IDX 8 1 9 2 6 3 7 4 5 5 4 6 3 7 2 8 1 9 10 11 11 12 15 13 16 14
REMARK SMILES IDX 17 15 12 17 13 18 14 19
REMARK H PARENT
REMARK Flexibility Score: 70.00
ROOT
ATOM      1  C   UNL     1      44.533  57.115  28.188  1.00  0.00     0.136 C 
ATOM      2  O   UNL     1      43.865  57.141  29.212  1.00  0.00    -0.299 OA
ENDROOT
BRANCH   1   3
ATOM      3  C   UNL     1      45.360  58.353  27.851  1.00  0.00     0.053 C 
ATOM      4  C   UNL     1      44.625  59.156  26.768  1.00  0.00     0.016 C 
BRANCH   3   5
ATOM      5  C   UNL     1      46.830  58.113  27.410  1.00  0.00     0.015 C 
BRANCH   5   6
ATOM      6  C   UNL     1      47.152  58.596  25.976  1.00  0.00     0.028 C 
BRANCH   6   7
ATOM      7  C   UNL     1      47.697  57.470  25.126  1.00  0.00    -0.028 C 
ATOM      8  C   UNL     1      46.978  56.711  24.266  1.00  0.00    -0.070 CG0
ATOM      9  C   UNL     1      47.714  55.671  23.458  1.00  0.00     0.039 C 
ATOM     10  G   UNL     1      45.477  56.847  24.094  1.00  0.00     0.000 G0
ENDBRANCH   6   7
ENDBRANCH   5   6
ENDBRANCH   3   5
ENDBRANCH   1   3
BRANCH   1  11
ATOM     11  C   UNL     1      44.445  55.874  27.319  1.00  0.00     0.087 C 
BRANCH  11  12
ATOM     12  C   UNL     1      43.742  56.109  25.951  1.00  0.00     0.066 C 
BRANCH  12  13
ATOM     13  C   UNL     1      44.695  55.772  24.815  1.00  0.00     0.140 C 
ATOM     14  O   UNL     1      44.831  54.608  24.465  1.00  0.00    -0.299 OA
BRANCH  13  15
ATOM     15  C   UNL     1      45.463  56.840  24.084  1.00  0.00     0.106 CG0
ATOM     16  G   UNL     1      46.963  56.714  24.279  1.00  0.00     0.000 G0
ENDBRANCH  13  15
ENDBRANCH  12  13
BRANCH  12  17
ATOM     17  C   UNL     1      42.373  55.371  25.781  1.00  0.00    -0.006 C 
ATOM     18  C   UNL     1      41.306  56.325  25.210  1.00  0.00     0.008 C 
ATOM     19  C   UNL     1      41.852  54.778  27.102  1.00  0.00     0.008 C 
ENDBRANCH  12  17
ENDBRANCH  11  12
ENDBRANCH   1  11
TORSDOF 1
ENDMDL
