MODEL 1
REMARK VINA RESULT:    -4.448      0.000      0.000
REMARK INTER + INTRA:          -5.455
REMARK INTER:                  -5.098
REMARK INTRA:                  -0.358
REMARK UNBOUND:                -0.358
REMARK SMILES COC(=O)c1ccccc1O
REMARK SMILES IDX 5 1 6 2 7 3 8 4 9 5 10 6 3 7 4 8 2 9 1 10 11 11
REMARK H PARENT 11 12
REMARK Flexibility Score: inf
ROOT
ATOM      1  C   UNL     1      17.638  18.206  17.155  1.00  0.00     0.101 A 
ATOM      2  C   UNL     1      17.502  17.203  18.135  1.00  0.00     0.019 A 
ATOM      3  C   UNL     1      17.816  17.464  19.471  1.00  0.00     0.001 A 
ATOM      4  C   UNL     1      18.268  18.727  19.851  1.00  0.00     0.004 A 
ATOM      5  C   UNL     1      18.409  19.734  18.896  1.00  0.00     0.047 A 
ATOM      6  C   UNL     1      18.098  19.486  17.549  1.00  0.00     0.130 A 
ENDROOT
BRANCH   1   7
ATOM      7  C   UNL     1      17.295  17.892  15.744  1.00  0.00     0.341 C 
ATOM      8  O   UNL     1      17.765  16.864  15.182  1.00  0.00    -0.246 OA
BRANCH   7   9
ATOM      9  O   UNL     1      16.443  18.743  15.031  1.00  0.00    -0.465 OA
ATOM     10  C   UNL     1      15.079  18.936  15.383  1.00  0.00     0.282 C 
ENDBRANCH   7   9
ENDBRANCH   1   7
BRANCH   6  11
ATOM     11  O   UNL     1      18.248  20.511  16.614  1.00  0.00    -0.507 OA
ATOM     12  H   UNL     1      18.575  20.329  15.672  1.00  0.00     0.293 HD
ENDBRANCH   6  11
TORSDOF 3
ENDMDL
MODEL 2
REMARK VINA RESULT:    -4.337      1.365      2.504
REMARK INTER + INTRA:          -5.329
REMARK INTER:                  -5.049
REMARK INTRA:                  -0.280
REMARK UNBOUND:                -0.358
REMARK SMILES COC(=O)c1ccccc1O
REMARK SMILES IDX 5 1 6 2 7 3 8 4 9 5 10 6 3 7 4 8 2 9 1 10 11 11
REMARK H PARENT 11 12
REMARK Flexibility Score: inf
ROOT
ATOM      1  C   UNL     1      16.900  19.297  17.141  1.00  0.00     0.101 A 
ATOM      2  C   UNL     1      17.629  20.227  17.908  1.00  0.00     0.019 A 
ATOM      3  C   UNL     1      18.331  19.820  19.046  1.00  0.00     0.001 A 
ATOM      4  C   UNL     1      18.317  18.482  19.435  1.00  0.00     0.004 A 
ATOM      5  C   UNL     1      17.602  17.545  18.689  1.00  0.00     0.047 A 
ATOM      6  C   UNL     1      16.892  17.939  17.544  1.00  0.00     0.130 A 
ENDROOT
BRANCH   1   7
ATOM      7  C   UNL     1      16.166  19.766  15.938  1.00  0.00     0.341 C 
ATOM      8  O   UNL     1      16.575  20.767  15.286  1.00  0.00    -0.246 OA
BRANCH   7   9
ATOM      9  O   UNL     1      15.012  19.092  15.523  1.00  0.00    -0.465 OA
ATOM     10  C   UNL     1      14.454  19.252  14.225  1.00  0.00     0.282 C 
ENDBRANCH   7   9
ENDBRANCH   1   7
BRANCH   6  11
ATOM     11  O   UNL     1      16.185  16.982  16.815  1.00  0.00    -0.507 OA
ATOM     12  H   UNL     1      15.470  17.243  16.146  1.00  0.00     0.293 HD
ENDBRANCH   6  11
TORSDOF 3
ENDMDL
MODEL 3
REMARK VINA RESULT:    -4.200      1.848      2.400
REMARK INTER + INTRA:          -5.172
REMARK INTER:                  -4.857
REMARK INTRA:                  -0.314
REMARK UNBOUND:                -0.358
REMARK SMILES COC(=O)c1ccccc1O
REMARK SMILES IDX 5 1 6 2 7 3 8 4 9 5 10 6 3 7 4 8 2 9 1 10 11 11
REMARK H PARENT 11 12
REMARK Flexibility Score: inf
ROOT
ATOM      1  C   UNL     1      15.861  18.674  16.663  1.00  0.00     0.101 A 
ATOM      2  C   UNL     1      16.519  17.768  17.517  1.00  0.00     0.019 A 
ATOM      3  C   UNL     1      17.701  18.130  18.169  1.00  0.00     0.001 A 
ATOM      4  C   UNL     1      18.244  19.399  17.978  1.00  0.00     0.004 A 
ATOM      5  C   UNL     1      17.608  20.312  17.136  1.00  0.00     0.047 A 
ATOM      6  C   UNL     1      16.420  19.961  16.475  1.00  0.00     0.130 A 
ENDROOT
BRANCH   1   7
ATOM      7  C   UNL     1      14.607  18.253  15.987  1.00  0.00     0.341 C 
ATOM      8  O   UNL     1      13.624  17.835  16.660  1.00  0.00    -0.246 OA
BRANCH   7   9
ATOM      9  O   UNL     1      14.513  18.322  14.593  1.00  0.00    -0.465 OA
ATOM     10  C   UNL     1      13.436  18.968  13.925  1.00  0.00     0.282 C 
ENDBRANCH   7   9
ENDBRANCH   1   7
BRANCH   6  11
ATOM     11  O   UNL     1      15.804  20.893  15.638  1.00  0.00    -0.507 OA
ATOM     12  H   UNL     1      16.140  21.846  15.563  1.00  0.00     0.293 HD
ENDBRANCH   6  11
TORSDOF 3
ENDMDL
MODEL 4
REMARK VINA RESULT:    -4.139      2.513      3.319
REMARK INTER + INTRA:          -5.102
REMARK INTER:                  -4.776
REMARK INTRA:                  -0.326
REMARK UNBOUND:                -0.358
REMARK SMILES COC(=O)c1ccccc1O
REMARK SMILES IDX 5 1 6 2 7 3 8 4 9 5 10 6 3 7 4 8 2 9 1 10 11 11
REMARK H PARENT 11 12
REMARK Flexibility Score: inf
ROOT
ATOM      1  C   UNL     1      15.896  18.227  17.099  1.00  0.00     0.101 A 
ATOM      2  C   UNL     1      15.647  19.284  16.202  1.00  0.00     0.019 A 
ATOM      3  C   UNL     1      16.591  20.297  16.014  1.00  0.00     0.001 A 
ATOM      4  C   UNL     1      17.795  20.272  16.716  1.00  0.00     0.004 A 
ATOM      5  C   UNL     1      18.060  19.233  17.609  1.00  0.00     0.047 A 
ATOM      6  C   UNL     1      17.121  18.208  17.809  1.00  0.00     0.130 A 
ENDROOT
BRANCH   1   7
ATOM      7  C   UNL     1      14.869  17.167  17.272  1.00  0.00     0.341 C 
ATOM      8  O   UNL     1      14.429  16.880  18.420  1.00  0.00    -0.246 OA
BRANCH   7   9
ATOM      9  O   UNL     1      14.384  16.480  16.153  1.00  0.00    -0.465 OA
ATOM     10  C   UNL     1      15.205  15.639  15.352  1.00  0.00     0.282 C 
ENDBRANCH   7   9
ENDBRANCH   1   7
BRANCH   6  11
ATOM     11  O   UNL     1      17.411  17.181  18.707  1.00  0.00    -0.507 OA
ATOM     12  H   UNL     1      16.681  16.610  19.117  1.00  0.00     0.293 HD
ENDBRANCH   6  11
TORSDOF 3
ENDMDL
MODEL 5
REMARK VINA RESULT:    -4.138     10.077     11.395
REMARK INTER + INTRA:          -5.100
REMARK INTER:                  -4.813
REMARK INTRA:                  -0.287
REMARK UNBOUND:                -0.358
REMARK SMILES COC(=O)c1ccccc1O
REMARK SMILES IDX 5 1 6 2 7 3 8 4 9 5 10 6 3 7 4 8 2 9 1 10 11 11
REMARK H PARENT 11 12
REMARK Flexibility Score: inf
ROOT
ATOM      1  C   UNL     1      20.212  23.462   8.077  1.00  0.00     0.101 A 
ATOM      2  C   UNL     1      19.159  24.138   8.722  1.00  0.00     0.019 A 
ATOM      3  C   UNL     1      18.682  25.354   8.226  1.00  0.00     0.001 A 
ATOM      4  C   UNL     1      19.246  25.913   7.081  1.00  0.00     0.004 A 
ATOM      5  C   UNL     1      20.290  25.258   6.426  1.00  0.00     0.047 A 
ATOM      6  C   UNL     1      20.780  24.036   6.913  1.00  0.00     0.130 A 
ENDROOT
BRANCH   1   7
ATOM      7  C   UNL     1      20.693  22.171   8.633  1.00  0.00     0.341 C 
ATOM      8  O   UNL     1      20.865  22.031   9.876  1.00  0.00    -0.246 OA
BRANCH   7   9
ATOM      9  O   UNL     1      20.958  21.100   7.771  1.00  0.00    -0.465 OA
ATOM     10  C   UNL     1      20.508  19.776   8.030  1.00  0.00     0.282 C 
ENDBRANCH   7   9
ENDBRANCH   1   7
BRANCH   6  11
ATOM     11  O   UNL     1      21.825  23.402   6.240  1.00  0.00    -0.507 OA
ATOM     12  H   UNL     1      22.725  23.850   6.111  1.00  0.00     0.293 HD
ENDBRANCH   6  11
TORSDOF 3
ENDMDL
MODEL 6
REMARK VINA RESULT:    -4.127      1.483      2.715
REMARK INTER + INTRA:          -5.088
REMARK INTER:                  -4.811
REMARK INTRA:                  -0.277
REMARK UNBOUND:                -0.358
REMARK SMILES COC(=O)c1ccccc1O
REMARK SMILES IDX 5 1 6 2 7 3 8 4 9 5 10 6 3 7 4 8 2 9 1 10 11 11
REMARK H PARENT 11 12
REMARK Flexibility Score: inf
ROOT
ATOM      1  C   UNL     1      17.327  18.789  16.163  1.00  0.00     0.101 A 
ATOM      2  C   UNL     1      17.679  20.009  16.772  1.00  0.00     0.019 A 
ATOM      3  C   UNL     1      18.082  20.049  18.110  1.00  0.00     0.001 A 
ATOM      4  C   UNL     1      18.141  18.875  18.859  1.00  0.00     0.004 A 
ATOM      5  C   UNL     1      17.797  17.656  18.273  1.00  0.00     0.047 A 
ATOM      6  C   UNL     1      17.389  17.600  16.931  1.00  0.00     0.130 A 
ENDROOT
BRANCH   1   7
ATOM      7  C   UNL     1      16.902  18.785  14.739  1.00  0.00     0.341 C 
ATOM      8  O   UNL     1      15.981  19.551  14.341  1.00  0.00    -0.246 OA
BRANCH   7   9
ATOM      9  O   UNL     1      17.530  17.925  13.831  1.00  0.00    -0.465 OA
ATOM     10  C   UNL     1      17.644  18.222  12.444  1.00  0.00     0.282 C 
ENDBRANCH   7   9
ENDBRANCH   1   7
BRANCH   6  11
ATOM     11  O   UNL     1      17.051  16.368  16.370  1.00  0.00    -0.507 OA
ATOM     12  H   UNL     1      17.743  15.778  15.923  1.00  0.00     0.293 HD
ENDBRANCH   6  11
TORSDOF 3
ENDMDL
MODEL 7
REMARK VINA RESULT:    -4.055      8.589      9.993
REMARK INTER + INTRA:          -5.005
REMARK INTER:                  -4.683
REMARK INTRA:                  -0.322
REMARK UNBOUND:                -0.358
REMARK SMILES COC(=O)c1ccccc1O
REMARK SMILES IDX 5 1 6 2 7 3 8 4 9 5 10 6 3 7 4 8 2 9 1 10 11 11
REMARK H PARENT 11 12
REMARK Flexibility Score: inf
ROOT
ATOM      1  C   UNL     1      18.268  11.182  11.489  1.00  0.00     0.101 A 
ATOM      2  C   UNL     1      17.218  12.061  11.817  1.00  0.00     0.019 A 
ATOM      3  C   UNL     1      17.400  13.445  11.761  1.00  0.00     0.001 A 
ATOM      4  C   UNL     1      18.631  13.974  11.377  1.00  0.00     0.004 A 
ATOM      5  C   UNL     1      19.685  13.120  11.047  1.00  0.00     0.047 A 
ATOM      6  C   UNL     1      19.516  11.728  11.099  1.00  0.00     0.130 A 
ENDROOT
BRANCH   1   7
ATOM      7  C   UNL     1      18.037   9.717  11.560  1.00  0.00     0.341 C 
ATOM      8  O   UNL     1      17.581   9.188  12.612  1.00  0.00    -0.246 OA
BRANCH   7   9
ATOM      9  O   UNL     1      18.327   8.914  10.450  1.00  0.00    -0.465 OA
ATOM     10  C   UNL     1      19.090   7.717  10.545  1.00  0.00     0.282 C 
ENDBRANCH   7   9
ENDBRANCH   1   7
BRANCH   6  11
ATOM     11  O   UNL     1      20.586  10.897  10.764  1.00  0.00    -0.507 OA
ATOM     12  H   UNL     1      20.555  10.290   9.953  1.00  0.00     0.293 HD
ENDBRANCH   6  11
TORSDOF 3
ENDMDL
MODEL 8
REMARK VINA RESULT:    -4.033      7.722      8.705
REMARK INTER + INTRA:          -4.981
REMARK INTER:                  -4.699
REMARK INTRA:                  -0.282
REMARK UNBOUND:                -0.358
REMARK SMILES COC(=O)c1ccccc1O
REMARK SMILES IDX 5 1 6 2 7 3 8 4 9 5 10 6 3 7 4 8 2 9 1 10 11 11
REMARK H PARENT 11 12
REMARK Flexibility Score: inf
ROOT
ATOM      1  C   UNL     1      19.911  17.516   9.652  1.00  0.00     0.101 A 
ATOM      2  C   UNL     1      19.041  17.809   8.584  1.00  0.00     0.019 A 
ATOM      3  C   UNL     1      19.148  19.015   7.886  1.00  0.00     0.001 A 
ATOM      4  C   UNL     1      20.123  19.945   8.241  1.00  0.00     0.004 A 
ATOM      5  C   UNL     1      20.996  19.674   9.296  1.00  0.00     0.047 A 
ATOM      6  C   UNL     1      20.899  18.467  10.007  1.00  0.00     0.130 A 
ENDROOT
BRANCH   1   7
ATOM      7  C   UNL     1      19.768  16.224  10.371  1.00  0.00     0.341 C 
ATOM      8  O   UNL     1      18.624  15.752  10.621  1.00  0.00    -0.246 OA
BRANCH   7   9
ATOM      9  O   UNL     1      20.910  15.524  10.774  1.00  0.00    -0.465 OA
ATOM     10  C   UNL     1      20.928  14.111  10.938  1.00  0.00     0.282 C 
ENDBRANCH   7   9
ENDBRANCH   1   7
BRANCH   6  11
ATOM     11  O   UNL     1      21.784  18.221  11.057  1.00  0.00    -0.507 OA
ATOM     12  H   UNL     1      21.914  18.885  11.811  1.00  0.00     0.293 HD
ENDBRANCH   6  11
TORSDOF 3
ENDMDL
MODEL 9
REMARK VINA RESULT:    -4.006      8.523      9.833
REMARK INTER + INTRA:          -4.949
REMARK INTER:                  -4.653
REMARK INTRA:                  -0.296
REMARK UNBOUND:                -0.358
REMARK SMILES COC(=O)c1ccccc1O
REMARK SMILES IDX 5 1 6 2 7 3 8 4 9 5 10 6 3 7 4 8 2 9 1 10 11 11
REMARK H PARENT 11 12
REMARK Flexibility Score: inf
ROOT
ATOM      1  C   UNL     1      19.910  21.943   8.866  1.00  0.00     0.101 A 
ATOM      2  C   UNL     1      18.787  22.068   9.707  1.00  0.00     0.019 A 
ATOM      3  C   UNL     1      18.046  23.252   9.736  1.00  0.00     0.001 A 
ATOM      4  C   UNL     1      18.412  24.328   8.930  1.00  0.00     0.004 A 
ATOM      5  C   UNL     1      19.522  24.224   8.090  1.00  0.00     0.047 A 
ATOM      6  C   UNL     1      20.276  23.041   8.050  1.00  0.00     0.130 A 
ENDROOT
BRANCH   1   7
ATOM      7  C   UNL     1      20.674  20.668   8.862  1.00  0.00     0.341 C 
ATOM      8  O   UNL     1      21.005  20.122   7.773  1.00  0.00    -0.246 OA
BRANCH   7   9
ATOM      9  O   UNL     1      21.032  20.069  10.075  1.00  0.00    -0.465 OA
ATOM     10  C   UNL     1      20.948  18.667  10.293  1.00  0.00     0.282 C 
ENDBRANCH   7   9
ENDBRANCH   1   7
BRANCH   6  11
ATOM     11  O   UNL     1      21.381  22.963   7.201  1.00  0.00    -0.507 OA
ATOM     12  H   UNL     1      22.220  23.507   7.368  1.00  0.00     0.293 HD
ENDBRANCH   6  11
TORSDOF 3
ENDMDL
