MODEL 1
REMARK VINA RESULT:    -3.860      0.000      0.000
REMARK INTER + INTRA:          -4.869
REMARK INTER:                  -4.650
REMARK INTRA:                  -0.219
REMARK UNBOUND:                -0.219
REMARK SMILES OCC(O)CO
REMARK SMILES IDX 3 1 5 2 6 3 2 5 1 6 4 8
REMARK H PARENT 6 4 1 7 4 9
REMARK Flexibility Score: inf
ROOT
ATOM      1  C   UNL     1     167.713 169.836 170.763  1.00  0.00     0.165 C 
ENDROOT
BRANCH   1   2
ATOM      2  C   UNL     1     169.135 169.383 171.129  1.00  0.00     0.190 C 
BRANCH   2   3
ATOM      3  O   UNL     1     170.065 170.382 170.808  1.00  0.00    -0.394 OA
ATOM      4  H   UNL     1     170.852 170.241 171.395  1.00  0.00     0.210 HD
ENDBRANCH   2   3
ENDBRANCH   1   2
BRANCH   1   5
ATOM      5  C   UNL     1     167.411 171.204 171.378  1.00  0.00     0.190 C 
BRANCH   5   6
ATOM      6  O   UNL     1     167.896 172.217 170.540  1.00  0.00    -0.394 OA
ATOM      7  H   UNL     1     167.105 172.742 170.254  1.00  0.00     0.210 HD
ENDBRANCH   5   6
ENDBRANCH   1   5
BRANCH   1   8
ATOM      8  O   UNL     1     166.776 168.903 171.239  1.00  0.00    -0.388 OA
ATOM      9  H   UNL     1     167.100 168.004 170.971  1.00  0.00     0.211 HD
ENDBRANCH   1   8
TORSDOF 5
ENDMDL
MODEL 2
REMARK VINA RESULT:    -3.695      0.730      2.261
REMARK INTER + INTRA:          -4.670
REMARK INTER:                  -4.461
REMARK INTRA:                  -0.209
REMARK UNBOUND:                -0.219
REMARK SMILES OCC(O)CO
REMARK SMILES IDX 3 1 5 2 6 3 2 5 1 6 4 8
REMARK H PARENT 6 4 1 7 4 9
REMARK Flexibility Score: inf
ROOT
ATOM      1  C   UNL     1     167.517 169.972 171.253  1.00  0.00     0.165 C 
ENDROOT
BRANCH   1   2
ATOM      2  C   UNL     1     167.834 171.426 171.639  1.00  0.00     0.190 C 
BRANCH   2   3
ATOM      3  O   UNL     1     167.927 172.228 170.493  1.00  0.00    -0.394 OA
ATOM      4  H   UNL     1     167.633 171.670 169.727  1.00  0.00     0.210 HD
ENDBRANCH   2   3
ENDBRANCH   1   2
BRANCH   1   5
ATOM      5  C   UNL     1     168.790 169.243 170.818  1.00  0.00     0.190 C 
BRANCH   5   6
ATOM      6  O   UNL     1     169.817 170.171 170.604  1.00  0.00    -0.394 OA
ATOM      7  H   UNL     1     170.190 170.382 171.499  1.00  0.00     0.210 HD
ENDBRANCH   5   6
ENDBRANCH   1   5
BRANCH   1   8
ATOM      8  O   UNL     1     166.592 169.949 170.195  1.00  0.00    -0.388 OA
ATOM      9  H   UNL     1     167.081 170.226 169.377  1.00  0.00     0.211 HD
ENDBRANCH   1   8
TORSDOF 5
ENDMDL
MODEL 3
REMARK VINA RESULT:    -3.595      0.629      2.291
REMARK INTER + INTRA:          -4.549
REMARK INTER:                  -4.525
REMARK INTRA:                  -0.024
REMARK UNBOUND:                -0.219
REMARK SMILES OCC(O)CO
REMARK SMILES IDX 3 1 5 2 6 3 2 5 1 6 4 8
REMARK H PARENT 6 4 1 7 4 9
REMARK Flexibility Score: inf
ROOT
ATOM      1  C   UNL     1     167.818 170.954 171.303  1.00  0.00     0.165 C 
ENDROOT
BRANCH   1   2
ATOM      2  C   UNL     1     169.253 170.501 171.616  1.00  0.00     0.190 C 
BRANCH   2   3
ATOM      3  O   UNL     1     169.996 170.375 170.435  1.00  0.00    -0.394 OA
ATOM      4  H   UNL     1     170.331 171.281 170.207  1.00  0.00     0.210 HD
ENDBRANCH   2   3
ENDBRANCH   1   2
BRANCH   1   5
ATOM      5  C   UNL     1     167.093 169.898 170.465  1.00  0.00     0.190 C 
BRANCH   5   6
ATOM      6  O   UNL     1     166.717 168.824 171.282  1.00  0.00    -0.394 OA
ATOM      7  H   UNL     1     166.585 169.200 172.190  1.00  0.00     0.210 HD
ENDBRANCH   5   6
ENDBRANCH   1   5
BRANCH   1   8
ATOM      8  O   UNL     1     167.844 172.165 170.592  1.00  0.00    -0.388 OA
ATOM      9  H   UNL     1     167.972 171.937 169.634  1.00  0.00     0.211 HD
ENDBRANCH   1   8
TORSDOF 5
ENDMDL
MODEL 4
REMARK VINA RESULT:    -3.565      1.218      2.270
REMARK INTER + INTRA:          -4.513
REMARK INTER:                  -4.329
REMARK INTRA:                  -0.183
REMARK UNBOUND:                -0.219
REMARK SMILES OCC(O)CO
REMARK SMILES IDX 3 1 5 2 6 3 2 5 1 6 4 8
REMARK H PARENT 6 4 1 7 4 9
REMARK Flexibility Score: inf
ROOT
ATOM      1  C   UNL     1     167.875 170.962 170.801  1.00  0.00     0.165 C 
ENDROOT
BRANCH   1   2
ATOM      2  C   UNL     1     167.378 169.524 171.014  1.00  0.00     0.190 C 
BRANCH   2   3
ATOM      3  O   UNL     1     168.373 168.604 170.654  1.00  0.00    -0.394 OA
ATOM      4  H   UNL     1     167.937 167.713 170.605  1.00  0.00     0.210 HD
ENDBRANCH   2   3
ENDBRANCH   1   2
BRANCH   1   5
ATOM      5  C   UNL     1     169.236 171.165 171.472  1.00  0.00     0.190 C 
BRANCH   5   6
ATOM      6  O   UNL     1     170.238 170.563 170.700  1.00  0.00    -0.394 OA
ATOM      7  H   UNL     1     170.727 169.952 171.310  1.00  0.00     0.210 HD
ENDBRANCH   5   6
ENDBRANCH   1   5
BRANCH   1   8
ATOM      8  O   UNL     1     166.955 171.872 171.346  1.00  0.00    -0.388 OA
ATOM      9  H   UNL     1     166.756 172.542 170.641  1.00  0.00     0.211 HD
ENDBRANCH   1   8
TORSDOF 5
ENDMDL
MODEL 5
REMARK VINA RESULT:    -3.519      1.453      2.490
REMARK INTER + INTRA:          -4.457
REMARK INTER:                  -4.276
REMARK INTRA:                  -0.181
REMARK UNBOUND:                -0.219
REMARK SMILES OCC(O)CO
REMARK SMILES IDX 3 1 5 2 6 3 2 5 1 6 4 8
REMARK H PARENT 6 4 1 7 4 9
REMARK Flexibility Score: inf
ROOT
ATOM      1  C   UNL     1     168.916 169.997 171.062  1.00  0.00     0.165 C 
ENDROOT
BRANCH   1   2
ATOM      2  C   UNL     1     167.512 169.974 171.686  1.00  0.00     0.190 C 
BRANCH   2   3
ATOM      3  O   UNL     1     166.810 168.834 171.272  1.00  0.00    -0.394 OA
ATOM      4  H   UNL     1     166.634 168.941 170.301  1.00  0.00     0.210 HD
ENDBRANCH   2   3
ENDBRANCH   1   2
BRANCH   1   5
ATOM      5  C   UNL     1     168.831 170.290 169.562  1.00  0.00     0.190 C 
BRANCH   5   6
ATOM      6  O   UNL     1     167.488 170.405 169.179  1.00  0.00    -0.394 OA
ATOM      7  H   UNL     1     167.493 170.829 168.282  1.00  0.00     0.210 HD
ENDBRANCH   5   6
ENDBRANCH   1   5
BRANCH   1   8
ATOM      8  O   UNL     1     169.544 168.755 171.252  1.00  0.00    -0.388 OA
ATOM      9  H   UNL     1     169.405 168.229 170.422  1.00  0.00     0.211 HD
ENDBRANCH   1   8
TORSDOF 5
ENDMDL
MODEL 6
REMARK VINA RESULT:    -3.471      1.303      1.963
REMARK INTER + INTRA:          -4.400
REMARK INTER:                  -4.178
REMARK INTRA:                  -0.222
REMARK UNBOUND:                -0.219
REMARK SMILES OCC(O)CO
REMARK SMILES IDX 3 1 5 2 6 3 2 5 1 6 4 8
REMARK H PARENT 6 4 1 7 4 9
REMARK Flexibility Score: inf
ROOT
ATOM      1  C   UNL     1     168.764 170.545 171.812  1.00  0.00     0.165 C 
ENDROOT
BRANCH   1   2
ATOM      2  C   UNL     1     169.001 169.278 170.975  1.00  0.00     0.190 C 
BRANCH   2   3
ATOM      3  O   UNL     1     168.601 169.485 169.648  1.00  0.00    -0.394 OA
ATOM      4  H   UNL     1     168.762 168.635 169.162  1.00  0.00     0.210 HD
ENDBRANCH   2   3
ENDBRANCH   1   2
BRANCH   1   5
ATOM      5  C   UNL     1     167.506 171.274 171.335  1.00  0.00     0.190 C 
BRANCH   5   6
ATOM      6  O   UNL     1     167.858 172.273 170.417  1.00  0.00    -0.394 OA
ATOM      7  H   UNL     1     167.737 171.875 169.516  1.00  0.00     0.210 HD
ENDBRANCH   5   6
ENDBRANCH   1   5
BRANCH   1   8
ATOM      8  O   UNL     1     169.866 171.408 171.696  1.00  0.00    -0.388 OA
ATOM      9  H   UNL     1     169.685 172.008 170.926  1.00  0.00     0.211 HD
ENDBRANCH   1   8
TORSDOF 5
ENDMDL
MODEL 7
REMARK VINA RESULT:    -3.199     11.233     12.468
REMARK INTER + INTRA:          -4.072
REMARK INTER:                  -3.858
REMARK INTRA:                  -0.215
REMARK UNBOUND:                -0.219
REMARK SMILES OCC(O)CO
REMARK SMILES IDX 3 1 5 2 6 3 2 5 1 6 4 8
REMARK H PARENT 6 4 1 7 4 9
REMARK Flexibility Score: inf
ROOT
ATOM      1  C   UNL     1     177.447 161.843 169.732  1.00  0.00     0.165 C 
ENDROOT
BRANCH   1   2
ATOM      2  C   UNL     1     177.812 161.394 171.156  1.00  0.00     0.190 C 
BRANCH   2   3
ATOM      3  O   UNL     1     176.705 160.801 171.781  1.00  0.00    -0.394 OA
ATOM      4  H   UNL     1     176.296 160.186 171.118  1.00  0.00     0.210 HD
ENDBRANCH   2   3
ENDBRANCH   1   2
BRANCH   1   5
ATOM      5  C   UNL     1     176.135 162.632 169.738  1.00  0.00     0.190 C 
BRANCH   5   6
ATOM      6  O   UNL     1     175.051 161.745 169.696  1.00  0.00    -0.394 OA
ATOM      7  H   UNL     1     174.673 161.813 168.782  1.00  0.00     0.210 HD
ENDBRANCH   5   6
ENDBRANCH   1   5
BRANCH   1   8
ATOM      8  O   UNL     1     177.304 160.722 168.898  1.00  0.00    -0.388 OA
ATOM      9  H   UNL     1     176.539 160.906 168.293  1.00  0.00     0.211 HD
ENDBRANCH   1   8
TORSDOF 5
ENDMDL
MODEL 8
REMARK VINA RESULT:    -3.086     10.590     11.952
REMARK INTER + INTRA:          -3.936
REMARK INTER:                  -3.719
REMARK INTRA:                  -0.217
REMARK UNBOUND:                -0.219
REMARK SMILES OCC(O)CO
REMARK SMILES IDX 3 1 5 2 6 3 2 5 1 6 4 8
REMARK H PARENT 6 4 1 7 4 9
REMARK Flexibility Score: inf
ROOT
ATOM      1  C   UNL     1     159.752 161.764 168.316  1.00  0.00     0.165 C 
ENDROOT
BRANCH   1   2
ATOM      2  C   UNL     1     159.154 161.121 169.577  1.00  0.00     0.190 C 
BRANCH   2   3
ATOM      3  O   UNL     1     158.875 162.101 170.541  1.00  0.00    -0.394 OA
ATOM      4  H   UNL     1     158.891 161.649 171.424  1.00  0.00     0.210 HD
ENDBRANCH   2   3
ENDBRANCH   1   2
BRANCH   1   5
ATOM      5  C   UNL     1     161.180 162.246 168.585  1.00  0.00     0.190 C 
BRANCH   5   6
ATOM      6  O   UNL     1     161.147 163.534 169.137  1.00  0.00    -0.394 OA
ATOM      7  H   UNL     1     161.001 163.414 170.111  1.00  0.00     0.210 HD
ENDBRANCH   5   6
ENDBRANCH   1   5
BRANCH   1   8
ATOM      8  O   UNL     1     158.966 162.858 167.917  1.00  0.00    -0.388 OA
ATOM      9  H   UNL     1     159.008 162.899 166.926  1.00  0.00     0.211 HD
ENDBRANCH   1   8
TORSDOF 5
ENDMDL
MODEL 9
REMARK VINA RESULT:    -3.070     10.512     11.697
REMARK INTER + INTRA:          -3.917
REMARK INTER:                  -3.700
REMARK INTRA:                  -0.217
REMARK UNBOUND:                -0.219
REMARK SMILES OCC(O)CO
REMARK SMILES IDX 3 1 5 2 6 3 2 5 1 6 4 8
REMARK H PARENT 6 4 1 7 4 9
REMARK Flexibility Score: inf
ROOT
ATOM      1  C   UNL     1     161.033 162.301 168.800  1.00  0.00     0.165 C 
ENDROOT
BRANCH   1   2
ATOM      2  C   UNL     1     160.104 162.230 167.578  1.00  0.00     0.190 C 
BRANCH   2   3
ATOM      3  O   UNL     1     159.047 163.140 167.713  1.00  0.00    -0.394 OA
ATOM      4  H   UNL     1     159.207 163.645 168.552  1.00  0.00     0.210 HD
ENDBRANCH   2   3
ENDBRANCH   1   2
BRANCH   1   5
ATOM      5  C   UNL     1     160.446 161.503 169.967  1.00  0.00     0.190 C 
BRANCH   5   6
ATOM      6  O   UNL     1     159.201 162.037 170.326  1.00  0.00    -0.394 OA
ATOM      7  H   UNL     1     159.155 162.935 169.907  1.00  0.00     0.210 HD
ENDBRANCH   5   6
ENDBRANCH   1   5
BRANCH   1   8
ATOM      8  O   UNL     1     161.200 163.638 169.197  1.00  0.00    -0.388 OA
ATOM      9  H   UNL     1     162.171 163.778 169.347  1.00  0.00     0.211 HD
ENDBRANCH   1   8
TORSDOF 5
ENDMDL
