MODEL 1
REMARK VINA RESULT:    -4.230      0.000      0.000
REMARK INTER + INTRA:          -8.746
REMARK INTER:                  -7.692
REMARK INTRA:                  -1.054
REMARK UNBOUND:                -1.054
REMARK SMILES CCCCCC=CCC=CCCCCCCCC(=O)[O-]
REMARK SMILES IDX 11 1 12 2 13 3 14 4 15 5 16 6 17 7 18 8 19 9 20 10 10 11
REMARK SMILES IDX 9 12 8 13 7 14 6 15 5 16 4 17 3 18 2 19 1 20
REMARK H PARENT
REMARK Flexibility Score: inf
ROOT
ATOM      1  C   UNL     1      60.809  21.129  48.557  1.00  0.00     0.027 C 
ENDROOT
BRANCH   1   2
ATOM      2  C   UNL     1      59.983  20.069  49.296  1.00  0.00     0.004 C 
BRANCH   2   3
ATOM      3  C   UNL     1      60.724  19.571  50.546  1.00  0.00     0.000 C 
BRANCH   3   4
ATOM      4  C   UNL     1      59.908  18.547  51.352  1.00  0.00     0.000 C 
BRANCH   4   5
ATOM      5  C   UNL     1      59.847  17.171  50.667  1.00  0.00     0.000 C 
BRANCH   5   6
ATOM      6  C   UNL     1      58.421  16.589  50.614  1.00  0.00     0.006 C 
BRANCH   6   7
ATOM      7  C   UNL     1      57.472  17.344  49.667  1.00  0.00     0.053 C 
BRANCH   7   8
ATOM      8  C   UNL     1      56.332  17.996  50.386  1.00  0.00     0.041 C 
ATOM      9  O   UNL     1      55.369  18.483  49.738  1.00  0.00    -0.550 OA
ATOM     10  O   UNL     1      56.342  18.084  51.771  1.00  0.00    -0.550 OA
ENDBRANCH   7   8
ENDBRANCH   6   7
ENDBRANCH   5   6
ENDBRANCH   4   5
ENDBRANCH   3   4
ENDBRANCH   2   3
ENDBRANCH   1   2
BRANCH   1  11
ATOM     11  C   UNL     1      61.664  21.918  49.514  1.00  0.00    -0.031 C 
ATOM     12  C   UNL     1      61.342  23.123  50.020  1.00  0.00    -0.027 C 
BRANCH  12  13
ATOM     13  C   UNL     1      60.051  23.860  49.755  1.00  0.00     0.054 C 
BRANCH  13  14
ATOM     14  C   UNL     1      60.334  25.293  49.412  1.00  0.00    -0.027 C 
ATOM     15  C   UNL     1      59.365  26.114  48.978  1.00  0.00    -0.031 C 
BRANCH  15  16
ATOM     16  C   UNL     1      59.647  27.547  48.624  1.00  0.00     0.027 C 
BRANCH  16  17
ATOM     17  C   UNL     1      58.395  28.416  48.794  1.00  0.00     0.004 C 
BRANCH  17  18
ATOM     18  C   UNL     1      57.780  28.229  50.186  1.00  0.00     0.000 C 
BRANCH  18  19
ATOM     19  C   UNL     1      56.820  29.376  50.521  1.00  0.00    -0.003 C 
ATOM     20  C   UNL     1      55.437  29.129  49.923  1.00  0.00     0.004 C 
ENDBRANCH  18  19
ENDBRANCH  17  18
ENDBRANCH  16  17
ENDBRANCH  15  16
ENDBRANCH  13  14
ENDBRANCH  12  13
ENDBRANCH   1  11
TORSDOF 14
ENDMDL
MODEL 2
REMARK VINA RESULT:    -4.138      4.580      7.870
REMARK INTER + INTRA:          -8.579
REMARK INTER:                  -5.808
REMARK INTRA:                  -2.771
REMARK UNBOUND:                -1.054
REMARK SMILES CCCCCC=CCC=CCCCCCCCC(=O)[O-]
REMARK SMILES IDX 11 1 12 2 13 3 14 4 15 5 16 6 17 7 18 8 19 9 20 10 10 11
REMARK SMILES IDX 9 12 8 13 7 14 6 15 5 16 4 17 3 18 2 19 1 20
REMARK H PARENT
REMARK Flexibility Score: inf
ROOT
ATOM      1  C   UNL     1      59.419  16.203  51.634  1.00  0.00     0.027 C 
ENDROOT
BRANCH   1   2
ATOM      2  C   UNL     1      59.171  16.952  52.949  1.00  0.00     0.004 C 
BRANCH   2   3
ATOM      3  C   UNL     1      59.952  18.274  52.981  1.00  0.00     0.000 C 
BRANCH   3   4
ATOM      4  C   UNL     1      59.047  19.492  53.232  1.00  0.00     0.000 C 
BRANCH   4   5
ATOM      5  C   UNL     1      58.885  20.374  51.982  1.00  0.00     0.000 C 
BRANCH   5   6
ATOM      6  C   UNL     1      60.222  20.951  51.476  1.00  0.00     0.006 C 
BRANCH   6   7
ATOM      7  C   UNL     1      60.378  20.916  49.946  1.00  0.00     0.053 C 
BRANCH   7   8
ATOM      8  C   UNL     1      61.024  22.152  49.401  1.00  0.00     0.041 C 
ATOM      9  O   UNL     1      60.387  23.238  49.366  1.00  0.00    -0.550 OA
ATOM     10  O   UNL     1      62.323  22.101  48.912  1.00  0.00    -0.550 OA
ENDBRANCH   7   8
ENDBRANCH   6   7
ENDBRANCH   5   6
ENDBRANCH   4   5
ENDBRANCH   3   4
ENDBRANCH   2   3
ENDBRANCH   1   2
BRANCH   1  11
ATOM     11  C   UNL     1      59.750  17.159  50.517  1.00  0.00    -0.031 C 
ATOM     12  C   UNL     1      58.896  17.534  49.546  1.00  0.00    -0.027 C 
BRANCH  12  13
ATOM     13  C   UNL     1      57.453  17.102  49.444  1.00  0.00     0.054 C 
BRANCH  13  14
ATOM     14  C   UNL     1      56.553  18.171  49.991  1.00  0.00    -0.027 C 
ATOM     15  C   UNL     1      56.098  18.126  51.253  1.00  0.00    -0.031 C 
BRANCH  15  16
ATOM     16  C   UNL     1      55.188  19.190  51.800  1.00  0.00     0.027 C 
BRANCH  16  17
ATOM     17  C   UNL     1      54.744  18.856  53.230  1.00  0.00     0.004 C 
BRANCH  17  18
ATOM     18  C   UNL     1      55.767  17.952  53.927  1.00  0.00     0.000 C 
BRANCH  18  19
ATOM     19  C   UNL     1      55.072  16.959  54.866  1.00  0.00    -0.003 C 
ATOM     20  C   UNL     1      53.564  16.941  54.631  1.00  0.00     0.004 C 
ENDBRANCH  18  19
ENDBRANCH  17  18
ENDBRANCH  16  17
ENDBRANCH  15  16
ENDBRANCH  13  14
ENDBRANCH  12  13
ENDBRANCH   1  11
TORSDOF 14
ENDMDL
MODEL 3
REMARK VINA RESULT:    -4.103      1.571      2.422
REMARK INTER + INTRA:          -8.515
REMARK INTER:                  -7.386
REMARK INTRA:                  -1.130
REMARK UNBOUND:                -1.054
REMARK SMILES CCCCCC=CCC=CCCCCCCCC(=O)[O-]
REMARK SMILES IDX 11 1 12 2 13 3 14 4 15 5 16 6 17 7 18 8 19 9 20 10 10 11
REMARK SMILES IDX 9 12 8 13 7 14 6 15 5 16 4 17 3 18 2 19 1 20
REMARK H PARENT
REMARK Flexibility Score: inf
ROOT
ATOM      1  C   UNL     1      59.980  20.117  50.326  1.00  0.00     0.027 C 
ENDROOT
BRANCH   1   2
ATOM      2  C   UNL     1      59.750  18.601  50.366  1.00  0.00     0.004 C 
BRANCH   2   3
ATOM      3  C   UNL     1      58.978  18.131  49.125  1.00  0.00     0.000 C 
BRANCH   3   4
ATOM      4  C   UNL     1      57.765  17.253  49.475  1.00  0.00     0.000 C 
BRANCH   4   5
ATOM      5  C   UNL     1      56.533  18.083  49.877  1.00  0.00     0.000 C 
BRANCH   5   6
ATOM      6  C   UNL     1      56.219  18.000  51.383  1.00  0.00     0.006 C 
BRANCH   6   7
ATOM      7  C   UNL     1      56.049  19.370  52.063  1.00  0.00     0.053 C 
BRANCH   7   8
ATOM      8  C   UNL     1      54.650  19.610  52.541  1.00  0.00     0.041 C 
ATOM      9  O   UNL     1      53.904  20.425  51.938  1.00  0.00    -0.550 OA
ATOM     10  O   UNL     1      54.177  18.949  53.667  1.00  0.00    -0.550 OA
ENDBRANCH   7   8
ENDBRANCH   6   7
ENDBRANCH   5   6
ENDBRANCH   4   5
ENDBRANCH   3   4
ENDBRANCH   2   3
ENDBRANCH   1   2
BRANCH   1  11
ATOM     11  C   UNL     1      60.505  20.551  48.983  1.00  0.00    -0.031 C 
ATOM     12  C   UNL     1      60.974  21.782  48.700  1.00  0.00    -0.027 C 
BRANCH  12  13
ATOM     13  C   UNL     1      61.100  22.912  49.693  1.00  0.00     0.054 C 
BRANCH  13  14
ATOM     14  C   UNL     1      59.996  23.907  49.488  1.00  0.00    -0.027 C 
ATOM     15  C   UNL     1      60.253  25.212  49.306  1.00  0.00    -0.031 C 
BRANCH  15  16
ATOM     16  C   UNL     1      59.148  26.212  49.110  1.00  0.00     0.027 C 
BRANCH  16  17
ATOM     17  C   UNL     1      57.801  25.649  49.581  1.00  0.00     0.004 C 
BRANCH  17  18
ATOM     18  C   UNL     1      56.927  26.753  50.188  1.00  0.00     0.000 C 
BRANCH  18  19
ATOM     19  C   UNL     1      57.281  28.122  49.597  1.00  0.00    -0.003 C 
ATOM     20  C   UNL     1      56.495  29.237  50.279  1.00  0.00     0.004 C 
ENDBRANCH  18  19
ENDBRANCH  17  18
ENDBRANCH  16  17
ENDBRANCH  15  16
ENDBRANCH  13  14
ENDBRANCH  12  13
ENDBRANCH   1  11
TORSDOF 14
ENDMDL
MODEL 4
REMARK VINA RESULT:    -4.087      1.436      2.557
REMARK INTER + INTRA:          -8.486
REMARK INTER:                  -6.710
REMARK INTRA:                  -1.775
REMARK UNBOUND:                -1.054
REMARK SMILES CCCCCC=CCC=CCCCCCCCC(=O)[O-]
REMARK SMILES IDX 11 1 12 2 13 3 14 4 15 5 16 6 17 7 18 8 19 9 20 10 10 11
REMARK SMILES IDX 9 12 8 13 7 14 6 15 5 16 4 17 3 18 2 19 1 20
REMARK H PARENT
REMARK Flexibility Score: inf
ROOT
ATOM      1  C   UNL     1      60.333  20.378  50.983  1.00  0.00     0.027 C 
ENDROOT
BRANCH   1   2
ATOM      2  C   UNL     1      61.028  19.108  51.490  1.00  0.00     0.004 C 
BRANCH   2   3
ATOM      3  C   UNL     1      59.997  18.033  51.864  1.00  0.00     0.000 C 
BRANCH   3   4
ATOM      4  C   UNL     1      59.765  17.014  50.735  1.00  0.00     0.000 C 
BRANCH   4   5
ATOM      5  C   UNL     1      58.274  16.711  50.511  1.00  0.00     0.000 C 
BRANCH   5   6
ATOM      6  C   UNL     1      57.565  17.782  49.659  1.00  0.00     0.006 C 
BRANCH   6   7
ATOM      7  C   UNL     1      56.184  18.195  50.197  1.00  0.00     0.053 C 
BRANCH   7   8
ATOM      8  C   UNL     1      56.232  18.665  51.618  1.00  0.00     0.041 C 
ATOM      9  O   UNL     1      55.527  18.102  52.496  1.00  0.00    -0.550 OA
ATOM     10  O   UNL     1      57.039  19.738  51.969  1.00  0.00    -0.550 OA
ENDBRANCH   7   8
ENDBRANCH   6   7
ENDBRANCH   5   6
ENDBRANCH   4   5
ENDBRANCH   3   4
ENDBRANCH   2   3
ENDBRANCH   1   2
BRANCH   1  11
ATOM     11  C   UNL     1      60.459  20.506  49.487  1.00  0.00    -0.031 C 
ATOM     12  C   UNL     1      60.795  21.637  48.836  1.00  0.00    -0.027 C 
BRANCH  12  13
ATOM     13  C   UNL     1      61.151  22.946  49.497  1.00  0.00     0.054 C 
BRANCH  13  14
ATOM     14  C   UNL     1      59.938  23.824  49.596  1.00  0.00    -0.027 C 
ATOM     15  C   UNL     1      59.305  24.015  50.764  1.00  0.00    -0.031 C 
BRANCH  15  16
ATOM     16  C   UNL     1      58.084  24.886  50.864  1.00  0.00     0.027 C 
BRANCH  16  17
ATOM     17  C   UNL     1      57.880  25.704  49.582  1.00  0.00     0.004 C 
BRANCH  17  18
ATOM     18  C   UNL     1      58.330  27.156  49.780  1.00  0.00     0.000 C 
BRANCH  18  19
ATOM     19  C   UNL     1      59.312  27.581  48.683  1.00  0.00    -0.003 C 
ATOM     20  C   UNL     1      60.758  27.442  49.152  1.00  0.00     0.004 C 
ENDBRANCH  18  19
ENDBRANCH  17  18
ENDBRANCH  16  17
ENDBRANCH  15  16
ENDBRANCH  13  14
ENDBRANCH  12  13
ENDBRANCH   1  11
TORSDOF 14
ENDMDL
MODEL 5
REMARK VINA RESULT:    -4.066      2.770      8.398
REMARK INTER + INTRA:          -8.446
REMARK INTER:                  -7.163
REMARK INTRA:                  -1.284
REMARK UNBOUND:                -1.054
REMARK SMILES CCCCCC=CCC=CCCCCCCCC(=O)[O-]
REMARK SMILES IDX 11 1 12 2 13 3 14 4 15 5 16 6 17 7 18 8 19 9 20 10 10 11
REMARK SMILES IDX 9 12 8 13 7 14 6 15 5 16 4 17 3 18 2 19 1 20
REMARK H PARENT
REMARK Flexibility Score: inf
ROOT
ATOM      1  C   UNL     1      59.946  24.920  49.429  1.00  0.00     0.027 C 
ENDROOT
BRANCH   1   2
ATOM      2  C   UNL     1      61.247  25.732  49.372  1.00  0.00     0.004 C 
BRANCH   2   3
ATOM      3  C   UNL     1      60.954  27.218  49.121  1.00  0.00     0.000 C 
BRANCH   3   4
ATOM      4  C   UNL     1      59.526  27.463  48.607  1.00  0.00     0.000 C 
BRANCH   4   5
ATOM      5  C   UNL     1      58.819  28.607  49.354  1.00  0.00     0.000 C 
BRANCH   5   6
ATOM      6  C   UNL     1      57.329  28.318  49.624  1.00  0.00     0.006 C 
BRANCH   6   7
ATOM      7  C   UNL     1      56.987  26.820  49.699  1.00  0.00     0.053 C 
BRANCH   7   8
ATOM      8  C   UNL     1      56.678  26.364  51.092  1.00  0.00     0.041 C 
ATOM      9  O   UNL     1      56.760  25.145  51.393  1.00  0.00    -0.550 OA
ATOM     10  O   UNL     1      56.278  27.284  52.052  1.00  0.00    -0.550 OA
ENDBRANCH   7   8
ENDBRANCH   6   7
ENDBRANCH   5   6
ENDBRANCH   4   5
ENDBRANCH   3   4
ENDBRANCH   2   3
ENDBRANCH   1   2
BRANCH   1  11
ATOM     11  C   UNL     1      60.004  23.874  50.512  1.00  0.00    -0.031 C 
ATOM     12  C   UNL     1      60.526  22.641  50.364  1.00  0.00    -0.027 C 
BRANCH  12  13
ATOM     13  C   UNL     1      61.184  22.121  49.109  1.00  0.00     0.054 C 
BRANCH  13  14
ATOM     14  C   UNL     1      60.480  20.887  48.628  1.00  0.00    -0.027 C 
ATOM     15  C   UNL     1      60.023  19.961  49.486  1.00  0.00    -0.031 C 
BRANCH  15  16
ATOM     16  C   UNL     1      59.326  18.719  49.006  1.00  0.00     0.027 C 
BRANCH  16  17
ATOM     17  C   UNL     1      59.032  17.764  50.170  1.00  0.00     0.004 C 
BRANCH  17  18
ATOM     18  C   UNL     1      57.764  16.945  49.902  1.00  0.00     0.000 C 
BRANCH  18  19
ATOM     19  C   UNL     1      56.506  17.761  50.219  1.00  0.00    -0.003 C 
ATOM     20  C   UNL     1      56.646  18.496  51.550  1.00  0.00     0.004 C 
ENDBRANCH  18  19
ENDBRANCH  17  18
ENDBRANCH  16  17
ENDBRANCH  15  16
ENDBRANCH  13  14
ENDBRANCH  12  13
ENDBRANCH   1  11
TORSDOF 14
ENDMDL
MODEL 6
REMARK VINA RESULT:    -4.035     14.922     16.930
REMARK INTER + INTRA:          -8.391
REMARK INTER:                  -7.013
REMARK INTRA:                  -1.378
REMARK UNBOUND:                -1.054
REMARK SMILES CCCCCC=CCC=CCCCCCCCC(=O)[O-]
REMARK SMILES IDX 11 1 12 2 13 3 14 4 15 5 16 6 17 7 18 8 19 9 20 10 10 11
REMARK SMILES IDX 9 12 8 13 7 14 6 15 5 16 4 17 3 18 2 19 1 20
REMARK H PARENT
REMARK Flexibility Score: inf
ROOT
ATOM      1  C   UNL     1      68.922  27.558  60.468  1.00  0.00     0.027 C 
ENDROOT
BRANCH   1   2
ATOM      2  C   UNL     1      69.730  28.546  61.317  1.00  0.00     0.004 C 
BRANCH   2   3
ATOM      3  C   UNL     1      71.223  28.476  60.966  1.00  0.00     0.000 C 
BRANCH   3   4
ATOM      4  C   UNL     1      71.939  29.826  61.142  1.00  0.00     0.000 C 
BRANCH   4   5
ATOM      5  C   UNL     1      72.790  30.207  59.919  1.00  0.00     0.000 C 
BRANCH   5   6
ATOM      6  C   UNL     1      71.950  30.410  58.643  1.00  0.00     0.006 C 
BRANCH   6   7
ATOM      7  C   UNL     1      70.689  31.265  58.855  1.00  0.00     0.053 C 
BRANCH   7   8
ATOM      8  C   UNL     1      70.991  32.729  58.960  1.00  0.00     0.041 C 
ATOM      9  O   UNL     1      71.314  33.232  60.068  1.00  0.00    -0.550 OA
ATOM     10  O   UNL     1      70.895  33.541  57.838  1.00  0.00    -0.550 OA
ENDBRANCH   7   8
ENDBRANCH   6   7
ENDBRANCH   5   6
ENDBRANCH   4   5
ENDBRANCH   3   4
ENDBRANCH   2   3
ENDBRANCH   1   2
BRANCH   1  11
ATOM     11  C   UNL     1      68.320  28.239  59.266  1.00  0.00    -0.031 C 
ATOM     12  C   UNL     1      67.009  28.245  58.961  1.00  0.00    -0.027 C 
BRANCH  12  13
ATOM     13  C   UNL     1      65.919  27.618  59.796  1.00  0.00     0.054 C 
BRANCH  13  14
ATOM     14  C   UNL     1      64.899  28.651  60.178  1.00  0.00    -0.027 C 
ATOM     15  C   UNL     1      65.111  29.958  59.959  1.00  0.00    -0.031 C 
BRANCH  15  16
ATOM     16  C   UNL     1      64.095  30.996  60.349  1.00  0.00     0.027 C 
BRANCH  16  17
ATOM     17  C   UNL     1      63.374  31.555  59.117  1.00  0.00     0.004 C 
BRANCH  17  18
ATOM     18  C   UNL     1      63.263  33.083  59.191  1.00  0.00     0.000 C 
BRANCH  18  19
ATOM     19  C   UNL     1      64.416  33.678  60.008  1.00  0.00    -0.003 C 
ATOM     20  C   UNL     1      63.906  34.708  61.012  1.00  0.00     0.004 C 
ENDBRANCH  18  19
ENDBRANCH  17  18
ENDBRANCH  16  17
ENDBRANCH  15  16
ENDBRANCH  13  14
ENDBRANCH  12  13
ENDBRANCH   1  11
TORSDOF 14
ENDMDL
MODEL 7
REMARK VINA RESULT:    -4.005     12.810     15.910
REMARK INTER + INTRA:          -8.337
REMARK INTER:                  -6.339
REMARK INTRA:                  -1.998
REMARK UNBOUND:                -1.054
REMARK SMILES CCCCCC=CCC=CCCCCCCCC(=O)[O-]
REMARK SMILES IDX 11 1 12 2 13 3 14 4 15 5 16 6 17 7 18 8 19 9 20 10 10 11
REMARK SMILES IDX 9 12 8 13 7 14 6 15 5 16 4 17 3 18 2 19 1 20
REMARK H PARENT
REMARK Flexibility Score: inf
ROOT
ATOM      1  C   UNL     1      61.857  28.978  61.136  1.00  0.00     0.027 C 
ENDROOT
BRANCH   1   2
ATOM      2  C   UNL     1      63.309  29.456  61.008  1.00  0.00     0.004 C 
BRANCH   2   3
ATOM      3  C   UNL     1      63.462  30.433  59.833  1.00  0.00     0.000 C 
BRANCH   3   4
ATOM      4  C   UNL     1      64.160  31.743  60.237  1.00  0.00     0.000 C 
BRANCH   4   5
ATOM      5  C   UNL     1      64.155  32.787  59.108  1.00  0.00     0.000 C 
BRANCH   5   6
ATOM      6  C   UNL     1      64.093  34.236  59.629  1.00  0.00     0.006 C 
BRANCH   6   7
ATOM      7  C   UNL     1      64.539  34.393  61.093  1.00  0.00     0.053 C 
BRANCH   7   8
ATOM      8  C   UNL     1      63.668  35.333  61.868  1.00  0.00     0.041 C 
ATOM      9  O   UNL     1      64.019  35.727  63.011  1.00  0.00    -0.550 OA
ATOM     10  O   UNL     1      62.459  35.759  61.335  1.00  0.00    -0.550 OA
ENDBRANCH   7   8
ENDBRANCH   6   7
ENDBRANCH   5   6
ENDBRANCH   4   5
ENDBRANCH   3   4
ENDBRANCH   2   3
ENDBRANCH   1   2
BRANCH   1  11
ATOM     11  C   UNL     1      61.080  29.255  59.875  1.00  0.00    -0.031 C 
ATOM     12  C   UNL     1      59.963  28.603  59.501  1.00  0.00    -0.027 C 
BRANCH  12  13
ATOM     13  C   UNL     1      59.275  27.527  60.304  1.00  0.00     0.054 C 
BRANCH  13  14
ATOM     14  C   UNL     1      59.919  26.196  60.046  1.00  0.00    -0.027 C 
ATOM     15  C   UNL     1      60.500  25.495  61.033  1.00  0.00    -0.031 C 
BRANCH  15  16
ATOM     16  C   UNL     1      61.154  24.167  60.775  1.00  0.00     0.027 C 
BRANCH  16  17
ATOM     17  C   UNL     1      62.482  24.339  60.027  1.00  0.00     0.004 C 
BRANCH  17  18
ATOM     18  C   UNL     1      63.293  25.503  60.608  1.00  0.00     0.000 C 
BRANCH  18  19
ATOM     19  C   UNL     1      64.065  26.239  59.507  1.00  0.00    -0.003 C 
ATOM     20  C   UNL     1      63.166  26.540  58.311  1.00  0.00     0.004 C 
ENDBRANCH  18  19
ENDBRANCH  17  18
ENDBRANCH  16  17
ENDBRANCH  15  16
ENDBRANCH  13  14
ENDBRANCH  12  13
ENDBRANCH   1  11
TORSDOF 14
ENDMDL
MODEL 8
REMARK VINA RESULT:    -3.976      5.820      8.899
REMARK INTER + INTRA:          -8.284
REMARK INTER:                  -5.499
REMARK INTRA:                  -2.785
REMARK UNBOUND:                -1.054
REMARK SMILES CCCCCC=CCC=CCCCCCCCC(=O)[O-]
REMARK SMILES IDX 11 1 12 2 13 3 14 4 15 5 16 6 17 7 18 8 19 9 20 10 10 11
REMARK SMILES IDX 9 12 8 13 7 14 6 15 5 16 4 17 3 18 2 19 1 20
REMARK H PARENT
REMARK Flexibility Score: inf
ROOT
ATOM      1  C   UNL     1      57.572  28.627  49.578  1.00  0.00     0.027 C 
ENDROOT
BRANCH   1   2
ATOM      2  C   UNL     1      58.738  28.444  48.599  1.00  0.00     0.004 C 
BRANCH   2   3
ATOM      3  C   UNL     1      60.082  28.435  49.343  1.00  0.00     0.000 C 
BRANCH   3   4
ATOM      4  C   UNL     1      61.038  27.346  48.828  1.00  0.00     0.000 C 
BRANCH   4   5
ATOM      5  C   UNL     1      62.511  27.788  48.867  1.00  0.00     0.000 C 
BRANCH   5   6
ATOM      6  C   UNL     1      63.483  26.681  48.413  1.00  0.00     0.006 C 
BRANCH   6   7
ATOM      7  C   UNL     1      64.935  27.158  48.236  1.00  0.00     0.053 C 
BRANCH   7   8
ATOM      8  C   UNL     1      65.201  27.714  46.871  1.00  0.00     0.041 C 
ATOM      9  O   UNL     1      65.047  28.942  46.645  1.00  0.00    -0.550 OA
ATOM     10  O   UNL     1      65.600  26.870  45.842  1.00  0.00    -0.550 OA
ENDBRANCH   7   8
ENDBRANCH   6   7
ENDBRANCH   5   6
ENDBRANCH   4   5
ENDBRANCH   3   4
ENDBRANCH   2   3
ENDBRANCH   1   2
BRANCH   1  11
ATOM     11  C   UNL     1      57.895  28.033  50.925  1.00  0.00    -0.031 C 
ATOM     12  C   UNL     1      57.654  26.758  51.282  1.00  0.00    -0.027 C 
BRANCH  12  13
ATOM     13  C   UNL     1      57.070  25.698  50.379  1.00  0.00     0.054 C 
BRANCH  13  14
ATOM     14  C   UNL     1      58.165  24.980  49.647  1.00  0.00    -0.027 C 
ATOM     15  C   UNL     1      59.207  24.441  50.299  1.00  0.00    -0.031 C 
BRANCH  15  16
ATOM     16  C   UNL     1      60.311  23.729  49.568  1.00  0.00     0.027 C 
BRANCH  16  17
ATOM     17  C   UNL     1      61.671  23.991  50.227  1.00  0.00     0.004 C 
BRANCH  17  18
ATOM     18  C   UNL     1      61.500  24.421  51.689  1.00  0.00     0.000 C 
BRANCH  18  19
ATOM     19  C   UNL     1      62.217  25.748  51.959  1.00  0.00    -0.003 C 
ATOM     20  C   UNL     1      61.242  26.811  52.455  1.00  0.00     0.004 C 
ENDBRANCH  18  19
ENDBRANCH  17  18
ENDBRANCH  16  17
ENDBRANCH  15  16
ENDBRANCH  13  14
ENDBRANCH  12  13
ENDBRANCH   1  11
TORSDOF 14
ENDMDL
MODEL 9
REMARK VINA RESULT:    -3.950      4.138      8.065
REMARK INTER + INTRA:          -8.237
REMARK INTER:                  -5.955
REMARK INTRA:                  -2.282
REMARK UNBOUND:                -1.054
REMARK SMILES CCCCCC=CCC=CCCCCCCCC(=O)[O-]
REMARK SMILES IDX 11 1 12 2 13 3 14 4 15 5 16 6 17 7 18 8 19 9 20 10 10 11
REMARK SMILES IDX 9 12 8 13 7 14 6 15 5 16 4 17 3 18 2 19 1 20
REMARK H PARENT
REMARK Flexibility Score: inf
ROOT
ATOM      1  C   UNL     1      60.297  17.580  50.980  1.00  0.00     0.027 C 
ENDROOT
BRANCH   1   2
ATOM      2  C   UNL     1      59.983  18.800  51.855  1.00  0.00     0.004 C 
BRANCH   2   3
ATOM      3  C   UNL     1      59.601  20.010  50.992  1.00  0.00     0.000 C 
BRANCH   3   4
ATOM      4  C   UNL     1      60.088  19.881  49.539  1.00  0.00     0.000 C 
BRANCH   4   5
ATOM      5  C   UNL     1      60.689  21.190  48.999  1.00  0.00     0.000 C 
BRANCH   5   6
ATOM      6  C   UNL     1      61.622  21.884  50.011  1.00  0.00     0.006 C 
BRANCH   6   7
ATOM      7  C   UNL     1      62.372  23.099  49.438  1.00  0.00     0.053 C 
BRANCH   7   8
ATOM      8  C   UNL     1      61.741  24.403  49.818  1.00  0.00     0.041 C 
ATOM      9  O   UNL     1      60.640  24.746  49.313  1.00  0.00    -0.550 OA
ATOM     10  O   UNL     1      62.379  25.249  50.715  1.00  0.00    -0.550 OA
ENDBRANCH   7   8
ENDBRANCH   6   7
ENDBRANCH   5   6
ENDBRANCH   4   5
ENDBRANCH   3   4
ENDBRANCH   2   3
ENDBRANCH   1   2
BRANCH   1  11
ATOM     11  C   UNL     1      59.323  16.460  51.239  1.00  0.00    -0.031 C 
ATOM     12  C   UNL     1      58.192  16.246  50.540  1.00  0.00    -0.027 C 
BRANCH  12  13
ATOM     13  C   UNL     1      57.738  17.057  49.351  1.00  0.00     0.054 C 
BRANCH  13  14
ATOM     14  C   UNL     1      56.768  18.116  49.787  1.00  0.00    -0.027 C 
ATOM     15  C   UNL     1      55.991  17.953  50.870  1.00  0.00    -0.031 C 
BRANCH  15  16
ATOM     16  C   UNL     1      55.012  19.008  51.302  1.00  0.00     0.027 C 
BRANCH  16  17
ATOM     17  C   UNL     1      55.295  19.471  52.737  1.00  0.00     0.004 C 
BRANCH  17  18
ATOM     18  C   UNL     1      55.552  18.274  53.661  1.00  0.00     0.000 C 
BRANCH  18  19
ATOM     19  C   UNL     1      56.960  18.338  54.263  1.00  0.00    -0.003 C 
ATOM     20  C   UNL     1      57.572  16.945  54.382  1.00  0.00     0.004 C 
ENDBRANCH  18  19
ENDBRANCH  17  18
ENDBRANCH  16  17
ENDBRANCH  15  16
ENDBRANCH  13  14
ENDBRANCH  12  13
ENDBRANCH   1  11
TORSDOF 14
ENDMDL
