MODEL 1
REMARK VINA RESULT:    -3.771      0.000      0.000
REMARK INTER + INTRA:          -3.771
REMARK INTER:                  -3.771
REMARK INTRA:                   0.000
REMARK UNBOUND:                 0.000
REMARK SMILES O=c1ccc2ccccc2o1
REMARK SMILES IDX 7 1 8 2 9 3 10 4 5 5 6 6 4 7 3 8 2 9 1 10 11 11
REMARK H PARENT
REMARK Flexibility Score: inf
ROOT
ATOM      1  C   UNL     1     149.955 144.061 158.333  1.00  0.00     0.001 A 
ATOM      2  C   UNL     1     150.787 143.875 159.443  1.00  0.00     0.004 A 
ATOM      3  C   UNL     1     150.358 144.262 160.717  1.00  0.00     0.048 A 
ATOM      4  C   UNL     1     149.093 144.836 160.886  1.00  0.00     0.138 A 
ATOM      5  C   UNL     1     148.252 145.024 159.765  1.00  0.00     0.018 A 
ATOM      6  C   UNL     1     148.688 144.634 158.491  1.00  0.00     0.012 A 
ATOM      7  C   UNL     1     146.993 145.599 159.965  1.00  0.00     0.019 A 
ATOM      8  C   UNL     1     146.608 145.970 161.254  1.00  0.00     0.094 A 
ATOM      9  C   UNL     1     147.493 145.754 162.316  1.00  0.00     0.336 A 
ATOM     10  O   UNL     1     147.162 146.081 163.485  1.00  0.00    -0.246 OA
ATOM     11  O   UNL     1     148.685 145.204 162.098  1.00  0.00    -0.423 OA
ENDROOT
TORSDOF 0
ENDMDL
MODEL 2
REMARK VINA RESULT:    -3.716      1.376      2.284
REMARK INTER + INTRA:          -3.716
REMARK INTER:                  -3.716
REMARK INTRA:                   0.000
REMARK UNBOUND:                 0.000
REMARK SMILES O=c1ccc2ccccc2o1
REMARK SMILES IDX 7 1 8 2 9 3 10 4 5 5 6 6 4 7 3 8 2 9 1 10 11 11
REMARK H PARENT
REMARK Flexibility Score: inf
ROOT
ATOM      1  C   UNL     1     149.152 144.177 158.778  1.00  0.00     0.001 A 
ATOM      2  C   UNL     1     148.248 145.090 158.224  1.00  0.00     0.004 A 
ATOM      3  C   UNL     1     147.349 145.779 159.045  1.00  0.00     0.048 A 
ATOM      4  C   UNL     1     147.352 145.557 160.427  1.00  0.00     0.138 A 
ATOM      5  C   UNL     1     148.265 144.635 160.988  1.00  0.00     0.018 A 
ATOM      6  C   UNL     1     149.163 143.948 160.159  1.00  0.00     0.012 A 
ATOM      7  C   UNL     1     148.245 144.435 162.372  1.00  0.00     0.019 A 
ATOM      8  C   UNL     1     147.332 145.144 163.152  1.00  0.00     0.094 A 
ATOM      9  C   UNL     1     146.458 146.040 162.528  1.00  0.00     0.336 A 
ATOM     10  O   UNL     1     145.627 146.689 163.216  1.00  0.00    -0.246 OA
ATOM     11  O   UNL     1     146.497 146.212 161.209  1.00  0.00    -0.423 OA
ENDROOT
TORSDOF 0
ENDMDL
MODEL 3
REMARK VINA RESULT:    -3.444     13.907     15.008
REMARK INTER + INTRA:          -3.444
REMARK INTER:                  -3.444
REMARK INTRA:                   0.000
REMARK UNBOUND:                 0.000
REMARK SMILES O=c1ccc2ccccc2o1
REMARK SMILES IDX 7 1 8 2 9 3 10 4 5 5 6 6 4 7 3 8 2 9 1 10 11 11
REMARK H PARENT
REMARK Flexibility Score: inf
ROOT
ATOM      1  C   UNL     1     147.873 162.189 160.425  1.00  0.00     0.001 A 
ATOM      2  C   UNL     1     148.813 161.237 160.013  1.00  0.00     0.004 A 
ATOM      3  C   UNL     1     148.706 159.911 160.443  1.00  0.00     0.048 A 
ATOM      4  C   UNL     1     147.657 159.530 161.287  1.00  0.00     0.138 A 
ATOM      5  C   UNL     1     146.707 160.491 161.703  1.00  0.00     0.018 A 
ATOM      6  C   UNL     1     146.820 161.819 161.269  1.00  0.00     0.012 A 
ATOM      7  C   UNL     1     145.669 160.080 162.546  1.00  0.00     0.019 A 
ATOM      8  C   UNL     1     145.603 158.747 162.950  1.00  0.00     0.094 A 
ATOM      9  C   UNL     1     146.578 157.851 162.498  1.00  0.00     0.336 A 
ATOM     10  O   UNL     1     146.534 156.644 162.851  1.00  0.00    -0.246 OA
ATOM     11  O   UNL     1     147.555 158.267 161.697  1.00  0.00    -0.423 OA
ENDROOT
TORSDOF 0
ENDMDL
MODEL 4
REMARK VINA RESULT:    -3.144     15.639     16.719
REMARK INTER + INTRA:          -3.144
REMARK INTER:                  -3.144
REMARK INTRA:                   0.000
REMARK UNBOUND:                 0.000
REMARK SMILES O=c1ccc2ccccc2o1
REMARK SMILES IDX 7 1 8 2 9 3 10 4 5 5 6 6 4 7 3 8 2 9 1 10 11 11
REMARK H PARENT
REMARK Flexibility Score: inf
ROOT
ATOM      1  C   UNL     1     148.799 163.996 160.140  1.00  0.00     0.001 A 
ATOM      2  C   UNL     1     147.453 164.124 160.502  1.00  0.00     0.004 A 
ATOM      3  C   UNL     1     146.710 162.995 160.859  1.00  0.00     0.048 A 
ATOM      4  C   UNL     1     147.311 161.731 160.858  1.00  0.00     0.138 A 
ATOM      5  C   UNL     1     148.670 161.601 160.492  1.00  0.00     0.018 A 
ATOM      6  C   UNL     1     149.410 162.737 160.135  1.00  0.00     0.012 A 
ATOM      7  C   UNL     1     149.244 160.326 160.500  1.00  0.00     0.019 A 
ATOM      8  C   UNL     1     148.464 159.228 160.864  1.00  0.00     0.094 A 
ATOM      9  C   UNL     1     147.125 159.432 161.214  1.00  0.00     0.336 A 
ATOM     10  O   UNL     1     146.406 158.453 161.546  1.00  0.00    -0.246 OA
ATOM     11  O   UNL     1     146.604 160.656 161.198  1.00  0.00    -0.423 OA
ENDROOT
TORSDOF 0
ENDMDL
MODEL 5
REMARK VINA RESULT:    -3.037     15.974     16.970
REMARK INTER + INTRA:          -3.037
REMARK INTER:                  -3.037
REMARK INTRA:                   0.000
REMARK UNBOUND:                 0.000
REMARK SMILES O=c1ccc2ccccc2o1
REMARK SMILES IDX 7 1 8 2 9 3 10 4 5 5 6 6 4 7 3 8 2 9 1 10 11 11
REMARK H PARENT
REMARK Flexibility Score: inf
ROOT
ATOM      1  C   UNL     1     146.433 159.474 161.619  1.00  0.00     0.001 A 
ATOM      2  C   UNL     1     147.631 158.983 161.086  1.00  0.00     0.004 A 
ATOM      3  C   UNL     1     148.547 159.855 160.491  1.00  0.00     0.048 A 
ATOM      4  C   UNL     1     148.270 161.226 160.428  1.00  0.00     0.138 A 
ATOM      5  C   UNL     1     147.061 161.723 160.966  1.00  0.00     0.018 A 
ATOM      6  C   UNL     1     146.147 160.842 161.561  1.00  0.00     0.012 A 
ATOM      7  C   UNL     1     146.812 163.097 160.889  1.00  0.00     0.019 A 
ATOM      8  C   UNL     1     147.755 163.930 160.287  1.00  0.00     0.094 A 
ATOM      9  C   UNL     1     148.930 163.368 159.776  1.00  0.00     0.336 A 
ATOM     10  O   UNL     1     149.792 164.103 159.229  1.00  0.00    -0.246 OA
ATOM     11  O   UNL     1     149.142 162.057 159.862  1.00  0.00    -0.423 OA
ENDROOT
TORSDOF 0
ENDMDL
MODEL 6
REMARK VINA RESULT:    -3.020     15.596     16.491
REMARK INTER + INTRA:          -3.020
REMARK INTER:                  -3.020
REMARK INTRA:                   0.000
REMARK UNBOUND:                 0.000
REMARK SMILES O=c1ccc2ccccc2o1
REMARK SMILES IDX 7 1 8 2 9 3 10 4 5 5 6 6 4 7 3 8 2 9 1 10 11 11
REMARK H PARENT
REMARK Flexibility Score: inf
ROOT
ATOM      1  C   UNL     1     149.808 146.505 178.089  1.00  0.00     0.001 A 
ATOM      2  C   UNL     1     150.230 145.423 177.308  1.00  0.00     0.004 A 
ATOM      3  C   UNL     1     149.302 144.690 176.561  1.00  0.00     0.048 A 
ATOM      4  C   UNL     1     147.947 145.038 176.590  1.00  0.00     0.138 A 
ATOM      5  C   UNL     1     147.521 146.132 177.378  1.00  0.00     0.018 A 
ATOM      6  C   UNL     1     148.455 146.862 178.125  1.00  0.00     0.012 A 
ATOM      7  C   UNL     1     146.160 146.456 177.387  1.00  0.00     0.019 A 
ATOM      8  C   UNL     1     145.271 145.698 176.626  1.00  0.00     0.094 A 
ATOM      9  C   UNL     1     145.765 144.629 175.869  1.00  0.00     0.336 A 
ATOM     10  O   UNL     1     144.978 143.934 175.176  1.00  0.00    -0.246 OA
ATOM     11  O   UNL     1     147.064 144.342 175.879  1.00  0.00    -0.423 OA
ENDROOT
TORSDOF 0
ENDMDL
MODEL 7
REMARK VINA RESULT:    -2.978      2.414      2.968
REMARK INTER + INTRA:          -2.978
REMARK INTER:                  -2.978
REMARK INTRA:                   0.000
REMARK UNBOUND:                 0.000
REMARK SMILES O=c1ccc2ccccc2o1
REMARK SMILES IDX 7 1 8 2 9 3 10 4 5 5 6 6 4 7 3 8 2 9 1 10 11 11
REMARK H PARENT
REMARK Flexibility Score: inf
ROOT
ATOM      1  C   UNL     1     147.338 144.980 157.875  1.00  0.00     0.001 A 
ATOM      2  C   UNL     1     146.285 144.067 158.009  1.00  0.00     0.004 A 
ATOM      3  C   UNL     1     145.581 143.977 159.214  1.00  0.00     0.048 A 
ATOM      4  C   UNL     1     145.927 144.801 160.292  1.00  0.00     0.138 A 
ATOM      5  C   UNL     1     146.991 145.723 160.156  1.00  0.00     0.018 A 
ATOM      6  C   UNL     1     147.692 145.808 158.946  1.00  0.00     0.012 A 
ATOM      7  C   UNL     1     147.313 146.533 161.250  1.00  0.00     0.019 A 
ATOM      8  C   UNL     1     146.584 146.408 162.432  1.00  0.00     0.094 A 
ATOM      9  C   UNL     1     145.544 145.474 162.494  1.00  0.00     0.336 A 
ATOM     10  O   UNL     1     144.875 145.348 163.552  1.00  0.00    -0.246 OA
ATOM     11  O   UNL     1     145.258 144.715 161.439  1.00  0.00    -0.423 OA
ENDROOT
TORSDOF 0
ENDMDL
MODEL 8
REMARK VINA RESULT:    -2.883     15.638     16.771
REMARK INTER + INTRA:          -2.883
REMARK INTER:                  -2.883
REMARK INTRA:                   0.000
REMARK UNBOUND:                 0.000
REMARK SMILES O=c1ccc2ccccc2o1
REMARK SMILES IDX 7 1 8 2 9 3 10 4 5 5 6 6 4 7 3 8 2 9 1 10 11 11
REMARK H PARENT
REMARK Flexibility Score: inf
ROOT
ATOM      1  C   UNL     1     144.964 144.816 176.769  1.00  0.00     0.001 A 
ATOM      2  C   UNL     1     145.632 143.876 175.976  1.00  0.00     0.004 A 
ATOM      3  C   UNL     1     147.028 143.889 175.893  1.00  0.00     0.048 A 
ATOM      4  C   UNL     1     147.763 144.844 176.605  1.00  0.00     0.138 A 
ATOM      5  C   UNL     1     147.089 145.794 177.407  1.00  0.00     0.018 A 
ATOM      6  C   UNL     1     145.689 145.774 177.485  1.00  0.00     0.012 A 
ATOM      7  C   UNL     1     147.850 146.735 178.107  1.00  0.00     0.019 A 
ATOM      8  C   UNL     1     149.240 146.711 177.995  1.00  0.00     0.094 A 
ATOM      9  C   UNL     1     149.839 145.741 177.183  1.00  0.00     0.336 A 
ATOM     10  O   UNL     1     151.092 145.703 177.070  1.00  0.00    -0.246 OA
ATOM     11  O   UNL     1     149.092 144.857 176.527  1.00  0.00    -0.423 OA
ENDROOT
TORSDOF 0
ENDMDL
MODEL 9
REMARK VINA RESULT:    -2.813     15.680     17.156
REMARK INTER + INTRA:          -2.813
REMARK INTER:                  -2.813
REMARK INTRA:                   0.000
REMARK UNBOUND:                 0.000
REMARK SMILES O=c1ccc2ccccc2o1
REMARK SMILES IDX 7 1 8 2 9 3 10 4 5 5 6 6 4 7 3 8 2 9 1 10 11 11
REMARK H PARENT
REMARK Flexibility Score: inf
ROOT
ATOM      1  C   UNL     1     161.370 145.111 175.186  1.00  0.00     0.001 A 
ATOM      2  C   UNL     1     160.287 144.227 175.130  1.00  0.00     0.004 A 
ATOM      3  C   UNL     1     159.564 144.075 173.942  1.00  0.00     0.048 A 
ATOM      4  C   UNL     1     159.924 144.806 172.804  1.00  0.00     0.138 A 
ATOM      5  C   UNL     1     161.019 145.699 172.861  1.00  0.00     0.018 A 
ATOM      6  C   UNL     1     161.739 145.847 174.054  1.00  0.00     0.012 A 
ATOM      7  C   UNL     1     161.355 146.415 171.708  1.00  0.00     0.019 A 
ATOM      8  C   UNL     1     160.607 146.230 170.545  1.00  0.00     0.094 A 
ATOM      9  C   UNL     1     159.536 145.330 170.563  1.00  0.00     0.336 A 
ATOM     10  O   UNL     1     158.850 145.149 169.523  1.00  0.00    -0.246 OA
ATOM     11  O   UNL     1     159.237 144.660 171.673  1.00  0.00    -0.423 OA
ENDROOT
TORSDOF 0
ENDMDL
