MODEL 1
REMARK VINA RESULT:    -4.163      0.000      0.000
REMARK INTER + INTRA:          -6.603
REMARK INTER:                  -5.867
REMARK INTRA:                  -0.736
REMARK UNBOUND:                -0.736
REMARK SMILES CCCCCCCCC(=O)[O-]
REMARK SMILES IDX 6 1 7 2 8 3 9 4 10 5 11 6 5 7 4 8 3 9 2 10 1 11
REMARK H PARENT
REMARK Flexibility Score: inf
ROOT
ATOM      1  C   UNL     1     -14.940   1.913 -19.545  1.00  0.00     0.000 C 
ENDROOT
BRANCH   1   2
ATOM      2  C   UNL     1     -14.861   0.408 -19.855  1.00  0.00     0.006 C 
BRANCH   2   3
ATOM      3  C   UNL     1     -14.013   0.099 -21.095  1.00  0.00     0.053 C 
BRANCH   3   4
ATOM      4  C   UNL     1     -14.457  -1.183 -21.725  1.00  0.00     0.041 C 
ATOM      5  O   UNL     1     -14.823  -1.203 -22.930  1.00  0.00    -0.550 OA
ATOM      6  O   UNL     1     -14.420  -2.366 -20.996  1.00  0.00    -0.550 OA
ENDBRANCH   3   4
ENDBRANCH   2   3
ENDBRANCH   1   2
BRANCH   1   7
ATOM      7  C   UNL     1     -15.370   2.803 -20.729  1.00  0.00     0.000 C 
BRANCH   7   8
ATOM      8  C   UNL     1     -16.847   3.234 -20.719  1.00  0.00    -0.000 C 
BRANCH   8   9
ATOM      9  C   UNL     1     -17.563   2.941 -22.046  1.00  0.00    -0.000 C 
BRANCH   9  10
ATOM     10  C   UNL     1     -16.956   1.715 -22.736  1.00  0.00    -0.003 C 
ATOM     11  C   UNL     1     -17.919   0.530 -22.705  1.00  0.00     0.004 C 
ENDBRANCH   9  10
ENDBRANCH   8   9
ENDBRANCH   7   8
ENDBRANCH   1   7
TORSDOF 7
ENDMDL
MODEL 2
REMARK VINA RESULT:    -4.157      2.978      4.260
REMARK INTER + INTRA:          -6.594
REMARK INTER:                  -5.907
REMARK INTRA:                  -0.687
REMARK UNBOUND:                -0.736
REMARK SMILES CCCCCCCCC(=O)[O-]
REMARK SMILES IDX 6 1 7 2 8 3 9 4 10 5 11 6 5 7 4 8 3 9 2 10 1 11
REMARK H PARENT
REMARK Flexibility Score: inf
ROOT
ATOM      1  C   UNL     1     -14.507   1.413 -20.625  1.00  0.00     0.000 C 
ENDROOT
BRANCH   1   2
ATOM      2  C   UNL     1     -15.303   2.164 -19.544  1.00  0.00     0.006 C 
BRANCH   2   3
ATOM      3  C   UNL     1     -16.331   3.139 -20.130  1.00  0.00     0.053 C 
BRANCH   3   4
ATOM      4  C   UNL     1     -15.641   4.278 -20.812  1.00  0.00     0.041 C 
ATOM      5  O   UNL     1     -14.784   4.962 -20.191  1.00  0.00    -0.550 OA
ATOM      6  O   UNL     1     -15.907   4.554 -22.147  1.00  0.00    -0.550 OA
ENDBRANCH   3   4
ENDBRANCH   2   3
ENDBRANCH   1   2
BRANCH   1   7
ATOM      7  C   UNL     1     -14.337  -0.101 -20.379  1.00  0.00     0.000 C 
BRANCH   7   8
ATOM      8  C   UNL     1     -15.422  -0.990 -21.011  1.00  0.00    -0.000 C 
BRANCH   8   9
ATOM      9  C   UNL     1     -15.777  -0.571 -22.445  1.00  0.00    -0.000 C 
BRANCH   9  10
ATOM     10  C   UNL     1     -17.283  -0.323 -22.585  1.00  0.00    -0.003 C 
ATOM     11  C   UNL     1     -17.564   1.087 -23.100  1.00  0.00     0.004 C 
ENDBRANCH   9  10
ENDBRANCH   8   9
ENDBRANCH   7   8
ENDBRANCH   1   7
TORSDOF 7
ENDMDL
MODEL 3
REMARK VINA RESULT:    -4.141      2.836      4.815
REMARK INTER + INTRA:          -6.572
REMARK INTER:                  -5.815
REMARK INTRA:                  -0.757
REMARK UNBOUND:                -0.736
REMARK SMILES CCCCCCCCC(=O)[O-]
REMARK SMILES IDX 6 1 7 2 8 3 9 4 10 5 11 6 5 7 4 8 3 9 2 10 1 11
REMARK H PARENT
REMARK Flexibility Score: inf
ROOT
ATOM      1  C   UNL     1     -17.121  -0.502 -22.597  1.00  0.00     0.000 C 
ENDROOT
BRANCH   1   2
ATOM      2  C   UNL     1     -17.845   0.856 -22.620  1.00  0.00     0.006 C 
BRANCH   2   3
ATOM      3  C   UNL     1     -17.050   1.943 -23.352  1.00  0.00     0.053 C 
BRANCH   3   4
ATOM      4  C   UNL     1     -17.156   3.247 -22.625  1.00  0.00     0.041 C 
ATOM      5  O   UNL     1     -17.969   3.376 -21.672  1.00  0.00    -0.550 OA
ATOM      6  O   UNL     1     -16.320   4.303 -22.967  1.00  0.00    -0.550 OA
ENDBRANCH   3   4
ENDBRANCH   2   3
ENDBRANCH   1   2
BRANCH   1   7
ATOM      7  C   UNL     1     -15.598  -0.427 -22.362  1.00  0.00     0.000 C 
BRANCH   7   8
ATOM      8  C   UNL     1     -15.096  -1.153 -21.102  1.00  0.00    -0.000 C 
BRANCH   8   9
ATOM      9  C   UNL     1     -14.770  -0.191 -19.950  1.00  0.00    -0.000 C 
BRANCH   9  10
ATOM     10  C   UNL     1     -14.600   1.243 -20.465  1.00  0.00    -0.003 C 
ATOM     11  C   UNL     1     -15.276   2.247 -19.535  1.00  0.00     0.004 C 
ENDBRANCH   9  10
ENDBRANCH   8   9
ENDBRANCH   7   8
ENDBRANCH   1   7
TORSDOF 7
ENDMDL
MODEL 4
REMARK VINA RESULT:    -4.108      2.440      4.645
REMARK INTER + INTRA:          -6.526
REMARK INTER:                  -5.776
REMARK INTRA:                  -0.749
REMARK UNBOUND:                -0.736
REMARK SMILES CCCCCCCCC(=O)[O-]
REMARK SMILES IDX 6 1 7 2 8 3 9 4 10 5 11 6 5 7 4 8 3 9 2 10 1 11
REMARK H PARENT
REMARK Flexibility Score: inf
ROOT
ATOM      1  C   UNL     1     -17.492   0.185 -22.828  1.00  0.00     0.000 C 
ENDROOT
BRANCH   1   2
ATOM      2  C   UNL     1     -17.141   1.642 -23.176  1.00  0.00     0.006 C 
BRANCH   2   3
ATOM      3  C   UNL     1     -17.576   2.635 -22.091  1.00  0.00     0.053 C 
BRANCH   3   4
ATOM      4  C   UNL     1     -16.400   3.064 -21.273  1.00  0.00     0.041 C 
ATOM      5  O   UNL     1     -15.305   3.337 -21.832  1.00  0.00    -0.550 OA
ATOM      6  O   UNL     1     -16.526   3.210 -19.897  1.00  0.00    -0.550 OA
ENDBRANCH   3   4
ENDBRANCH   2   3
ENDBRANCH   1   2
BRANCH   1   7
ATOM      7  C   UNL     1     -16.345  -0.632 -22.200  1.00  0.00     0.000 C 
BRANCH   7   8
ATOM      8  C   UNL     1     -14.928  -0.134 -22.537  1.00  0.00    -0.000 C 
BRANCH   8   9
ATOM      9  C   UNL     1     -14.062   0.090 -21.288  1.00  0.00    -0.000 C 
BRANCH   9  10
ATOM     10  C   UNL     1     -14.874  -0.147 -20.009  1.00  0.00    -0.003 C 
ATOM     11  C   UNL     1     -14.279  -1.284 -19.181  1.00  0.00     0.004 C 
ENDBRANCH   9  10
ENDBRANCH   8   9
ENDBRANCH   7   8
ENDBRANCH   1   7
TORSDOF 7
ENDMDL
MODEL 5
REMARK VINA RESULT:    -4.083      2.398      3.537
REMARK INTER + INTRA:          -6.490
REMARK INTER:                  -5.789
REMARK INTRA:                  -0.701
REMARK UNBOUND:                -0.736
REMARK SMILES CCCCCCCCC(=O)[O-]
REMARK SMILES IDX 6 1 7 2 8 3 9 4 10 5 11 6 5 7 4 8 3 9 2 10 1 11
REMARK H PARENT
REMARK Flexibility Score: inf
ROOT
ATOM      1  C   UNL     1     -17.107   3.974 -20.223  1.00  0.00     0.000 C 
ENDROOT
BRANCH   1   2
ATOM      2  C   UNL     1     -16.319   2.759 -20.743  1.00  0.00     0.006 C 
BRANCH   2   3
ATOM      3  C   UNL     1     -15.332   2.202 -19.711  1.00  0.00     0.053 C 
BRANCH   3   4
ATOM      4  C   UNL     1     -14.631   0.997 -20.255  1.00  0.00     0.041 C 
ATOM      5  O   UNL     1     -13.965   1.080 -21.321  1.00  0.00    -0.550 OA
ATOM      6  O   UNL     1     -14.670  -0.204 -19.557  1.00  0.00    -0.550 OA
ENDBRANCH   3   4
ENDBRANCH   2   3
ENDBRANCH   1   2
BRANCH   1   7
ATOM      7  C   UNL     1     -16.713   5.327 -20.851  1.00  0.00     0.000 C 
BRANCH   7   8
ATOM      8  C   UNL     1     -15.463   5.988 -20.244  1.00  0.00    -0.000 C 
BRANCH   8   9
ATOM      9  C   UNL     1     -14.188   5.711 -21.055  1.00  0.00    -0.000 C 
BRANCH   9  10
ATOM     10  C   UNL     1     -14.516   5.524 -22.541  1.00  0.00    -0.003 C 
ATOM     11  C   UNL     1     -13.831   4.281 -23.104  1.00  0.00     0.004 C 
ENDBRANCH   9  10
ENDBRANCH   8   9
ENDBRANCH   7   8
ENDBRANCH   1   7
TORSDOF 7
ENDMDL
MODEL 6
REMARK VINA RESULT:    -4.043      2.301      3.799
REMARK INTER + INTRA:          -6.433
REMARK INTER:                  -5.796
REMARK INTRA:                  -0.637
REMARK UNBOUND:                -0.736
REMARK SMILES CCCCCCCCC(=O)[O-]
REMARK SMILES IDX 6 1 7 2 8 3 9 4 10 5 11 6 5 7 4 8 3 9 2 10 1 11
REMARK H PARENT
REMARK Flexibility Score: inf
ROOT
ATOM      1  C   UNL     1     -15.197   2.077 -19.500  1.00  0.00     0.000 C 
ENDROOT
BRANCH   1   2
ATOM      2  C   UNL     1     -15.770   2.624 -20.820  1.00  0.00     0.006 C 
BRANCH   2   3
ATOM      3  C   UNL     1     -14.912   3.742 -21.424  1.00  0.00     0.053 C 
BRANCH   3   4
ATOM      4  C   UNL     1     -14.571   3.429 -22.846  1.00  0.00     0.041 C 
ATOM      5  O   UNL     1     -13.790   2.479 -23.116  1.00  0.00    -0.550 OA
ATOM      6  O   UNL     1     -15.157   4.154 -23.877  1.00  0.00    -0.550 OA
ENDBRANCH   3   4
ENDBRANCH   2   3
ENDBRANCH   1   2
BRANCH   1   7
ATOM      7  C   UNL     1     -14.889   0.565 -19.497  1.00  0.00     0.000 C 
BRANCH   7   8
ATOM      8  C   UNL     1     -14.490  -0.022 -20.862  1.00  0.00    -0.000 C 
BRANCH   8   9
ATOM      9  C   UNL     1     -15.541  -0.989 -21.426  1.00  0.00    -0.000 C 
BRANCH   9  10
ATOM     10  C   UNL     1     -16.048  -0.512 -22.792  1.00  0.00    -0.003 C 
ATOM     11  C   UNL     1     -17.527  -0.138 -22.731  1.00  0.00     0.004 C 
ENDBRANCH   9  10
ENDBRANCH   8   9
ENDBRANCH   7   8
ENDBRANCH   1   7
TORSDOF 7
ENDMDL
MODEL 7
REMARK VINA RESULT:    -4.018      1.639      2.457
REMARK INTER + INTRA:          -6.398
REMARK INTER:                  -5.705
REMARK INTRA:                  -0.693
REMARK UNBOUND:                -0.736
REMARK SMILES CCCCCCCCC(=O)[O-]
REMARK SMILES IDX 6 1 7 2 8 3 9 4 10 5 11 6 5 7 4 8 3 9 2 10 1 11
REMARK H PARENT
REMARK Flexibility Score: inf
ROOT
ATOM      1  C   UNL     1     -14.910   0.879 -19.634  1.00  0.00     0.000 C 
ENDROOT
BRANCH   1   2
ATOM      2  C   UNL     1     -14.215  -0.181 -20.506  1.00  0.00     0.006 C 
BRANCH   2   3
ATOM      3  C   UNL     1     -15.184  -1.242 -21.042  1.00  0.00     0.053 C 
BRANCH   3   4
ATOM      4  C   UNL     1     -15.704  -0.843 -22.387  1.00  0.00     0.041 C 
ATOM      5  O   UNL     1     -14.943  -0.862 -23.391  1.00  0.00    -0.550 OA
ATOM      6  O   UNL     1     -17.041  -0.501 -22.542  1.00  0.00    -0.550 OA
ENDBRANCH   3   4
ENDBRANCH   2   3
ENDBRANCH   1   2
BRANCH   1   7
ATOM      7  C   UNL     1     -14.636   2.342 -20.040  1.00  0.00     0.000 C 
BRANCH   7   8
ATOM      8  C   UNL     1     -15.768   3.023 -20.829  1.00  0.00    -0.000 C 
BRANCH   8   9
ATOM      9  C   UNL     1     -15.673   2.777 -22.342  1.00  0.00    -0.000 C 
BRANCH   9  10
ATOM     10  C   UNL     1     -14.215   2.821 -22.813  1.00  0.00    -0.003 C 
ATOM     11  C   UNL     1     -13.810   4.235 -23.222  1.00  0.00     0.004 C 
ENDBRANCH   9  10
ENDBRANCH   8   9
ENDBRANCH   7   8
ENDBRANCH   1   7
TORSDOF 7
ENDMDL
MODEL 8
REMARK VINA RESULT:    -3.977      1.823      2.997
REMARK INTER + INTRA:          -6.341
REMARK INTER:                  -5.672
REMARK INTRA:                  -0.669
REMARK UNBOUND:                -0.736
REMARK SMILES CCCCCCCCC(=O)[O-]
REMARK SMILES IDX 6 1 7 2 8 3 9 4 10 5 11 6 5 7 4 8 3 9 2 10 1 11
REMARK H PARENT
REMARK Flexibility Score: inf
ROOT
ATOM      1  C   UNL     1     -14.135  -0.370 -20.575  1.00  0.00     0.000 C 
ENDROOT
BRANCH   1   2
ATOM      2  C   UNL     1     -14.902  -1.450 -21.358  1.00  0.00     0.006 C 
BRANCH   2   3
ATOM      3  C   UNL     1     -14.864  -1.227 -22.874  1.00  0.00     0.053 C 
BRANCH   3   4
ATOM      4  C   UNL     1     -15.818  -0.145 -23.268  1.00  0.00     0.041 C 
ATOM      5  O   UNL     1     -17.002  -0.156 -22.836  1.00  0.00    -0.550 OA
ATOM      6  O   UNL     1     -15.388   0.903 -24.072  1.00  0.00    -0.550 OA
ENDBRANCH   3   4
ENDBRANCH   2   3
ENDBRANCH   1   2
BRANCH   1   7
ATOM      7  C   UNL     1     -14.866   0.183 -19.334  1.00  0.00     0.000 C 
BRANCH   7   8
ATOM      8  C   UNL     1     -15.234   1.676 -19.404  1.00  0.00    -0.000 C 
BRANCH   8   9
ATOM      9  C   UNL     1     -14.816   2.331 -20.729  1.00  0.00    -0.000 C 
BRANCH   9  10
ATOM     10  C   UNL     1     -15.967   3.154 -21.319  1.00  0.00    -0.003 C 
ATOM     11  C   UNL     1     -16.841   3.749 -20.218  1.00  0.00     0.004 C 
ENDBRANCH   9  10
ENDBRANCH   8   9
ENDBRANCH   7   8
ENDBRANCH   1   7
TORSDOF 7
ENDMDL
MODEL 9
REMARK VINA RESULT:    -3.971      4.043      5.393
REMARK INTER + INTRA:          -6.332
REMARK INTER:                  -5.524
REMARK INTRA:                  -0.808
REMARK UNBOUND:                -0.736
REMARK SMILES CCCCCCCCC(=O)[O-]
REMARK SMILES IDX 6 1 7 2 8 3 9 4 10 5 11 6 5 7 4 8 3 9 2 10 1 11
REMARK H PARENT
REMARK Flexibility Score: inf
ROOT
ATOM      1  C   UNL     1     -13.750   4.368 -23.243  1.00  0.00     0.000 C 
ENDROOT
BRANCH   1   2
ATOM      2  C   UNL     1     -14.610   5.416 -22.513  1.00  0.00     0.006 C 
BRANCH   2   3
ATOM      3  C   UNL     1     -14.367   5.436 -20.999  1.00  0.00     0.053 C 
BRANCH   3   4
ATOM      4  C   UNL     1     -15.601   5.877 -20.278  1.00  0.00     0.041 C 
ATOM      5  O   UNL     1     -15.622   6.983 -19.675  1.00  0.00    -0.550 OA
ATOM      6  O   UNL     1     -16.746   5.090 -20.314  1.00  0.00    -0.550 OA
ENDBRANCH   3   4
ENDBRANCH   2   3
ENDBRANCH   1   2
BRANCH   1   7
ATOM      7  C   UNL     1     -14.154   2.901 -22.991  1.00  0.00     0.000 C 
BRANCH   7   8
ATOM      8  C   UNL     1     -15.668   2.629 -23.000  1.00  0.00    -0.000 C 
BRANCH   8   9
ATOM      9  C   UNL     1     -16.144   1.865 -21.755  1.00  0.00    -0.000 C 
BRANCH   9  10
ATOM     10  C   UNL     1     -14.972   1.569 -20.813  1.00  0.00    -0.003 C 
ATOM     11  C   UNL     1     -15.238   2.116 -19.413  1.00  0.00     0.004 C 
ENDBRANCH   9  10
ENDBRANCH   8   9
ENDBRANCH   7   8
ENDBRANCH   1   7
TORSDOF 7
ENDMDL
