MODEL 1
REMARK VINA RESULT:    -4.266      0.000      0.000
REMARK INTER + INTRA:          -4.667
REMARK INTER:                  -4.640
REMARK INTRA:                  -0.027
REMARK UNBOUND:                -0.027
REMARK SMILES O=C([O-])c1ccc(O)cc1
REMARK SMILES IDX 4 1 5 2 10 3 6 4 9 5 7 6 2 7 1 8 3 9 8 10
REMARK H PARENT 8 11
REMARK Flexibility Score: inf
ROOT
ATOM      1  C   UNL     1      46.278   8.644  22.643  1.00  0.00    -0.003 A 
ATOM      2  C   UNL     1      47.266   7.646  22.587  1.00  0.00     0.014 A 
ATOM      3  C   UNL     1      45.518   8.917  21.490  1.00  0.00     0.014 A 
ATOM      4  C   UNL     1      47.491   6.936  21.404  1.00  0.00     0.047 A 
ATOM      5  C   UNL     1      45.745   8.205  20.309  1.00  0.00     0.047 A 
ATOM      6  C   UNL     1      46.733   7.212  20.263  1.00  0.00     0.115 A 
ENDROOT
BRANCH   1   7
ATOM      7  C   UNL     1      46.042   9.394  23.897  1.00  0.00     0.071 C 
ATOM      8  O   UNL     1      46.497  10.560  24.042  1.00  0.00    -0.545 OA
ATOM      9  O   UNL     1      45.316   8.821  24.935  1.00  0.00    -0.545 OA
ENDBRANCH   1   7
BRANCH   6  10
ATOM     10  O   UNL     1      46.967   6.497  19.090  1.00  0.00    -0.508 OA
ATOM     11  H   UNL     1      46.333   6.551  18.302  1.00  0.00     0.293 HD
ENDBRANCH   6  10
TORSDOF 2
ENDMDL
MODEL 2
REMARK VINA RESULT:    -4.265      0.033      1.532
REMARK INTER + INTRA:          -4.666
REMARK INTER:                  -4.638
REMARK INTRA:                  -0.027
REMARK UNBOUND:                -0.027
REMARK SMILES O=C([O-])c1ccc(O)cc1
REMARK SMILES IDX 4 1 5 2 10 3 6 4 9 5 7 6 2 7 1 8 3 9 8 10
REMARK H PARENT 8 11
REMARK Flexibility Score: inf
ROOT
ATOM      1  C   UNL     1      46.280   8.664  22.635  1.00  0.00    -0.003 A 
ATOM      2  C   UNL     1      45.534   8.940  21.475  1.00  0.00     0.014 A 
ATOM      3  C   UNL     1      47.268   7.663  22.588  1.00  0.00     0.014 A 
ATOM      4  C   UNL     1      45.771   8.230  20.294  1.00  0.00     0.047 A 
ATOM      5  C   UNL     1      47.503   6.955  21.405  1.00  0.00     0.047 A 
ATOM      6  C   UNL     1      46.755   7.238  20.255  1.00  0.00     0.115 A 
ENDROOT
BRANCH   1   7
ATOM      7  C   UNL     1      46.027   9.417  23.884  1.00  0.00     0.071 C 
ATOM      8  O   UNL     1      46.460  10.592  24.022  1.00  0.00    -0.545 OA
ATOM      9  O   UNL     1      45.308   8.837  24.923  1.00  0.00    -0.545 OA
ENDBRANCH   1   7
BRANCH   6  10
ATOM     10  O   UNL     1      46.980   6.538  19.071  1.00  0.00    -0.508 OA
ATOM     11  H   UNL     1      46.356   6.625  18.278  1.00  0.00     0.293 HD
ENDBRANCH   6  10
TORSDOF 2
ENDMDL
MODEL 3
REMARK VINA RESULT:    -4.263     11.500     12.736
REMARK INTER + INTRA:          -4.664
REMARK INTER:                  -4.633
REMARK INTRA:                  -0.031
REMARK UNBOUND:                -0.027
REMARK SMILES O=C([O-])c1ccc(O)cc1
REMARK SMILES IDX 4 1 5 2 10 3 6 4 9 5 7 6 2 7 1 8 3 9 8 10
REMARK H PARENT 8 11
REMARK Flexibility Score: inf
ROOT
ATOM      1  C   UNL     1      46.772  -2.663  16.067  1.00  0.00    -0.003 A 
ATOM      2  C   UNL     1      46.434  -1.377  16.524  1.00  0.00     0.014 A 
ATOM      3  C   UNL     1      45.961  -3.276  15.093  1.00  0.00     0.014 A 
ATOM      4  C   UNL     1      45.309  -0.719  16.018  1.00  0.00     0.047 A 
ATOM      5  C   UNL     1      44.838  -2.615  14.589  1.00  0.00     0.047 A 
ATOM      6  C   UNL     1      44.509  -1.333  15.050  1.00  0.00     0.115 A 
ENDROOT
BRANCH   1   7
ATOM      7  C   UNL     1      47.963  -3.358  16.604  1.00  0.00     0.071 C 
ATOM      8  O   UNL     1      49.062  -2.751  16.718  1.00  0.00    -0.545 OA
ATOM      9  O   UNL     1      47.887  -4.691  16.990  1.00  0.00    -0.545 OA
ENDBRANCH   1   7
BRANCH   6  10
ATOM     10  O   UNL     1      43.391  -0.666  14.555  1.00  0.00    -0.508 OA
ATOM     11  H   UNL     1      43.363   0.345  14.491  1.00  0.00     0.293 HD
ENDBRANCH   6  10
TORSDOF 2
ENDMDL
MODEL 4
REMARK VINA RESULT:    -4.242      2.199      3.217
REMARK INTER + INTRA:          -4.641
REMARK INTER:                  -4.606
REMARK INTRA:                  -0.035
REMARK UNBOUND:                -0.027
REMARK SMILES O=C([O-])c1ccc(O)cc1
REMARK SMILES IDX 4 1 5 2 10 3 6 4 9 5 7 6 2 7 1 8 3 9 8 10
REMARK H PARENT 8 11
REMARK Flexibility Score: inf
ROOT
ATOM      1  C   UNL     1      46.335   7.806  20.417  1.00  0.00    -0.003 A 
ATOM      2  C   UNL     1      46.662   7.155  19.214  1.00  0.00     0.014 A 
ATOM      3  C   UNL     1      45.208   8.648  20.452  1.00  0.00     0.014 A 
ATOM      4  C   UNL     1      45.879   7.343  18.071  1.00  0.00     0.047 A 
ATOM      5  C   UNL     1      44.427   8.833  19.308  1.00  0.00     0.047 A 
ATOM      6  C   UNL     1      44.760   8.181  18.114  1.00  0.00     0.115 A 
ENDROOT
BRANCH   1   7
ATOM      7  C   UNL     1      47.166   7.605  21.625  1.00  0.00     0.071 C 
ATOM      8  O   UNL     1      47.901   6.588  21.735  1.00  0.00    -0.545 OA
ATOM      9  O   UNL     1      47.145   8.536  22.657  1.00  0.00    -0.545 OA
ENDBRANCH   1   7
BRANCH   6  10
ATOM     10  O   UNL     1      43.989   8.359  16.967  1.00  0.00    -0.508 OA
ATOM     11  H   UNL     1      43.734   7.578  16.374  1.00  0.00     0.293 HD
ENDBRANCH   6  10
TORSDOF 2
ENDMDL
MODEL 5
REMARK VINA RESULT:    -4.241      2.203      3.422
REMARK INTER + INTRA:          -4.640
REMARK INTER:                  -4.605
REMARK INTRA:                  -0.035
REMARK UNBOUND:                -0.027
REMARK SMILES O=C([O-])c1ccc(O)cc1
REMARK SMILES IDX 4 1 5 2 10 3 6 4 9 5 7 6 2 7 1 8 3 9 8 10
REMARK H PARENT 8 11
REMARK Flexibility Score: inf
ROOT
ATOM      1  C   UNL     1      46.354   7.772  20.365  1.00  0.00    -0.003 A 
ATOM      2  C   UNL     1      45.224   8.609  20.370  1.00  0.00     0.014 A 
ATOM      3  C   UNL     1      46.695   7.094  19.180  1.00  0.00     0.014 A 
ATOM      4  C   UNL     1      44.452   8.765  19.214  1.00  0.00     0.047 A 
ATOM      5  C   UNL     1      45.922   7.253  18.026  1.00  0.00     0.047 A 
ATOM      6  C   UNL     1      44.798   8.089  18.041  1.00  0.00     0.115 A 
ENDROOT
BRANCH   1   7
ATOM      7  C   UNL     1      47.169   7.608  21.589  1.00  0.00     0.071 C 
ATOM      8  O   UNL     1      47.919   6.606  21.731  1.00  0.00    -0.545 OA
ATOM      9  O   UNL     1      47.116   8.559  22.603  1.00  0.00    -0.545 OA
ENDBRANCH   1   7
BRANCH   6  10
ATOM     10  O   UNL     1      44.020   8.254  16.897  1.00  0.00    -0.508 OA
ATOM     11  H   UNL     1      43.035   8.485  16.955  1.00  0.00     0.293 HD
ENDBRANCH   6  10
TORSDOF 2
ENDMDL
MODEL 6
REMARK VINA RESULT:    -4.163      2.604      3.887
REMARK INTER + INTRA:          -4.556
REMARK INTER:                  -4.521
REMARK INTRA:                  -0.034
REMARK UNBOUND:                -0.027
REMARK SMILES O=C([O-])c1ccc(O)cc1
REMARK SMILES IDX 4 1 5 2 10 3 6 4 9 5 7 6 2 7 1 8 3 9 8 10
REMARK H PARENT 8 11
REMARK Flexibility Score: inf
ROOT
ATOM      1  C   UNL     1      46.039   7.776  19.636  1.00  0.00    -0.003 A 
ATOM      2  C   UNL     1      44.875   8.546  19.460  1.00  0.00     0.014 A 
ATOM      3  C   UNL     1      46.548   7.050  18.543  1.00  0.00     0.014 A 
ATOM      4  C   UNL     1      44.235   8.589  18.217  1.00  0.00     0.047 A 
ATOM      5  C   UNL     1      45.906   7.096  17.302  1.00  0.00     0.047 A 
ATOM      6  C   UNL     1      44.747   7.866  17.136  1.00  0.00     0.115 A 
ENDROOT
BRANCH   1   7
ATOM      7  C   UNL     1      46.714   7.733  20.952  1.00  0.00     0.071 C 
ATOM      8  O   UNL     1      46.569   8.673  21.778  1.00  0.00    -0.545 OA
ATOM      9  O   UNL     1      47.519   6.653  21.296  1.00  0.00    -0.545 OA
ENDBRANCH   1   7
BRANCH   6  10
ATOM     10  O   UNL     1      44.099   7.918  15.904  1.00  0.00    -0.508 OA
ATOM     11  H   UNL     1      44.376   7.319  15.135  1.00  0.00     0.293 HD
ENDBRANCH   6  10
TORSDOF 2
ENDMDL
MODEL 7
REMARK VINA RESULT:    -4.144      3.574      6.315
REMARK INTER + INTRA:          -4.535
REMARK INTER:                  -4.501
REMARK INTRA:                  -0.034
REMARK UNBOUND:                -0.027
REMARK SMILES O=C([O-])c1ccc(O)cc1
REMARK SMILES IDX 4 1 5 2 10 3 6 4 9 5 7 6 2 7 1 8 3 9 8 10
REMARK H PARENT 8 11
REMARK Flexibility Score: inf
ROOT
ATOM      1  C   UNL     1      46.225   6.830  16.983  1.00  0.00    -0.003 A 
ATOM      2  C   UNL     1      46.817   7.050  18.239  1.00  0.00     0.014 A 
ATOM      3  C   UNL     1      44.952   7.373  16.725  1.00  0.00     0.014 A 
ATOM      4  C   UNL     1      46.151   7.795  19.216  1.00  0.00     0.047 A 
ATOM      5  C   UNL     1      44.289   8.118  17.704  1.00  0.00     0.047 A 
ATOM      6  C   UNL     1      44.887   8.332  18.953  1.00  0.00     0.115 A 
ENDROOT
BRANCH   1   7
ATOM      7  C   UNL     1      46.933   6.041  15.950  1.00  0.00     0.071 C 
ATOM      8  O   UNL     1      47.813   5.201  16.277  1.00  0.00    -0.545 OA
ATOM      9  O   UNL     1      46.637   6.217  14.603  1.00  0.00    -0.545 OA
ENDBRANCH   1   7
BRANCH   6  10
ATOM     10  O   UNL     1      44.235   9.072  19.936  1.00  0.00    -0.508 OA
ATOM     11  H   UNL     1      44.399   8.904  20.922  1.00  0.00     0.293 HD
ENDBRANCH   6  10
TORSDOF 2
ENDMDL
MODEL 8
REMARK VINA RESULT:    -4.058      3.532      6.318
REMARK INTER + INTRA:          -4.441
REMARK INTER:                  -4.414
REMARK INTRA:                  -0.028
REMARK UNBOUND:                -0.027
REMARK SMILES O=C([O-])c1ccc(O)cc1
REMARK SMILES IDX 4 1 5 2 10 3 6 4 9 5 7 6 2 7 1 8 3 9 8 10
REMARK H PARENT 8 11
REMARK Flexibility Score: inf
ROOT
ATOM      1  C   UNL     1      45.216   7.187  16.734  1.00  0.00    -0.003 A 
ATOM      2  C   UNL     1      46.374   6.669  17.340  1.00  0.00     0.014 A 
ATOM      3  C   UNL     1      44.428   8.110  17.447  1.00  0.00     0.014 A 
ATOM      4  C   UNL     1      46.736   7.065  18.631  1.00  0.00     0.047 A 
ATOM      5  C   UNL     1      44.793   8.504  18.737  1.00  0.00     0.047 A 
ATOM      6  C   UNL     1      45.949   7.982  19.333  1.00  0.00     0.115 A 
ENDROOT
BRANCH   1   7
ATOM      7  C   UNL     1      44.835   6.766  15.367  1.00  0.00     0.071 C 
ATOM      8  O   UNL     1      45.480   7.179  14.367  1.00  0.00    -0.545 OA
ATOM      9  O   UNL     1      43.759   5.908  15.168  1.00  0.00    -0.545 OA
ENDBRANCH   1   7
BRANCH   6  10
ATOM     10  O   UNL     1      46.321   8.368  20.619  1.00  0.00    -0.508 OA
ATOM     11  H   UNL     1      45.972   7.885  21.438  1.00  0.00     0.293 HD
ENDBRANCH   6  10
TORSDOF 2
ENDMDL
MODEL 9
REMARK VINA RESULT:    -4.019      2.737      4.411
REMARK INTER + INTRA:          -4.399
REMARK INTER:                  -4.363
REMARK INTRA:                  -0.036
REMARK UNBOUND:                -0.027
REMARK SMILES O=C([O-])c1ccc(O)cc1
REMARK SMILES IDX 4 1 5 2 10 3 6 4 9 5 7 6 2 7 1 8 3 9 8 10
REMARK H PARENT 8 11
REMARK Flexibility Score: inf
ROOT
ATOM      1  C   UNL     1      44.928   8.655  18.984  1.00  0.00    -0.003 A 
ATOM      2  C   UNL     1      45.825   7.734  18.413  1.00  0.00     0.014 A 
ATOM      3  C   UNL     1      44.914   8.814  20.383  1.00  0.00     0.014 A 
ATOM      4  C   UNL     1      46.688   6.990  19.222  1.00  0.00     0.047 A 
ATOM      5  C   UNL     1      45.779   8.069  21.188  1.00  0.00     0.047 A 
ATOM      6  C   UNL     1      46.669   7.154  20.610  1.00  0.00     0.115 A 
ENDROOT
BRANCH   1   7
ATOM      7  C   UNL     1      44.015   9.441  18.125  1.00  0.00     0.071 C 
ATOM      8  O   UNL     1      43.249  10.306  18.628  1.00  0.00    -0.545 OA
ATOM      9  O   UNL     1      43.990   9.236  16.750  1.00  0.00    -0.545 OA
ENDBRANCH   1   7
BRANCH   6  10
ATOM     10  O   UNL     1      47.535   6.405  21.404  1.00  0.00    -0.508 OA
ATOM     11  H   UNL     1      48.395   6.021  21.032  1.00  0.00     0.293 HD
ENDBRANCH   6  10
TORSDOF 2
ENDMDL
