MODEL 1
REMARK VINA RESULT:    -4.819      0.000      0.000
REMARK INTER + INTRA:          -4.819
REMARK INTER:                  -4.819
REMARK INTRA:                   0.000
REMARK UNBOUND:                 0.000
REMARK SMILES CC1(C)O[C@]2(C)CC[C@H]1CC2
REMARK SMILES IDX 1 1 2 2 9 3 8 4 7 5 5 6 4 7 11 8 10 9 6 10 3 11
REMARK H PARENT
REMARK Flexibility Score: inf
ROOT
ATOM      1  C   UNL     1       6.375   6.059 -31.299  1.00  0.00     0.042 C 
ATOM      2  C   UNL     1       4.931   5.512 -31.276  1.00  0.00     0.066 C 
ATOM      3  C   UNL     1       4.927   3.961 -30.987  1.00  0.00     0.021 C 
ATOM      4  C   UNL     1       5.658   3.245 -32.147  1.00  0.00     0.009 C 
ATOM      5  C   UNL     1       5.050   3.706 -33.493  1.00  0.00     0.035 C 
ATOM      6  C   UNL     1       3.851   4.662 -33.230  1.00  0.00     0.066 C 
ATOM      7  O   UNL     1       4.318   5.820 -32.537  1.00  0.00    -0.369 OA
ATOM      8  C   UNL     1       2.802   3.927 -32.346  1.00  0.00     0.035 C 
ATOM      9  C   UNL     1       3.463   3.460 -31.027  1.00  0.00     0.009 C 
ATOM     10  C   UNL     1       3.218   5.100 -34.554  1.00  0.00     0.042 C 
ATOM     11  C   UNL     1       4.167   6.276 -30.173  1.00  0.00     0.042 C 
ENDROOT
TORSDOF 0
ENDMDL
MODEL 2
REMARK VINA RESULT:    -4.806      1.201      1.499
REMARK INTER + INTRA:          -4.806
REMARK INTER:                  -4.806
REMARK INTRA:                   0.000
REMARK UNBOUND:                 0.000
REMARK SMILES CC1(C)O[C@]2(C)CC[C@H]1CC2
REMARK SMILES IDX 1 1 2 2 9 3 8 4 7 5 5 6 4 7 11 8 10 9 6 10 3 11
REMARK H PARENT
REMARK Flexibility Score: inf
ROOT
ATOM      1  C   UNL     1       4.250   5.922 -29.733  1.00  0.00     0.042 C 
ATOM      2  C   UNL     1       3.489   5.137 -30.822  1.00  0.00     0.066 C 
ATOM      3  C   UNL     1       3.976   3.637 -30.873  1.00  0.00     0.021 C 
ATOM      4  C   UNL     1       5.471   3.622 -31.273  1.00  0.00     0.009 C 
ATOM      5  C   UNL     1       5.662   4.462 -32.559  1.00  0.00     0.035 C 
ATOM      6  C   UNL     1       4.281   4.965 -33.069  1.00  0.00     0.066 C 
ATOM      7  O   UNL     1       3.691   5.805 -32.077  1.00  0.00    -0.369 OA
ATOM      8  C   UNL     1       3.355   3.738 -33.316  1.00  0.00     0.035 C 
ATOM      9  C   UNL     1       3.219   2.915 -32.013  1.00  0.00     0.009 C 
ATOM     10  C   UNL     1       4.452   5.771 -34.361  1.00  0.00     0.042 C 
ATOM     11  C   UNL     1       1.985   5.211 -30.477  1.00  0.00     0.042 C 
ENDROOT
TORSDOF 0
ENDMDL
MODEL 3
REMARK VINA RESULT:    -4.766      1.457      3.322
REMARK INTER + INTRA:          -4.766
REMARK INTER:                  -4.766
REMARK INTRA:                   0.000
REMARK UNBOUND:                 0.000
REMARK SMILES CC1(C)O[C@]2(C)CC[C@H]1CC2
REMARK SMILES IDX 1 1 2 2 9 3 8 4 7 5 5 6 4 7 11 8 10 9 6 10 3 11
REMARK H PARENT
REMARK Flexibility Score: inf
ROOT
ATOM      1  C   UNL     1       2.668   3.487 -33.911  1.00  0.00     0.042 C 
ATOM      2  C   UNL     1       3.188   4.706 -33.119  1.00  0.00     0.066 C 
ATOM      3  C   UNL     1       4.562   4.371 -32.419  1.00  0.00     0.021 C 
ATOM      4  C   UNL     1       4.325   3.238 -31.392  1.00  0.00     0.009 C 
ATOM      5  C   UNL     1       3.147   3.629 -30.467  1.00  0.00     0.035 C 
ATOM      6  C   UNL     1       2.654   5.062 -30.818  1.00  0.00     0.066 C 
ATOM      7  O   UNL     1       2.182   5.080 -32.165  1.00  0.00    -0.369 OA
ATOM      8  C   UNL     1       3.846   6.054 -30.681  1.00  0.00     0.035 C 
ATOM      9  C   UNL     1       5.008   5.607 -31.601  1.00  0.00     0.009 C 
ATOM     10  C   UNL     1       1.509   5.475 -29.887  1.00  0.00     0.042 C 
ATOM     11  C   UNL     1       3.354   5.869 -34.121  1.00  0.00     0.042 C 
ENDROOT
TORSDOF 0
ENDMDL
MODEL 4
REMARK VINA RESULT:    -4.696      1.075      3.256
REMARK INTER + INTRA:          -4.696
REMARK INTER:                  -4.696
REMARK INTRA:                   0.000
REMARK UNBOUND:                 0.000
REMARK SMILES CC1(C)O[C@]2(C)CC[C@H]1CC2
REMARK SMILES IDX 1 1 2 2 9 3 8 4 7 5 5 6 4 7 11 8 10 9 6 10 3 11
REMARK H PARENT
REMARK Flexibility Score: inf
ROOT
ATOM      1  C   UNL     1       2.529   5.128 -32.808  1.00  0.00     0.042 C 
ATOM      2  C   UNL     1       3.965   4.564 -32.749  1.00  0.00     0.066 C 
ATOM      3  C   UNL     1       4.211   3.802 -31.389  1.00  0.00     0.021 C 
ATOM      4  C   UNL     1       4.082   4.819 -30.229  1.00  0.00     0.009 C 
ATOM      5  C   UNL     1       4.988   6.039 -30.520  1.00  0.00     0.035 C 
ATOM      6  C   UNL     1       5.791   5.799 -31.830  1.00  0.00     0.066 C 
ATOM      7  O   UNL     1       4.881   5.656 -32.920  1.00  0.00    -0.369 OA
ATOM      8  C   UNL     1       6.620   4.490 -31.682  1.00  0.00     0.035 C 
ATOM      9  C   UNL     1       5.676   3.306 -31.364  1.00  0.00     0.009 C 
ATOM     10  C   UNL     1       6.718   6.986 -32.112  1.00  0.00     0.042 C 
ATOM     11  C   UNL     1       4.133   3.607 -33.949  1.00  0.00     0.042 C 
ENDROOT
TORSDOF 0
ENDMDL
MODEL 5
REMARK VINA RESULT:    -4.596      0.965      3.301
REMARK INTER + INTRA:          -4.596
REMARK INTER:                  -4.596
REMARK INTRA:                   0.000
REMARK UNBOUND:                 0.000
REMARK SMILES CC1(C)O[C@]2(C)CC[C@H]1CC2
REMARK SMILES IDX 1 1 2 2 9 3 8 4 7 5 5 6 4 7 11 8 10 9 6 10 3 11
REMARK H PARENT
REMARK Flexibility Score: inf
ROOT
ATOM      1  C   UNL     1       1.927   5.009 -33.086  1.00  0.00     0.042 C 
ATOM      2  C   UNL     1       3.421   4.624 -33.026  1.00  0.00     0.066 C 
ATOM      3  C   UNL     1       3.619   3.277 -32.229  1.00  0.00     0.021 C 
ATOM      4  C   UNL     1       3.155   3.499 -30.769  1.00  0.00     0.009 C 
ATOM      5  C   UNL     1       3.854   4.757 -30.199  1.00  0.00     0.035 C 
ATOM      6  C   UNL     1       4.855   5.324 -31.247  1.00  0.00     0.066 C 
ATOM      7  O   UNL     1       4.137   5.711 -32.419  1.00  0.00    -0.369 OA
ATOM      8  C   UNL     1       5.880   4.214 -31.620  1.00  0.00     0.035 C 
ATOM      9  C   UNL     1       5.133   2.969 -32.156  1.00  0.00     0.009 C 
ATOM     10  C   UNL     1       5.579   6.550 -30.683  1.00  0.00     0.042 C 
ATOM     11  C   UNL     1       3.917   4.477 -34.481  1.00  0.00     0.042 C 
ENDROOT
TORSDOF 0
ENDMDL
MODEL 6
REMARK VINA RESULT:    -4.304      1.167      2.698
REMARK INTER + INTRA:          -4.304
REMARK INTER:                  -4.304
REMARK INTRA:                   0.000
REMARK UNBOUND:                 0.000
REMARK SMILES CC1(C)O[C@]2(C)CC[C@H]1CC2
REMARK SMILES IDX 1 1 2 2 9 3 8 4 7 5 5 6 4 7 11 8 10 9 6 10 3 11
REMARK H PARENT
REMARK Flexibility Score: inf
ROOT
ATOM      1  C   UNL     1       4.605   5.894 -34.267  1.00  0.00     0.042 C 
ATOM      2  C   UNL     1       5.112   5.370 -32.906  1.00  0.00     0.066 C 
ATOM      3  C   UNL     1       5.181   3.793 -32.905  1.00  0.00     0.021 C 
ATOM      4  C   UNL     1       3.747   3.241 -33.090  1.00  0.00     0.009 C 
ATOM      5  C   UNL     1       2.810   3.900 -32.050  1.00  0.00     0.035 C 
ATOM      6  C   UNL     1       3.634   4.827 -31.110  1.00  0.00     0.066 C 
ATOM      7  O   UNL     1       4.235   5.865 -31.883  1.00  0.00    -0.369 OA
ATOM      8  C   UNL     1       4.752   3.987 -30.426  1.00  0.00     0.035 C 
ATOM      9  C   UNL     1       5.644   3.325 -31.504  1.00  0.00     0.009 C 
ATOM     10  C   UNL     1       2.724   5.460 -30.053  1.00  0.00     0.042 C 
ATOM     11  C   UNL     1       6.512   5.978 -32.672  1.00  0.00     0.042 C 
ENDROOT
TORSDOF 0
ENDMDL
MODEL 7
REMARK VINA RESULT:    -4.303      1.346      2.614
REMARK INTER + INTRA:          -4.303
REMARK INTER:                  -4.303
REMARK INTRA:                   0.000
REMARK UNBOUND:                 0.000
REMARK SMILES CC1(C)O[C@]2(C)CC[C@H]1CC2
REMARK SMILES IDX 1 1 2 2 9 3 8 4 7 5 5 6 4 7 11 8 10 9 6 10 3 11
REMARK H PARENT
REMARK Flexibility Score: inf
ROOT
ATOM      1  C   UNL     1       3.778   4.651 -29.928  1.00  0.00     0.042 C 
ATOM      2  C   UNL     1       3.959   4.814 -31.453  1.00  0.00     0.066 C 
ATOM      3  C   UNL     1       4.547   3.495 -32.089  1.00  0.00     0.021 C 
ATOM      4  C   UNL     1       5.955   3.251 -31.496  1.00  0.00     0.009 C 
ATOM      5  C   UNL     1       6.801   4.538 -31.648  1.00  0.00     0.035 C 
ATOM      6  C   UNL     1       5.989   5.614 -32.425  1.00  0.00     0.066 C 
ATOM      7  O   UNL     1       4.815   5.943 -31.682  1.00  0.00    -0.369 OA
ATOM      8  C   UNL     1       5.571   5.032 -33.807  1.00  0.00     0.035 C 
ATOM      9  C   UNL     1       4.754   3.734 -33.604  1.00  0.00     0.009 C 
ATOM     10  C   UNL     1       6.827   6.882 -32.613  1.00  0.00     0.042 C 
ATOM     11  C   UNL     1       2.571   5.137 -32.048  1.00  0.00     0.042 C 
ENDROOT
TORSDOF 0
ENDMDL
MODEL 8
REMARK VINA RESULT:    -4.102      1.360      2.666
REMARK INTER + INTRA:          -4.102
REMARK INTER:                  -4.102
REMARK INTRA:                   0.000
REMARK UNBOUND:                 0.000
REMARK SMILES CC1(C)O[C@]2(C)CC[C@H]1CC2
REMARK SMILES IDX 1 1 2 2 9 3 8 4 7 5 5 6 4 7 11 8 10 9 6 10 3 11
REMARK H PARENT
REMARK Flexibility Score: inf
ROOT
ATOM      1  C   UNL     1       6.260   3.784 -34.369  1.00  0.00     0.042 C 
ATOM      2  C   UNL     1       5.858   4.919 -33.402  1.00  0.00     0.066 C 
ATOM      3  C   UNL     1       6.456   4.667 -31.965  1.00  0.00     0.021 C 
ATOM      4  C   UNL     1       5.844   3.362 -31.402  1.00  0.00     0.009 C 
ATOM      5  C   UNL     1       4.301   3.434 -31.514  1.00  0.00     0.035 C 
ATOM      6  C   UNL     1       3.878   4.825 -32.069  1.00  0.00     0.066 C 
ATOM      7  O   UNL     1       4.424   4.995 -33.377  1.00  0.00    -0.369 OA
ATOM      8  C   UNL     1       4.440   5.935 -31.133  1.00  0.00     0.035 C 
ATOM      9  C   UNL     1       5.979   5.804 -31.030  1.00  0.00     0.009 C 
ATOM     10  C   UNL     1       2.352   4.923 -32.153  1.00  0.00     0.042 C 
ATOM     11  C   UNL     1       6.396   6.240 -33.995  1.00  0.00     0.042 C 
ENDROOT
TORSDOF 0
ENDMDL
MODEL 9
REMARK VINA RESULT:    -4.021      9.313     10.767
REMARK INTER + INTRA:          -4.021
REMARK INTER:                  -4.021
REMARK INTRA:                   0.000
REMARK UNBOUND:                 0.000
REMARK SMILES CC1(C)O[C@]2(C)CC[C@H]1CC2
REMARK SMILES IDX 1 1 2 2 9 3 8 4 7 5 5 6 4 7 11 8 10 9 6 10 3 11
REMARK H PARENT
REMARK Flexibility Score: inf
ROOT
ATOM      1  C   UNL     1      13.149   1.905 -31.753  1.00  0.00     0.042 C 
ATOM      2  C   UNL     1      14.514   2.620 -31.656  1.00  0.00     0.066 C 
ATOM      3  C   UNL     1      14.720   3.236 -30.218  1.00  0.00     0.021 C 
ATOM      4  C   UNL     1      13.633   4.314 -29.987  1.00  0.00     0.009 C 
ATOM      5  C   UNL     1      13.637   5.303 -31.178  1.00  0.00     0.035 C 
ATOM      6  C   UNL     1      14.786   4.939 -32.162  1.00  0.00     0.066 C 
ATOM      7  O   UNL     1      14.564   3.627 -32.678  1.00  0.00    -0.369 OA
ATOM      8  C   UNL     1      16.138   4.962 -31.391  1.00  0.00     0.035 C 
ATOM      9  C   UNL     1      16.076   3.981 -30.195  1.00  0.00     0.009 C 
ATOM     10  C   UNL     1      14.822   5.930 -33.329  1.00  0.00     0.042 C 
ATOM     11  C   UNL     1      15.605   1.571 -31.962  1.00  0.00     0.042 C 
ENDROOT
TORSDOF 0
ENDMDL
