MODEL 1
REMARK VINA RESULT:    -6.715      0.000      0.000
REMARK INTER + INTRA:          -7.151
REMARK INTER:                  -7.108
REMARK INTRA:                  -0.043
REMARK UNBOUND:                -0.043
REMARK SMILES COc1ccc2ccc(=O)oc2c1
REMARK SMILES IDX 3 1 13 2 12 3 6 4 5 5 4 6 7 7 8 8 9 9 10 10 11 11 2 12 1 13
REMARK H PARENT
REMARK Flexibility Score: inf
ROOT
ATOM      1  C   UNL     1      10.190  54.969   4.453  1.00  0.00     0.122 A 
ATOM      2  C   UNL     1      11.476  55.472   4.693  1.00  0.00     0.094 A 
ATOM      3  C   UNL     1      11.905  55.729   5.999  1.00  0.00     0.142 A 
ATOM      4  C   UNL     1      11.039  55.481   7.084  1.00  0.00     0.018 A 
ATOM      5  C   UNL     1       9.753  54.978   6.851  1.00  0.00     0.016 A 
ATOM      6  C   UNL     1       9.330  54.722   5.542  1.00  0.00     0.047 A 
ATOM      7  C   UNL     1      11.497  55.748   8.379  1.00  0.00     0.019 A 
ATOM      8  C   UNL     1      12.786  56.248   8.558  1.00  0.00     0.094 A 
ATOM      9  C   UNL     1      13.590  56.470   7.434  1.00  0.00     0.336 A 
ATOM     10  O   UNL     1      14.756  56.922   7.576  1.00  0.00    -0.246 OA
ATOM     11  O   UNL     1      13.129  56.207   6.214  1.00  0.00    -0.423 OA
ENDROOT
BRANCH   1  12
ATOM     12  O   UNL     1       9.809  54.728   3.124  1.00  0.00    -0.497 OA
ATOM     13  C   UNL     1      10.629  54.995   1.992  1.00  0.00     0.278 C 
ENDBRANCH   1  12
TORSDOF 1
ENDMDL
MODEL 2
REMARK VINA RESULT:    -6.628     10.645     12.202
REMARK INTER + INTRA:          -7.058
REMARK INTER:                  -7.025
REMARK INTRA:                  -0.033
REMARK UNBOUND:                -0.043
REMARK SMILES COc1ccc2ccc(=O)oc2c1
REMARK SMILES IDX 3 1 13 2 12 3 6 4 5 5 4 6 7 7 8 8 9 9 10 10 11 11 2 12 1 13
REMARK H PARENT
REMARK Flexibility Score: inf
ROOT
ATOM      1  C   UNL     1      13.719  52.326  -4.386  1.00  0.00     0.122 A 
ATOM      2  C   UNL     1      13.168  51.501  -3.395  1.00  0.00     0.094 A 
ATOM      3  C   UNL     1      12.503  50.321  -3.744  1.00  0.00     0.142 A 
ATOM      4  C   UNL     1      12.384  49.957  -5.102  1.00  0.00     0.018 A 
ATOM      5  C   UNL     1      12.933  50.777  -6.095  1.00  0.00     0.016 A 
ATOM      6  C   UNL     1      13.597  51.956  -5.740  1.00  0.00     0.047 A 
ATOM      7  C   UNL     1      11.713  48.771  -5.418  1.00  0.00     0.019 A 
ATOM      8  C   UNL     1      11.184  47.989  -4.393  1.00  0.00     0.094 A 
ATOM      9  C   UNL     1      11.340  48.413  -3.067  1.00  0.00     0.336 A 
ATOM     10  O   UNL     1      10.870  47.722  -2.128  1.00  0.00    -0.246 OA
ATOM     11  O   UNL     1      11.983  49.545  -2.795  1.00  0.00    -0.423 OA
ENDROOT
BRANCH   1  12
ATOM     12  O   UNL     1      14.377  53.498  -3.983  1.00  0.00    -0.497 OA
ATOM     13  C   UNL     1      13.865  54.813  -4.173  1.00  0.00     0.278 C 
ENDBRANCH   1  12
TORSDOF 1
ENDMDL
MODEL 3
REMARK VINA RESULT:    -6.568      1.070      4.692
REMARK INTER + INTRA:          -6.995
REMARK INTER:                  -6.963
REMARK INTRA:                  -0.032
REMARK UNBOUND:                -0.043
REMARK SMILES COc1ccc2ccc(=O)oc2c1
REMARK SMILES IDX 3 1 13 2 12 3 6 4 5 5 4 6 7 7 8 8 9 9 10 10 11 11 2 12 1 13
REMARK H PARENT
REMARK Flexibility Score: inf
ROOT
ATOM      1  C   UNL     1      13.132  56.438   7.540  1.00  0.00     0.122 A 
ATOM      2  C   UNL     1      12.917  56.195   6.177  1.00  0.00     0.094 A 
ATOM      3  C   UNL     1      11.705  55.656   5.735  1.00  0.00     0.142 A 
ATOM      4  C   UNL     1      10.690  55.355   6.667  1.00  0.00     0.018 A 
ATOM      5  C   UNL     1      10.899  55.596   8.030  1.00  0.00     0.016 A 
ATOM      6  C   UNL     1      12.114  56.136   8.466  1.00  0.00     0.047 A 
ATOM      7  C   UNL     1       9.488  54.816   6.194  1.00  0.00     0.019 A 
ATOM      8  C   UNL     1       9.329  54.594   4.827  1.00  0.00     0.094 A 
ATOM      9  C   UNL     1      10.380  54.918   3.961  1.00  0.00     0.336 A 
ATOM     10  O   UNL     1      10.255  54.725   2.724  1.00  0.00    -0.246 OA
ATOM     11  O   UNL     1      11.512  55.429   4.437  1.00  0.00    -0.423 OA
ENDROOT
BRANCH   1  12
ATOM     12  O   UNL     1      14.366  56.981   7.931  1.00  0.00    -0.497 OA
ATOM     13  C   UNL     1      15.137  56.514   9.034  1.00  0.00     0.278 C 
ENDBRANCH   1  12
TORSDOF 1
ENDMDL
MODEL 4
REMARK VINA RESULT:    -6.507     10.856     12.121
REMARK INTER + INTRA:          -6.930
REMARK INTER:                  -6.896
REMARK INTRA:                  -0.035
REMARK UNBOUND:                -0.043
REMARK SMILES COc1ccc2ccc(=O)oc2c1
REMARK SMILES IDX 3 1 13 2 12 3 6 4 5 5 4 6 7 7 8 8 9 9 10 10 11 11 2 12 1 13
REMARK H PARENT
REMARK Flexibility Score: inf
ROOT
ATOM      1  C   UNL     1      12.280  49.739  -3.639  1.00  0.00     0.122 A 
ATOM      2  C   UNL     1      12.911  50.965  -3.387  1.00  0.00     0.094 A 
ATOM      3  C   UNL     1      13.313  51.787  -4.444  1.00  0.00     0.142 A 
ATOM      4  C   UNL     1      13.082  51.381  -5.776  1.00  0.00     0.018 A 
ATOM      5  C   UNL     1      12.452  50.158  -6.034  1.00  0.00     0.016 A 
ATOM      6  C   UNL     1      12.052  49.340  -4.972  1.00  0.00     0.047 A 
ATOM      7  C   UNL     1      13.496  52.226  -6.812  1.00  0.00     0.019 A 
ATOM      8  C   UNL     1      14.119  53.433  -6.502  1.00  0.00     0.094 A 
ATOM      9  C   UNL     1      14.315  53.771  -5.158  1.00  0.00     0.336 A 
ATOM     10  O   UNL     1      14.876  54.856  -4.858  1.00  0.00    -0.246 OA
ATOM     11  O   UNL     1      13.911  52.949  -4.192  1.00  0.00    -0.423 OA
ENDROOT
BRANCH   1  12
ATOM     12  O   UNL     1      11.896  48.952  -2.543  1.00  0.00    -0.497 OA
ATOM     13  C   UNL     1      10.873  47.962  -2.583  1.00  0.00     0.278 C 
ENDBRANCH   1  12
TORSDOF 1
ENDMDL
MODEL 5
REMARK VINA RESULT:    -6.356      1.384      4.550
REMARK INTER + INTRA:          -6.771
REMARK INTER:                  -6.728
REMARK INTRA:                  -0.043
REMARK UNBOUND:                -0.043
REMARK SMILES COc1ccc2ccc(=O)oc2c1
REMARK SMILES IDX 3 1 13 2 12 3 6 4 5 5 4 6 7 7 8 8 9 9 10 10 11 11 2 12 1 13
REMARK H PARENT
REMARK Flexibility Score: inf
ROOT
ATOM      1  C   UNL     1      11.767  55.673   7.439  1.00  0.00     0.122 A 
ATOM      2  C   UNL     1      12.287  55.753   6.140  1.00  0.00     0.094 A 
ATOM      3  C   UNL     1      11.472  55.495   5.032  1.00  0.00     0.142 A 
ATOM      4  C   UNL     1      10.117  55.152   5.222  1.00  0.00     0.018 A 
ATOM      5  C   UNL     1       9.592  55.070   6.518  1.00  0.00     0.016 A 
ATOM      6  C   UNL     1      10.412  55.329   7.621  1.00  0.00     0.047 A 
ATOM      7  C   UNL     1       9.329  54.900   4.094  1.00  0.00     0.019 A 
ATOM      8  C   UNL     1       9.899  54.994   2.826  1.00  0.00     0.094 A 
ATOM      9  C   UNL     1      11.251  55.340   2.714  1.00  0.00     0.336 A 
ATOM     10  O   UNL     1      11.783  55.430   1.577  1.00  0.00    -0.246 OA
ATOM     11  O   UNL     1      11.978  55.575   3.803  1.00  0.00    -0.423 OA
ENDROOT
BRANCH   1  12
ATOM     12  O   UNL     1      12.626  55.941   8.515  1.00  0.00    -0.497 OA
ATOM     13  C   UNL     1      13.869  56.626   8.400  1.00  0.00     0.278 C 
ENDBRANCH   1  12
TORSDOF 1
ENDMDL
MODEL 6
REMARK VINA RESULT:    -6.342      1.287      1.803
REMARK INTER + INTRA:          -6.756
REMARK INTER:                  -6.724
REMARK INTRA:                  -0.032
REMARK UNBOUND:                -0.043
REMARK SMILES COc1ccc2ccc(=O)oc2c1
REMARK SMILES IDX 3 1 13 2 12 3 6 4 5 5 4 6 7 7 8 8 9 9 10 10 11 11 2 12 1 13
REMARK H PARENT
REMARK Flexibility Score: inf
ROOT
ATOM      1  C   UNL     1      10.817  55.455   3.025  1.00  0.00     0.122 A 
ATOM      2  C   UNL     1      11.740  55.766   4.033  1.00  0.00     0.094 A 
ATOM      3  C   UNL     1      11.381  55.662   5.381  1.00  0.00     0.142 A 
ATOM      4  C   UNL     1      10.081  55.240   5.730  1.00  0.00     0.018 A 
ATOM      5  C   UNL     1       9.155  54.928   4.727  1.00  0.00     0.016 A 
ATOM      6  C   UNL     1       9.520  55.034   3.381  1.00  0.00     0.047 A 
ATOM      7  C   UNL     1       9.752  55.146   7.086  1.00  0.00     0.019 A 
ATOM      8  C   UNL     1      10.710  55.469   8.046  1.00  0.00     0.094 A 
ATOM      9  C   UNL     1      11.980  55.880   7.626  1.00  0.00     0.336 A 
ATOM     10  O   UNL     1      12.858  56.176   8.477  1.00  0.00    -0.246 OA
ATOM     11  O   UNL     1      12.266  55.960   6.329  1.00  0.00    -0.423 OA
ENDROOT
BRANCH   1  12
ATOM     12  O   UNL     1      11.228  55.576   1.688  1.00  0.00    -0.497 OA
ATOM     13  C   UNL     1      11.022  54.581   0.691  1.00  0.00     0.278 C 
ENDBRANCH   1  12
TORSDOF 1
ENDMDL
MODEL 7
REMARK VINA RESULT:    -6.254     11.302     12.356
REMARK INTER + INTRA:          -6.663
REMARK INTER:                  -6.629
REMARK INTRA:                  -0.035
REMARK UNBOUND:                -0.043
REMARK SMILES COc1ccc2ccc(=O)oc2c1
REMARK SMILES IDX 3 1 13 2 12 3 6 4 5 5 4 6 7 7 8 8 9 9 10 10 11 11 2 12 1 13
REMARK H PARENT
REMARK Flexibility Score: inf
ROOT
ATOM      1  C   UNL     1      12.054  49.376  -4.699  1.00  0.00     0.122 A 
ATOM      2  C   UNL     1      12.414  50.192  -5.780  1.00  0.00     0.094 A 
ATOM      3  C   UNL     1      13.060  51.414  -5.563  1.00  0.00     0.142 A 
ATOM      4  C   UNL     1      13.351  51.829  -4.247  1.00  0.00     0.018 A 
ATOM      5  C   UNL     1      12.994  51.018  -3.162  1.00  0.00     0.016 A 
ATOM      6  C   UNL     1      12.349  49.797  -3.386  1.00  0.00     0.047 A 
ATOM      7  C   UNL     1      13.998  53.056  -4.062  1.00  0.00     0.019 A 
ATOM      8  C   UNL     1      14.332  53.827  -5.174  1.00  0.00     0.094 A 
ATOM      9  C   UNL     1      14.011  53.351  -6.451  1.00  0.00     0.336 A 
ATOM     10  O   UNL     1      14.305  54.033  -7.467  1.00  0.00    -0.246 OA
ATOM     11  O   UNL     1      13.397  52.181  -6.598  1.00  0.00    -0.423 OA
ENDROOT
BRANCH   1  12
ATOM     12  O   UNL     1      11.408  48.160  -4.971  1.00  0.00    -0.497 OA
ATOM     13  C   UNL     1      10.570  47.471  -4.049  1.00  0.00     0.278 C 
ENDBRANCH   1  12
TORSDOF 1
ENDMDL
MODEL 8
REMARK VINA RESULT:    -6.231     11.447     12.659
REMARK INTER + INTRA:          -6.639
REMARK INTER:                  -6.606
REMARK INTRA:                  -0.033
REMARK UNBOUND:                -0.043
REMARK SMILES COc1ccc2ccc(=O)oc2c1
REMARK SMILES IDX 3 1 13 2 12 3 6 4 5 5 4 6 7 7 8 8 9 9 10 10 11 11 2 12 1 13
REMARK H PARENT
REMARK Flexibility Score: inf
ROOT
ATOM      1  C   UNL     1      13.714  52.210  -5.994  1.00  0.00     0.122 A 
ATOM      2  C   UNL     1      12.928  51.078  -6.249  1.00  0.00     0.094 A 
ATOM      3  C   UNL     1      12.493  50.265  -5.197  1.00  0.00     0.142 A 
ATOM      4  C   UNL     1      12.847  50.586  -3.870  1.00  0.00     0.018 A 
ATOM      5  C   UNL     1      13.632  51.716  -3.609  1.00  0.00     0.016 A 
ATOM      6  C   UNL     1      14.064  52.525  -4.666  1.00  0.00     0.047 A 
ATOM      7  C   UNL     1      12.397  49.753  -2.840  1.00  0.00     0.019 A 
ATOM      8  C   UNL     1      11.618  48.640  -3.151  1.00  0.00     0.094 A 
ATOM      9  C   UNL     1      11.305  48.384  -4.491  1.00  0.00     0.336 A 
ATOM     10  O   UNL     1      10.604  47.384  -4.792  1.00  0.00    -0.246 OA
ATOM     11  O   UNL     1      11.746  49.193  -5.451  1.00  0.00    -0.423 OA
ENDROOT
BRANCH   1  12
ATOM     12  O   UNL     1      14.123  52.993  -7.085  1.00  0.00    -0.497 OA
ATOM     13  C   UNL     1      13.573  54.264  -7.413  1.00  0.00     0.278 C 
ENDBRANCH   1  12
TORSDOF 1
ENDMDL
MODEL 9
REMARK VINA RESULT:    -6.210      1.133      1.249
REMARK INTER + INTRA:          -6.616
REMARK INTER:                  -6.583
REMARK INTRA:                  -0.033
REMARK UNBOUND:                -0.043
REMARK SMILES COc1ccc2ccc(=O)oc2c1
REMARK SMILES IDX 3 1 13 2 12 3 6 4 5 5 4 6 7 7 8 8 9 9 10 10 11 11 2 12 1 13
REMARK H PARENT
REMARK Flexibility Score: inf
ROOT
ATOM      1  C   UNL     1       9.927  55.059   5.384  1.00  0.00     0.122 A 
ATOM      2  C   UNL     1      11.226  55.522   5.133  1.00  0.00     0.094 A 
ATOM      3  C   UNL     1      12.062  55.897   6.190  1.00  0.00     0.142 A 
ATOM      4  C   UNL     1      11.596  55.808   7.518  1.00  0.00     0.018 A 
ATOM      5  C   UNL     1      10.299  55.346   7.775  1.00  0.00     0.016 A 
ATOM      6  C   UNL     1       9.468  54.973   6.713  1.00  0.00     0.047 A 
ATOM      7  C   UNL     1      12.456  56.190   8.554  1.00  0.00     0.019 A 
ATOM      8  C   UNL     1      13.738  56.644   8.246  1.00  0.00     0.094 A 
ATOM      9  C   UNL     1      14.132  56.705   6.904  1.00  0.00     0.336 A 
ATOM     10  O   UNL     1      15.285  57.112   6.606  1.00  0.00    -0.246 OA
ATOM     11  O   UNL     1      13.294  56.335   5.939  1.00  0.00    -0.423 OA
ENDROOT
BRANCH   1  12
ATOM     12  O   UNL     1       9.129  54.696   4.288  1.00  0.00    -0.497 OA
ATOM     13  C   UNL     1       8.125  55.527   3.714  1.00  0.00     0.278 C 
ENDBRANCH   1  12
TORSDOF 1
ENDMDL
