MODEL 1
REMARK VINA RESULT:    -7.065      0.000      0.000
REMARK INTER + INTRA:          -8.491
REMARK INTER:                  -8.304
REMARK INTRA:                  -0.187
REMARK UNBOUND:                -0.187
REMARK SMILES O=c1c(O)c(-c2ccc(O)c(O)c2)oc2cc(O)ccc12
REMARK SMILES IDX 5 1 3 2 2 3 1 4 21 5 15 6 14 7 16 8 17 9 19 10 20 11 6 12
REMARK SMILES IDX 7 13 8 14 9 15 13 16 11 17 10 18 12 20 4 22 18 24
REMARK H PARENT 10 19 12 21 4 23 18 25
REMARK Flexibility Score: inf
ROOT
ATOM      1  C   UNL     1      -6.381  25.117  33.840  1.00  0.00     0.180 A 
ATOM      2  C   UNL     1      -7.154  24.159  34.529  1.00  0.00     0.208 A 
ATOM      3  C   UNL     1      -7.466  22.952  33.884  1.00  0.00     0.235 A 
ATOM      4  O   UNL     1      -8.148  22.075  34.484  1.00  0.00    -0.285 OA
ATOM      5  C   UNL     1      -7.022  22.736  32.571  1.00  0.00     0.069 A 
ATOM      6  C   UNL     1      -6.274  23.753  31.941  1.00  0.00     0.142 A 
ATOM      7  O   UNL     1      -5.992  24.878  32.588  1.00  0.00    -0.452 OA
ATOM      8  C   UNL     1      -5.821  23.580  30.629  1.00  0.00     0.094 A 
ATOM      9  C   UNL     1      -6.106  22.396  29.935  1.00  0.00     0.119 A 
ATOM     10  C   UNL     1      -6.847  21.386  30.557  1.00  0.00     0.047 A 
ATOM     11  C   UNL     1      -7.304  21.550  31.868  1.00  0.00     0.020 A 
ENDROOT
BRANCH   1  12
ATOM     12  C   UNL     1      -5.996  26.407  34.456  1.00  0.00     0.025 A 
ATOM     13  C   UNL     1      -5.145  26.458  35.575  1.00  0.00     0.016 A 
ATOM     14  C   UNL     1      -4.774  27.688  36.124  1.00  0.00     0.051 A 
ATOM     15  C   UNL     1      -5.237  28.883  35.558  1.00  0.00     0.157 A 
ATOM     16  C   UNL     1      -6.438  27.609  33.881  1.00  0.00     0.062 A 
ATOM     17  C   UNL     1      -6.067  28.843  34.432  1.00  0.00     0.158 A 
BRANCH  15  18
ATOM     18  O   UNL     1      -4.870  30.111  36.105  1.00  0.00    -0.504 OA
ATOM     19  H   UNL     1      -5.361  30.506  36.899  1.00  0.00     0.293 HD
ENDBRANCH  15  18
BRANCH  17  20
ATOM     20  O   UNL     1      -6.520  30.034  33.866  1.00  0.00    -0.504 OA
ATOM     21  H   UNL     1      -7.508  30.259  33.822  1.00  0.00     0.293 HD
ENDBRANCH  17  20
ENDBRANCH   1  12
BRANCH   2  22
ATOM     22  O   UNL     1      -7.624  24.423  35.817  1.00  0.00    -0.502 OA
ATOM     23  H   UNL     1      -7.872  23.685  36.465  1.00  0.00     0.293 HD
ENDBRANCH   2  22
BRANCH   9  24
ATOM     24  O   UNL     1      -5.660  22.214  28.628  1.00  0.00    -0.508 OA
ATOM     25  H   UNL     1      -4.674  22.246  28.396  1.00  0.00     0.293 HD
ENDBRANCH   9  24
TORSDOF 5
ENDMDL
MODEL 2
REMARK VINA RESULT:    -6.269      8.771     13.030
REMARK INTER + INTRA:          -7.556
REMARK INTER:                  -7.693
REMARK INTRA:                   0.137
REMARK UNBOUND:                -0.187
REMARK SMILES O=c1c(O)c(-c2ccc(O)c(O)c2)oc2cc(O)ccc12
REMARK SMILES IDX 5 1 3 2 2 3 1 4 21 5 15 6 14 7 16 8 17 9 19 10 20 11 6 12
REMARK SMILES IDX 7 13 8 14 9 15 13 16 11 17 10 18 12 20 4 22 18 24
REMARK H PARENT 10 19 12 21 4 23 18 25
REMARK Flexibility Score: inf
ROOT
ATOM      1  C   UNL     1      -4.617  36.782  34.165  1.00  0.00     0.180 A 
ATOM      2  C   UNL     1      -4.458  37.994  34.867  1.00  0.00     0.208 A 
ATOM      3  C   UNL     1      -3.679  39.011  34.293  1.00  0.00     0.235 A 
ATOM      4  O   UNL     1      -3.531  40.110  34.897  1.00  0.00    -0.285 OA
ATOM      5  C   UNL     1      -3.065  38.792  33.051  1.00  0.00     0.069 A 
ATOM      6  C   UNL     1      -3.253  37.543  32.422  1.00  0.00     0.142 A 
ATOM      7  O   UNL     1      -4.004  36.609  32.995  1.00  0.00    -0.452 OA
ATOM      8  C   UNL     1      -2.649  37.281  31.187  1.00  0.00     0.094 A 
ATOM      9  C   UNL     1      -1.858  38.259  30.568  1.00  0.00     0.119 A 
ATOM     10  C   UNL     1      -1.671  39.498  31.189  1.00  0.00     0.047 A 
ATOM     11  C   UNL     1      -2.269  39.768  32.423  1.00  0.00     0.020 A 
ENDROOT
BRANCH   1  12
ATOM     12  C   UNL     1      -5.436  35.668  34.695  1.00  0.00     0.025 A 
ATOM     13  C   UNL     1      -6.642  35.907  35.378  1.00  0.00     0.016 A 
ATOM     14  C   UNL     1      -7.410  34.839  35.848  1.00  0.00     0.051 A 
ATOM     15  C   UNL     1      -6.994  33.519  35.631  1.00  0.00     0.157 A 
ATOM     16  C   UNL     1      -5.034  34.342  34.462  1.00  0.00     0.062 A 
ATOM     17  C   UNL     1      -5.806  33.271  34.934  1.00  0.00     0.158 A 
BRANCH  15  18
ATOM     18  O   UNL     1      -7.757  32.452  36.100  1.00  0.00    -0.504 OA
ATOM     19  H   UNL     1      -8.641  32.203  35.671  1.00  0.00     0.293 HD
ENDBRANCH  15  18
BRANCH  17  20
ATOM     20  O   UNL     1      -5.397  31.957  34.713  1.00  0.00    -0.504 OA
ATOM     21  H   UNL     1      -4.786  31.474  35.363  1.00  0.00     0.293 HD
ENDBRANCH  17  20
ENDBRANCH   1  12
BRANCH   2  22
ATOM     22  O   UNL     1      -5.041  38.166  36.125  1.00  0.00    -0.502 OA
ATOM     23  H   UNL     1      -6.015  38.417  36.240  1.00  0.00     0.293 HD
ENDBRANCH   2  22
BRANCH   9  24
ATOM     24  O   UNL     1      -1.253  38.008  29.339  1.00  0.00    -0.508 OA
ATOM     25  H   UNL     1      -0.297  38.287  29.152  1.00  0.00     0.293 HD
ENDBRANCH   9  24
TORSDOF 5
ENDMDL
MODEL 3
REMARK VINA RESULT:    -6.264     18.616     20.019
REMARK INTER + INTRA:          -7.550
REMARK INTER:                  -7.462
REMARK INTRA:                  -0.088
REMARK UNBOUND:                -0.187
REMARK SMILES O=c1c(O)c(-c2ccc(O)c(O)c2)oc2cc(O)ccc12
REMARK SMILES IDX 5 1 3 2 2 3 1 4 21 5 15 6 14 7 16 8 17 9 19 10 20 11 6 12
REMARK SMILES IDX 7 13 8 14 9 15 13 16 11 17 10 18 12 20 4 22 18 24
REMARK H PARENT 10 19 12 21 4 23 18 25
REMARK Flexibility Score: inf
ROOT
ATOM      1  C   UNL     1      -3.434  38.485  19.142  1.00  0.00     0.180 A 
ATOM      2  C   UNL     1      -2.442  39.465  18.931  1.00  0.00     0.208 A 
ATOM      3  C   UNL     1      -1.258  39.097  18.272  1.00  0.00     0.235 A 
ATOM      4  O   UNL     1      -0.360  39.958  18.062  1.00  0.00    -0.285 OA
ATOM      5  C   UNL     1      -1.082  37.768  17.860  1.00  0.00     0.069 A 
ATOM      6  C   UNL     1      -2.112  36.841  18.130  1.00  0.00     0.142 A 
ATOM      7  O   UNL     1      -3.221  37.230  18.749  1.00  0.00    -0.452 OA
ATOM      8  C   UNL     1      -1.971  35.503  17.744  1.00  0.00     0.094 A 
ATOM      9  C   UNL     1      -0.808  35.078  17.087  1.00  0.00     0.119 A 
ATOM     10  C   UNL     1       0.214  35.995  16.817  1.00  0.00     0.047 A 
ATOM     11  C   UNL     1       0.082  37.333  17.200  1.00  0.00     0.020 A 
ENDROOT
BRANCH   1  12
ATOM     12  C   UNL     1      -4.717  38.797  19.813  1.00  0.00     0.025 A 
ATOM     13  C   UNL     1      -5.950  38.575  19.174  1.00  0.00     0.016 A 
ATOM     14  C   UNL     1      -7.148  38.854  19.836  1.00  0.00     0.051 A 
ATOM     15  C   UNL     1      -7.134  39.344  21.148  1.00  0.00     0.157 A 
ATOM     16  C   UNL     1      -4.709  39.269  21.136  1.00  0.00     0.062 A 
ATOM     17  C   UNL     1      -5.912  39.549  21.800  1.00  0.00     0.158 A 
BRANCH  15  18
ATOM     18  O   UNL     1      -8.327  39.625  21.810  1.00  0.00    -0.504 OA
ATOM     19  H   UNL     1      -8.971  38.890  22.078  1.00  0.00     0.293 HD
ENDBRANCH  15  18
BRANCH  17  20
ATOM     20  O   UNL     1      -5.900  40.030  23.108  1.00  0.00    -0.504 OA
ATOM     21  H   UNL     1      -5.565  40.961  23.328  1.00  0.00     0.293 HD
ENDBRANCH  17  20
ENDBRANCH   1  12
BRANCH   2  22
ATOM     22  O   UNL     1      -2.625  40.769  19.396  1.00  0.00    -0.502 OA
ATOM     23  H   UNL     1      -3.476  41.065  19.858  1.00  0.00     0.293 HD
ENDBRANCH   2  22
BRANCH   9  24
ATOM     24  O   UNL     1      -0.658  33.749  16.698  1.00  0.00    -0.508 OA
ATOM     25  H   UNL     1      -1.135  33.378  15.885  1.00  0.00     0.293 HD
ENDBRANCH   9  24
TORSDOF 5
ENDMDL
MODEL 4
REMARK VINA RESULT:    -6.152     10.555     14.731
REMARK INTER + INTRA:          -7.418
REMARK INTER:                  -7.120
REMARK INTRA:                  -0.298
REMARK UNBOUND:                -0.187
REMARK SMILES O=c1c(O)c(-c2ccc(O)c(O)c2)oc2cc(O)ccc12
REMARK SMILES IDX 5 1 3 2 2 3 1 4 21 5 15 6 14 7 16 8 17 9 19 10 20 11 6 12
REMARK SMILES IDX 7 13 8 14 9 15 13 16 11 17 10 18 12 20 4 22 18 24
REMARK H PARENT 10 19 12 21 4 23 18 25
REMARK Flexibility Score: inf
ROOT
ATOM      1  C   UNL     1      -3.192  37.951  31.355  1.00  0.00     0.180 A 
ATOM      2  C   UNL     1      -4.069  38.837  30.697  1.00  0.00     0.208 A 
ATOM      3  C   UNL     1      -3.526  39.871  29.917  1.00  0.00     0.235 A 
ATOM      4  O   UNL     1      -4.291  40.671  29.310  1.00  0.00    -0.285 OA
ATOM      5  C   UNL     1      -2.133  40.008  29.827  1.00  0.00     0.069 A 
ATOM      6  C   UNL     1      -1.323  39.095  30.535  1.00  0.00     0.142 A 
ATOM      7  O   UNL     1      -1.875  38.125  31.256  1.00  0.00    -0.452 OA
ATOM      8  C   UNL     1       0.071  39.204  30.479  1.00  0.00     0.094 A 
ATOM      9  C   UNL     1       0.669  40.219  29.719  1.00  0.00     0.119 A 
ATOM     10  C   UNL     1      -0.132  41.125  29.016  1.00  0.00     0.047 A 
ATOM     11  C   UNL     1      -1.525  41.024  29.067  1.00  0.00     0.020 A 
ENDROOT
BRANCH   1  12
ATOM     12  C   UNL     1      -3.686  36.825  32.182  1.00  0.00     0.025 A 
ATOM     13  C   UNL     1      -3.744  35.515  31.675  1.00  0.00     0.016 A 
ATOM     14  C   UNL     1      -4.190  34.465  32.481  1.00  0.00     0.051 A 
ATOM     15  C   UNL     1      -4.571  34.705  33.807  1.00  0.00     0.157 A 
ATOM     16  C   UNL     1      -4.049  37.056  33.518  1.00  0.00     0.062 A 
ATOM     17  C   UNL     1      -4.498  36.003  34.328  1.00  0.00     0.158 A 
BRANCH  15  18
ATOM     18  O   UNL     1      -5.018  33.660  34.614  1.00  0.00    -0.504 OA
ATOM     19  H   UNL     1      -5.996  33.559  34.857  1.00  0.00     0.293 HD
ENDBRANCH  15  18
BRANCH  17  20
ATOM     20  O   UNL     1      -4.871  36.239  35.650  1.00  0.00    -0.504 OA
ATOM     21  H   UNL     1      -5.112  35.479  36.277  1.00  0.00     0.293 HD
ENDBRANCH  17  20
ENDBRANCH   1  12
BRANCH   2  22
ATOM     22  O   UNL     1      -5.451  38.706  30.845  1.00  0.00    -0.502 OA
ATOM     23  H   UNL     1      -5.876  37.883  31.256  1.00  0.00     0.293 HD
ENDBRANCH   2  22
BRANCH   9  24
ATOM     24  O   UNL     1       2.055  40.336  29.657  1.00  0.00    -0.508 OA
ATOM     25  H   UNL     1       2.597  39.843  28.957  1.00  0.00     0.293 HD
ENDBRANCH   9  24
TORSDOF 5
ENDMDL
MODEL 5
REMARK VINA RESULT:    -6.059     17.704     20.020
REMARK INTER + INTRA:          -7.309
REMARK INTER:                  -7.079
REMARK INTRA:                  -0.230
REMARK UNBOUND:                -0.187
REMARK SMILES O=c1c(O)c(-c2ccc(O)c(O)c2)oc2cc(O)ccc12
REMARK SMILES IDX 5 1 3 2 2 3 1 4 21 5 15 6 14 7 16 8 17 9 19 10 20 11 6 12
REMARK SMILES IDX 7 13 8 14 9 15 13 16 11 17 10 18 12 20 4 22 18 24
REMARK H PARENT 10 19 12 21 4 23 18 25
REMARK Flexibility Score: inf
ROOT
ATOM      1  C   UNL     1      -3.455  37.431  18.711  1.00  0.00     0.180 A 
ATOM      2  C   UNL     1      -4.643  37.548  17.960  1.00  0.00     0.208 A 
ATOM      3  C   UNL     1      -5.820  37.944  18.614  1.00  0.00     0.235 A 
ATOM      4  O   UNL     1      -6.893  38.066  17.961  1.00  0.00    -0.285 OA
ATOM      5  C   UNL     1      -5.793  38.193  19.994  1.00  0.00     0.069 A 
ATOM      6  C   UNL     1      -4.570  38.030  20.680  1.00  0.00     0.142 A 
ATOM      7  O   UNL     1      -3.475  37.662  20.023  1.00  0.00    -0.452 OA
ATOM      8  C   UNL     1      -4.503  38.260  22.058  1.00  0.00     0.094 A 
ATOM      9  C   UNL     1      -5.648  38.653  22.764  1.00  0.00     0.119 A 
ATOM     10  C   UNL     1      -6.861  38.816  22.086  1.00  0.00     0.047 A 
ATOM     11  C   UNL     1      -6.938  38.588  20.710  1.00  0.00     0.020 A 
ENDROOT
BRANCH   1  12
ATOM     12  C   UNL     1      -2.169  37.036  18.093  1.00  0.00     0.025 A 
ATOM     13  C   UNL     1      -1.119  37.959  17.933  1.00  0.00     0.016 A 
ATOM     14  C   UNL     1       0.094  37.557  17.369  1.00  0.00     0.051 A 
ATOM     15  C   UNL     1       0.282  36.227  16.970  1.00  0.00     0.157 A 
ATOM     16  C   UNL     1      -1.967  35.700  17.710  1.00  0.00     0.062 A 
ATOM     17  C   UNL     1      -0.749  35.297  17.143  1.00  0.00     0.158 A 
BRANCH  15  18
ATOM     18  O   UNL     1       1.491  35.824  16.405  1.00  0.00    -0.504 OA
ATOM     19  H   UNL     1       1.575  35.632  15.414  1.00  0.00     0.293 HD
ENDBRANCH  15  18
BRANCH  17  20
ATOM     20  O   UNL     1      -0.558  33.973  16.751  1.00  0.00    -0.504 OA
ATOM     21  H   UNL     1      -1.259  33.469  16.220  1.00  0.00     0.293 HD
ENDBRANCH  17  20
ENDBRANCH   1  12
BRANCH   2  22
ATOM     22  O   UNL     1      -4.650  37.246  16.597  1.00  0.00    -0.502 OA
ATOM     23  H   UNL     1      -5.157  36.453  16.220  1.00  0.00     0.293 HD
ENDBRANCH   2  22
BRANCH   9  24
ATOM     24  O   UNL     1      -5.592  38.884  24.136  1.00  0.00    -0.508 OA
ATOM     25  H   UNL     1      -6.315  38.547  24.760  1.00  0.00     0.293 HD
ENDBRANCH   9  24
TORSDOF 5
ENDMDL
MODEL 6
REMARK VINA RESULT:    -5.933     17.989     20.260
REMARK INTER + INTRA:          -7.162
REMARK INTER:                  -6.847
REMARK INTRA:                  -0.315
REMARK UNBOUND:                -0.187
REMARK SMILES O=c1c(O)c(-c2ccc(O)c(O)c2)oc2cc(O)ccc12
REMARK SMILES IDX 5 1 3 2 2 3 1 4 21 5 15 6 14 7 16 8 17 9 19 10 20 11 6 12
REMARK SMILES IDX 7 13 8 14 9 15 13 16 11 17 10 18 12 20 4 22 18 24
REMARK H PARENT 10 19 12 21 4 23 18 25
REMARK Flexibility Score: inf
ROOT
ATOM      1  C   UNL     1      -2.612  39.206  20.375  1.00  0.00     0.180 A 
ATOM      2  C   UNL     1      -2.110  39.324  21.688  1.00  0.00     0.208 A 
ATOM      3  C   UNL     1      -3.018  39.460  22.749  1.00  0.00     0.235 A 
ATOM      4  O   UNL     1      -2.592  39.556  23.934  1.00  0.00    -0.285 OA
ATOM      5  C   UNL     1      -4.394  39.495  22.481  1.00  0.00     0.069 A 
ATOM      6  C   UNL     1      -4.817  39.395  21.138  1.00  0.00     0.142 A 
ATOM      7  O   UNL     1      -3.926  39.259  20.162  1.00  0.00    -0.452 OA
ATOM      8  C   UNL     1      -6.180  39.435  20.827  1.00  0.00     0.094 A 
ATOM      9  C   UNL     1      -7.132  39.574  21.847  1.00  0.00     0.119 A 
ATOM     10  C   UNL     1      -6.715  39.672  23.179  1.00  0.00     0.047 A 
ATOM     11  C   UNL     1      -5.355  39.633  23.498  1.00  0.00     0.020 A 
ENDROOT
BRANCH   1  12
ATOM     12  C   UNL     1      -1.721  39.042  19.204  1.00  0.00     0.025 A 
ATOM     13  C   UNL     1      -1.256  40.153  18.477  1.00  0.00     0.016 A 
ATOM     14  C   UNL     1      -0.397  39.976  17.390  1.00  0.00     0.051 A 
ATOM     15  C   UNL     1       0.021  38.691  17.021  1.00  0.00     0.157 A 
ATOM     16  C   UNL     1      -1.283  37.759  18.842  1.00  0.00     0.062 A 
ATOM     17  C   UNL     1      -0.420  37.581  17.751  1.00  0.00     0.158 A 
BRANCH  15  18
ATOM     18  O   UNL     1       0.877  38.511  15.936  1.00  0.00    -0.504 OA
ATOM     19  H   UNL     1       1.385  37.645  15.800  1.00  0.00     0.293 HD
ENDBRANCH  15  18
BRANCH  17  20
ATOM     20  O   UNL     1       0.002  36.303  17.387  1.00  0.00    -0.504 OA
ATOM     21  H   UNL     1       0.020  35.539  18.053  1.00  0.00     0.293 HD
ENDBRANCH  17  20
ENDBRANCH   1  12
BRANCH   2  22
ATOM     22  O   UNL     1      -0.733  39.335  21.920  1.00  0.00    -0.502 OA
ATOM     23  H   UNL     1      -0.096  38.715  21.433  1.00  0.00     0.293 HD
ENDBRANCH   2  22
BRANCH   9  24
ATOM     24  O   UNL     1      -8.491  39.615  21.548  1.00  0.00    -0.508 OA
ATOM     25  H   UNL     1      -8.976  38.808  21.173  1.00  0.00     0.293 HD
ENDBRANCH   9  24
TORSDOF 5
ENDMDL
MODEL 7
REMARK VINA RESULT:    -5.920     17.872     20.127
REMARK INTER + INTRA:          -7.146
REMARK INTER:                  -6.889
REMARK INTRA:                  -0.257
REMARK UNBOUND:                -0.187
REMARK SMILES O=c1c(O)c(-c2ccc(O)c(O)c2)oc2cc(O)ccc12
REMARK SMILES IDX 5 1 3 2 2 3 1 4 21 5 15 6 14 7 16 8 17 9 19 10 20 11 6 12
REMARK SMILES IDX 7 13 8 14 9 15 13 16 11 17 10 18 12 20 4 22 18 24
REMARK H PARENT 10 19 12 21 4 23 18 25
REMARK Flexibility Score: inf
ROOT
ATOM      1  C   UNL     1      -3.428  37.400  18.713  1.00  0.00     0.180 A 
ATOM      2  C   UNL     1      -4.608  37.543  17.954  1.00  0.00     0.208 A 
ATOM      3  C   UNL     1      -5.778  37.975  18.599  1.00  0.00     0.235 A 
ATOM      4  O   UNL     1      -6.845  38.120  17.938  1.00  0.00    -0.285 OA
ATOM      5  C   UNL     1      -5.752  38.233  19.977  1.00  0.00     0.069 A 
ATOM      6  C   UNL     1      -4.538  38.043  20.671  1.00  0.00     0.142 A 
ATOM      7  O   UNL     1      -3.450  37.642  20.023  1.00  0.00    -0.452 OA
ATOM      8  C   UNL     1      -4.472  38.280  22.048  1.00  0.00     0.094 A 
ATOM      9  C   UNL     1      -5.611  38.709  22.744  1.00  0.00     0.119 A 
ATOM     10  C   UNL     1      -6.816  38.899  22.059  1.00  0.00     0.047 A 
ATOM     11  C   UNL     1      -6.890  38.663  20.683  1.00  0.00     0.020 A 
ENDROOT
BRANCH   1  12
ATOM     12  C   UNL     1      -2.150  36.967  18.105  1.00  0.00     0.025 A 
ATOM     13  C   UNL     1      -1.929  35.626  17.743  1.00  0.00     0.016 A 
ATOM     14  C   UNL     1      -0.724  35.245  17.147  1.00  0.00     0.051 A 
ATOM     15  C   UNL     1       0.272  36.197  16.894  1.00  0.00     0.157 A 
ATOM     16  C   UNL     1      -1.156  37.920  17.829  1.00  0.00     0.062 A 
ATOM     17  C   UNL     1       0.054  37.538  17.233  1.00  0.00     0.158 A 
BRANCH  15  18
ATOM     18  O   UNL     1       1.475  35.819  16.302  1.00  0.00    -0.504 OA
ATOM     19  H   UNL     1       2.261  36.456  16.245  1.00  0.00     0.293 HD
ENDBRANCH  15  18
BRANCH  17  20
ATOM     20  O   UNL     1       1.043  38.485  16.973  1.00  0.00    -0.504 OA
ATOM     21  H   UNL     1       0.836  39.477  16.952  1.00  0.00     0.293 HD
ENDBRANCH  17  20
ENDBRANCH   1  12
BRANCH   2  22
ATOM     22  O   UNL     1      -4.616  37.231  16.593  1.00  0.00    -0.502 OA
ATOM     23  H   UNL     1      -5.206  36.504  16.207  1.00  0.00     0.293 HD
ENDBRANCH   2  22
BRANCH   9  24
ATOM     24  O   UNL     1      -5.556  38.948  24.115  1.00  0.00    -0.508 OA
ATOM     25  H   UNL     1      -5.189  38.258  24.759  1.00  0.00     0.293 HD
ENDBRANCH   9  24
TORSDOF 5
ENDMDL
MODEL 8
REMARK VINA RESULT:    -5.769     11.567     15.534
REMARK INTER + INTRA:          -6.969
REMARK INTER:                  -6.651
REMARK INTRA:                  -0.317
REMARK UNBOUND:                -0.187
REMARK SMILES O=c1c(O)c(-c2ccc(O)c(O)c2)oc2cc(O)ccc12
REMARK SMILES IDX 5 1 3 2 2 3 1 4 21 5 15 6 14 7 16 8 17 9 19 10 20 11 6 12
REMARK SMILES IDX 7 13 8 14 9 15 13 16 11 17 10 18 12 20 4 22 18 24
REMARK H PARENT 10 19 12 21 4 23 18 25
REMARK Flexibility Score: inf
ROOT
ATOM      1  C   UNL     1      -2.637  38.933  31.878  1.00  0.00     0.180 A 
ATOM      2  C   UNL     1      -3.035  39.194  30.551  1.00  0.00     0.208 A 
ATOM      3  C   UNL     1      -2.108  39.772  29.669  1.00  0.00     0.235 A 
ATOM      4  O   UNL     1      -2.437  40.006  28.472  1.00  0.00    -0.285 OA
ATOM      5  C   UNL     1      -0.823  40.092  30.130  1.00  0.00     0.069 A 
ATOM      6  C   UNL     1      -0.509  39.821  31.480  1.00  0.00     0.142 A 
ATOM      7  O   UNL     1      -1.412  39.266  32.280  1.00  0.00    -0.452 OA
ATOM      8  C   UNL     1       0.758  40.135  31.982  1.00  0.00     0.094 A 
ATOM      9  C   UNL     1       1.723  40.717  31.147  1.00  0.00     0.119 A 
ATOM     10  C   UNL     1       1.415  40.986  29.809  1.00  0.00     0.047 A 
ATOM     11  C   UNL     1       0.151  40.677  29.300  1.00  0.00     0.020 A 
ENDROOT
BRANCH   1  12
ATOM     12  C   UNL     1      -3.550  38.310  32.864  1.00  0.00     0.025 A 
ATOM     13  C   UNL     1      -4.410  39.089  33.659  1.00  0.00     0.016 A 
ATOM     14  C   UNL     1      -5.280  38.477  34.566  1.00  0.00     0.051 A 
ATOM     15  C   UNL     1      -5.313  37.082  34.682  1.00  0.00     0.157 A 
ATOM     16  C   UNL     1      -3.603  36.911  32.970  1.00  0.00     0.062 A 
ATOM     17  C   UNL     1      -4.475  36.297  33.880  1.00  0.00     0.158 A 
BRANCH  15  18
ATOM     18  O   UNL     1      -6.178  36.469  35.586  1.00  0.00    -0.504 OA
ATOM     19  H   UNL     1      -6.725  35.655  35.329  1.00  0.00     0.293 HD
ENDBRANCH  15  18
BRANCH  17  20
ATOM     20  O   UNL     1      -4.515  34.908  33.992  1.00  0.00    -0.504 OA
ATOM     21  H   UNL     1      -5.360  34.422  34.272  1.00  0.00     0.293 HD
ENDBRANCH  17  20
ENDBRANCH   1  12
BRANCH   2  22
ATOM     22  O   UNL     1      -4.337  38.910  30.133  1.00  0.00    -0.502 OA
ATOM     23  H   UNL     1      -4.989  38.390  30.708  1.00  0.00     0.293 HD
ENDBRANCH   2  22
BRANCH   9  24
ATOM     24  O   UNL     1       2.988  41.033  31.637  1.00  0.00    -0.508 OA
ATOM     25  H   UNL     1       3.677  41.502  31.062  1.00  0.00     0.293 HD
ENDBRANCH   9  24
TORSDOF 5
ENDMDL
MODEL 9
REMARK VINA RESULT:    -5.633     17.287     19.771
REMARK INTER + INTRA:          -6.808
REMARK INTER:                  -6.609
REMARK INTRA:                  -0.200
REMARK UNBOUND:                -0.187
REMARK SMILES O=c1c(O)c(-c2ccc(O)c(O)c2)oc2cc(O)ccc12
REMARK SMILES IDX 5 1 3 2 2 3 1 4 21 5 15 6 14 7 16 8 17 9 19 10 20 11 6 12
REMARK SMILES IDX 7 13 8 14 9 15 13 16 11 17 10 18 12 20 4 22 18 24
REMARK H PARENT 10 19 12 21 4 23 18 25
REMARK Flexibility Score: inf
ROOT
ATOM      1  C   UNL     1      -3.328  38.325  20.077  1.00  0.00     0.180 A 
ATOM      2  C   UNL     1      -4.653  38.675  19.747  1.00  0.00     0.208 A 
ATOM      3  C   UNL     1      -5.486  39.193  20.752  1.00  0.00     0.235 A 
ATOM      4  O   UNL     1      -6.673  39.525  20.479  1.00  0.00    -0.285 OA
ATOM      5  C   UNL     1      -4.989  39.331  22.056  1.00  0.00     0.069 A 
ATOM      6  C   UNL     1      -3.658  38.935  22.312  1.00  0.00     0.142 A 
ATOM      7  O   UNL     1      -2.900  38.457  21.332  1.00  0.00    -0.452 OA
ATOM      8  C   UNL     1      -3.129  39.047  23.602  1.00  0.00     0.094 A 
ATOM      9  C   UNL     1      -3.916  39.555  24.645  1.00  0.00     0.119 A 
ATOM     10  C   UNL     1      -5.234  39.949  24.395  1.00  0.00     0.047 A 
ATOM     11  C   UNL     1      -5.772  39.839  23.109  1.00  0.00     0.020 A 
ENDROOT
BRANCH   1  12
ATOM     12  C   UNL     1      -2.383  37.788  19.071  1.00  0.00     0.025 A 
ATOM     13  C   UNL     1      -1.258  38.524  18.658  1.00  0.00     0.016 A 
ATOM     14  C   UNL     1      -0.366  37.987  17.726  1.00  0.00     0.051 A 
ATOM     15  C   UNL     1      -0.577  36.705  17.203  1.00  0.00     0.157 A 
ATOM     16  C   UNL     1      -2.577  36.495  18.560  1.00  0.00     0.062 A 
ATOM     17  C   UNL     1      -1.683  35.956  17.624  1.00  0.00     0.158 A 
BRANCH  15  18
ATOM     18  O   UNL     1       0.309  36.168  16.272  1.00  0.00    -0.504 OA
ATOM     19  H   UNL     1      -0.019  35.662  15.458  1.00  0.00     0.293 HD
ENDBRANCH  15  18
BRANCH  17  20
ATOM     20  O   UNL     1      -1.887  34.678  17.108  1.00  0.00    -0.504 OA
ATOM     21  H   UNL     1      -1.151  34.176  16.623  1.00  0.00     0.293 HD
ENDBRANCH  17  20
ENDBRANCH   1  12
BRANCH   2  22
ATOM     22  O   UNL     1      -5.135  38.481  18.451  1.00  0.00    -0.502 OA
ATOM     23  H   UNL     1      -5.088  39.203  17.741  1.00  0.00     0.293 HD
ENDBRANCH   2  22
BRANCH   9  24
ATOM     24  O   UNL     1      -3.397  39.671  25.933  1.00  0.00    -0.508 OA
ATOM     25  H   UNL     1      -3.318  38.868  26.546  1.00  0.00     0.293 HD
ENDBRANCH   9  24
TORSDOF 5
ENDMDL
