MODEL 1
REMARK VINA RESULT:    -3.149      0.000      0.000
REMARK INTER + INTRA:          -3.563
REMARK INTER:                  -3.517
REMARK INTRA:                  -0.046
REMARK UNBOUND:                -0.046
REMARK SMILES CCCC(=O)[O-]
REMARK SMILES IDX 3 1 4 2 5 3 6 4 2 5 1 6
REMARK H PARENT
REMARK Flexibility Score: inf
ROOT
ATOM      1  C   UNL     1      10.254  13.583  69.277  1.00  0.00     0.052 C 
ENDROOT
BRANCH   1   2
ATOM      2  C   UNL     1      11.362  13.423  70.272  1.00  0.00     0.041 C 
ATOM      3  O   UNL     1      11.106  13.362  71.503  1.00  0.00    -0.550 OA
ATOM      4  O   UNL     1      12.677  13.308  69.836  1.00  0.00    -0.550 OA
ENDBRANCH   1   2
BRANCH   1   5
ATOM      5  C   UNL     1      10.359  12.558  68.140  1.00  0.00     0.003 C 
ATOM      6  C   UNL     1       9.636  11.252  68.468  1.00  0.00     0.004 C 
ENDBRANCH   1   5
TORSDOF 2
ENDMDL
MODEL 2
REMARK VINA RESULT:    -3.099      2.945      4.136
REMARK INTER + INTRA:          -3.507
REMARK INTER:                  -3.472
REMARK INTRA:                  -0.035
REMARK UNBOUND:                -0.046
REMARK SMILES CCCC(=O)[O-]
REMARK SMILES IDX 3 1 4 2 5 3 6 4 2 5 1 6
REMARK H PARENT
REMARK Flexibility Score: inf
ROOT
ATOM      1  C   UNL     1      13.156  13.477  69.500  1.00  0.00     0.052 C 
ENDROOT
BRANCH   1   2
ATOM      2  C   UNL     1      12.494  14.161  68.345  1.00  0.00     0.041 C 
ATOM      3  O   UNL     1      11.343  13.810  67.974  1.00  0.00    -0.550 OA
ATOM      4  O   UNL     1      13.135  15.212  67.699  1.00  0.00    -0.550 OA
ENDBRANCH   1   2
BRANCH   1   5
ATOM      5  C   UNL     1      13.869  14.476  70.420  1.00  0.00     0.003 C 
ATOM      6  C   UNL     1      15.391  14.393  70.299  1.00  0.00     0.004 C 
ENDBRANCH   1   5
TORSDOF 2
ENDMDL
MODEL 3
REMARK VINA RESULT:    -3.074      2.942      4.262
REMARK INTER + INTRA:          -3.479
REMARK INTER:                  -3.455
REMARK INTRA:                  -0.024
REMARK UNBOUND:                -0.046
REMARK SMILES CCCC(=O)[O-]
REMARK SMILES IDX 3 1 4 2 5 3 6 4 2 5 1 6
REMARK H PARENT
REMARK Flexibility Score: inf
ROOT
ATOM      1  C   UNL     1      13.160  13.501  69.500  1.00  0.00     0.052 C 
ENDROOT
BRANCH   1   2
ATOM      2  C   UNL     1      12.467  14.206  68.375  1.00  0.00     0.041 C 
ATOM      3  O   UNL     1      13.075  15.082  67.705  1.00  0.00    -0.550 OA
ATOM      4  O   UNL     1      11.159  13.872  68.045  1.00  0.00    -0.550 OA
ENDBRANCH   1   2
BRANCH   1   5
ATOM      5  C   UNL     1      13.859  14.488  70.444  1.00  0.00     0.003 C 
ATOM      6  C   UNL     1      15.375  14.502  70.250  1.00  0.00     0.004 C 
ENDBRANCH   1   5
TORSDOF 2
ENDMDL
MODEL 4
REMARK VINA RESULT:    -3.049      2.602      3.162
REMARK INTER + INTRA:          -3.451
REMARK INTER:                  -3.417
REMARK INTRA:                  -0.034
REMARK UNBOUND:                -0.046
REMARK SMILES CCCC(=O)[O-]
REMARK SMILES IDX 3 1 4 2 5 3 6 4 2 5 1 6
REMARK H PARENT
REMARK Flexibility Score: inf
ROOT
ATOM      1  C   UNL     1      13.407  13.585  69.585  1.00  0.00     0.052 C 
ENDROOT
BRANCH   1   2
ATOM      2  C   UNL     1      13.853  14.933  69.107  1.00  0.00     0.041 C 
ATOM      3  O   UNL     1      14.522  15.685  69.864  1.00  0.00    -0.550 OA
ATOM      4  O   UNL     1      13.558  15.345  67.813  1.00  0.00    -0.550 OA
ENDBRANCH   1   2
BRANCH   1   5
ATOM      5  C   UNL     1      12.139  13.117  68.860  1.00  0.00     0.003 C 
ATOM      6  C   UNL     1      10.879  13.326  69.699  1.00  0.00     0.004 C 
ENDBRANCH   1   5
TORSDOF 2
ENDMDL
MODEL 5
REMARK VINA RESULT:    -3.039      2.210      3.687
REMARK INTER + INTRA:          -3.440
REMARK INTER:                  -3.431
REMARK INTRA:                  -0.009
REMARK UNBOUND:                -0.046
REMARK SMILES CCCC(=O)[O-]
REMARK SMILES IDX 3 1 4 2 5 3 6 4 2 5 1 6
REMARK H PARENT
REMARK Flexibility Score: inf
ROOT
ATOM      1  C   UNL     1      12.856  13.501  69.815  1.00  0.00     0.052 C 
ENDROOT
BRANCH   1   2
ATOM      2  C   UNL     1      11.461  13.503  70.361  1.00  0.00     0.041 C 
ATOM      3  O   UNL     1      10.474  13.479  69.579  1.00  0.00    -0.550 OA
ATOM      4  O   UNL     1      11.252  13.497  71.735  1.00  0.00    -0.550 OA
ENDBRANCH   1   2
BRANCH   1   5
ATOM      5  C   UNL     1      13.717  14.598  70.454  1.00  0.00     0.003 C 
ATOM      6  C   UNL     1      15.213  14.350  70.260  1.00  0.00     0.004 C 
ENDBRANCH   1   5
TORSDOF 2
ENDMDL
MODEL 6
REMARK VINA RESULT:    -3.029      2.281      3.608
REMARK INTER + INTRA:          -3.429
REMARK INTER:                  -3.392
REMARK INTRA:                  -0.036
REMARK UNBOUND:                -0.046
REMARK SMILES CCCC(=O)[O-]
REMARK SMILES IDX 3 1 4 2 5 3 6 4 2 5 1 6
REMARK H PARENT
REMARK Flexibility Score: inf
ROOT
ATOM      1  C   UNL     1      12.989  13.520  69.372  1.00  0.00     0.052 C 
ENDROOT
BRANCH   1   2
ATOM      2  C   UNL     1      11.742  13.511  70.202  1.00  0.00     0.041 C 
ATOM      3  O   UNL     1      11.779  13.873  71.407  1.00  0.00    -0.550 OA
ATOM      4  O   UNL     1      10.531  13.133  69.634  1.00  0.00    -0.550 OA
ENDBRANCH   1   2
BRANCH   1   5
ATOM      5  C   UNL     1      14.211  13.961  70.188  1.00  0.00     0.003 C 
ATOM      6  C   UNL     1      14.606  15.410  69.905  1.00  0.00     0.004 C 
ENDBRANCH   1   5
TORSDOF 2
ENDMDL
MODEL 7
REMARK VINA RESULT:    -2.998      2.265      2.784
REMARK INTER + INTRA:          -3.394
REMARK INTER:                  -3.383
REMARK INTRA:                  -0.011
REMARK UNBOUND:                -0.046
REMARK SMILES CCCC(=O)[O-]
REMARK SMILES IDX 3 1 4 2 5 3 6 4 2 5 1 6
REMARK H PARENT
REMARK Flexibility Score: inf
ROOT
ATOM      1  C   UNL     1      12.384  13.512  68.790  1.00  0.00     0.052 C 
ENDROOT
BRANCH   1   2
ATOM      2  C   UNL     1      13.206  14.709  68.422  1.00  0.00     0.041 C 
ATOM      3  O   UNL     1      12.958  15.348  67.366  1.00  0.00    -0.550 OA
ATOM      4  O   UNL     1      14.225  15.138  69.263  1.00  0.00    -0.550 OA
ENDBRANCH   1   2
BRANCH   1   5
ATOM      5  C   UNL     1      11.033  13.504  68.062  1.00  0.00     0.003 C 
ATOM      6  C   UNL     1      10.273  12.194  68.263  1.00  0.00     0.004 C 
ENDBRANCH   1   5
TORSDOF 2
ENDMDL
MODEL 8
REMARK VINA RESULT:    -2.945      2.340      3.125
REMARK INTER + INTRA:          -3.334
REMARK INTER:                  -3.272
REMARK INTRA:                  -0.063
REMARK UNBOUND:                -0.046
REMARK SMILES CCCC(=O)[O-]
REMARK SMILES IDX 3 1 4 2 5 3 6 4 2 5 1 6
REMARK H PARENT
REMARK Flexibility Score: inf
ROOT
ATOM      1  C   UNL     1      11.312  13.433  69.845  1.00  0.00     0.052 C 
ENDROOT
BRANCH   1   2
ATOM      2  C   UNL     1      10.268  13.403  68.773  1.00  0.00     0.041 C 
ATOM      3  O   UNL     1       9.347  14.262  68.759  1.00  0.00    -0.550 OA
ATOM      4  O   UNL     1      10.331  12.446  67.767  1.00  0.00    -0.550 OA
ENDBRANCH   1   2
BRANCH   1   5
ATOM      5  C   UNL     1      12.729  13.350  69.261  1.00  0.00     0.003 C 
ATOM      6  C   UNL     1      13.176  14.668  68.631  1.00  0.00     0.004 C 
ENDBRANCH   1   5
TORSDOF 2
ENDMDL
MODEL 9
REMARK VINA RESULT:    -2.927      2.597      3.375
REMARK INTER + INTRA:          -3.315
REMARK INTER:                  -3.256
REMARK INTRA:                  -0.059
REMARK UNBOUND:                -0.046
REMARK SMILES CCCC(=O)[O-]
REMARK SMILES IDX 3 1 4 2 5 3 6 4 2 5 1 6
REMARK H PARENT
REMARK Flexibility Score: inf
ROOT
ATOM      1  C   UNL     1      12.809  13.419  69.139  1.00  0.00     0.052 C 
ENDROOT
BRANCH   1   2
ATOM      2  C   UNL     1      13.576  14.129  70.212  1.00  0.00     0.041 C 
ATOM      3  O   UNL     1      14.832  14.065  70.242  1.00  0.00    -0.550 OA
ATOM      4  O   UNL     1      12.902  14.890  71.160  1.00  0.00    -0.550 OA
ENDBRANCH   1   2
BRANCH   1   5
ATOM      5  C   UNL     1      12.125  14.404  68.183  1.00  0.00     0.003 C 
ATOM      6  C   UNL     1      13.128  15.295  67.451  1.00  0.00     0.004 C 
ENDBRANCH   1   5
TORSDOF 2
ENDMDL
