MODEL 1
REMARK VINA RESULT:    -4.847      0.000      0.000
REMARK INTER + INTRA:          -9.799
REMARK INTER:                  -8.530
REMARK INTRA:                  -1.269
REMARK UNBOUND:                -1.269
REMARK SMILES CCCCCCC=CCCCCCCCC(=O)[O-]
REMARK SMILES IDX 10 1 11 2 12 3 13 4 14 5 15 6 16 7 17 8 18 9 9 10 8 11 7 12
REMARK SMILES IDX 6 13 5 14 4 15 3 16 2 17 1 18
REMARK H PARENT
REMARK Flexibility Score: inf
ROOT
ATOM      1  C   UNL     1       6.925   0.617  -3.837  1.00  0.00     0.004 C 
ENDROOT
BRANCH   1   2
ATOM      2  C   UNL     1       8.264   0.458  -3.096  1.00  0.00     0.000 C 
BRANCH   2   3
ATOM      3  C   UNL     1       8.409  -0.936  -2.451  1.00  0.00     0.000 C 
BRANCH   3   4
ATOM      4  C   UNL     1       8.448  -0.902  -0.909  1.00  0.00     0.000 C 
BRANCH   4   5
ATOM      5  C   UNL     1       9.620  -1.670  -0.275  1.00  0.00     0.006 C 
BRANCH   5   6
ATOM      6  C   UNL     1       9.554  -3.179  -0.541  1.00  0.00     0.053 C 
BRANCH   6   7
ATOM      7  C   UNL     1       8.313  -3.758   0.057  1.00  0.00     0.041 C 
ATOM      8  O   UNL     1       7.412  -4.230  -0.686  1.00  0.00    -0.550 OA
ATOM      9  O   UNL     1       8.168  -3.822   1.437  1.00  0.00    -0.550 OA
ENDBRANCH   6   7
ENDBRANCH   5   6
ENDBRANCH   4   5
ENDBRANCH   3   4
ENDBRANCH   2   3
ENDBRANCH   1   2
BRANCH   1  10
ATOM     10  C   UNL     1       6.647   2.075  -4.229  1.00  0.00     0.027 C 
BRANCH  10  11
ATOM     11  C   UNL     1       7.914   2.895  -4.265  1.00  0.00    -0.031 C 
ATOM     12  C   UNL     1       7.963   4.225  -4.471  1.00  0.00    -0.031 C 
BRANCH  12  13
ATOM     13  C   UNL     1       6.753   5.121  -4.587  1.00  0.00     0.027 C 
BRANCH  13  14
ATOM     14  C   UNL     1       6.413   5.437  -6.051  1.00  0.00     0.004 C 
BRANCH  14  15
ATOM     15  C   UNL     1       4.907   5.305  -6.337  1.00  0.00     0.000 C 
BRANCH  15  16
ATOM     16  C   UNL     1       4.473   3.847  -6.554  1.00  0.00    -0.000 C 
BRANCH  16  17
ATOM     17  C   UNL     1       5.070   3.234  -7.829  1.00  0.00    -0.003 C 
ATOM     18  C   UNL     1       5.447   1.773  -7.612  1.00  0.00     0.004 C 
ENDBRANCH  16  17
ENDBRANCH  15  16
ENDBRANCH  14  15
ENDBRANCH  13  14
ENDBRANCH  12  13
ENDBRANCH  10  11
ENDBRANCH   1  10
TORSDOF 13
ENDMDL
MODEL 2
REMARK VINA RESULT:    -4.548      1.058      2.544
REMARK INTER + INTRA:          -9.273
REMARK INTER:                  -8.102
REMARK INTRA:                  -1.171
REMARK UNBOUND:                -1.269
REMARK SMILES CCCCCCC=CCCCCCCCC(=O)[O-]
REMARK SMILES IDX 10 1 11 2 12 3 13 4 14 5 15 6 16 7 17 8 18 9 9 10 8 11 7 12
REMARK SMILES IDX 6 13 5 14 4 15 3 16 2 17 1 18
REMARK H PARENT
REMARK Flexibility Score: inf
ROOT
ATOM      1  C   UNL     1       8.422   1.544  -3.607  1.00  0.00     0.004 C 
ENDROOT
BRANCH   1   2
ATOM      2  C   UNL     1       7.676   0.290  -3.114  1.00  0.00     0.000 C 
BRANCH   2   3
ATOM      3  C   UNL     1       8.628  -0.727  -2.449  1.00  0.00     0.000 C 
BRANCH   3   4
ATOM      4  C   UNL     1       8.269  -1.040  -0.983  1.00  0.00     0.000 C 
BRANCH   4   5
ATOM      5  C   UNL     1       9.373  -1.756  -0.186  1.00  0.00     0.006 C 
BRANCH   5   6
ATOM      6  C   UNL     1       9.542  -3.225  -0.594  1.00  0.00     0.053 C 
BRANCH   6   7
ATOM      7  C   UNL     1       8.542  -4.080   0.115  1.00  0.00     0.041 C 
ATOM      8  O   UNL     1       8.075  -5.106  -0.447  1.00  0.00    -0.550 OA
ATOM      9  O   UNL     1       8.159  -3.773   1.414  1.00  0.00    -0.550 OA
ENDBRANCH   6   7
ENDBRANCH   5   6
ENDBRANCH   4   5
ENDBRANCH   3   4
ENDBRANCH   2   3
ENDBRANCH   1   2
BRANCH   1  10
ATOM     10  C   UNL     1       7.466   2.600  -4.180  1.00  0.00     0.027 C 
BRANCH  10  11
ATOM     11  C   UNL     1       6.334   1.968  -4.953  1.00  0.00    -0.031 C 
ATOM     12  C   UNL     1       5.720   2.529  -6.012  1.00  0.00    -0.031 C 
BRANCH  12  13
ATOM     13  C   UNL     1       6.141   3.826  -6.661  1.00  0.00     0.027 C 
BRANCH  13  14
ATOM     14  C   UNL     1       5.333   5.020  -6.131  1.00  0.00     0.004 C 
BRANCH  14  15
ATOM     15  C   UNL     1       6.238   6.192  -5.713  1.00  0.00     0.000 C 
BRANCH  15  16
ATOM     16  C   UNL     1       6.375   6.319  -4.188  1.00  0.00    -0.000 C 
BRANCH  16  17
ATOM     17  C   UNL     1       7.838   6.414  -3.731  1.00  0.00    -0.003 C 
ATOM     18  C   UNL     1       8.780   5.846  -4.786  1.00  0.00     0.004 C 
ENDBRANCH  16  17
ENDBRANCH  15  16
ENDBRANCH  14  15
ENDBRANCH  13  14
ENDBRANCH  12  13
ENDBRANCH  10  11
ENDBRANCH   1  10
TORSDOF 13
ENDMDL
MODEL 3
REMARK VINA RESULT:    -4.513      3.554      5.879
REMARK INTER + INTRA:          -9.213
REMARK INTER:                  -7.141
REMARK INTRA:                  -2.072
REMARK UNBOUND:                -1.269
REMARK SMILES CCCCCCC=CCCCCCCCC(=O)[O-]
REMARK SMILES IDX 10 1 11 2 12 3 13 4 14 5 15 6 16 7 17 8 18 9 9 10 8 11 7 12
REMARK SMILES IDX 6 13 5 14 4 15 3 16 2 17 1 18
REMARK H PARENT
REMARK Flexibility Score: inf
ROOT
ATOM      1  C   UNL     1       7.229   3.027  -7.882  1.00  0.00     0.004 C 
ENDROOT
BRANCH   1   2
ATOM      2  C   UNL     1       8.438   3.977  -7.801  1.00  0.00     0.000 C 
BRANCH   2   3
ATOM      3  C   UNL     1       8.194   5.143  -6.820  1.00  0.00     0.000 C 
BRANCH   3   4
ATOM      4  C   UNL     1       8.715   4.869  -5.394  1.00  0.00     0.000 C 
BRANCH   4   5
ATOM      5  C   UNL     1       7.766   4.044  -4.507  1.00  0.00     0.006 C 
BRANCH   5   6
ATOM      6  C   UNL     1       8.304   2.640  -4.207  1.00  0.00     0.053 C 
BRANCH   6   7
ATOM      7  C   UNL     1       7.207   1.763  -3.693  1.00  0.00     0.041 C 
ATOM      8  O   UNL     1       6.004   2.048  -3.933  1.00  0.00    -0.550 OA
ATOM      9  O   UNL     1       7.513   0.604  -2.990  1.00  0.00    -0.550 OA
ENDBRANCH   6   7
ENDBRANCH   5   6
ENDBRANCH   4   5
ENDBRANCH   3   4
ENDBRANCH   2   3
ENDBRANCH   1   2
BRANCH   1  10
ATOM     10  C   UNL     1       5.901   3.787  -8.002  1.00  0.00     0.027 C 
BRANCH  10  11
ATOM     11  C   UNL     1       4.934   3.398  -6.910  1.00  0.00    -0.031 C 
ATOM     12  C   UNL     1       4.113   4.253  -6.271  1.00  0.00    -0.031 C 
BRANCH  12  13
ATOM     13  C   UNL     1       3.949   5.712  -6.624  1.00  0.00     0.027 C 
BRANCH  13  14
ATOM     14  C   UNL     1       3.915   6.604  -5.374  1.00  0.00     0.004 C 
BRANCH  14  15
ATOM     15  C   UNL     1       5.304   6.746  -4.726  1.00  0.00     0.000 C 
BRANCH  15  16
ATOM     16  C   UNL     1       6.200   7.754  -5.462  1.00  0.00    -0.000 C 
BRANCH  16  17
ATOM     17  C   UNL     1       7.333   8.294  -4.578  1.00  0.00    -0.003 C 
ATOM     18  C   UNL     1       7.347   9.819  -4.574  1.00  0.00     0.004 C 
ENDBRANCH  16  17
ENDBRANCH  15  16
ENDBRANCH  14  15
ENDBRANCH  13  14
ENDBRANCH  12  13
ENDBRANCH  10  11
ENDBRANCH   1  10
TORSDOF 13
ENDMDL
MODEL 4
REMARK VINA RESULT:    -4.483      1.262      2.480
REMARK INTER + INTRA:          -9.159
REMARK INTER:                  -7.947
REMARK INTRA:                  -1.213
REMARK UNBOUND:                -1.269
REMARK SMILES CCCCCCC=CCCCCCCCC(=O)[O-]
REMARK SMILES IDX 10 1 11 2 12 3 13 4 14 5 15 6 16 7 17 8 18 9 9 10 8 11 7 12
REMARK SMILES IDX 6 13 5 14 4 15 3 16 2 17 1 18
REMARK H PARENT
REMARK Flexibility Score: inf
ROOT
ATOM      1  C   UNL     1       6.730   1.874  -4.313  1.00  0.00     0.004 C 
ENDROOT
BRANCH   1   2
ATOM      2  C   UNL     1       7.976   1.410  -3.537  1.00  0.00     0.000 C 
BRANCH   2   3
ATOM      3  C   UNL     1       7.936  -0.101  -3.225  1.00  0.00     0.000 C 
BRANCH   3   4
ATOM      4  C   UNL     1       8.306  -0.439  -1.767  1.00  0.00     0.000 C 
BRANCH   4   5
ATOM      5  C   UNL     1       8.909  -1.840  -1.561  1.00  0.00     0.006 C 
BRANCH   5   6
ATOM      6  C   UNL     1       9.321  -2.101  -0.107  1.00  0.00     0.053 C 
BRANCH   6   7
ATOM      7  C   UNL     1       8.918  -3.479   0.308  1.00  0.00     0.041 C 
ATOM      8  O   UNL     1       8.123  -3.643   1.271  1.00  0.00    -0.550 OA
ATOM      9  O   UNL     1       9.380  -4.583  -0.398  1.00  0.00    -0.550 OA
ENDBRANCH   6   7
ENDBRANCH   5   6
ENDBRANCH   4   5
ENDBRANCH   3   4
ENDBRANCH   2   3
ENDBRANCH   1   2
BRANCH   1  10
ATOM     10  C   UNL     1       6.792   3.365  -4.673  1.00  0.00     0.027 C 
BRANCH  10  11
ATOM     11  C   UNL     1       7.619   3.606  -5.912  1.00  0.00    -0.031 C 
ATOM     12  C   UNL     1       7.177   3.444  -7.174  1.00  0.00    -0.031 C 
BRANCH  12  13
ATOM     13  C   UNL     1       5.754   3.106  -7.549  1.00  0.00     0.027 C 
BRANCH  13  14
ATOM     14  C   UNL     1       4.896   4.367  -7.735  1.00  0.00     0.004 C 
BRANCH  14  15
ATOM     15  C   UNL     1       3.925   4.585  -6.561  1.00  0.00     0.000 C 
BRANCH  15  16
ATOM     16  C   UNL     1       3.889   6.046  -6.087  1.00  0.00    -0.000 C 
BRANCH  16  17
ATOM     17  C   UNL     1       5.277   6.703  -6.088  1.00  0.00    -0.003 C 
ATOM     18  C   UNL     1       5.790   6.903  -4.666  1.00  0.00     0.004 C 
ENDBRANCH  16  17
ENDBRANCH  15  16
ENDBRANCH  14  15
ENDBRANCH  13  14
ENDBRANCH  12  13
ENDBRANCH  10  11
ENDBRANCH   1  10
TORSDOF 13
ENDMDL
MODEL 5
REMARK VINA RESULT:    -4.471     13.295     15.013
REMARK INTER + INTRA:          -9.138
REMARK INTER:                  -7.378
REMARK INTRA:                  -1.760
REMARK UNBOUND:                -1.269
REMARK SMILES CCCCCCC=CCCCCCCCC(=O)[O-]
REMARK SMILES IDX 10 1 11 2 12 3 13 4 14 5 15 6 16 7 17 8 18 9 9 10 8 11 7 12
REMARK SMILES IDX 6 13 5 14 4 15 3 16 2 17 1 18
REMARK H PARENT
REMARK Flexibility Score: inf
ROOT
ATOM      1  C   UNL     1      -7.221   5.839  -2.171  1.00  0.00     0.004 C 
ENDROOT
BRANCH   1   2
ATOM      2  C   UNL     1      -7.556   4.356  -2.415  1.00  0.00     0.000 C 
BRANCH   2   3
ATOM      3  C   UNL     1      -8.904   4.178  -3.146  1.00  0.00     0.000 C 
BRANCH   3   4
ATOM      4  C   UNL     1      -8.799   3.349  -4.442  1.00  0.00     0.000 C 
BRANCH   4   5
ATOM      5  C   UNL     1      -7.617   2.364  -4.484  1.00  0.00     0.006 C 
BRANCH   5   6
ATOM      6  C   UNL     1      -6.819   2.450  -5.791  1.00  0.00     0.053 C 
BRANCH   6   7
ATOM      7  C   UNL     1      -5.368   2.658  -5.500  1.00  0.00     0.041 C 
ATOM      8  O   UNL     1      -4.542   2.771  -6.445  1.00  0.00    -0.550 OA
ATOM      9  O   UNL     1      -4.930   2.775  -4.187  1.00  0.00    -0.550 OA
ENDBRANCH   6   7
ENDBRANCH   5   6
ENDBRANCH   4   5
ENDBRANCH   3   4
ENDBRANCH   2   3
ENDBRANCH   1   2
BRANCH   1  10
ATOM     10  C   UNL     1      -7.165   6.643  -3.477  1.00  0.00     0.027 C 
BRANCH  10  11
ATOM     11  C   UNL     1      -5.991   6.236  -4.334  1.00  0.00    -0.031 C 
ATOM     12  C   UNL     1      -4.928   7.018  -4.603  1.00  0.00    -0.031 C 
BRANCH  12  13
ATOM     13  C   UNL     1      -4.691   8.382  -4.000  1.00  0.00     0.027 C 
BRANCH  13  14
ATOM     14  C   UNL     1      -3.522   8.371  -3.003  1.00  0.00     0.004 C 
BRANCH  14  15
ATOM     15  C   UNL     1      -3.772   9.306  -1.807  1.00  0.00     0.000 C 
BRANCH  15  16
ATOM     16  C   UNL     1      -5.184   9.151  -1.221  1.00  0.00    -0.000 C 
BRANCH  16  17
ATOM     17  C   UNL     1      -5.272   8.029  -0.176  1.00  0.00    -0.003 C 
ATOM     18  C   UNL     1      -4.472   8.380   1.074  1.00  0.00     0.004 C 
ENDBRANCH  16  17
ENDBRANCH  15  16
ENDBRANCH  14  15
ENDBRANCH  13  14
ENDBRANCH  12  13
ENDBRANCH  10  11
ENDBRANCH   1  10
TORSDOF 13
ENDMDL
MODEL 6
REMARK VINA RESULT:    -4.434      4.165      9.413
REMARK INTER + INTRA:          -9.074
REMARK INTER:                  -8.256
REMARK INTRA:                  -0.818
REMARK UNBOUND:                -1.269
REMARK SMILES CCCCCCC=CCCCCCCCC(=O)[O-]
REMARK SMILES IDX 10 1 11 2 12 3 13 4 14 5 15 6 16 7 17 8 18 9 9 10 8 11 7 12
REMARK SMILES IDX 6 13 5 14 4 15 3 16 2 17 1 18
REMARK H PARENT
REMARK Flexibility Score: inf
ROOT
ATOM      1  C   UNL     1       7.429   1.098  -3.350  1.00  0.00     0.004 C 
ENDROOT
BRANCH   1   2
ATOM      2  C   UNL     1       8.328   2.166  -3.999  1.00  0.00     0.000 C 
BRANCH   2   3
ATOM      3  C   UNL     1       7.506   3.272  -4.694  1.00  0.00     0.000 C 
BRANCH   3   4
ATOM      4  C   UNL     1       6.044   2.870  -4.974  1.00  0.00     0.000 C 
BRANCH   4   5
ATOM      5  C   UNL     1       5.556   3.161  -6.404  1.00  0.00     0.006 C 
BRANCH   5   6
ATOM      6  C   UNL     1       4.324   4.073  -6.437  1.00  0.00     0.053 C 
BRANCH   6   7
ATOM      7  C   UNL     1       4.703   5.472  -6.071  1.00  0.00     0.041 C 
ATOM      8  O   UNL     1       4.245   5.998  -5.022  1.00  0.00    -0.550 OA
ATOM      9  O   UNL     1       5.600   6.180  -6.860  1.00  0.00    -0.550 OA
ENDBRANCH   6   7
ENDBRANCH   5   6
ENDBRANCH   4   5
ENDBRANCH   3   4
ENDBRANCH   2   3
ENDBRANCH   1   2
BRANCH   1  10
ATOM     10  C   UNL     1       8.171  -0.227  -3.126  1.00  0.00     0.027 C 
BRANCH  10  11
ATOM     11  C   UNL     1       8.335  -0.534  -1.657  1.00  0.00    -0.031 C 
ATOM     12  C   UNL     1       8.571  -1.759  -1.150  1.00  0.00    -0.031 C 
BRANCH  12  13
ATOM     13  C   UNL     1       8.820  -2.997  -1.977  1.00  0.00     0.027 C 
BRANCH  13  14
ATOM     14  C   UNL     1       9.077  -4.231  -1.098  1.00  0.00     0.004 C 
BRANCH  14  15
ATOM     15  C   UNL     1       7.770  -4.923  -0.674  1.00  0.00     0.000 C 
BRANCH  15  16
ATOM     16  C   UNL     1       7.721  -5.222   0.832  1.00  0.00    -0.000 C 
BRANCH  16  17
ATOM     17  C   UNL     1       8.618  -4.283   1.652  1.00  0.00    -0.003 C 
ATOM     18  C   UNL     1       9.667  -5.068   2.432  1.00  0.00     0.004 C 
ENDBRANCH  16  17
ENDBRANCH  15  16
ENDBRANCH  14  15
ENDBRANCH  13  14
ENDBRANCH  12  13
ENDBRANCH  10  11
ENDBRANCH   1  10
TORSDOF 13
ENDMDL
MODEL 7
REMARK VINA RESULT:    -4.417     13.629     15.899
REMARK INTER + INTRA:          -9.043
REMARK INTER:                  -7.071
REMARK INTRA:                  -1.972
REMARK UNBOUND:                -1.269
REMARK SMILES CCCCCCC=CCCCCCCCC(=O)[O-]
REMARK SMILES IDX 10 1 11 2 12 3 13 4 14 5 15 6 16 7 17 8 18 9 9 10 8 11 7 12
REMARK SMILES IDX 6 13 5 14 4 15 3 16 2 17 1 18
REMARK H PARENT
REMARK Flexibility Score: inf
ROOT
ATOM      1  C   UNL     1      -8.125   4.842  -3.311  1.00  0.00     0.004 C 
ENDROOT
BRANCH   1   2
ATOM      2  C   UNL     1      -9.567   4.308  -3.231  1.00  0.00     0.000 C 
BRANCH   2   3
ATOM      3  C   UNL     1      -9.791   3.097  -4.161  1.00  0.00     0.000 C 
BRANCH   3   4
ATOM      4  C   UNL     1      -8.680   2.031  -4.063  1.00  0.00     0.000 C 
BRANCH   4   5
ATOM      5  C   UNL     1      -8.027   1.654  -5.404  1.00  0.00     0.006 C 
BRANCH   5   6
ATOM      6  C   UNL     1      -6.776   2.489  -5.710  1.00  0.00     0.053 C 
BRANCH   6   7
ATOM      7  C   UNL     1      -5.691   2.176  -4.731  1.00  0.00     0.041 C 
ATOM      8  O   UNL     1      -5.199   1.018  -4.680  1.00  0.00    -0.550 OA
ATOM      9  O   UNL     1      -5.187   3.174  -3.907  1.00  0.00    -0.550 OA
ENDBRANCH   6   7
ENDBRANCH   5   6
ENDBRANCH   4   5
ENDBRANCH   3   4
ENDBRANCH   2   3
ENDBRANCH   1   2
BRANCH   1  10
ATOM     10  C   UNL     1      -7.538   5.140  -1.925  1.00  0.00     0.027 C 
BRANCH  10  11
ATOM     11  C   UNL     1      -8.608   5.552  -0.943  1.00  0.00    -0.031 C 
ATOM     12  C   UNL     1      -8.769   6.800  -0.461  1.00  0.00    -0.031 C 
BRANCH  12  13
ATOM     13  C   UNL     1      -7.977   8.003  -0.913  1.00  0.00     0.027 C 
BRANCH  13  14
ATOM     14  C   UNL     1      -8.548   8.614  -2.201  1.00  0.00     0.004 C 
BRANCH  14  15
ATOM     15  C   UNL     1      -7.566   8.502  -3.380  1.00  0.00     0.000 C 
BRANCH  15  16
ATOM     16  C   UNL     1      -6.138   8.926  -3.002  1.00  0.00    -0.000 C 
BRANCH  16  17
ATOM     17  C   UNL     1      -5.117   7.793  -3.183  1.00  0.00    -0.003 C 
ATOM     18  C   UNL     1      -5.387   7.010  -4.464  1.00  0.00     0.004 C 
ENDBRANCH  16  17
ENDBRANCH  15  16
ENDBRANCH  14  15
ENDBRANCH  13  14
ENDBRANCH  12  13
ENDBRANCH  10  11
ENDBRANCH   1  10
TORSDOF 13
ENDMDL
MODEL 8
REMARK VINA RESULT:    -4.386     13.757     16.315
REMARK INTER + INTRA:          -8.989
REMARK INTER:                  -6.892
REMARK INTRA:                  -2.097
REMARK UNBOUND:                -1.269
REMARK SMILES CCCCCCC=CCCCCCCCC(=O)[O-]
REMARK SMILES IDX 10 1 11 2 12 3 13 4 14 5 15 6 16 7 17 8 18 9 9 10 8 11 7 12
REMARK SMILES IDX 6 13 5 14 4 15 3 16 2 17 1 18
REMARK H PARENT
REMARK Flexibility Score: inf
ROOT
ATOM      1  C   UNL     1      -9.976   6.334  -2.622  1.00  0.00     0.004 C 
ENDROOT
BRANCH   1   2
ATOM      2  C   UNL     1      -9.506   6.684  -1.198  1.00  0.00     0.000 C 
BRANCH   2   3
ATOM      3  C   UNL     1      -8.702   8.001  -1.161  1.00  0.00     0.000 C 
BRANCH   3   4
ATOM      4  C   UNL     1      -7.447   7.932  -0.267  1.00  0.00     0.000 C 
BRANCH   4   5
ATOM      5  C   UNL     1      -6.136   7.637  -1.017  1.00  0.00     0.006 C 
BRANCH   5   6
ATOM      6  C   UNL     1      -6.222   7.961  -2.514  1.00  0.00     0.053 C 
BRANCH   6   7
ATOM      7  C   UNL     1      -4.879   7.814  -3.154  1.00  0.00     0.041 C 
ATOM      8  O   UNL     1      -3.832   8.032  -2.488  1.00  0.00    -0.550 OA
ATOM      9  O   UNL     1      -4.779   7.392  -4.474  1.00  0.00    -0.550 OA
ENDBRANCH   6   7
ENDBRANCH   5   6
ENDBRANCH   4   5
ENDBRANCH   3   4
ENDBRANCH   2   3
ENDBRANCH   1   2
BRANCH   1  10
ATOM     10  C   UNL     1      -8.980   5.423  -3.354  1.00  0.00     0.027 C 
BRANCH  10  11
ATOM     11  C   UNL     1      -8.060   4.713  -2.390  1.00  0.00    -0.031 C 
ATOM     12  C   UNL     1      -6.887   4.143  -2.726  1.00  0.00    -0.031 C 
BRANCH  12  13
ATOM     13  C   UNL     1      -6.256   4.222  -4.096  1.00  0.00     0.027 C 
BRANCH  13  14
ATOM     14  C   UNL     1      -5.385   2.993  -4.396  1.00  0.00     0.004 C 
BRANCH  14  15
ATOM     15  C   UNL     1      -6.215   1.810  -4.925  1.00  0.00     0.000 C 
BRANCH  15  16
ATOM     16  C   UNL     1      -7.433   2.263  -5.747  1.00  0.00    -0.000 C 
BRANCH  16  17
ATOM     17  C   UNL     1      -8.667   1.380  -5.512  1.00  0.00    -0.003 C 
ATOM     18  C   UNL     1      -9.262   1.624  -4.129  1.00  0.00     0.004 C 
ENDBRANCH  16  17
ENDBRANCH  15  16
ENDBRANCH  14  15
ENDBRANCH  13  14
ENDBRANCH  12  13
ENDBRANCH  10  11
ENDBRANCH   1  10
TORSDOF 13
ENDMDL
MODEL 9
REMARK VINA RESULT:    -4.351      5.757      8.123
REMARK INTER + INTRA:          -8.926
REMARK INTER:                  -6.367
REMARK INTRA:                  -2.559
REMARK UNBOUND:                -1.269
REMARK SMILES CCCCCCC=CCCCCCCCC(=O)[O-]
REMARK SMILES IDX 10 1 11 2 12 3 13 4 14 5 15 6 16 7 17 8 18 9 9 10 8 11 7 12
REMARK SMILES IDX 6 13 5 14 4 15 3 16 2 17 1 18
REMARK H PARENT
REMARK Flexibility Score: inf
ROOT
ATOM      1  C   UNL     1       7.825   4.858  -4.256  1.00  0.00     0.004 C 
ENDROOT
BRANCH   1   2
ATOM      2  C   UNL     1       8.055   5.829  -5.427  1.00  0.00     0.000 C 
BRANCH   2   3
ATOM      3  C   UNL     1       6.817   6.708  -5.704  1.00  0.00     0.000 C 
BRANCH   3   4
ATOM      4  C   UNL     1       5.690   6.530  -4.667  1.00  0.00     0.000 C 
BRANCH   4   5
ATOM      5  C   UNL     1       4.348   7.175  -5.053  1.00  0.00     0.006 C 
BRANCH   5   6
ATOM      6  C   UNL     1       4.101   7.172  -6.567  1.00  0.00     0.053 C 
BRANCH   6   7
ATOM      7  C   UNL     1       2.647   6.985  -6.856  1.00  0.00     0.041 C 
ATOM      8  O   UNL     1       1.785   7.658  -6.229  1.00  0.00    -0.550 OA
ATOM      9  O   UNL     1       2.241   6.104  -7.850  1.00  0.00    -0.550 OA
ENDBRANCH   6   7
ENDBRANCH   5   6
ENDBRANCH   4   5
ENDBRANCH   3   4
ENDBRANCH   2   3
ENDBRANCH   1   2
BRANCH   1  10
ATOM     10  C   UNL     1       8.308   3.436  -4.577  1.00  0.00     0.027 C 
BRANCH  10  11
ATOM     11  C   UNL     1       7.420   2.390  -3.949  1.00  0.00    -0.031 C 
ATOM     12  C   UNL     1       6.372   1.804  -4.560  1.00  0.00    -0.031 C 
BRANCH  12  13
ATOM     13  C   UNL     1       5.992   2.019  -6.006  1.00  0.00     0.027 C 
BRANCH  13  14
ATOM     14  C   UNL     1       4.999   3.179  -6.171  1.00  0.00     0.004 C 
BRANCH  14  15
ATOM     15  C   UNL     1       5.151   3.882  -7.531  1.00  0.00     0.000 C 
BRANCH  15  16
ATOM     16  C   UNL     1       6.233   3.238  -8.412  1.00  0.00    -0.000 C 
BRANCH  16  17
ATOM     17  C   UNL     1       7.439   4.161  -8.637  1.00  0.00    -0.003 C 
ATOM     18  C   UNL     1       8.742   3.461  -8.266  1.00  0.00     0.004 C 
ENDBRANCH  16  17
ENDBRANCH  15  16
ENDBRANCH  14  15
ENDBRANCH  13  14
ENDBRANCH  12  13
ENDBRANCH  10  11
ENDBRANCH   1  10
TORSDOF 13
ENDMDL
