MODEL 1
REMARK VINA RESULT:    -4.883      0.000      0.000
REMARK INTER + INTRA:          -5.365
REMARK INTER:                  -6.025
REMARK INTRA:                   0.661
REMARK UNBOUND:                 0.661
REMARK SMILES C=C1[C@H]2CC[C@@H]3[C@H]2C(C)(C)CCC[C@]13C
REMARK SMILES IDX 14 1 6 2 7 3 3 4 2 5 1 6 4 7 5 8 15 9 8 10 9 11 10 12 11 13
REMARK SMILES IDX 13 15 12 16
REMARK H PARENT
REMARK Flexibility Score: 80.00
ROOT
ATOM      1  C   UNL     1     142.981 146.689 163.930  1.00  0.00    -0.008 C 
ATOM      2  C   UNL     1     141.826 147.725 163.671  1.00  0.00     0.003 C 
ATOM      3  C   UNL     1     141.048 147.097 162.505  1.00  0.00     0.006 C 
ATOM      4  C   UNL     1     140.815 145.777 163.243  1.00  0.00     0.019 C 
ATOM      5  C   UNL     1     142.210 145.416 163.669  1.00  0.00    -0.068 C 
ATOM      6  C   UNL     1     142.651 144.166 163.865  1.00  0.00     0.009 C 
ATOM      7  C   UNL     1     140.091 146.258 164.515  1.00  0.00     0.008 C 
ATOM      8  C   UNL     1     140.741 147.632 164.780  1.00  0.00     0.005 C 
ATOM      9  C   UNL     1     143.511 146.718 165.388  1.00  0.00     0.016 C 
ENDROOT
BRANCH   3  10
ATOM     10  C   UNL     1     141.725 147.051 161.062  1.00  0.00    -0.032 C 
ATOM     11  C   UNL     1     142.103 145.627 160.564  1.00  0.00     0.011 C 
ATOM     12  C   UNL     1     140.664 147.552 160.041  1.00  0.00     0.011 C 
BRANCH  10  13
ATOM     13  C   UNL     1     142.941 148.024 160.923  1.00  0.00     0.007 CG0
ATOM     14  G   UNL     1     144.126 147.963 161.922  1.00  0.00     0.000 G0
ENDBRANCH  10  13
ENDBRANCH   3  10
BRANCH   1  15
ATOM     15  C   UNL     1     144.186 146.822 162.935  1.00  0.00     0.011 C 
BRANCH  15  16
ATOM     16  C   UNL     1     144.127 147.973 161.923  1.00  0.00     0.001 CG0
ATOM     17  G   UNL     1     142.947 148.029 160.917  1.00  0.00     0.000 G0
ENDBRANCH  15  16
ENDBRANCH   1  15
TORSDOF 0
ENDMDL
MODEL 2
REMARK VINA RESULT:    -4.864      3.586      5.369
REMARK INTER + INTRA:          -5.341
REMARK INTER:                  -6.001
REMARK INTRA:                   0.660
REMARK UNBOUND:                 0.661
REMARK SMILES C=C1[C@H]2CC[C@@H]3[C@H]2C(C)(C)CCC[C@]13C
REMARK SMILES IDX 14 1 6 2 7 3 3 4 2 5 1 6 4 7 5 8 15 9 8 10 9 11 10 12 11 13
REMARK SMILES IDX 13 15 12 16
REMARK H PARENT
REMARK Flexibility Score: 80.00
ROOT
ATOM      1  C   UNL     1     144.048 142.978 163.978  1.00  0.00    -0.008 C 
ATOM      2  C   UNL     1     143.057 141.793 163.678  1.00  0.00     0.003 C 
ATOM      3  C   UNL     1     143.695 141.104 162.461  1.00  0.00     0.006 C 
ATOM      4  C   UNL     1     145.038 140.892 163.162  1.00  0.00     0.019 C 
ATOM      5  C   UNL     1     145.348 142.278 163.654  1.00  0.00    -0.068 C 
ATOM      6  C   UNL     1     146.581 142.762 163.850  1.00  0.00     0.009 C 
ATOM      7  C   UNL     1     144.614 140.083 164.404  1.00  0.00     0.008 C 
ATOM      8  C   UNL     1     143.219 140.658 164.727  1.00  0.00     0.005 C 
ATOM      9  C   UNL     1     144.026 143.431 165.461  1.00  0.00     0.016 C 
ENDROOT
BRANCH   3  10
ATOM     10  C   UNL     1     143.683 141.855 161.055  1.00  0.00    -0.032 C 
ATOM     11  C   UNL     1     145.079 142.317 160.550  1.00  0.00     0.011 C 
ATOM     12  C   UNL     1     143.205 140.828 159.990  1.00  0.00     0.011 C 
BRANCH  10  13
ATOM     13  C   UNL     1     142.659 143.035 160.997  1.00  0.00     0.007 CG0
ATOM     14  G   UNL     1     142.687 144.164 162.060  1.00  0.00     0.000 G0
ENDBRANCH  10  13
ENDBRANCH   3  10
BRANCH   1  15
ATOM     15  C   UNL     1     143.845 144.225 163.049  1.00  0.00     0.011 C 
BRANCH  15  16
ATOM     16  C   UNL     1     142.679 144.166 162.053  1.00  0.00     0.001 CG0
ATOM     17  G   UNL     1     142.656 143.040 160.987  1.00  0.00     0.000 G0
ENDBRANCH  15  16
ENDBRANCH   1  15
TORSDOF 0
ENDMDL
MODEL 3
REMARK VINA RESULT:    -4.862      4.333      6.479
REMARK INTER + INTRA:          -5.338
REMARK INTER:                  -5.997
REMARK INTRA:                   0.659
REMARK UNBOUND:                 0.661
REMARK SMILES C=C1[C@H]2CC[C@@H]3[C@H]2C(C)(C)CCC[C@]13C
REMARK SMILES IDX 14 1 6 2 7 3 3 4 2 5 1 6 4 7 5 8 15 9 8 10 9 11 10 12 11 13
REMARK SMILES IDX 13 15 12 16
REMARK H PARENT
REMARK Flexibility Score: 80.00
ROOT
ATOM      1  C   UNL     1     144.616 141.763 162.171  1.00  0.00    -0.008 C 
ATOM      2  C   UNL     1     145.510 140.951 163.178  1.00  0.00     0.003 C 
ATOM      3  C   UNL     1     145.748 141.951 164.320  1.00  0.00     0.006 C 
ATOM      4  C   UNL     1     144.255 142.187 164.556  1.00  0.00     0.019 C 
ATOM      5  C   UNL     1     143.777 142.525 163.171  1.00  0.00    -0.068 C 
ATOM      6  C   UNL     1     142.724 143.305 162.895  1.00  0.00     0.009 C 
ATOM      7  C   UNL     1     143.757 140.757 164.841  1.00  0.00     0.008 C 
ATOM      8  C   UNL     1     144.664 139.893 163.939  1.00  0.00     0.005 C 
ATOM      9  C   UNL     1     143.721 140.859 161.283  1.00  0.00     0.016 C 
ENDROOT
BRANCH   3  10
ATOM     10  C   UNL     1     146.684 143.215 164.056  1.00  0.00    -0.032 C 
ATOM     11  C   UNL     1     145.946 144.583 164.052  1.00  0.00     0.011 C 
ATOM     12  C   UNL     1     147.675 143.310 165.250  1.00  0.00     0.011 C 
BRANCH  10  13
ATOM     13  C   UNL     1     147.572 143.065 162.778  1.00  0.00     0.007 CG0
ATOM     14  G   UNL     1     146.937 142.730 161.403  1.00  0.00     0.000 G0
ENDBRANCH  10  13
ENDBRANCH   3  10
BRANCH   1  15
ATOM     15  C   UNL     1     145.425 142.751 161.260  1.00  0.00     0.011 C 
BRANCH  15  16
ATOM     16  C   UNL     1     146.952 142.736 161.404  1.00  0.00     0.001 CG0
ATOM     17  G   UNL     1     147.580 143.065 162.783  1.00  0.00     0.000 G0
ENDBRANCH  15  16
ENDBRANCH   1  15
TORSDOF 0
ENDMDL
MODEL 4
REMARK VINA RESULT:    -4.849      1.978      3.960
REMARK INTER + INTRA:          -5.323
REMARK INTER:                  -5.987
REMARK INTRA:                   0.664
REMARK UNBOUND:                 0.661
REMARK SMILES C=C1[C@H]2CC[C@@H]3[C@H]2C(C)(C)CCC[C@]13C
REMARK SMILES IDX 14 1 6 2 7 3 3 4 2 5 1 6 4 7 5 8 15 9 8 10 9 11 10 12 11 13
REMARK SMILES IDX 13 15 12 16
REMARK H PARENT
REMARK Flexibility Score: 80.00
ROOT
ATOM      1  C   UNL     1     141.813 146.160 162.236  1.00  0.00    -0.008 C 
ATOM      2  C   UNL     1     141.008 145.283 163.264  1.00  0.00     0.003 C 
ATOM      3  C   UNL     1     142.034 145.018 164.377  1.00  0.00     0.006 C 
ATOM      4  C   UNL     1     142.312 146.504 164.608  1.00  0.00     0.019 C 
ATOM      5  C   UNL     1     142.622 146.978 163.216  1.00  0.00    -0.068 C 
ATOM      6  C   UNL     1     143.420 148.012 162.920  1.00  0.00     0.009 C 
ATOM      7  C   UNL     1     140.903 147.036 164.935  1.00  0.00     0.008 C 
ATOM      8  C   UNL     1     139.992 146.152 164.056  1.00  0.00     0.005 C 
ATOM      9  C   UNL     1     140.906 147.078 161.375  1.00  0.00     0.016 C 
ENDROOT
BRANCH   3  10
ATOM     10  C   UNL     1     143.267 144.053 164.076  1.00  0.00    -0.032 C 
ATOM     11  C   UNL     1     144.652 144.759 164.029  1.00  0.00     0.011 C 
ATOM     12  C   UNL     1     143.376 143.062 165.269  1.00  0.00     0.011 C 
BRANCH  10  13
ATOM     13  C   UNL     1     143.057 143.167 162.805  1.00  0.00     0.007 CG0
ATOM     14  G   UNL     1     142.708 143.809 161.437  1.00  0.00     0.000 G0
ENDBRANCH  10  13
ENDBRANCH   3  10
BRANCH   1  15
ATOM     15  C   UNL     1     142.756 145.330 161.296  1.00  0.00     0.011 C 
BRANCH  15  16
ATOM     16  C   UNL     1     142.707 143.803 161.438  1.00  0.00     0.001 CG0
ATOM     17  G   UNL     1     143.053 143.164 162.808  1.00  0.00     0.000 G0
ENDBRANCH  15  16
ENDBRANCH   1  15
TORSDOF 0
ENDMDL
MODEL 5
REMARK VINA RESULT:    -4.848      3.563      5.368
REMARK INTER + INTRA:          -5.321
REMARK INTER:                  -5.982
REMARK INTRA:                   0.661
REMARK UNBOUND:                 0.661
REMARK SMILES C=C1[C@H]2CC[C@@H]3[C@H]2C(C)(C)CCC[C@]13C
REMARK SMILES IDX 14 1 6 2 7 3 3 4 2 5 1 6 4 7 5 8 15 9 8 10 9 11 10 12 11 13
REMARK SMILES IDX 13 15 12 16
REMARK H PARENT
REMARK Flexibility Score: 80.00
ROOT
ATOM      1  C   UNL     1     146.640 147.781 163.786  1.00  0.00    -0.008 C 
ATOM      2  C   UNL     1     147.652 148.955 163.520  1.00  0.00     0.003 C 
ATOM      3  C   UNL     1     147.053 149.663 162.295  1.00  0.00     0.006 C 
ATOM      4  C   UNL     1     145.696 149.886 162.966  1.00  0.00     0.019 C 
ATOM      5  C   UNL     1     145.357 148.500 163.437  1.00  0.00    -0.068 C 
ATOM      6  C   UNL     1     144.113 148.030 163.599  1.00  0.00     0.009 C 
ATOM      7  C   UNL     1     146.099 150.679 164.224  1.00  0.00     0.008 C 
ATOM      8  C   UNL     1     147.479 150.083 164.576  1.00  0.00     0.005 C 
ATOM      9  C   UNL     1     146.620 147.314 165.265  1.00  0.00     0.016 C 
ENDROOT
BRANCH   3  10
ATOM     10  C   UNL     1     147.090 148.924 160.883  1.00  0.00    -0.032 C 
ATOM     11  C   UNL     1     145.701 148.479 160.343  1.00  0.00     0.011 C 
ATOM     12  C   UNL     1     147.600 149.957 159.838  1.00  0.00     0.011 C 
BRANCH  10  13
ATOM     13  C   UNL     1     148.105 147.736 160.838  1.00  0.00     0.007 CG0
ATOM     14  G   UNL     1     148.032 146.588 161.878  1.00  0.00     0.000 G0
ENDBRANCH  10  13
ENDBRANCH   3  10
BRANCH   1  15
ATOM     15  C   UNL     1     146.850 146.539 162.851  1.00  0.00     0.011 C 
BRANCH  15  16
ATOM     16  C   UNL     1     148.044 146.589 161.889  1.00  0.00     0.001 CG0
ATOM     17  G   UNL     1     148.118 147.731 160.841  1.00  0.00     0.000 G0
ENDBRANCH  15  16
ENDBRANCH   1  15
TORSDOF 0
ENDMDL
MODEL 6
REMARK VINA RESULT:    -4.807      4.937      6.973
REMARK INTER + INTRA:          -5.271
REMARK INTER:                  -5.943
REMARK INTRA:                   0.672
REMARK UNBOUND:                 0.661
REMARK SMILES C=C1[C@H]2CC[C@@H]3[C@H]2C(C)(C)CCC[C@]13C
REMARK SMILES IDX 14 1 6 2 7 3 3 4 2 5 1 6 4 7 5 8 15 9 8 10 9 11 10 12 11 13
REMARK SMILES IDX 13 15 12 16
REMARK H PARENT
REMARK Flexibility Score: 80.00
ROOT
ATOM      1  C   UNL     1     148.978 144.646 162.161  1.00  0.00    -0.008 C 
ATOM      2  C   UNL     1     149.756 145.525 163.209  1.00  0.00     0.003 C 
ATOM      3  C   UNL     1     148.717 145.745 164.321  1.00  0.00     0.006 C 
ATOM      4  C   UNL     1     148.476 144.248 164.525  1.00  0.00     0.019 C 
ATOM      5  C   UNL     1     148.185 143.792 163.123  1.00  0.00    -0.068 C 
ATOM      6  C   UNL     1     147.415 142.743 162.803  1.00  0.00     0.009 C 
ATOM      7  C   UNL     1     149.896 143.746 164.850  1.00  0.00     0.008 C 
ATOM      8  C   UNL     1     150.789 144.667 163.992  1.00  0.00     0.005 C 
ATOM      9  C   UNL     1     149.912 143.766 161.290  1.00  0.00     0.016 C 
ENDROOT
BRANCH   3  10
ATOM     10  C   UNL     1     147.462 146.683 164.029  1.00  0.00    -0.032 C 
ATOM     11  C   UNL     1     146.096 145.944 163.962  1.00  0.00     0.011 C 
ATOM     12  C   UNL     1     147.322 147.650 165.239  1.00  0.00     0.011 C 
BRANCH  10  13
ATOM     13  C   UNL     1     147.656 147.597 162.776  1.00  0.00     0.007 CG0
ATOM     14  G   UNL     1     148.029 146.988 161.399  1.00  0.00     0.000 G0
ENDBRANCH  10  13
ENDBRANCH   3  10
BRANCH   1  15
ATOM     15  C   UNL     1     148.020 145.469 161.231  1.00  0.00     0.011 C 
BRANCH  15  16
ATOM     16  C   UNL     1     148.028 146.994 161.401  1.00  0.00     0.001 CG0
ATOM     17  G   UNL     1     147.654 147.598 162.780  1.00  0.00     0.000 G0
ENDBRANCH  15  16
ENDBRANCH   1  15
TORSDOF 0
ENDMDL
MODEL 7
REMARK VINA RESULT:    -4.803      5.669      7.541
REMARK INTER + INTRA:          -5.266
REMARK INTER:                  -5.930
REMARK INTRA:                   0.664
REMARK UNBOUND:                 0.661
REMARK SMILES C=C1[C@H]2CC[C@@H]3[C@H]2C(C)(C)CCC[C@]13C
REMARK SMILES IDX 14 1 6 2 7 3 3 4 2 5 1 6 4 7 5 8 15 9 8 10 9 11 10 12 11 13
REMARK SMILES IDX 13 15 12 16
REMARK H PARENT
REMARK Flexibility Score: 80.00
ROOT
ATOM      1  C   UNL     1     147.758 144.164 163.885  1.00  0.00    -0.008 C 
ATOM      2  C   UNL     1     148.909 143.134 163.586  1.00  0.00     0.003 C 
ATOM      3  C   UNL     1     149.610 143.740 162.360  1.00  0.00     0.006 C 
ATOM      4  C   UNL     1     149.869 145.081 163.050  1.00  0.00     0.019 C 
ATOM      5  C   UNL     1     148.497 145.438 163.547  1.00  0.00    -0.068 C 
ATOM      6  C   UNL     1     148.053 146.688 163.736  1.00  0.00     0.009 C 
ATOM      7  C   UNL     1     150.672 144.642 164.290  1.00  0.00     0.008 C 
ATOM      8  C   UNL     1     150.055 143.268 164.627  1.00  0.00     0.005 C 
ATOM      9  C   UNL     1     147.313 144.168 165.372  1.00  0.00     0.016 C 
ENDROOT
BRANCH   3  10
ATOM     10  C   UNL     1     148.850 143.741 160.959  1.00  0.00    -0.032 C 
ATOM     11  C   UNL     1     148.427 145.147 160.447  1.00  0.00     0.011 C 
ATOM     12  C   UNL     1     149.856 143.225 159.891  1.00  0.00     0.011 C 
BRANCH  10  13
ATOM     13  C   UNL     1     147.640 142.752 160.916  1.00  0.00     0.007 CG0
ATOM     14  G   UNL     1     146.512 142.830 161.977  1.00  0.00     0.000 G0
ENDBRANCH  10  13
ENDBRANCH   3  10
BRANCH   1  15
ATOM     15  C   UNL     1     146.499 143.993 162.966  1.00  0.00     0.011 C 
BRANCH  15  16
ATOM     16  C   UNL     1     146.515 142.818 161.978  1.00  0.00     0.001 CG0
ATOM     17  G   UNL     1     147.642 142.746 160.914  1.00  0.00     0.000 G0
ENDBRANCH  15  16
ENDBRANCH   1  15
TORSDOF 0
ENDMDL
MODEL 8
REMARK VINA RESULT:    -4.775      2.547      4.800
REMARK INTER + INTRA:          -5.231
REMARK INTER:                  -5.895
REMARK INTRA:                   0.664
REMARK UNBOUND:                 0.661
REMARK SMILES C=C1[C@H]2CC[C@@H]3[C@H]2C(C)(C)CCC[C@]13C
REMARK SMILES IDX 14 1 6 2 7 3 3 4 2 5 1 6 4 7 5 8 15 9 8 10 9 11 10 12 11 13
REMARK SMILES IDX 13 15 12 16
REMARK H PARENT
REMARK Flexibility Score: 80.00
ROOT
ATOM      1  C   UNL     1     146.119 148.926 162.056  1.00  0.00    -0.008 C 
ATOM      2  C   UNL     1     145.247 149.735 163.086  1.00  0.00     0.003 C 
ATOM      3  C   UNL     1     145.047 148.735 164.235  1.00  0.00     0.006 C 
ATOM      4  C   UNL     1     146.547 148.509 164.430  1.00  0.00     0.019 C 
ATOM      5  C   UNL     1     146.990 148.172 163.034  1.00  0.00    -0.068 C 
ATOM      6  C   UNL     1     148.040 147.398 162.730  1.00  0.00     0.009 C 
ATOM      7  C   UNL     1     147.043 149.943 164.700  1.00  0.00     0.008 C 
ATOM      8  C   UNL     1     146.107 150.800 163.822  1.00  0.00     0.005 C 
ATOM      9  C   UNL     1     146.983 149.835 161.142  1.00  0.00     0.016 C 
ENDROOT
BRANCH   3  10
ATOM     10  C   UNL     1     144.113 147.464 163.999  1.00  0.00    -0.032 C 
ATOM     11  C   UNL     1     144.861 146.101 163.971  1.00  0.00     0.011 C 
ATOM     12  C   UNL     1     143.160 147.360 165.223  1.00  0.00     0.011 C 
BRANCH  10  13
ATOM     13  C   UNL     1     143.184 147.609 162.749  1.00  0.00     0.007 CG0
ATOM     14  G   UNL     1     143.774 147.948 161.356  1.00  0.00     0.000 G0
ENDBRANCH  10  13
ENDBRANCH   3  10
BRANCH   1  15
ATOM     15  C   UNL     1     145.292 147.932 161.169  1.00  0.00     0.011 C 
BRANCH  15  16
ATOM     16  C   UNL     1     143.769 147.940 161.351  1.00  0.00     0.001 CG0
ATOM     17  G   UNL     1     143.177 147.611 162.747  1.00  0.00     0.000 G0
ENDBRANCH  15  16
ENDBRANCH   1  15
TORSDOF 0
ENDMDL
MODEL 9
REMARK VINA RESULT:    -4.550      3.961      6.050
REMARK INTER + INTRA:          -4.953
REMARK INTER:                  -5.603
REMARK INTRA:                   0.650
REMARK UNBOUND:                 0.661
REMARK SMILES C=C1[C@H]2CC[C@@H]3[C@H]2C(C)(C)CCC[C@]13C
REMARK SMILES IDX 14 1 6 2 7 3 3 4 2 5 1 6 4 7 5 8 15 9 8 10 9 11 10 12 11 13
REMARK SMILES IDX 13 15 12 16
REMARK H PARENT
REMARK Flexibility Score: 80.00
ROOT
ATOM      1  C   UNL     1     143.598 141.550 164.075  1.00  0.00    -0.008 C 
ATOM      2  C   UNL     1     143.783 142.080 162.606  1.00  0.00     0.003 C 
ATOM      3  C   UNL     1     145.284 142.399 162.536  1.00  0.00     0.006 C 
ATOM      4  C   UNL     1     145.703 140.989 162.957  1.00  0.00     0.019 C 
ATOM      5  C   UNL     1     144.899 140.795 164.212  1.00  0.00    -0.068 C 
ATOM      6  C   UNL     1     145.257 140.007 165.235  1.00  0.00     0.009 C 
ATOM      7  C   UNL     1     145.021 140.128 161.876  1.00  0.00     0.008 C 
ATOM      8  C   UNL     1     143.723 140.911 161.584  1.00  0.00     0.005 C 
ATOM      9  C   UNL     1     142.389 140.589 164.229  1.00  0.00     0.016 C 
ENDROOT
BRANCH   3  10
ATOM     10  C   UNL     1     145.849 143.638 163.365  1.00  0.00    -0.032 C 
ATOM     11  C   UNL     1     146.773 143.259 164.557  1.00  0.00     0.011 C 
ATOM     12  C   UNL     1     146.765 144.452 162.407  1.00  0.00     0.011 C 
BRANCH  10  13
ATOM     13  C   UNL     1     144.731 144.629 163.827  1.00  0.00     0.007 CG0
ATOM     14  G   UNL     1     143.507 144.124 164.635  1.00  0.00     0.000 G0
ENDBRANCH  10  13
ENDBRANCH   3  10
BRANCH   1  15
ATOM     15  C   UNL     1     143.500 142.686 165.152  1.00  0.00     0.011 C 
BRANCH  15  16
ATOM     16  C   UNL     1     143.494 144.131 164.637  1.00  0.00     0.001 CG0
ATOM     17  G   UNL     1     144.719 144.650 163.839  1.00  0.00     0.000 G0
ENDBRANCH  15  16
ENDBRANCH   1  15
TORSDOF 0
ENDMDL
