MODEL 1
REMARK VINA RESULT:    -3.612      0.000      0.000
REMARK INTER + INTRA:          -4.657
REMARK INTER:                  -4.457
REMARK INTRA:                  -0.199
REMARK UNBOUND:                -0.199
REMARK SMILES C=CC[C@H](C)C(=O)CC
REMARK SMILES IDX 4 1 5 2 6 3 7 4 8 5 9 6 3 7 2 8 1 9
REMARK H PARENT
REMARK Flexibility Score: inf
ROOT
ATOM      1  C   UNL     1      20.713  23.867  26.209  1.00  0.00     0.057 C 
ATOM      2  C   UNL     1      19.474  22.996  25.953  1.00  0.00     0.016 C 
ENDROOT
BRANCH   1   3
ATOM      3  C   UNL     1      20.382  24.948  27.216  1.00  0.00     0.135 C 
ATOM      4  O   UNL     1      21.277  25.647  27.670  1.00  0.00    -0.299 OA
BRANCH   3   5
ATOM      5  C   UNL     1      18.968  25.173  27.681  1.00  0.00     0.072 C 
ATOM      6  C   UNL     1      18.644  26.662  27.725  1.00  0.00     0.012 C 
ENDBRANCH   3   5
ENDBRANCH   1   3
BRANCH   1   7
ATOM      7  C   UNL     1      21.242  24.503  24.907  1.00  0.00     0.038 C 
BRANCH   7   8
ATOM      8  C   UNL     1      21.415  23.493  23.803  1.00  0.00    -0.034 C 
ATOM      9  C   UNL     1      22.621  23.165  23.331  1.00  0.00     0.004 C 
ENDBRANCH   7   8
ENDBRANCH   1   7
TORSDOF 4
ENDMDL
MODEL 2
REMARK VINA RESULT:    -3.543      1.265      1.547
REMARK INTER + INTRA:          -4.571
REMARK INTER:                  -4.419
REMARK INTRA:                  -0.151
REMARK UNBOUND:                -0.199
REMARK SMILES C=CC[C@H](C)C(=O)CC
REMARK SMILES IDX 4 1 5 2 6 3 7 4 8 5 9 6 3 7 2 8 1 9
REMARK H PARENT
REMARK Flexibility Score: inf
ROOT
ATOM      1  C   UNL     1      20.464  23.656  26.298  1.00  0.00     0.057 C 
ATOM      2  C   UNL     1      19.236  22.823  25.904  1.00  0.00     0.016 C 
ENDROOT
BRANCH   1   3
ATOM      3  C   UNL     1      20.071  24.697  27.326  1.00  0.00     0.135 C 
ATOM      4  O   UNL     1      18.888  24.943  27.515  1.00  0.00    -0.299 OA
BRANCH   3   5
ATOM      5  C   UNL     1      21.112  25.446  28.114  1.00  0.00     0.072 C 
ATOM      6  C   UNL     1      20.820  25.366  29.608  1.00  0.00     0.012 C 
ENDBRANCH   3   5
ENDBRANCH   1   3
BRANCH   1   7
ATOM      7  C   UNL     1      21.107  24.341  25.074  1.00  0.00     0.038 C 
BRANCH   7   8
ATOM      8  C   UNL     1      21.333  23.382  23.934  1.00  0.00    -0.034 C 
ATOM      9  C   UNL     1      22.537  23.220  23.379  1.00  0.00     0.004 C 
ENDBRANCH   7   8
ENDBRANCH   1   7
TORSDOF 4
ENDMDL
MODEL 3
REMARK VINA RESULT:    -3.442      2.376      5.257
REMARK INTER + INTRA:          -4.446
REMARK INTER:                  -4.306
REMARK INTRA:                  -0.140
REMARK UNBOUND:                -0.199
REMARK SMILES C=CC[C@H](C)C(=O)CC
REMARK SMILES IDX 4 1 5 2 6 3 7 4 8 5 9 6 3 7 2 8 1 9
REMARK H PARENT
REMARK Flexibility Score: inf
ROOT
ATOM      1  C   UNL     1      21.759  23.748  24.219  1.00  0.00     0.057 C 
ATOM      2  C   UNL     1      21.745  25.216  23.768  1.00  0.00     0.016 C 
ENDROOT
BRANCH   1   3
ATOM      3  C   UNL     1      21.508  22.844  23.030  1.00  0.00     0.135 C 
ATOM      4  O   UNL     1      20.361  22.647  22.651  1.00  0.00    -0.299 OA
BRANCH   3   5
ATOM      5  C   UNL     1      22.645  22.171  22.309  1.00  0.00     0.072 C 
ATOM      6  C   UNL     1      22.148  20.960  21.527  1.00  0.00     0.012 C 
ENDBRANCH   3   5
ENDBRANCH   1   3
BRANCH   1   7
ATOM      7  C   UNL     1      20.709  23.478  25.317  1.00  0.00     0.038 C 
BRANCH   7   8
ATOM      8  C   UNL     1      20.714  24.537  26.388  1.00  0.00    -0.034 C 
ATOM      9  C   UNL     1      19.732  24.631  27.289  1.00  0.00     0.004 C 
ENDBRANCH   7   8
ENDBRANCH   1   7
TORSDOF 4
ENDMDL
MODEL 4
REMARK VINA RESULT:    -3.426      2.191      4.201
REMARK INTER + INTRA:          -4.426
REMARK INTER:                  -3.973
REMARK INTRA:                  -0.453
REMARK UNBOUND:                -0.199
REMARK SMILES C=CC[C@H](C)C(=O)CC
REMARK SMILES IDX 4 1 5 2 6 3 7 4 8 5 9 6 3 7 2 8 1 9
REMARK H PARENT
REMARK Flexibility Score: inf
ROOT
ATOM      1  C   UNL     1      19.929  25.325  27.491  1.00  0.00     0.057 C 
ATOM      2  C   UNL     1      20.177  23.975  26.803  1.00  0.00     0.016 C 
ENDROOT
BRANCH   1   3
ATOM      3  C   UNL     1      21.013  25.585  28.516  1.00  0.00     0.135 C 
ATOM      4  O   UNL     1      20.983  25.001  29.591  1.00  0.00    -0.299 OA
BRANCH   3   5
ATOM      5  C   UNL     1      22.126  26.562  28.243  1.00  0.00     0.072 C 
ATOM      6  C   UNL     1      21.782  27.941  28.793  1.00  0.00     0.012 C 
ENDBRANCH   3   5
ENDBRANCH   1   3
BRANCH   1   7
ATOM      7  C   UNL     1      18.542  25.376  28.166  1.00  0.00     0.038 C 
BRANCH   7   8
ATOM      8  C   UNL     1      18.097  26.785  28.456  1.00  0.00    -0.034 C 
ATOM      9  C   UNL     1      18.149  27.744  27.528  1.00  0.00     0.004 C 
ENDBRANCH   7   8
ENDBRANCH   1   7
TORSDOF 4
ENDMDL
MODEL 5
REMARK VINA RESULT:    -3.386      8.877     10.625
REMARK INTER + INTRA:          -4.377
REMARK INTER:                  -4.106
REMARK INTRA:                  -0.270
REMARK UNBOUND:                -0.199
REMARK SMILES C=CC[C@H](C)C(=O)CC
REMARK SMILES IDX 4 1 5 2 6 3 7 4 8 5 9 6 3 7 2 8 1 9
REMARK H PARENT
REMARK Flexibility Score: inf
ROOT
ATOM      1  C   UNL     1      17.634  33.186  29.135  1.00  0.00     0.057 C 
ATOM      2  C   UNL     1      18.152  31.746  29.269  1.00  0.00     0.016 C 
ENDROOT
BRANCH   1   3
ATOM      3  C   UNL     1      18.275  34.063  30.189  1.00  0.00     0.135 C 
ATOM      4  O   UNL     1      17.964  33.924  31.364  1.00  0.00    -0.299 OA
BRANCH   3   5
ATOM      5  C   UNL     1      19.285  35.116  29.817  1.00  0.00     0.072 C 
ATOM      6  C   UNL     1      20.689  34.525  29.767  1.00  0.00     0.012 C 
ENDBRANCH   3   5
ENDBRANCH   1   3
BRANCH   1   7
ATOM      7  C   UNL     1      16.097  33.253  29.257  1.00  0.00     0.038 C 
BRANCH   7   8
ATOM      8  C   UNL     1      15.505  31.964  29.765  1.00  0.00    -0.034 C 
ATOM      9  C   UNL     1      14.855  31.900  30.931  1.00  0.00     0.004 C 
ENDBRANCH   7   8
ENDBRANCH   1   7
TORSDOF 4
ENDMDL
MODEL 6
REMARK VINA RESULT:    -3.351      1.849      3.106
REMARK INTER + INTRA:          -4.334
REMARK INTER:                  -4.022
REMARK INTRA:                  -0.312
REMARK UNBOUND:                -0.199
REMARK SMILES C=CC[C@H](C)C(=O)CC
REMARK SMILES IDX 4 1 5 2 6 3 7 4 8 5 9 6 3 7 2 8 1 9
REMARK H PARENT
REMARK Flexibility Score: inf
ROOT
ATOM      1  C   UNL     1      19.200  25.471  28.296  1.00  0.00     0.057 C 
ATOM      2  C   UNL     1      18.604  26.706  27.605  1.00  0.00     0.016 C 
ENDROOT
BRANCH   1   3
ATOM      3  C   UNL     1      20.470  25.853  29.026  1.00  0.00     0.135 C 
ATOM      4  O   UNL     1      20.964  25.074  29.830  1.00  0.00    -0.299 OA
BRANCH   3   5
ATOM      5  C   UNL     1      21.134  27.183  28.789  1.00  0.00     0.072 C 
ATOM      6  C   UNL     1      22.622  27.002  28.510  1.00  0.00     0.012 C 
ENDBRANCH   3   5
ENDBRANCH   1   3
BRANCH   1   7
ATOM      7  C   UNL     1      19.491  24.338  27.289  1.00  0.00     0.038 C 
BRANCH   7   8
ATOM      8  C   UNL     1      20.639  24.668  26.371  1.00  0.00    -0.034 C 
ATOM      9  C   UNL     1      21.015  23.841  25.391  1.00  0.00     0.004 C 
ENDBRANCH   7   8
ENDBRANCH   1   7
TORSDOF 4
ENDMDL
MODEL 7
REMARK VINA RESULT:    -3.279      2.741      4.263
REMARK INTER + INTRA:          -4.245
REMARK INTER:                  -3.916
REMARK INTRA:                  -0.329
REMARK UNBOUND:                -0.199
REMARK SMILES C=CC[C@H](C)C(=O)CC
REMARK SMILES IDX 4 1 5 2 6 3 7 4 8 5 9 6 3 7 2 8 1 9
REMARK H PARENT
REMARK Flexibility Score: inf
ROOT
ATOM      1  C   UNL     1      20.456  26.837  29.109  1.00  0.00     0.057 C 
ATOM      2  C   UNL     1      19.176  27.249  28.367  1.00  0.00     0.016 C 
ENDROOT
BRANCH   1   3
ATOM      3  C   UNL     1      21.596  27.752  28.714  1.00  0.00     0.135 C 
ATOM      4  O   UNL     1      21.441  28.965  28.757  1.00  0.00    -0.299 OA
BRANCH   3   5
ATOM      5  C   UNL     1      22.918  27.197  28.257  1.00  0.00     0.072 C 
ATOM      6  C   UNL     1      23.713  28.251  27.494  1.00  0.00     0.012 C 
ENDBRANCH   3   5
ENDBRANCH   1   3
BRANCH   1   7
ATOM      7  C   UNL     1      20.835  25.369  28.822  1.00  0.00     0.038 C 
BRANCH   7   8
ATOM      8  C   UNL     1      20.075  24.798  27.653  1.00  0.00    -0.034 C 
ATOM      9  C   UNL     1      20.700  24.272  26.597  1.00  0.00     0.004 C 
ENDBRANCH   7   8
ENDBRANCH   1   7
TORSDOF 4
ENDMDL
MODEL 8
REMARK VINA RESULT:    -3.262      7.502      9.847
REMARK INTER + INTRA:          -4.225
REMARK INTER:                  -3.849
REMARK INTRA:                  -0.376
REMARK UNBOUND:                -0.199
REMARK SMILES C=CC[C@H](C)C(=O)CC
REMARK SMILES IDX 4 1 5 2 6 3 7 4 8 5 9 6 3 7 2 8 1 9
REMARK H PARENT
REMARK Flexibility Score: inf
ROOT
ATOM      1  C   UNL     1      17.621  33.129  29.121  1.00  0.00     0.057 C 
ATOM      2  C   UNL     1      16.093  33.231  29.230  1.00  0.00     0.016 C 
ENDROOT
BRANCH   1   3
ATOM      3  C   UNL     1      18.099  31.850  29.776  1.00  0.00     0.135 C 
ATOM      4  O   UNL     1      17.999  31.717  30.988  1.00  0.00    -0.299 OA
BRANCH   3   5
ATOM      5  C   UNL     1      18.709  30.739  28.963  1.00  0.00     0.072 C 
ATOM      6  C   UNL     1      20.210  30.649  29.212  1.00  0.00     0.012 C 
ENDBRANCH   3   5
ENDBRANCH   1   3
BRANCH   1   7
ATOM      7  C   UNL     1      18.322  34.344  29.764  1.00  0.00     0.038 C 
BRANCH   7   8
ATOM      8  C   UNL     1      19.809  34.344  29.520  1.00  0.00    -0.034 C 
ATOM      9  C   UNL     1      20.675  34.742  30.456  1.00  0.00     0.004 C 
ENDBRANCH   7   8
ENDBRANCH   1   7
TORSDOF 4
ENDMDL
MODEL 9
REMARK VINA RESULT:    -3.251      2.564      3.850
REMARK INTER + INTRA:          -4.211
REMARK INTER:                  -3.742
REMARK INTRA:                  -0.469
REMARK UNBOUND:                -0.199
REMARK SMILES C=CC[C@H](C)C(=O)CC
REMARK SMILES IDX 4 1 5 2 6 3 7 4 8 5 9 6 3 7 2 8 1 9
REMARK H PARENT
REMARK Flexibility Score: inf
ROOT
ATOM      1  C   UNL     1      19.773  24.858  28.302  1.00  0.00     0.057 C 
ATOM      2  C   UNL     1      20.383  24.618  26.913  1.00  0.00     0.016 C 
ENDROOT
BRANCH   1   3
ATOM      3  C   UNL     1      18.409  25.501  28.159  1.00  0.00     0.135 C 
ATOM      4  O   UNL     1      17.496  24.875  27.638  1.00  0.00    -0.299 OA
BRANCH   3   5
ATOM      5  C   UNL     1      18.156  26.906  28.638  1.00  0.00     0.072 C 
ATOM      6  C   UNL     1      18.182  27.887  27.472  1.00  0.00     0.012 C 
ENDBRANCH   3   5
ENDBRANCH   1   3
BRANCH   1   7
ATOM      7  C   UNL     1      20.682  25.741  29.181  1.00  0.00     0.038 C 
BRANCH   7   8
ATOM      8  C   UNL     1      21.833  26.329  28.407  1.00  0.00    -0.034 C 
ATOM      9  C   UNL     1      22.175  27.615  28.522  1.00  0.00     0.004 C 
ENDBRANCH   7   8
ENDBRANCH   1   7
TORSDOF 4
ENDMDL
