MODEL 1
REMARK VINA RESULT:    -6.059      0.000      0.000
REMARK INTER + INTRA:          -9.979
REMARK INTER:                  -9.070
REMARK INTRA:                  -0.909
REMARK UNBOUND:                -0.909
REMARK SMILES COC(=O)C1=CO[C@@H](O[C@H]2O[C@H](CO)[C@H](O)[C@@H](O)[C@H]2O)[C@@H]2C(CO)=CC[C@H]12
REMARK SMILES IDX 9 1 8 2 5 3 6 4 27 5 7 6 21 7 26 8 22 9 25 10 3 11 4 12 2 13
REMARK SMILES IDX 1 14 23 15 24 16 10 18 19 19 11 20 17 21 12 22 15 23 20 24
REMARK SMILES IDX 18 26 13 28 14 29 16 31
REMARK H PARENT 24 17 20 25 18 27 14 30 16 32
REMARK Flexibility Score: inf
ROOT
ATOM      1  O   UNL     1       8.341  10.457 -16.812  1.00  0.00    -0.310 OA
ENDROOT
BRANCH   1   2
ATOM      2  C   UNL     1       8.630  10.532 -15.426  1.00  0.00     0.316 C 
ATOM      3  C   UNL     1       8.149   7.745 -15.057  1.00  0.00     0.076 C 
ATOM      4  C   UNL     1       9.398   8.217 -15.189  1.00  0.00     0.202 C 
ATOM      5  C   UNL     1       7.010   8.671 -14.637  1.00  0.00     0.047 C 
ATOM      6  O   UNL     1       9.651   9.586 -15.131  1.00  0.00    -0.471 OA
ATOM      7  C   UNL     1       7.359  10.187 -14.623  1.00  0.00     0.094 C 
ATOM      8  C   UNL     1       6.587   8.357 -13.187  1.00  0.00     0.037 C 
ATOM      9  C   UNL     1       7.483  10.515 -13.166  1.00  0.00    -0.039 C 
ATOM     10  C   UNL     1       7.059   9.523 -12.397  1.00  0.00    -0.024 C 
BRANCH   3  11
ATOM     11  C   UNL     1       7.869   6.302 -15.244  1.00  0.00     0.337 C 
ATOM     12  O   UNL     1       8.544   5.431 -14.624  1.00  0.00    -0.246 OA
BRANCH  11  13
ATOM     13  O   UNL     1       6.853   5.905 -16.120  1.00  0.00    -0.466 OA
ATOM     14  C   UNL     1       5.994   4.803 -15.853  1.00  0.00     0.282 C 
ENDBRANCH  11  13
ENDBRANCH   3  11
BRANCH   9  15
ATOM     15  C   UNL     1       7.836  11.873 -12.618  1.00  0.00     0.187 C 
BRANCH  15  16
ATOM     16  O   UNL     1       7.452  12.872 -13.522  1.00  0.00    -0.392 OA
ATOM     17  H   UNL     1       7.670  12.535 -14.429  1.00  0.00     0.211 HD
ENDBRANCH  15  16
ENDBRANCH   9  15
ENDBRANCH   1   2
BRANCH   1  18
ATOM     18  C   UNL     1       7.589  11.578 -17.249  1.00  0.00     0.286 C 
ATOM     19  C   UNL     1       7.644  11.700 -18.790  1.00  0.00     0.202 C 
ATOM     20  O   UNL     1       8.021  12.776 -16.618  1.00  0.00    -0.341 OA
ATOM     21  C   UNL     1       9.019  12.197 -19.295  1.00  0.00     0.179 C 
ATOM     22  C   UNL     1       9.377  13.065 -16.920  1.00  0.00     0.178 C 
ATOM     23  C   UNL     1       9.560  13.361 -18.432  1.00  0.00     0.177 C 
BRANCH  19  24
ATOM     24  O   UNL     1       7.333  10.470 -19.392  1.00  0.00    -0.385 OA
ATOM     25  H   UNL     1       8.174  10.123 -19.790  1.00  0.00     0.211 HD
ENDBRANCH  19  24
BRANCH  21  26
ATOM     26  O   UNL     1       9.953  11.147 -19.387  1.00  0.00    -0.387 OA
ATOM     27  H   UNL     1      10.518  11.157 -18.574  1.00  0.00     0.211 HD
ENDBRANCH  21  26
BRANCH  22  28
ATOM     28  C   UNL     1       9.852  14.232 -16.043  1.00  0.00     0.191 C 
BRANCH  28  29
ATOM     29  O   UNL     1       9.989  13.828 -14.709  1.00  0.00    -0.394 OA
ATOM     30  H   UNL     1       9.145  13.362 -14.473  1.00  0.00     0.210 HD
ENDBRANCH  28  29
ENDBRANCH  22  28
BRANCH  23  31
ATOM     31  O   UNL     1       8.949  14.574 -18.803  1.00  0.00    -0.387 OA
ATOM     32  H   UNL     1       7.977  14.408 -18.909  1.00  0.00     0.211 HD
ENDBRANCH  23  31
ENDBRANCH   1  18
TORSDOF 11
ENDMDL
MODEL 2
REMARK VINA RESULT:    -6.003      2.369      7.386
REMARK INTER + INTRA:          -9.894
REMARK INTER:                  -8.789
REMARK INTRA:                  -1.105
REMARK UNBOUND:                -0.909
REMARK SMILES COC(=O)C1=CO[C@@H](O[C@H]2O[C@H](CO)[C@H](O)[C@@H](O)[C@H]2O)[C@@H]2C(CO)=CC[C@H]12
REMARK SMILES IDX 9 1 8 2 5 3 6 4 27 5 7 6 21 7 26 8 22 9 25 10 3 11 4 12 2 13
REMARK SMILES IDX 1 14 23 15 24 16 10 18 19 19 11 20 17 21 12 22 15 23 20 24
REMARK SMILES IDX 18 26 13 28 14 29 16 31
REMARK H PARENT 24 17 20 25 18 27 14 30 16 32
REMARK Flexibility Score: inf
ROOT
ATOM      1  O   UNL     1       8.743  12.567 -15.354  1.00  0.00    -0.310 OA
ENDROOT
BRANCH   1   2
ATOM      2  C   UNL     1       9.292  12.790 -16.643  1.00  0.00     0.316 C 
ATOM      3  C   UNL     1       8.250  15.443 -16.753  1.00  0.00     0.076 C 
ATOM      4  C   UNL     1       9.529  15.218 -16.413  1.00  0.00     0.202 C 
ATOM      5  C   UNL     1       7.455  14.392 -17.523  1.00  0.00     0.047 C 
ATOM      6  O   UNL     1      10.100  13.959 -16.588  1.00  0.00    -0.471 OA
ATOM      7  C   UNL     1       8.145  13.003 -17.652  1.00  0.00     0.094 C 
ATOM      8  C   UNL     1       7.244  14.856 -18.979  1.00  0.00     0.037 C 
ATOM      9  C   UNL     1       8.607  12.961 -19.077  1.00  0.00    -0.039 C 
ATOM     10  C   UNL     1       8.112  13.963 -19.788  1.00  0.00    -0.024 C 
BRANCH   3  11
ATOM     11  C   UNL     1       7.612  16.746 -16.451  1.00  0.00     0.337 C 
ATOM     12  O   UNL     1       6.897  16.888 -15.419  1.00  0.00    -0.246 OA
BRANCH  11  13
ATOM     13  O   UNL     1       7.803  17.824 -17.324  1.00  0.00    -0.466 OA
ATOM     14  C   UNL     1       6.722  18.557 -17.886  1.00  0.00     0.282 C 
ENDBRANCH  11  13
ENDBRANCH   3  11
BRANCH   9  15
ATOM     15  C   UNL     1       9.361  11.816 -19.702  1.00  0.00     0.187 C 
BRANCH  15  16
ATOM     16  O   UNL     1       9.417  11.977 -21.093  1.00  0.00    -0.392 OA
ATOM     17  H   UNL     1      10.376  12.057 -21.332  1.00  0.00     0.211 HD
ENDBRANCH  15  16
ENDBRANCH   9  15
ENDBRANCH   1   2
BRANCH   1  18
ATOM     18  C   UNL     1       7.523  11.846 -15.424  1.00  0.00     0.286 C 
ATOM     19  C   UNL     1       6.590  12.246 -14.258  1.00  0.00     0.202 C 
ATOM     20  O   UNL     1       7.746  10.442 -15.452  1.00  0.00    -0.341 OA
ATOM     21  C   UNL     1       7.060  11.674 -12.901  1.00  0.00     0.179 C 
ATOM     22  C   UNL     1       8.405   9.995 -14.277  1.00  0.00     0.178 C 
ATOM     23  C   UNL     1       7.511  10.200 -13.025  1.00  0.00     0.177 C 
BRANCH  19  24
ATOM     24  O   UNL     1       6.481  13.644 -14.173  1.00  0.00    -0.385 OA
ATOM     25  H   UNL     1       6.865  13.910 -13.297  1.00  0.00     0.211 HD
ENDBRANCH  19  24
BRANCH  21  26
ATOM     26  O   UNL     1       8.063  12.472 -12.316  1.00  0.00    -0.387 OA
ATOM     27  H   UNL     1       7.674  12.945 -11.538  1.00  0.00     0.211 HD
ENDBRANCH  21  26
BRANCH  22  28
ATOM     28  C   UNL     1       8.817   8.528 -14.456  1.00  0.00     0.191 C 
BRANCH  28  29
ATOM     29  O   UNL     1       8.694   7.825 -13.251  1.00  0.00    -0.394 OA
ATOM     30  H   UNL     1       8.355   6.924 -13.490  1.00  0.00     0.210 HD
ENDBRANCH  28  29
ENDBRANCH  22  28
BRANCH  23  31
ATOM     31  O   UNL     1       6.395   9.343 -13.036  1.00  0.00    -0.387 OA
ATOM     32  H   UNL     1       5.648   9.805 -12.575  1.00  0.00     0.211 HD
ENDBRANCH  23  31
ENDBRANCH   1  18
TORSDOF 11
ENDMDL
MODEL 3
REMARK VINA RESULT:    -5.962      1.626      2.106
REMARK INTER + INTRA:          -9.833
REMARK INTER:                  -8.751
REMARK INTRA:                  -1.081
REMARK UNBOUND:                -0.909
REMARK SMILES COC(=O)C1=CO[C@@H](O[C@H]2O[C@H](CO)[C@H](O)[C@@H](O)[C@H]2O)[C@@H]2C(CO)=CC[C@H]12
REMARK SMILES IDX 9 1 8 2 5 3 6 4 27 5 7 6 21 7 26 8 22 9 25 10 3 11 4 12 2 13
REMARK SMILES IDX 1 14 23 15 24 16 10 18 19 19 11 20 17 21 12 22 15 23 20 24
REMARK SMILES IDX 18 26 13 28 14 29 16 31
REMARK H PARENT 24 17 20 25 18 27 14 30 16 32
REMARK Flexibility Score: inf
ROOT
ATOM      1  O   UNL     1       8.904  11.644 -17.814  1.00  0.00    -0.310 OA
ENDROOT
BRANCH   1   2
ATOM      2  C   UNL     1       9.091  11.467 -16.420  1.00  0.00     0.316 C 
ATOM      3  C   UNL     1       7.870   8.891 -16.466  1.00  0.00     0.076 C 
ATOM      4  C   UNL     1       9.206   9.021 -16.476  1.00  0.00     0.202 C 
ATOM      5  C   UNL     1       6.983  10.030 -15.971  1.00  0.00     0.047 C 
ATOM      6  O   UNL     1       9.803  10.253 -16.216  1.00  0.00    -0.471 OA
ATOM      7  C   UNL     1       7.715  11.382 -15.730  1.00  0.00     0.094 C 
ATOM      8  C   UNL     1       6.379   9.667 -14.599  1.00  0.00     0.037 C 
ATOM      9  C   UNL     1       7.803  11.483 -14.237  1.00  0.00    -0.039 C 
ATOM     10  C   UNL     1       7.074  10.555 -13.635  1.00  0.00    -0.024 C 
BRANCH   3  11
ATOM     11  C   UNL     1       7.239   7.610 -16.865  1.00  0.00     0.337 C 
ATOM     12  O   UNL     1       6.555   7.533 -17.924  1.00  0.00    -0.246 OA
BRANCH  11  13
ATOM     13  O   UNL     1       7.401   6.482 -16.053  1.00  0.00    -0.466 OA
ATOM     14  C   UNL     1       6.365   5.982 -15.216  1.00  0.00     0.282 C 
ENDBRANCH  11  13
ENDBRANCH   3  11
BRANCH   9  15
ATOM     15  C   UNL     1       8.453  12.617 -13.490  1.00  0.00     0.187 C 
BRANCH  15  16
ATOM     16  O   UNL     1       8.175  12.516 -12.121  1.00  0.00    -0.392 OA
ATOM     17  H   UNL     1       9.049  12.501 -11.653  1.00  0.00     0.211 HD
ENDBRANCH  15  16
ENDBRANCH   9  15
ENDBRANCH   1   2
BRANCH   1  18
ATOM     18  C   UNL     1       7.822  12.521 -18.089  1.00  0.00     0.286 C 
ATOM     19  C   UNL     1       7.287  12.290 -19.521  1.00  0.00     0.202 C 
ATOM     20  O   UNL     1       8.186  13.880 -17.884  1.00  0.00    -0.341 OA
ATOM     21  C   UNL     1       8.243  12.838 -20.605  1.00  0.00     0.179 C 
ATOM     22  C   UNL     1       9.243  14.273 -18.745  1.00  0.00     0.178 C 
ATOM     23  C   UNL     1       8.797  14.232 -20.231  1.00  0.00     0.177 C 
BRANCH  19  24
ATOM     24  O   UNL     1       7.050  10.923 -19.742  1.00  0.00    -0.385 OA
ATOM     25  H   UNL     1       6.889  10.511 -18.854  1.00  0.00     0.211 HD
ENDBRANCH  19  24
BRANCH  21  26
ATOM     26  O   UNL     1       9.282  11.931 -20.893  1.00  0.00    -0.387 OA
ATOM     27  H   UNL     1       8.888  11.034 -21.026  1.00  0.00     0.211 HD
ENDBRANCH  21  26
BRANCH  22  28
ATOM     28  C   UNL     1       9.742  15.663 -18.331  1.00  0.00     0.191 C 
BRANCH  28  29
ATOM     29  O   UNL     1      10.323  16.329 -19.419  1.00  0.00    -0.394 OA
ATOM     30  H   UNL     1      11.111  16.811 -19.059  1.00  0.00     0.210 HD
ENDBRANCH  28  29
ENDBRANCH  22  28
BRANCH  23  31
ATOM     31  O   UNL     1       7.847  15.232 -20.516  1.00  0.00    -0.387 OA
ATOM     32  H   UNL     1       7.260  15.333 -19.723  1.00  0.00     0.211 HD
ENDBRANCH  23  31
ENDBRANCH   1  18
TORSDOF 11
ENDMDL
MODEL 4
REMARK VINA RESULT:    -5.914      1.907      3.958
REMARK INTER + INTRA:          -9.762
REMARK INTER:                  -8.944
REMARK INTRA:                  -0.818
REMARK UNBOUND:                -0.909
REMARK SMILES COC(=O)C1=CO[C@@H](O[C@H]2O[C@H](CO)[C@H](O)[C@@H](O)[C@H]2O)[C@@H]2C(CO)=CC[C@H]12
REMARK SMILES IDX 9 1 8 2 5 3 6 4 27 5 7 6 21 7 26 8 22 9 25 10 3 11 4 12 2 13
REMARK SMILES IDX 1 14 23 15 24 16 10 18 19 19 11 20 17 21 12 22 15 23 20 24
REMARK SMILES IDX 18 26 13 28 14 29 16 31
REMARK H PARENT 24 17 20 25 18 27 14 30 16 32
REMARK Flexibility Score: inf
ROOT
ATOM      1  O   UNL     1       8.508   9.850 -16.443  1.00  0.00    -0.310 OA
ENDROOT
BRANCH   1   2
ATOM      2  C   UNL     1       7.424   8.955 -16.624  1.00  0.00     0.316 C 
ATOM      3  C   UNL     1       6.933   8.798 -13.820  1.00  0.00     0.076 C 
ATOM      4  C   UNL     1       6.201   9.606 -14.604  1.00  0.00     0.202 C 
ATOM      5  C   UNL     1       7.704   7.626 -14.418  1.00  0.00     0.047 C 
ATOM      6  O   UNL     1       6.277   9.509 -15.992  1.00  0.00    -0.471 OA
ATOM      7  C   UNL     1       7.769   7.600 -15.973  1.00  0.00     0.094 C 
ATOM      8  C   UNL     1       7.018   6.297 -14.038  1.00  0.00     0.037 C 
ATOM      9  C   UNL     1       6.816   6.509 -16.356  1.00  0.00    -0.039 C 
ATOM     10  C   UNL     1       6.420   5.807 -15.306  1.00  0.00    -0.024 C 
BRANCH   3  11
ATOM     11  C   UNL     1       6.942   8.989 -12.350  1.00  0.00     0.337 C 
ATOM     12  O   UNL     1       7.262  10.103 -11.848  1.00  0.00    -0.246 OA
BRANCH  11  13
ATOM     13  O   UNL     1       6.598   7.919 -11.516  1.00  0.00    -0.466 OA
ATOM     14  C   UNL     1       7.137   7.759 -10.209  1.00  0.00     0.282 C 
ENDBRANCH  11  13
ENDBRANCH   3  11
BRANCH   9  15
ATOM     15  C   UNL     1       6.503   6.101 -17.772  1.00  0.00     0.187 C 
BRANCH  15  16
ATOM     16  O   UNL     1       6.923   4.783 -17.998  1.00  0.00    -0.392 OA
ATOM     17  H   UNL     1       7.384   4.485 -17.173  1.00  0.00     0.211 HD
ENDBRANCH  15  16
ENDBRANCH   9  15
ENDBRANCH   1   2
BRANCH   1  18
ATOM     18  C   UNL     1       8.251  11.111 -17.041  1.00  0.00     0.286 C 
ATOM     19  C   UNL     1       9.436  11.537 -17.939  1.00  0.00     0.202 C 
ATOM     20  O   UNL     1       7.957  12.103 -16.065  1.00  0.00    -0.341 OA
ATOM     21  C   UNL     1      10.671  11.975 -17.119  1.00  0.00     0.179 C 
ATOM     22  C   UNL     1       9.046  12.299 -15.177  1.00  0.00     0.178 C 
ATOM     23  C   UNL     1      10.278  12.874 -15.925  1.00  0.00     0.177 C 
BRANCH  19  24
ATOM     24  O   UNL     1       9.789  10.496 -18.813  1.00  0.00    -0.385 OA
ATOM     25  H   UNL     1       9.665   9.646 -18.314  1.00  0.00     0.211 HD
ENDBRANCH  19  24
BRANCH  21  26
ATOM     26  O   UNL     1      11.440  10.871 -16.701  1.00  0.00    -0.387 OA
ATOM     27  H   UNL     1      10.924  10.367 -16.024  1.00  0.00     0.211 HD
ENDBRANCH  21  26
BRANCH  22  28
ATOM     28  C   UNL     1       8.598  13.205 -14.022  1.00  0.00     0.191 C 
BRANCH  28  29
ATOM     29  O   UNL     1       8.460  12.470 -12.837  1.00  0.00    -0.394 OA
ATOM     30  H   UNL     1       8.565  11.516 -13.090  1.00  0.00     0.210 HD
ENDBRANCH  28  29
ENDBRANCH  22  28
BRANCH  23  31
ATOM     31  O   UNL     1      10.055  14.196 -16.356  1.00  0.00    -0.387 OA
ATOM     32  H   UNL     1       9.170  14.228 -16.802  1.00  0.00     0.211 HD
ENDBRANCH  23  31
ENDBRANCH   1  18
TORSDOF 11
ENDMDL
MODEL 5
REMARK VINA RESULT:    -5.895      1.970      6.936
REMARK INTER + INTRA:          -9.733
REMARK INTER:                  -8.647
REMARK INTRA:                  -1.086
REMARK UNBOUND:                -0.909
REMARK SMILES COC(=O)C1=CO[C@@H](O[C@H]2O[C@H](CO)[C@H](O)[C@@H](O)[C@H]2O)[C@@H]2C(CO)=CC[C@H]12
REMARK SMILES IDX 9 1 8 2 5 3 6 4 27 5 7 6 21 7 26 8 22 9 25 10 3 11 4 12 2 13
REMARK SMILES IDX 1 14 23 15 24 16 10 18 19 19 11 20 17 21 12 22 15 23 20 24
REMARK SMILES IDX 18 26 13 28 14 29 16 31
REMARK H PARENT 24 17 20 25 18 27 14 30 16 32
REMARK Flexibility Score: inf
ROOT
ATOM      1  O   UNL     1       7.830  11.647 -15.862  1.00  0.00    -0.310 OA
ENDROOT
BRANCH   1   2
ATOM      2  C   UNL     1       7.773  11.556 -17.276  1.00  0.00     0.316 C 
ATOM      3  C   UNL     1       9.551  13.760 -17.606  1.00  0.00     0.076 C 
ATOM      4  C   UNL     1       9.996  12.497 -17.694  1.00  0.00     0.202 C 
ATOM      5  C   UNL     1       8.070  14.077 -17.794  1.00  0.00     0.047 C 
ATOM      6  O   UNL     1       9.100  11.431 -17.770  1.00  0.00    -0.471 OA
ATOM      7  C   UNL     1       7.129  12.838 -17.841  1.00  0.00     0.094 C 
ATOM      8  C   UNL     1       7.851  14.781 -19.149  1.00  0.00     0.037 C 
ATOM      9  C   UNL     1       6.764  12.718 -19.290  1.00  0.00    -0.039 C 
ATOM     10  C   UNL     1       7.154  13.774 -19.988  1.00  0.00    -0.024 C 
BRANCH   3  11
ATOM     11  C   UNL     1      10.504  14.877 -17.401  1.00  0.00     0.337 C 
ATOM     12  O   UNL     1      10.831  15.628 -18.363  1.00  0.00    -0.246 OA
BRANCH  11  13
ATOM     13  O   UNL     1      11.048  15.092 -16.129  1.00  0.00    -0.466 OA
ATOM     14  C   UNL     1      10.352  14.769 -14.931  1.00  0.00     0.282 C 
ENDBRANCH  11  13
ENDBRANCH   3  11
BRANCH   9  15
ATOM     15  C   UNL     1       5.876  11.646 -19.865  1.00  0.00     0.187 C 
BRANCH  15  16
ATOM     16  O   UNL     1       6.578  10.898 -20.818  1.00  0.00    -0.392 OA
ATOM     17  H   UNL     1       7.537  10.948 -20.570  1.00  0.00     0.211 HD
ENDBRANCH  15  16
ENDBRANCH   9  15
ENDBRANCH   1   2
BRANCH   1  18
ATOM     18  C   UNL     1       6.605  11.255 -15.263  1.00  0.00     0.286 C 
ATOM     19  C   UNL     1       6.299  12.134 -14.028  1.00  0.00     0.202 C 
ATOM     20  O   UNL     1       6.607   9.873 -14.928  1.00  0.00    -0.341 OA
ATOM     21  C   UNL     1       7.206  11.798 -12.822  1.00  0.00     0.179 C 
ATOM     22  C   UNL     1       7.625   9.565 -13.988  1.00  0.00     0.178 C 
ATOM     23  C   UNL     1       7.364  10.271 -12.632  1.00  0.00     0.177 C 
BRANCH  19  24
ATOM     24  O   UNL     1       6.424  13.495 -14.352  1.00  0.00    -0.385 OA
ATOM     25  H   UNL     1       5.537  13.795 -14.684  1.00  0.00     0.211 HD
ENDBRANCH  19  24
BRANCH  21  26
ATOM     26  O   UNL     1       8.457  12.437 -12.915  1.00  0.00    -0.387 OA
ATOM     27  H   UNL     1       8.825  12.279 -13.819  1.00  0.00     0.211 HD
ENDBRANCH  21  26
BRANCH  22  28
ATOM     28  C   UNL     1       7.726   8.041 -13.835  1.00  0.00     0.191 C 
BRANCH  28  29
ATOM     29  O   UNL     1       8.117   7.697 -12.534  1.00  0.00    -0.394 OA
ATOM     30  H   UNL     1       8.385   8.544 -12.093  1.00  0.00     0.210 HD
ENDBRANCH  28  29
ENDBRANCH  22  28
BRANCH  23  31
ATOM     31  O   UNL     1       6.238   9.738 -11.975  1.00  0.00    -0.387 OA
ATOM     32  H   UNL     1       6.555   9.240 -11.178  1.00  0.00     0.211 HD
ENDBRANCH  23  31
ENDBRANCH   1  18
TORSDOF 11
ENDMDL
MODEL 6
REMARK VINA RESULT:    -5.820      3.105      7.508
REMARK INTER + INTRA:          -9.621
REMARK INTER:                  -8.741
REMARK INTRA:                  -0.880
REMARK UNBOUND:                -0.909
REMARK SMILES COC(=O)C1=CO[C@@H](O[C@H]2O[C@H](CO)[C@H](O)[C@@H](O)[C@H]2O)[C@@H]2C(CO)=CC[C@H]12
REMARK SMILES IDX 9 1 8 2 5 3 6 4 27 5 7 6 21 7 26 8 22 9 25 10 3 11 4 12 2 13
REMARK SMILES IDX 1 14 23 15 24 16 10 18 19 19 11 20 17 21 12 22 15 23 20 24
REMARK SMILES IDX 18 26 13 28 14 29 16 31
REMARK H PARENT 24 17 20 25 18 27 14 30 16 32
REMARK Flexibility Score: inf
ROOT
ATOM      1  O   UNL     1       8.270  13.799 -16.938  1.00  0.00    -0.310 OA
ENDROOT
BRANCH   1   2
ATOM      2  C   UNL     1       7.355  14.882 -16.955  1.00  0.00     0.316 C 
ATOM      3  C   UNL     1       7.957  15.498 -19.673  1.00  0.00     0.076 C 
ATOM      4  C   UNL     1       6.869  14.780 -19.354  1.00  0.00     0.202 C 
ATOM      5  C   UNL     1       8.635  16.385 -18.633  1.00  0.00     0.047 C 
ATOM      6  O   UNL     1       6.446  14.681 -18.030  1.00  0.00    -0.471 OA
ATOM      7  C   UNL     1       8.130  16.198 -17.173  1.00  0.00     0.094 C 
ATOM      8  C   UNL     1       8.361  17.870 -18.949  1.00  0.00     0.037 C 
ATOM      9  C   UNL     1       7.294  17.416 -16.921  1.00  0.00    -0.039 C 
ATOM     10  C   UNL     1       7.428  18.315 -17.883  1.00  0.00    -0.024 C 
BRANCH   3  11
ATOM     11  C   UNL     1       8.473  15.499 -21.063  1.00  0.00     0.337 C 
ATOM     12  O   UNL     1       8.798  14.417 -21.628  1.00  0.00    -0.246 OA
BRANCH  11  13
ATOM     13  O   UNL     1       8.605  16.713 -21.747  1.00  0.00    -0.466 OA
ATOM     14  C   UNL     1       8.537  16.807 -23.165  1.00  0.00     0.282 C 
ENDBRANCH  11  13
ENDBRANCH   3  11
BRANCH   9  15
ATOM     15  C   UNL     1       6.555  17.700 -15.640  1.00  0.00     0.187 C 
BRANCH  15  16
ATOM     16  O   UNL     1       7.419  17.571 -14.545  1.00  0.00    -0.392 OA
ATOM     17  H   UNL     1       8.215  18.129 -14.744  1.00  0.00     0.211 HD
ENDBRANCH  15  16
ENDBRANCH   9  15
ENDBRANCH   1   2
BRANCH   1  18
ATOM     18  C   UNL     1       7.956  12.865 -15.917  1.00  0.00     0.286 C 
ATOM     19  C   UNL     1       9.244  12.364 -15.224  1.00  0.00     0.202 C 
ATOM     20  O   UNL     1       7.182  11.782 -16.419  1.00  0.00    -0.341 OA
ATOM     21  C   UNL     1      10.055  11.394 -16.113  1.00  0.00     0.179 C 
ATOM     22  C   UNL     1       7.885  11.058 -17.416  1.00  0.00     0.178 C 
ATOM     23  C   UNL     1       9.141  10.367 -16.823  1.00  0.00     0.177 C 
BRANCH  19  24
ATOM     24  O   UNL     1      10.052  13.449 -14.845  1.00  0.00    -0.385 OA
ATOM     25  H   UNL     1      10.217  13.985 -15.664  1.00  0.00     0.211 HD
ENDBRANCH  19  24
BRANCH  21  26
ATOM     26  O   UNL     1      10.868  12.082 -17.033  1.00  0.00    -0.387 OA
ATOM     27  H   UNL     1      10.572  13.026 -17.070  1.00  0.00     0.211 HD
ENDBRANCH  21  26
BRANCH  22  28
ATOM     28  C   UNL     1       6.932  10.052 -18.076  1.00  0.00     0.191 C 
BRANCH  28  29
ATOM     29  O   UNL     1       7.639   8.953 -18.580  1.00  0.00    -0.394 OA
ATOM     30  H   UNL     1       7.721   8.309 -17.829  1.00  0.00     0.210 HD
ENDBRANCH  28  29
ENDBRANCH  22  28
BRANCH  23  31
ATOM     31  O   UNL     1       8.795   9.324 -15.943  1.00  0.00    -0.387 OA
ATOM     32  H   UNL     1       8.171   9.690 -15.264  1.00  0.00     0.211 HD
ENDBRANCH  23  31
ENDBRANCH   1  18
TORSDOF 11
ENDMDL
MODEL 7
REMARK VINA RESULT:    -5.797      2.099      6.783
REMARK INTER + INTRA:          -9.587
REMARK INTER:                  -8.421
REMARK INTRA:                  -1.166
REMARK UNBOUND:                -0.909
REMARK SMILES COC(=O)C1=CO[C@@H](O[C@H]2O[C@H](CO)[C@H](O)[C@@H](O)[C@H]2O)[C@@H]2C(CO)=CC[C@H]12
REMARK SMILES IDX 9 1 8 2 5 3 6 4 27 5 7 6 21 7 26 8 22 9 25 10 3 11 4 12 2 13
REMARK SMILES IDX 1 14 23 15 24 16 10 18 19 19 11 20 17 21 12 22 15 23 20 24
REMARK SMILES IDX 18 26 13 28 14 29 16 31
REMARK H PARENT 24 17 20 25 18 27 14 30 16 32
REMARK Flexibility Score: inf
ROOT
ATOM      1  O   UNL     1       8.110  11.891 -16.958  1.00  0.00    -0.310 OA
ENDROOT
BRANCH   1   2
ATOM      2  C   UNL     1       8.468  13.141 -16.392  1.00  0.00     0.316 C 
ATOM      3  C   UNL     1       8.266  14.468 -18.907  1.00  0.00     0.076 C 
ATOM      4  C   UNL     1       7.264  14.524 -18.017  1.00  0.00     0.202 C 
ATOM      5  C   UNL     1       9.683  14.118 -18.461  1.00  0.00     0.047 C 
ATOM      6  O   UNL     1       7.451  14.083 -16.708  1.00  0.00    -0.471 OA
ATOM      7  C   UNL     1       9.809  13.606 -16.997  1.00  0.00     0.094 C 
ATOM      8  C   UNL     1      10.576  15.375 -18.510  1.00  0.00     0.037 C 
ATOM      9  C   UNL     1      10.411  14.765 -16.261  1.00  0.00    -0.039 C 
ATOM     10  C   UNL     1      10.826  15.713 -17.086  1.00  0.00    -0.024 C 
BRANCH   3  11
ATOM     11  C   UNL     1       8.028  14.822 -20.327  1.00  0.00     0.337 C 
ATOM     12  O   UNL     1       7.743  13.927 -21.173  1.00  0.00    -0.246 OA
BRANCH  11  13
ATOM     13  O   UNL     1       8.126  16.159 -20.729  1.00  0.00    -0.466 OA
ATOM     14  C   UNL     1       8.849  16.562 -21.887  1.00  0.00     0.282 C 
ENDBRANCH  11  13
ENDBRANCH   3  11
BRANCH   9  15
ATOM     15  C   UNL     1      10.715  14.780 -14.786  1.00  0.00     0.187 C 
BRANCH  15  16
ATOM     16  O   UNL     1      11.987  15.322 -14.561  1.00  0.00    -0.392 OA
ATOM     17  H   UNL     1      12.636  14.578 -14.657  1.00  0.00     0.211 HD
ENDBRANCH  15  16
ENDBRANCH   9  15
ENDBRANCH   1   2
BRANCH   1  18
ATOM     18  C   UNL     1       8.864  10.828 -16.396  1.00  0.00     0.286 C 
ATOM     19  C   UNL     1       9.158   9.749 -17.464  1.00  0.00     0.202 C 
ATOM     20  O   UNL     1       8.215  10.270 -15.260  1.00  0.00    -0.341 OA
ATOM     21  C   UNL     1       7.908   8.914 -17.822  1.00  0.00     0.179 C 
ATOM     22  C   UNL     1       6.949   9.725 -15.598  1.00  0.00     0.178 C 
ATOM     23  C   UNL     1       7.102   8.519 -16.562  1.00  0.00     0.177 C 
BRANCH  19  24
ATOM     24  O   UNL     1       9.685  10.338 -18.625  1.00  0.00    -0.385 OA
ATOM     25  H   UNL     1      10.309   9.678 -19.025  1.00  0.00     0.211 HD
ENDBRANCH  19  24
BRANCH  21  26
ATOM     26  O   UNL     1       7.095   9.568 -18.768  1.00  0.00    -0.387 OA
ATOM     27  H   UNL     1       6.857   8.922 -19.479  1.00  0.00     0.211 HD
ENDBRANCH  21  26
BRANCH  22  28
ATOM     28  C   UNL     1       6.204   9.343 -14.312  1.00  0.00     0.191 C 
BRANCH  28  29
ATOM     29  O   UNL     1       7.077   8.758 -13.386  1.00  0.00    -0.394 OA
ATOM     30  H   UNL     1       7.561   9.507 -12.950  1.00  0.00     0.210 HD
ENDBRANCH  28  29
ENDBRANCH  22  28
BRANCH  23  31
ATOM     31  O   UNL     1       7.697   7.414 -15.924  1.00  0.00    -0.387 OA
ATOM     32  H   UNL     1       8.619   7.669 -15.665  1.00  0.00     0.211 HD
ENDBRANCH  23  31
ENDBRANCH   1  18
TORSDOF 11
ENDMDL
MODEL 8
REMARK VINA RESULT:    -5.713      2.166      4.347
REMARK INTER + INTRA:          -9.461
REMARK INTER:                  -8.404
REMARK INTRA:                  -1.057
REMARK UNBOUND:                -0.909
REMARK SMILES COC(=O)C1=CO[C@@H](O[C@H]2O[C@H](CO)[C@H](O)[C@@H](O)[C@H]2O)[C@@H]2C(CO)=CC[C@H]12
REMARK SMILES IDX 9 1 8 2 5 3 6 4 27 5 7 6 21 7 26 8 22 9 25 10 3 11 4 12 2 13
REMARK SMILES IDX 1 14 23 15 24 16 10 18 19 19 11 20 17 21 12 22 15 23 20 24
REMARK SMILES IDX 18 26 13 28 14 29 16 31
REMARK H PARENT 24 17 20 25 18 27 14 30 16 32
REMARK Flexibility Score: inf
ROOT
ATOM      1  O   UNL     1       8.652  12.629 -16.502  1.00  0.00    -0.310 OA
ENDROOT
BRANCH   1   2
ATOM      2  C   UNL     1       8.992  11.344 -16.995  1.00  0.00     0.316 C 
ATOM      3  C   UNL     1       7.492  10.037 -14.952  1.00  0.00     0.076 C 
ATOM      4  C   UNL     1       6.980  10.207 -16.181  1.00  0.00     0.202 C 
ATOM      5  C   UNL     1       9.000  10.097 -14.724  1.00  0.00     0.047 C 
ATOM      6  O   UNL     1       7.788  10.626 -17.236  1.00  0.00    -0.471 OA
ATOM      7  C   UNL     1       9.834  10.600 -15.938  1.00  0.00     0.094 C 
ATOM      8  C   UNL     1       9.545   8.682 -14.441  1.00  0.00     0.037 C 
ATOM      9  C   UNL     1      10.478   9.358 -16.473  1.00  0.00    -0.039 C 
ATOM     10  C   UNL     1      10.322   8.328 -15.656  1.00  0.00    -0.024 C 
BRANCH   3  11
ATOM     11  C   UNL     1       6.606   9.712 -13.809  1.00  0.00     0.337 C 
ATOM     12  O   UNL     1       6.204  10.621 -13.029  1.00  0.00    -0.246 OA
BRANCH  11  13
ATOM     13  O   UNL     1       6.219   8.384 -13.594  1.00  0.00    -0.466 OA
ATOM     14  C   UNL     1       6.645   7.634 -12.462  1.00  0.00     0.282 C 
ENDBRANCH  11  13
ENDBRANCH   3  11
BRANCH   9  15
ATOM     15  C   UNL     1      11.381   9.309 -17.678  1.00  0.00     0.187 C 
BRANCH  15  16
ATOM     16  O   UNL     1      12.216   8.187 -17.610  1.00  0.00    -0.392 OA
ATOM     17  H   UNL     1      11.991   7.617 -18.390  1.00  0.00     0.211 HD
ENDBRANCH  15  16
ENDBRANCH   9  15
ENDBRANCH   1   2
BRANCH   1  18
ATOM     18  C   UNL     1       9.685  13.572 -16.747  1.00  0.00     0.286 C 
ATOM     19  C   UNL     1       9.488  14.831 -15.871  1.00  0.00     0.202 C 
ATOM     20  O   UNL     1       9.770  13.907 -18.126  1.00  0.00    -0.341 OA
ATOM     21  C   UNL     1       8.317  15.714 -16.360  1.00  0.00     0.179 C 
ATOM     22  C   UNL     1       8.569  14.502 -18.593  1.00  0.00     0.178 C 
ATOM     23  C   UNL     1       8.316  15.866 -17.899  1.00  0.00     0.177 C 
BRANCH  19  24
ATOM     24  O   UNL     1       9.283  14.470 -14.530  1.00  0.00    -0.385 OA
ATOM     25  H   UNL     1       8.470  13.901 -14.506  1.00  0.00     0.211 HD
ENDBRANCH  19  24
BRANCH  21  26
ATOM     26  O   UNL     1       7.075  15.244 -15.889  1.00  0.00    -0.387 OA
ATOM     27  H   UNL     1       7.170  14.288 -15.652  1.00  0.00     0.211 HD
ENDBRANCH  21  26
BRANCH  22  28
ATOM     28  C   UNL     1       8.633  14.636 -20.121  1.00  0.00     0.191 C 
BRANCH  28  29
ATOM     29  O   UNL     1       7.816  15.685 -20.563  1.00  0.00    -0.394 OA
ATOM     30  H   UNL     1       8.219  16.518 -20.206  1.00  0.00     0.210 HD
ENDBRANCH  28  29
ENDBRANCH  22  28
BRANCH  23  31
ATOM     31  O   UNL     1       9.257  16.835 -18.298  1.00  0.00    -0.387 OA
ATOM     32  H   UNL     1      10.162  16.439 -18.211  1.00  0.00     0.211 HD
ENDBRANCH  23  31
ENDBRANCH   1  18
TORSDOF 11
ENDMDL
MODEL 9
REMARK VINA RESULT:    -5.699      2.153      4.325
REMARK INTER + INTRA:          -9.439
REMARK INTER:                  -8.177
REMARK INTRA:                  -1.262
REMARK UNBOUND:                -0.909
REMARK SMILES COC(=O)C1=CO[C@@H](O[C@H]2O[C@H](CO)[C@H](O)[C@@H](O)[C@H]2O)[C@@H]2C(CO)=CC[C@H]12
REMARK SMILES IDX 9 1 8 2 5 3 6 4 27 5 7 6 21 7 26 8 22 9 25 10 3 11 4 12 2 13
REMARK SMILES IDX 1 14 23 15 24 16 10 18 19 19 11 20 17 21 12 22 15 23 20 24
REMARK SMILES IDX 18 26 13 28 14 29 16 31
REMARK H PARENT 24 17 20 25 18 27 14 30 16 32
REMARK Flexibility Score: inf
ROOT
ATOM      1  O   UNL     1       8.294  12.938 -16.632  1.00  0.00    -0.310 OA
ENDROOT
BRANCH   1   2
ATOM      2  C   UNL     1       7.198  12.271 -17.235  1.00  0.00     0.316 C 
ATOM      3  C   UNL     1       7.312  10.136 -15.348  1.00  0.00     0.076 C 
ATOM      4  C   UNL     1       6.429  11.137 -15.204  1.00  0.00     0.202 C 
ATOM      5  C   UNL     1       7.941   9.845 -16.708  1.00  0.00     0.047 C 
ATOM      6  O   UNL     1       6.210  12.045 -16.237  1.00  0.00    -0.471 OA
ATOM      7  C   UNL     1       7.676  10.919 -17.803  1.00  0.00     0.094 C 
ATOM      8  C   UNL     1       7.354   8.544 -17.292  1.00  0.00     0.037 C 
ATOM      9  C   UNL     1       6.666  10.274 -18.703  1.00  0.00    -0.039 C 
ATOM     10  C   UNL     1       6.502   8.990 -18.423  1.00  0.00    -0.024 C 
BRANCH   3  11
ATOM     11  C   UNL     1       7.631   9.248 -14.205  1.00  0.00     0.337 C 
ATOM     12  O   UNL     1       8.809   8.828 -14.027  1.00  0.00    -0.246 OA
BRANCH  11  13
ATOM     13  O   UNL     1       6.613   8.870 -13.322  1.00  0.00    -0.466 OA
ATOM     14  C   UNL     1       6.775   7.834 -12.361  1.00  0.00     0.282 C 
ENDBRANCH  11  13
ENDBRANCH   3  11
BRANCH   9  15
ATOM     15  C   UNL     1       6.062  10.924 -19.919  1.00  0.00     0.187 C 
BRANCH  15  16
ATOM     16  O   UNL     1       7.071  11.331 -20.802  1.00  0.00    -0.392 OA
ATOM     17  H   UNL     1       7.792  10.652 -20.743  1.00  0.00     0.211 HD
ENDBRANCH  15  16
ENDBRANCH   9  15
ENDBRANCH   1   2
BRANCH   1  18
ATOM     18  C   UNL     1       9.438  12.928 -17.473  1.00  0.00     0.286 C 
ATOM     19  C   UNL     1      10.727  12.777 -16.633  1.00  0.00     0.202 C 
ATOM     20  O   UNL     1       9.489  14.083 -18.300  1.00  0.00    -0.341 OA
ATOM     21  C   UNL     1      11.083  14.067 -15.860  1.00  0.00     0.179 C 
ATOM     22  C   UNL     1       9.573  15.272 -17.529  1.00  0.00     0.178 C 
ATOM     23  C   UNL     1      10.905  15.329 -16.736  1.00  0.00     0.177 C 
BRANCH  19  24
ATOM     24  O   UNL     1      10.607  11.703 -15.736  1.00  0.00    -0.385 OA
ATOM     25  H   UNL     1       9.647  11.451 -15.716  1.00  0.00     0.211 HD
ENDBRANCH  19  24
BRANCH  21  26
ATOM     26  O   UNL     1      10.361  14.171 -14.655  1.00  0.00    -0.387 OA
ATOM     27  H   UNL     1       9.534  14.685 -14.828  1.00  0.00     0.211 HD
ENDBRANCH  21  26
BRANCH  22  28
ATOM     28  C   UNL     1       9.400  16.486 -18.453  1.00  0.00     0.191 C 
BRANCH  28  29
ATOM     29  O   UNL     1      10.156  16.333 -19.623  1.00  0.00    -0.394 OA
ATOM     30  H   UNL     1      10.918  15.744 -19.384  1.00  0.00     0.210 HD
ENDBRANCH  28  29
ENDBRANCH  22  28
BRANCH  23  31
ATOM     31  O   UNL     1      12.013  15.496 -17.589  1.00  0.00    -0.387 OA
ATOM     32  H   UNL     1      12.540  16.269 -17.260  1.00  0.00     0.211 HD
ENDBRANCH  23  31
ENDBRANCH   1  18
TORSDOF 11
ENDMDL
