MODEL 1
REMARK VINA RESULT:    -3.718      0.000      0.000
REMARK INTER + INTRA:          -5.982
REMARK INTER:                  -5.458
REMARK INTRA:                  -0.525
REMARK UNBOUND:                -0.525
REMARK SMILES O=C([O-])CCCCCCCC(=O)[O-]
REMARK SMILES IDX 7 1 6 2 5 3 4 4 2 5 1 6 3 7 8 8 9 9 10 10 11 11 12 12 13 13
REMARK H PARENT
REMARK Flexibility Score: inf
ROOT
ATOM      1  C   UNL     1      37.089  23.709 223.510  1.00  0.00     0.000 C 
ENDROOT
BRANCH   1   2
ATOM      2  C   UNL     1      35.755  24.051 222.827  1.00  0.00     0.000 C 
BRANCH   2   3
ATOM      3  C   UNL     1      35.636  23.443 221.417  1.00  0.00     0.006 C 
BRANCH   3   4
ATOM      4  C   UNL     1      35.925  24.433 220.278  1.00  0.00     0.053 C 
BRANCH   4   5
ATOM      5  C   UNL     1      35.323  23.990 218.980  1.00  0.00     0.041 C 
ATOM      6  O   UNL     1      34.084  24.104 218.785  1.00  0.00    -0.550 OA
ATOM      7  O   UNL     1      36.135  23.486 217.973  1.00  0.00    -0.550 OA
ENDBRANCH   4   5
ENDBRANCH   3   4
ENDBRANCH   2   3
ENDBRANCH   1   2
BRANCH   1   8
ATOM      8  C   UNL     1      37.920  24.958 223.853  1.00  0.00     0.000 C 
BRANCH   8   9
ATOM      9  C   UNL     1      39.269  25.024 223.107  1.00  0.00     0.006 C 
BRANCH   9  10
ATOM     10  C   UNL     1      39.340  24.025 221.946  1.00  0.00     0.053 C 
BRANCH  10  11
ATOM     11  C   UNL     1      40.433  23.029 222.177  1.00  0.00     0.041 C 
ATOM     12  O   UNL     1      40.442  21.940 221.547  1.00  0.00    -0.550 OA
ATOM     13  O   UNL     1      41.470  23.326 223.053  1.00  0.00    -0.550 OA
ENDBRANCH  10  11
ENDBRANCH   9  10
ENDBRANCH   8   9
ENDBRANCH   1   8
TORSDOF 8
ENDMDL
MODEL 2
REMARK VINA RESULT:    -3.660      1.791      5.024
REMARK INTER + INTRA:          -5.897
REMARK INTER:                  -5.259
REMARK INTRA:                  -0.638
REMARK UNBOUND:                -0.525
REMARK SMILES O=C([O-])CCCCCCCC(=O)[O-]
REMARK SMILES IDX 7 1 6 2 5 3 4 4 2 5 1 6 3 7 8 8 9 9 10 10 11 11 12 12 13 13
REMARK H PARENT
REMARK Flexibility Score: inf
ROOT
ATOM      1  C   UNL     1      39.255  25.600 224.093  1.00  0.00     0.000 C 
ENDROOT
BRANCH   1   2
ATOM      2  C   UNL     1      39.706  24.159 223.805  1.00  0.00     0.000 C 
BRANCH   2   3
ATOM      3  C   UNL     1      40.327  23.999 222.405  1.00  0.00     0.006 C 
BRANCH   3   4
ATOM      4  C   UNL     1      40.056  22.637 221.748  1.00  0.00     0.053 C 
BRANCH   4   5
ATOM      5  C   UNL     1      41.252  21.737 221.804  1.00  0.00     0.041 C 
ATOM      6  O   UNL     1      42.188  21.978 222.611  1.00  0.00    -0.550 OA
ATOM      7  O   UNL     1      41.315  20.611 220.993  1.00  0.00    -0.550 OA
ENDBRANCH   4   5
ENDBRANCH   3   4
ENDBRANCH   2   3
ENDBRANCH   1   2
BRANCH   1   8
ATOM      8  C   UNL     1      38.090  26.051 223.195  1.00  0.00     0.000 C 
BRANCH   8   9
ATOM      9  C   UNL     1      36.912  25.055 223.167  1.00  0.00     0.006 C 
BRANCH   9  10
ATOM     10  C   UNL     1      36.331  24.882 221.758  1.00  0.00     0.053 C 
BRANCH  10  11
ATOM     11  C   UNL     1      36.436  23.454 221.321  1.00  0.00     0.041 C 
ATOM     12  O   UNL     1      36.761  23.177 220.137  1.00  0.00    -0.550 OA
ATOM     13  O   UNL     1      36.225  22.430 222.235  1.00  0.00    -0.550 OA
ENDBRANCH  10  11
ENDBRANCH   9  10
ENDBRANCH   8   9
ENDBRANCH   1   8
TORSDOF 8
ENDMDL
MODEL 3
REMARK VINA RESULT:    -3.522      1.142      5.547
REMARK INTER + INTRA:          -5.695
REMARK INTER:                  -5.116
REMARK INTRA:                  -0.579
REMARK UNBOUND:                -0.525
REMARK SMILES O=C([O-])CCCCCCCC(=O)[O-]
REMARK SMILES IDX 7 1 6 2 5 3 4 4 2 5 1 6 3 7 8 8 9 9 10 10 11 11 12 12 13 13
REMARK H PARENT
REMARK Flexibility Score: inf
ROOT
ATOM      1  C   UNL     1      37.646  24.470 222.974  1.00  0.00     0.000 C 
ENDROOT
BRANCH   1   2
ATOM      2  C   UNL     1      39.003  23.944 223.470  1.00  0.00     0.000 C 
BRANCH   2   3
ATOM      3  C   UNL     1      39.308  22.521 222.967  1.00  0.00     0.006 C 
BRANCH   3   4
ATOM      4  C   UNL     1      40.221  22.473 221.731  1.00  0.00     0.053 C 
BRANCH   4   5
ATOM      5  C   UNL     1      41.573  21.914 222.051  1.00  0.00     0.041 C 
ATOM      6  O   UNL     1      42.173  22.269 223.100  1.00  0.00    -0.550 OA
ATOM      7  O   UNL     1      42.154  20.974 221.211  1.00  0.00    -0.550 OA
ENDBRANCH   4   5
ENDBRANCH   3   4
ENDBRANCH   2   3
ENDBRANCH   1   2
BRANCH   1   8
ATOM      8  C   UNL     1      36.565  23.377 222.924  1.00  0.00     0.000 C 
BRANCH   8   9
ATOM      9  C   UNL     1      35.853  23.277 221.559  1.00  0.00     0.006 C 
BRANCH   9  10
ATOM     10  C   UNL     1      36.783  23.627 220.391  1.00  0.00     0.053 C 
BRANCH  10  11
ATOM     11  C   UNL     1      36.001  23.773 219.124  1.00  0.00     0.041 C 
ATOM     12  O   UNL     1      34.792  24.122 219.162  1.00  0.00    -0.550 OA
ATOM     13  O   UNL     1      36.622  23.572 217.897  1.00  0.00    -0.550 OA
ENDBRANCH  10  11
ENDBRANCH   9  10
ENDBRANCH   8   9
ENDBRANCH   1   8
TORSDOF 8
ENDMDL
MODEL 4
REMARK VINA RESULT:    -3.520      1.440      4.939
REMARK INTER + INTRA:          -5.691
REMARK INTER:                  -5.345
REMARK INTRA:                  -0.346
REMARK UNBOUND:                -0.525
REMARK SMILES O=C([O-])CCCCCCCC(=O)[O-]
REMARK SMILES IDX 7 1 6 2 5 3 4 4 2 5 1 6 3 7 8 8 9 9 10 10 11 11 12 12 13 13
REMARK H PARENT
REMARK Flexibility Score: inf
ROOT
ATOM      1  C   UNL     1      35.628  24.853 223.225  1.00  0.00     0.000 C 
ENDROOT
BRANCH   1   2
ATOM      2  C   UNL     1      36.797  25.155 224.177  1.00  0.00     0.000 C 
BRANCH   2   3
ATOM      3  C   UNL     1      37.986  25.826 223.465  1.00  0.00     0.006 C 
BRANCH   3   4
ATOM      4  C   UNL     1      39.363  25.369 223.971  1.00  0.00     0.053 C 
BRANCH   4   5
ATOM      5  C   UNL     1      39.858  24.159 223.241  1.00  0.00     0.041 C 
ATOM      6  O   UNL     1      39.981  23.060 223.845  1.00  0.00    -0.550 OA
ATOM      7  O   UNL     1      40.147  24.234 221.885  1.00  0.00    -0.550 OA
ENDBRANCH   4   5
ENDBRANCH   3   4
ENDBRANCH   2   3
ENDBRANCH   1   2
BRANCH   1   8
ATOM      8  C   UNL     1      35.804  23.526 222.466  1.00  0.00     0.000 C 
BRANCH   8   9
ATOM      9  C   UNL     1      36.746  23.633 221.249  1.00  0.00     0.006 C 
BRANCH   9  10
ATOM     10  C   UNL     1      35.991  23.977 219.959  1.00  0.00     0.053 C 
BRANCH  10  11
ATOM     11  C   UNL     1      36.701  23.410 218.770  1.00  0.00     0.041 C 
ATOM     12  O   UNL     1      37.879  22.979 218.881  1.00  0.00    -0.550 OA
ATOM     13  O   UNL     1      36.044  23.311 217.550  1.00  0.00    -0.550 OA
ENDBRANCH  10  11
ENDBRANCH   9  10
ENDBRANCH   8   9
ENDBRANCH   1   8
TORSDOF 8
ENDMDL
MODEL 5
REMARK VINA RESULT:    -3.508      1.345      6.024
REMARK INTER + INTRA:          -5.673
REMARK INTER:                  -5.294
REMARK INTRA:                  -0.379
REMARK UNBOUND:                -0.525
REMARK SMILES O=C([O-])CCCCCCCC(=O)[O-]
REMARK SMILES IDX 7 1 6 2 5 3 4 4 2 5 1 6 3 7 8 8 9 9 10 10 11 11 12 12 13 13
REMARK H PARENT
REMARK Flexibility Score: inf
ROOT
ATOM      1  C   UNL     1      37.941  24.539 222.629  1.00  0.00     0.000 C 
ENDROOT
BRANCH   1   2
ATOM      2  C   UNL     1      39.320  24.232 222.024  1.00  0.00     0.000 C 
BRANCH   2   3
ATOM      3  C   UNL     1      40.067  23.118 222.780  1.00  0.00     0.006 C 
BRANCH   3   4
ATOM      4  C   UNL     1      40.441  21.908 221.910  1.00  0.00     0.053 C 
BRANCH   4   5
ATOM      5  C   UNL     1      41.893  21.559 222.024  1.00  0.00     0.041 C 
ATOM      6  O   UNL     1      42.461  20.905 221.111  1.00  0.00    -0.550 OA
ATOM      7  O   UNL     1      42.628  21.990 223.121  1.00  0.00    -0.550 OA
ENDBRANCH   4   5
ENDBRANCH   3   4
ENDBRANCH   2   3
ENDBRANCH   1   2
BRANCH   1   8
ATOM      8  C   UNL     1      37.090  23.275 222.843  1.00  0.00     0.000 C 
BRANCH   8   9
ATOM      9  C   UNL     1      36.105  22.992 221.688  1.00  0.00     0.006 C 
BRANCH   9  10
ATOM     10  C   UNL     1      35.886  24.221 220.798  1.00  0.00     0.053 C 
BRANCH  10  11
ATOM     11  C   UNL     1      34.640  24.063 219.984  1.00  0.00     0.041 C 
ATOM     12  O   UNL     1      34.691  24.129 218.728  1.00  0.00    -0.550 OA
ATOM     13  O   UNL     1      33.431  23.791 220.611  1.00  0.00    -0.550 OA
ENDBRANCH  10  11
ENDBRANCH   9  10
ENDBRANCH   8   9
ENDBRANCH   1   8
TORSDOF 8
ENDMDL
MODEL 6
REMARK VINA RESULT:    -3.471      2.173      5.393
REMARK INTER + INTRA:          -5.619
REMARK INTER:                  -4.988
REMARK INTRA:                  -0.631
REMARK UNBOUND:                -0.525
REMARK SMILES O=C([O-])CCCCCCCC(=O)[O-]
REMARK SMILES IDX 7 1 6 2 5 3 4 4 2 5 1 6 3 7 8 8 9 9 10 10 11 11 12 12 13 13
REMARK H PARENT
REMARK Flexibility Score: inf
ROOT
ATOM      1  C   UNL     1      39.399  24.539 223.476  1.00  0.00     0.000 C 
ENDROOT
BRANCH   1   2
ATOM      2  C   UNL     1      39.705  24.215 222.005  1.00  0.00     0.000 C 
BRANCH   2   3
ATOM      3  C   UNL     1      39.977  22.718 221.770  1.00  0.00     0.006 C 
BRANCH   3   4
ATOM      4  C   UNL     1      39.811  21.844 223.023  1.00  0.00     0.053 C 
BRANCH   4   5
ATOM      5  C   UNL     1      40.583  20.564 222.923  1.00  0.00     0.041 C 
ATOM      6  O   UNL     1      40.974  20.147 221.801  1.00  0.00    -0.550 OA
ATOM      7  O   UNL     1      40.902  19.852 224.071  1.00  0.00    -0.550 OA
ENDBRANCH   4   5
ENDBRANCH   3   4
ENDBRANCH   2   3
ENDBRANCH   1   2
BRANCH   1   8
ATOM      8  C   UNL     1      38.508  25.781 223.641  1.00  0.00     0.000 C 
BRANCH   8   9
ATOM      9  C   UNL     1      37.214  25.728 222.800  1.00  0.00     0.006 C 
BRANCH   9  10
ATOM     10  C   UNL     1      36.162  24.795 223.413  1.00  0.00     0.053 C 
BRANCH  10  11
ATOM     11  C   UNL     1      35.783  23.723 222.439  1.00  0.00     0.041 C 
ATOM     12  O   UNL     1      36.369  22.609 222.463  1.00  0.00    -0.550 OA
ATOM     13  O   UNL     1      34.747  23.937 221.539  1.00  0.00    -0.550 OA
ENDBRANCH  10  11
ENDBRANCH   9  10
ENDBRANCH   8   9
ENDBRANCH   1   8
TORSDOF 8
ENDMDL
MODEL 7
REMARK VINA RESULT:    -3.444      1.731      2.766
REMARK INTER + INTRA:          -5.580
REMARK INTER:                  -5.017
REMARK INTRA:                  -0.564
REMARK UNBOUND:                -0.525
REMARK SMILES O=C([O-])CCCCCCCC(=O)[O-]
REMARK SMILES IDX 7 1 6 2 5 3 4 4 2 5 1 6 3 7 8 8 9 9 10 10 11 11 12 12 13 13
REMARK H PARENT
REMARK Flexibility Score: inf
ROOT
ATOM      1  C   UNL     1      39.321  24.569 223.253  1.00  0.00     0.000 C 
ENDROOT
BRANCH   1   2
ATOM      2  C   UNL     1      37.863  24.999 223.021  1.00  0.00     0.000 C 
BRANCH   2   3
ATOM      3  C   UNL     1      36.848  23.965 223.542  1.00  0.00     0.006 C 
BRANCH   3   4
ATOM      4  C   UNL     1      36.485  22.871 222.526  1.00  0.00     0.053 C 
BRANCH   4   5
ATOM      5  C   UNL     1      36.042  23.445 221.215  1.00  0.00     0.041 C 
ATOM      6  O   UNL     1      34.929  24.027 221.123  1.00  0.00    -0.550 OA
ATOM      7  O   UNL     1      36.874  23.371 220.106  1.00  0.00    -0.550 OA
ENDBRANCH   4   5
ENDBRANCH   3   4
ENDBRANCH   2   3
ENDBRANCH   1   2
BRANCH   1   8
ATOM      8  C   UNL     1      40.025  24.125 221.960  1.00  0.00     0.000 C 
BRANCH   8   9
ATOM      9  C   UNL     1      40.050  22.594 221.767  1.00  0.00     0.006 C 
BRANCH   9  10
ATOM     10  C   UNL     1      41.444  22.001 222.008  1.00  0.00     0.053 C 
BRANCH  10  11
ATOM     11  C   UNL     1      41.335  20.610 222.548  1.00  0.00     0.041 C 
ATOM     12  O   UNL     1      41.524  20.389 223.774  1.00  0.00    -0.550 OA
ATOM     13  O   UNL     1      40.975  19.564 221.708  1.00  0.00    -0.550 OA
ENDBRANCH  10  11
ENDBRANCH   9  10
ENDBRANCH   8   9
ENDBRANCH   1   8
TORSDOF 8
ENDMDL
MODEL 8
REMARK VINA RESULT:    -3.412      1.532      2.099
REMARK INTER + INTRA:          -5.533
REMARK INTER:                  -4.774
REMARK INTRA:                  -0.759
REMARK UNBOUND:                -0.525
REMARK SMILES O=C([O-])CCCCCCCC(=O)[O-]
REMARK SMILES IDX 7 1 6 2 5 3 4 4 2 5 1 6 3 7 8 8 9 9 10 10 11 11 12 12 13 13
REMARK H PARENT
REMARK Flexibility Score: inf
ROOT
ATOM      1  C   UNL     1      38.712  24.419 225.124  1.00  0.00     0.000 C 
ENDROOT
BRANCH   1   2
ATOM      2  C   UNL     1      37.552  23.480 224.756  1.00  0.00     0.000 C 
BRANCH   2   3
ATOM      3  C   UNL     1      36.804  23.928 223.487  1.00  0.00     0.006 C 
BRANCH   3   4
ATOM      4  C   UNL     1      36.560  22.803 222.469  1.00  0.00     0.053 C 
BRANCH   4   5
ATOM      5  C   UNL     1      36.141  23.334 221.133  1.00  0.00     0.041 C 
ATOM      6  O   UNL     1      34.997  23.837 220.981  1.00  0.00    -0.550 OA
ATOM      7  O   UNL     1      37.029  23.309 220.065  1.00  0.00    -0.550 OA
ENDBRANCH   4   5
ENDBRANCH   3   4
ENDBRANCH   2   3
ENDBRANCH   1   2
BRANCH   1   8
ATOM      8  C   UNL     1      39.309  25.138 223.902  1.00  0.00     0.000 C 
BRANCH   8   9
ATOM      9  C   UNL     1      40.548  24.430 223.315  1.00  0.00     0.006 C 
BRANCH   9  10
ATOM     10  C   UNL     1      40.221  23.652 222.034  1.00  0.00     0.053 C 
BRANCH  10  11
ATOM     11  C   UNL     1      40.596  22.211 222.187  1.00  0.00     0.041 C 
ATOM     12  O   UNL     1      41.665  21.778 221.682  1.00  0.00    -0.550 OA
ATOM     13  O   UNL     1      39.790  21.358 222.930  1.00  0.00    -0.550 OA
ENDBRANCH  10  11
ENDBRANCH   9  10
ENDBRANCH   8   9
ENDBRANCH   1   8
TORSDOF 8
ENDMDL
MODEL 9
REMARK VINA RESULT:    -3.343      2.271      6.037
REMARK INTER + INTRA:          -5.431
REMARK INTER:                  -4.859
REMARK INTRA:                  -0.572
REMARK UNBOUND:                -0.525
REMARK SMILES O=C([O-])CCCCCCCC(=O)[O-]
REMARK SMILES IDX 7 1 6 2 5 3 4 4 2 5 1 6 3 7 8 8 9 9 10 10 11 11 12 12 13 13
REMARK H PARENT
REMARK Flexibility Score: inf
ROOT
ATOM      1  C   UNL     1      38.747  23.672 221.753  1.00  0.00     0.000 C 
ENDROOT
BRANCH   1   2
ATOM      2  C   UNL     1      39.947  24.146 222.589  1.00  0.00     0.000 C 
BRANCH   2   3
ATOM      3  C   UNL     1      39.559  24.509 224.034  1.00  0.00     0.006 C 
BRANCH   3   4
ATOM      4  C   UNL     1      39.073  25.957 224.209  1.00  0.00     0.053 C 
BRANCH   4   5
ATOM      5  C   UNL     1      40.108  26.824 224.857  1.00  0.00     0.041 C 
ATOM      6  O   UNL     1      41.196  26.325 225.249  1.00  0.00    -0.550 OA
ATOM      7  O   UNL     1      39.888  28.188 224.993  1.00  0.00    -0.550 OA
ENDBRANCH   4   5
ENDBRANCH   3   4
ENDBRANCH   2   3
ENDBRANCH   1   2
BRANCH   1   8
ATOM      8  C   UNL     1      37.728  22.866 222.576  1.00  0.00     0.000 C 
BRANCH   8   9
ATOM      9  C   UNL     1      36.368  23.576 222.739  1.00  0.00     0.006 C 
BRANCH   9  10
ATOM     10  C   UNL     1      36.138  24.645 221.663  1.00  0.00     0.053 C 
BRANCH  10  11
ATOM     11  C   UNL     1      35.239  24.120 220.588  1.00  0.00     0.041 C 
ATOM     12  O   UNL     1      34.052  23.798 220.856  1.00  0.00    -0.550 OA
ATOM     13  O   UNL     1      35.697  24.035 219.279  1.00  0.00    -0.550 OA
ENDBRANCH  10  11
ENDBRANCH   9  10
ENDBRANCH   8   9
ENDBRANCH   1   8
TORSDOF 8
ENDMDL
