MODEL 1
REMARK VINA RESULT:    -2.687      0.000      0.000
REMARK INTER + INTRA:          -3.060
REMARK INTER:                  -3.001
REMARK INTRA:                  -0.059
REMARK UNBOUND:                -0.059
REMARK SMILES CCCC(=O)[O-]
REMARK SMILES IDX 3 1 4 2 5 3 6 4 2 5 1 6
REMARK H PARENT
REMARK Flexibility Score: inf
ROOT
ATOM      1  C   UNL     1      -7.416  -6.351  36.074  1.00  0.00     0.052 C 
ENDROOT
BRANCH   1   2
ATOM      2  C   UNL     1      -7.065  -7.305  34.977  1.00  0.00     0.041 C 
ATOM      3  O   UNL     1      -5.875  -7.694  34.833  1.00  0.00    -0.550 OA
ATOM      4  O   UNL     1      -8.057  -7.802  34.143  1.00  0.00    -0.550 OA
ENDBRANCH   1   2
BRANCH   1   5
ATOM      5  C   UNL     1      -6.459  -5.156  36.070  1.00  0.00     0.003 C 
ATOM      6  C   UNL     1      -6.835  -4.153  34.983  1.00  0.00     0.004 C 
ENDBRANCH   1   5
TORSDOF 2
ENDMDL
MODEL 2
REMARK VINA RESULT:    -2.587     25.923     26.633
REMARK INTER + INTRA:          -2.948
REMARK INTER:                  -2.909
REMARK INTRA:                  -0.040
REMARK UNBOUND:                -0.059
REMARK SMILES CCCC(=O)[O-]
REMARK SMILES IDX 3 1 4 2 5 3 6 4 2 5 1 6
REMARK H PARENT
REMARK Flexibility Score: inf
ROOT
ATOM      1  C   UNL     1     -21.167   6.082  16.292  1.00  0.00     0.052 C 
ENDROOT
BRANCH   1   2
ATOM      2  C   UNL     1     -21.971   6.603  17.440  1.00  0.00     0.041 C 
ATOM      3  O   UNL     1     -22.624   5.809  18.168  1.00  0.00    -0.550 OA
ATOM      4  O   UNL     1     -21.964   7.960  17.736  1.00  0.00    -0.550 OA
ENDBRANCH   1   2
BRANCH   1   5
ATOM      5  C   UNL     1     -20.092   7.096  15.888  1.00  0.00     0.003 C 
ATOM      6  C   UNL     1     -18.726   6.696  16.438  1.00  0.00     0.004 C 
ENDBRANCH   1   5
TORSDOF 2
ENDMDL
MODEL 3
REMARK VINA RESULT:    -2.550      0.720      1.466
REMARK INTER + INTRA:          -2.907
REMARK INTER:                  -2.853
REMARK INTRA:                  -0.055
REMARK UNBOUND:                -0.059
REMARK SMILES CCCC(=O)[O-]
REMARK SMILES IDX 3 1 4 2 5 3 6 4 2 5 1 6
REMARK H PARENT
REMARK Flexibility Score: inf
ROOT
ATOM      1  C   UNL     1      -7.529  -6.797  35.777  1.00  0.00     0.052 C 
ENDROOT
BRANCH   1   2
ATOM      2  C   UNL     1      -7.338  -7.356  34.404  1.00  0.00     0.041 C 
ATOM      3  O   UNL     1      -8.250  -7.247  33.542  1.00  0.00    -0.550 OA
ATOM      4  O   UNL     1      -6.134  -7.957  34.058  1.00  0.00    -0.550 OA
ENDBRANCH   1   2
BRANCH   1   5
ATOM      5  C   UNL     1      -6.392  -5.832  36.125  1.00  0.00     0.003 C 
ATOM      6  C   UNL     1      -6.691  -4.424  35.617  1.00  0.00     0.004 C 
ENDBRANCH   1   5
TORSDOF 2
ENDMDL
MODEL 4
REMARK VINA RESULT:    -2.545     26.888     27.027
REMARK INTER + INTRA:          -2.901
REMARK INTER:                  -2.889
REMARK INTRA:                  -0.013
REMARK UNBOUND:                -0.059
REMARK SMILES CCCC(=O)[O-]
REMARK SMILES IDX 3 1 4 2 5 3 6 4 2 5 1 6
REMARK H PARENT
REMARK Flexibility Score: inf
ROOT
ATOM      1  C   UNL     1     -22.413   7.003  17.816  1.00  0.00     0.052 C 
ENDROOT
BRANCH   1   2
ATOM      2  C   UNL     1     -22.828   7.979  18.871  1.00  0.00     0.041 C 
ATOM      3  O   UNL     1     -22.307   9.125  18.914  1.00  0.00    -0.550 OA
ATOM      4  O   UNL     1     -23.824   7.641  19.778  1.00  0.00    -0.550 OA
ENDBRANCH   1   2
BRANCH   1   5
ATOM      5  C   UNL     1     -21.263   7.575  16.981  1.00  0.00     0.003 C 
ATOM      6  C   UNL     1     -20.622   6.494  16.115  1.00  0.00     0.004 C 
ENDBRANCH   1   5
TORSDOF 2
ENDMDL
MODEL 5
REMARK VINA RESULT:    -2.541     26.017     26.585
REMARK INTER + INTRA:          -2.897
REMARK INTER:                  -2.887
REMARK INTRA:                  -0.010
REMARK UNBOUND:                -0.059
REMARK SMILES CCCC(=O)[O-]
REMARK SMILES IDX 3 1 4 2 5 3 6 4 2 5 1 6
REMARK H PARENT
REMARK Flexibility Score: inf
ROOT
ATOM      1  C   UNL     1     -23.184   8.405  19.191  1.00  0.00     0.052 C 
ENDROOT
BRANCH   1   2
ATOM      2  C   UNL     1     -21.840   8.203  18.569  1.00  0.00     0.041 C 
ATOM      3  O   UNL     1     -21.746   7.869  17.358  1.00  0.00    -0.550 OA
ATOM      4  O   UNL     1     -20.688   8.428  19.312  1.00  0.00    -0.550 OA
ENDBRANCH   1   2
BRANCH   1   5
ATOM      5  C   UNL     1     -23.152   8.019  20.673  1.00  0.00     0.003 C 
ATOM      6  C   UNL     1     -24.362   7.166  21.045  1.00  0.00     0.004 C 
ENDBRANCH   1   5
TORSDOF 2
ENDMDL
MODEL 6
REMARK VINA RESULT:    -2.509     25.622     26.619
REMARK INTER + INTRA:          -2.861
REMARK INTER:                  -2.791
REMARK INTRA:                  -0.070
REMARK UNBOUND:                -0.059
REMARK SMILES CCCC(=O)[O-]
REMARK SMILES IDX 3 1 4 2 5 3 6 4 2 5 1 6
REMARK H PARENT
REMARK Flexibility Score: inf
ROOT
ATOM      1  C   UNL     1     -22.006   7.595  17.583  1.00  0.00     0.052 C 
ENDROOT
BRANCH   1   2
ATOM      2  C   UNL     1     -22.358   8.334  18.835  1.00  0.00     0.041 C 
ATOM      3  O   UNL     1     -21.528   9.123  19.360  1.00  0.00    -0.550 OA
ATOM      4  O   UNL     1     -23.620   8.191  19.396  1.00  0.00    -0.550 OA
ENDBRANCH   1   2
BRANCH   1   5
ATOM      5  C   UNL     1     -22.305   6.101  17.743  1.00  0.00     0.003 C 
ATOM      6  C   UNL     1     -21.376   5.462  18.771  1.00  0.00     0.004 C 
ENDBRANCH   1   5
TORSDOF 2
ENDMDL
MODEL 7
REMARK VINA RESULT:    -2.486     26.280     26.836
REMARK INTER + INTRA:          -2.836
REMARK INTER:                  -2.799
REMARK INTRA:                  -0.037
REMARK UNBOUND:                -0.059
REMARK SMILES CCCC(=O)[O-]
REMARK SMILES IDX 3 1 4 2 5 3 6 4 2 5 1 6
REMARK H PARENT
REMARK Flexibility Score: inf
ROOT
ATOM      1  C   UNL     1     -21.964   8.377  18.585  1.00  0.00     0.052 C 
ENDROOT
BRANCH   1   2
ATOM      2  C   UNL     1     -21.848   7.345  17.509  1.00  0.00     0.041 C 
ATOM      3  O   UNL     1     -22.621   6.350  17.499  1.00  0.00    -0.550 OA
ATOM      4  O   UNL     1     -20.918   7.503  16.489  1.00  0.00    -0.550 OA
ENDBRANCH   1   2
BRANCH   1   5
ATOM      5  C   UNL     1     -23.312   8.254  19.301  1.00  0.00     0.003 C 
ATOM      6  C   UNL     1     -23.120   7.986  20.791  1.00  0.00     0.004 C 
ENDBRANCH   1   5
TORSDOF 2
ENDMDL
MODEL 8
REMARK VINA RESULT:    -2.470     25.080     26.021
REMARK INTER + INTRA:          -2.817
REMARK INTER:                  -2.785
REMARK INTRA:                  -0.032
REMARK UNBOUND:                -0.059
REMARK SMILES CCCC(=O)[O-]
REMARK SMILES IDX 3 1 4 2 5 3 6 4 2 5 1 6
REMARK H PARENT
REMARK Flexibility Score: inf
ROOT
ATOM      1  C   UNL     1     -22.263   6.163  17.318  1.00  0.00     0.052 C 
ENDROOT
BRANCH   1   2
ATOM      2  C   UNL     1     -22.156   5.624  18.708  1.00  0.00     0.041 C 
ATOM      3  O   UNL     1     -23.151   5.660  19.480  1.00  0.00    -0.550 OA
ATOM      4  O   UNL     1     -20.973   5.037  19.138  1.00  0.00    -0.550 OA
ENDBRANCH   1   2
BRANCH   1   5
ATOM      5  C   UNL     1     -21.266   7.307  17.110  1.00  0.00     0.003 C 
ATOM      6  C   UNL     1     -20.346   7.025  15.925  1.00  0.00     0.004 C 
ENDBRANCH   1   5
TORSDOF 2
ENDMDL
MODEL 9
REMARK VINA RESULT:    -2.448     26.070     26.526
REMARK INTER + INTRA:          -2.793
REMARK INTER:                  -2.739
REMARK INTRA:                  -0.054
REMARK UNBOUND:                -0.059
REMARK SMILES CCCC(=O)[O-]
REMARK SMILES IDX 3 1 4 2 5 3 6 4 2 5 1 6
REMARK H PARENT
REMARK Flexibility Score: inf
ROOT
ATOM      1  C   UNL     1     -23.138   8.358  18.902  1.00  0.00     0.052 C 
ENDROOT
BRANCH   1   2
ATOM      2  C   UNL     1     -23.237   7.931  20.332  1.00  0.00     0.041 C 
ATOM      3  O   UNL     1     -22.302   8.188  21.136  1.00  0.00    -0.550 OA
ATOM      4  O   UNL     1     -24.382   7.291  20.790  1.00  0.00    -0.550 OA
ENDBRANCH   1   2
BRANCH   1   5
ATOM      5  C   UNL     1     -21.974   7.644  18.210  1.00  0.00     0.003 C 
ATOM      6  C   UNL     1     -22.396   6.267  17.704  1.00  0.00     0.004 C 
ENDBRANCH   1   5
TORSDOF 2
ENDMDL
