MODEL 1
REMARK VINA RESULT:    -5.218      0.000      0.000
REMARK INTER + INTRA:         -11.735
REMARK INTER:                  -9.032
REMARK INTRA:                  -2.703
REMARK UNBOUND:                -2.703
REMARK SMILES OC[C@@H]1O[C@H](O[C@H]2[C@@H](O)[C@@H](O)[C@H](O[C@@H]3[C@@H](O)[C@@H](O)[C@H](O)O[C@@H]3CO)O[C@@H]2CO)[C@H](O)[C@H](O)[C@H]1O
REMARK SMILES IDX 7 1 26 2 25 3 12 4 10 5 8 6 6 7 5 8 3 9 33 10 4 11 31 12
REMARK SMILES IDX 29 13 2 14 1 15 34 17 32 19 30 21 27 23 28 24 9 26 11 28
REMARK SMILES IDX 13 30 14 31 22 32 15 33 21 34 17 35 19 36 23 37 24 38 16 40
REMARK SMILES IDX 18 42 20 44
REMARK H PARENT 1 16 34 18 32 20 30 22 28 25 9 27 11 29 24 39 16 41 18 43
REMARK H PARENT 20 45
REMARK Flexibility Score: inf
ROOT
ATOM      1  C   UNL     1      -3.583  -1.128  -7.620  1.00  0.00     0.184 C 
ATOM      2  C   UNL     1      -4.598  -1.974  -6.738  1.00  0.00     0.178 C 
ATOM      3  O   UNL     1      -5.250  -1.173  -5.622  1.00  0.00    -0.341 OA
ATOM      4  C   UNL     1      -5.372   0.292  -5.933  1.00  0.00     0.282 C 
ATOM      5  C   UNL     1      -5.554   0.456  -7.505  1.00  0.00     0.202 C 
ATOM      6  C   UNL     1      -4.149   0.249  -8.086  1.00  0.00     0.180 C 
ENDROOT
BRANCH   1   7
ATOM      7  O   UNL     1      -2.742  -1.838  -8.512  1.00  0.00    -0.341 OA
BRANCH   7   8
ATOM      8  C   UNL     1      -1.474  -1.289  -8.885  1.00  0.00     0.282 C 
ATOM      9  C   UNL     1       0.297  -2.381  -7.651  1.00  0.00     0.178 C 
ATOM     10  C   UNL     1      -0.219  -3.676  -8.380  1.00  0.00     0.177 C 
ATOM     11  O   UNL     1      -0.571  -1.251  -7.792  1.00  0.00    -0.341 OA
ATOM     12  C   UNL     1      -0.475  -3.451  -9.924  1.00  0.00     0.179 C 
ATOM     13  C   UNL     1      -0.776  -1.990 -10.205  1.00  0.00     0.202 C 
BRANCH   9  14
ATOM     14  C   UNL     1       0.718  -2.721  -6.144  1.00  0.00     0.191 C 
BRANCH  14  15
ATOM     15  O   UNL     1       0.173  -3.788  -5.432  1.00  0.00    -0.394 OA
ATOM     16  H   UNL     1      -0.732  -3.986  -5.937  1.00  0.00     0.210 HD
ENDBRANCH  14  15
ENDBRANCH   9  14
BRANCH  10  17
ATOM     17  O   UNL     1       0.824  -4.696  -8.336  1.00  0.00    -0.387 OA
ATOM     18  H   UNL     1       0.414  -5.594  -8.007  1.00  0.00     0.211 HD
ENDBRANCH  10  17
BRANCH  12  19
ATOM     19  O   UNL     1      -1.538  -4.302 -10.277  1.00  0.00    -0.387 OA
ATOM     20  H   UNL     1      -1.676  -5.044  -9.576  1.00  0.00     0.211 HD
ENDBRANCH  12  19
BRANCH  13  21
ATOM     21  O   UNL     1      -1.606  -1.972 -11.420  1.00  0.00    -0.385 OA
ATOM     22  H   UNL     1      -2.290  -2.708 -11.476  1.00  0.00     0.211 HD
ENDBRANCH  13  21
ENDBRANCH   7   8
ENDBRANCH   1   7
BRANCH   2  23
ATOM     23  C   UNL     1      -4.174  -3.441  -6.481  1.00  0.00     0.191 C 
BRANCH  23  24
ATOM     24  O   UNL     1      -2.812  -3.553  -6.203  1.00  0.00    -0.394 OA
ATOM     25  H   UNL     1      -2.295  -2.689  -6.284  1.00  0.00     0.210 HD
ENDBRANCH  23  24
ENDBRANCH   2  23
BRANCH   6  26
ATOM     26  O   UNL     1      -4.150   0.746  -9.422  1.00  0.00    -0.387 OA
ATOM     27  H   UNL     1      -5.100   0.589  -9.713  1.00  0.00     0.211 HD
ENDBRANCH   6  26
BRANCH   5  28
ATOM     28  O   UNL     1      -6.551  -0.463  -7.996  1.00  0.00    -0.385 OA
ATOM     29  H   UNL     1      -7.326   0.021  -8.394  1.00  0.00     0.211 HD
ENDBRANCH   5  28
BRANCH   4  30
ATOM     30  O   UNL     1      -4.393   0.960  -5.033  1.00  0.00    -0.341 OA
BRANCH  30  31
ATOM     31  C   UNL     1      -3.914   2.390  -5.025  1.00  0.00     0.184 C 
ATOM     32  C   UNL     1      -2.416   3.168  -4.965  1.00  0.00     0.178 C 
ATOM     33  C   UNL     1      -4.994   3.305  -5.808  1.00  0.00     0.180 C 
ATOM     34  O   UNL     1      -2.485   4.538  -5.269  1.00  0.00    -0.342 OA
ATOM     35  C   UNL     1      -4.522   4.671  -6.388  1.00  0.00     0.201 C 
ATOM     36  C   UNL     1      -3.047   4.569  -6.568  1.00  0.00     0.279 C 
BRANCH  32  37
ATOM     37  C   UNL     1      -1.046   2.516  -5.518  1.00  0.00     0.191 C 
BRANCH  37  38
ATOM     38  O   UNL     1      -1.416   1.301  -6.191  1.00  0.00    -0.394 OA
ATOM     39  H   UNL     1      -1.905   0.723  -5.513  1.00  0.00     0.210 HD
ENDBRANCH  37  38
ENDBRANCH  32  37
BRANCH  33  40
ATOM     40  O   UNL     1      -6.026   3.641  -4.875  1.00  0.00    -0.387 OA
ATOM     41  H   UNL     1      -5.992   2.881  -4.182  1.00  0.00     0.211 HD
ENDBRANCH  33  40
BRANCH  35  42
ATOM     42  O   UNL     1      -4.819   5.715  -5.434  1.00  0.00    -0.385 OA
ATOM     43  H   UNL     1      -4.134   6.469  -5.626  1.00  0.00     0.211 HD
ENDBRANCH  35  42
BRANCH  36  44
ATOM     44  O   UNL     1      -2.674   3.666  -7.540  1.00  0.00    -0.366 OA
ATOM     45  H   UNL     1      -2.824   3.980  -8.475  1.00  0.00     0.213 HD
ENDBRANCH  36  44
ENDBRANCH  30  31
ENDBRANCH   4  30
TORSDOF 18
ENDMDL
MODEL 2
REMARK VINA RESULT:    -4.850      1.706      4.318
REMARK INTER + INTRA:         -11.097
REMARK INTER:                  -9.081
REMARK INTRA:                  -2.016
REMARK UNBOUND:                -2.703
REMARK SMILES OC[C@@H]1O[C@H](O[C@H]2[C@@H](O)[C@@H](O)[C@H](O[C@@H]3[C@@H](O)[C@@H](O)[C@H](O)O[C@@H]3CO)O[C@@H]2CO)[C@H](O)[C@H](O)[C@H]1O
REMARK SMILES IDX 7 1 26 2 25 3 12 4 10 5 8 6 6 7 5 8 3 9 33 10 4 11 31 12
REMARK SMILES IDX 29 13 2 14 1 15 34 17 32 19 30 21 27 23 28 24 9 26 11 28
REMARK SMILES IDX 13 30 14 31 22 32 15 33 21 34 17 35 19 36 23 37 24 38 16 40
REMARK SMILES IDX 18 42 20 44
REMARK H PARENT 1 16 34 18 32 20 30 22 28 25 9 27 11 29 24 39 16 41 18 43
REMARK H PARENT 20 45
REMARK Flexibility Score: inf
ROOT
ATOM      1  C   UNL     1      -1.844   0.904  -7.805  1.00  0.00     0.184 C 
ATOM      2  C   UNL     1      -3.001   1.798  -8.425  1.00  0.00     0.178 C 
ATOM      3  O   UNL     1      -3.879   2.470  -7.381  1.00  0.00    -0.341 OA
ATOM      4  C   UNL     1      -3.164   2.738  -6.087  1.00  0.00     0.282 C 
ATOM      5  C   UNL     1      -1.629   3.005  -6.409  1.00  0.00     0.202 C 
ATOM      6  C   UNL     1      -1.038   1.613  -6.673  1.00  0.00     0.180 C 
ENDROOT
BRANCH   1   7
ATOM      7  O   UNL     1      -1.141   0.042  -8.682  1.00  0.00    -0.341 OA
BRANCH   7   8
ATOM      8  C   UNL     1       0.080  -0.569  -8.254  1.00  0.00     0.282 C 
ATOM      9  C   UNL     1      -0.389  -2.668  -7.146  1.00  0.00     0.178 C 
ATOM     10  C   UNL     1      -1.000  -3.075  -8.537  1.00  0.00     0.177 C 
ATOM     11  O   UNL     1      -0.080  -1.274  -7.034  1.00  0.00    -0.341 OA
ATOM     12  C   UNL     1      -0.071  -2.685  -9.754  1.00  0.00     0.179 C 
ATOM     13  C   UNL     1       0.819  -1.511  -9.388  1.00  0.00     0.202 C 
BRANCH   9  14
ATOM     14  C   UNL     1      -1.279  -3.257  -5.952  1.00  0.00     0.191 C 
BRANCH  14  15
ATOM     15  O   UNL     1      -2.400  -4.055  -6.172  1.00  0.00    -0.394 OA
ATOM     16  H   UNL     1      -2.544  -4.539  -5.246  1.00  0.00     0.210 HD
ENDBRANCH  14  15
ENDBRANCH   9  14
BRANCH  10  17
ATOM     17  O   UNL     1      -1.093  -4.530  -8.609  1.00  0.00    -0.387 OA
ATOM     18  H   UNL     1      -1.993  -4.839  -8.189  1.00  0.00     0.211 HD
ENDBRANCH  10  17
BRANCH  12  19
ATOM     19  O   UNL     1      -0.929  -2.401 -10.833  1.00  0.00    -0.387 OA
ATOM     20  H   UNL     1      -1.908  -2.620 -10.602  1.00  0.00     0.211 HD
ENDBRANCH  12  19
BRANCH  13  21
ATOM     21  O   UNL     1       1.125  -0.824 -10.652  1.00  0.00    -0.385 OA
ATOM     22  H   UNL     1       0.515  -0.055 -10.874  1.00  0.00     0.211 HD
ENDBRANCH  13  21
ENDBRANCH   7   8
ENDBRANCH   1   7
BRANCH   2  23
ATOM     23  C   UNL     1      -3.644   1.230  -9.714  1.00  0.00     0.191 C 
BRANCH  23  24
ATOM     24  O   UNL     1      -3.613  -0.164  -9.748  1.00  0.00    -0.394 OA
ATOM     25  H   UNL     1      -3.587  -0.604  -8.839  1.00  0.00     0.210 HD
ENDBRANCH  23  24
ENDBRANCH   2  23
BRANCH   6  26
ATOM     26  O   UNL     1       0.381   1.719  -6.595  1.00  0.00    -0.387 OA
ATOM     27  H   UNL     1       0.689   1.063  -7.293  1.00  0.00     0.211 HD
ENDBRANCH   6  26
BRANCH   5  28
ATOM     28  O   UNL     1      -1.497   3.934  -7.503  1.00  0.00    -0.385 OA
ATOM     29  H   UNL     1      -0.556   3.981  -7.828  1.00  0.00     0.211 HD
ENDBRANCH   5  28
BRANCH   4  30
ATOM     30  O   UNL     1      -3.761   1.786  -5.112  1.00  0.00    -0.341 OA
BRANCH  30  31
ATOM     31  C   UNL     1      -4.752   0.671  -5.339  1.00  0.00     0.184 C 
ATOM     32  C   UNL     1      -6.418   0.561  -5.591  1.00  0.00     0.178 C 
ATOM     33  C   UNL     1      -3.990  -0.565  -6.053  1.00  0.00     0.180 C 
ATOM     34  O   UNL     1      -6.834  -0.705  -6.036  1.00  0.00    -0.342 OA
ATOM     35  C   UNL     1      -4.842  -1.597  -6.849  1.00  0.00     0.201 C 
ATOM     36  C   UNL     1      -6.102  -0.900  -7.232  1.00  0.00     0.279 C 
BRANCH  32  37
ATOM     37  C   UNL     1      -7.301   1.734  -6.262  1.00  0.00     0.191 C 
BRANCH  37  38
ATOM     38  O   UNL     1      -6.376   2.614  -6.921  1.00  0.00    -0.394 OA
ATOM     39  H   UNL     1      -6.900   3.120  -7.630  1.00  0.00     0.210 HD
ENDBRANCH  37  38
ENDBRANCH  32  37
BRANCH  33  40
ATOM     40  O   UNL     1      -3.358  -1.330  -5.022  1.00  0.00    -0.387 OA
ATOM     41  H   UNL     1      -3.736  -0.935  -4.150  1.00  0.00     0.211 HD
ENDBRANCH  33  40
BRANCH  35  42
ATOM     42  O   UNL     1      -5.153  -2.714  -5.987  1.00  0.00    -0.385 OA
ATOM     43  H   UNL     1      -5.963  -2.408  -5.418  1.00  0.00     0.211 HD
ENDBRANCH  35  42
BRANCH  36  44
ATOM     44  O   UNL     1      -5.912   0.120  -8.139  1.00  0.00    -0.366 OA
ATOM     45  H   UNL     1      -4.976   0.207  -8.473  1.00  0.00     0.213 HD
ENDBRANCH  36  44
ENDBRANCH  30  31
ENDBRANCH   4  30
TORSDOF 18
ENDMDL
MODEL 3
REMARK VINA RESULT:    -4.285      1.538      6.510
REMARK INTER + INTRA:         -10.120
REMARK INTER:                  -7.980
REMARK INTRA:                  -2.140
REMARK UNBOUND:                -2.703
REMARK SMILES OC[C@@H]1O[C@H](O[C@H]2[C@@H](O)[C@@H](O)[C@H](O[C@@H]3[C@@H](O)[C@@H](O)[C@H](O)O[C@@H]3CO)O[C@@H]2CO)[C@H](O)[C@H](O)[C@H]1O
REMARK SMILES IDX 7 1 26 2 25 3 12 4 10 5 8 6 6 7 5 8 3 9 33 10 4 11 31 12
REMARK SMILES IDX 29 13 2 14 1 15 34 17 32 19 30 21 27 23 28 24 9 26 11 28
REMARK SMILES IDX 13 30 14 31 22 32 15 33 21 34 17 35 19 36 23 37 24 38 16 40
REMARK SMILES IDX 18 42 20 44
REMARK H PARENT 1 16 34 18 32 20 30 22 28 25 9 27 11 29 24 39 16 41 18 43
REMARK H PARENT 20 45
REMARK Flexibility Score: inf
ROOT
ATOM      1  C   UNL     1      -4.365   0.583  -7.016  1.00  0.00     0.184 C 
ATOM      2  C   UNL     1      -3.990   0.219  -8.515  1.00  0.00     0.178 C 
ATOM      3  O   UNL     1      -3.693  -1.257  -8.728  1.00  0.00    -0.341 OA
ATOM      4  C   UNL     1      -4.416  -2.155  -7.764  1.00  0.00     0.282 C 
ATOM      5  C   UNL     1      -5.801  -1.469  -7.385  1.00  0.00     0.202 C 
ATOM      6  C   UNL     1      -5.429  -0.367  -6.384  1.00  0.00     0.180 C 
ENDROOT
BRANCH   1   7
ATOM      7  O   UNL     1      -4.407   1.956  -6.666  1.00  0.00    -0.341 OA
BRANCH   7   8
ATOM      8  C   UNL     1      -4.050   2.364  -5.341  1.00  0.00     0.282 C 
ATOM      9  C   UNL     1      -1.929   3.526  -5.376  1.00  0.00     0.178 C 
ATOM     10  C   UNL     1      -2.687   4.539  -6.311  1.00  0.00     0.177 C 
ATOM     11  O   UNL     1      -2.650   2.313  -5.130  1.00  0.00    -0.341 OA
ATOM     12  C   UNL     1      -4.118   4.927  -5.763  1.00  0.00     0.179 C 
ATOM     13  C   UNL     1      -4.665   3.823  -4.877  1.00  0.00     0.202 C 
BRANCH   9  14
ATOM     14  C   UNL     1      -0.423   3.322  -5.881  1.00  0.00     0.191 C 
BRANCH  14  15
ATOM     15  O   UNL     1      -0.029   3.573  -7.195  1.00  0.00    -0.394 OA
ATOM     16  H   UNL     1       0.366   4.550  -7.152  1.00  0.00     0.210 HD
ENDBRANCH  14  15
ENDBRANCH   9  14
BRANCH  10  17
ATOM     17  O   UNL     1      -1.958   5.803  -6.335  1.00  0.00    -0.387 OA
ATOM     18  H   UNL     1      -2.455   6.499  -5.742  1.00  0.00     0.211 HD
ENDBRANCH  10  17
BRANCH  12  19
ATOM     19  O   UNL     1      -4.923   5.168  -6.891  1.00  0.00    -0.387 OA
ATOM     20  H   UNL     1      -5.892   4.856  -6.736  1.00  0.00     0.211 HD
ENDBRANCH  12  19
BRANCH  13  21
ATOM     21  O   UNL     1      -6.131   3.925  -4.959  1.00  0.00    -0.385 OA
ATOM     22  H   UNL     1      -6.592   3.110  -5.326  1.00  0.00     0.211 HD
ENDBRANCH  13  21
ENDBRANCH   7   8
ENDBRANCH   1   7
BRANCH   2  23
ATOM     23  C   UNL     1      -3.142   1.284  -9.253  1.00  0.00     0.191 C 
BRANCH  23  24
ATOM     24  O   UNL     1      -3.304   2.557  -8.705  1.00  0.00    -0.394 OA
ATOM     25  H   UNL     1      -4.222   2.734  -8.322  1.00  0.00     0.210 HD
ENDBRANCH  23  24
ENDBRANCH   2  23
BRANCH   6  26
ATOM     26  O   UNL     1      -6.622   0.037  -5.715  1.00  0.00    -0.387 OA
ATOM     27  H   UNL     1      -6.388  -0.102  -4.747  1.00  0.00     0.211 HD
ENDBRANCH   6  26
BRANCH   5  28
ATOM     28  O   UNL     1      -6.476  -1.004  -8.571  1.00  0.00    -0.385 OA
ATOM     29  H   UNL     1      -5.847  -0.925  -9.340  1.00  0.00     0.211 HD
ENDBRANCH   5  28
BRANCH   4  30
ATOM     30  O   UNL     1      -3.359  -2.684  -6.861  1.00  0.00    -0.341 OA
BRANCH  30  31
ATOM     31  C   UNL     1      -1.872  -2.430  -6.870  1.00  0.00     0.184 C 
ATOM     32  C   UNL     1      -0.537  -3.063  -7.688  1.00  0.00     0.178 C 
ATOM     33  C   UNL     1      -1.605  -0.887  -6.463  1.00  0.00     0.180 C 
ATOM     34  O   UNL     1       0.625  -2.286  -7.547  1.00  0.00    -0.342 OA
ATOM     35  C   UNL     1      -0.255  -0.234  -6.885  1.00  0.00     0.201 C 
ATOM     36  C   UNL     1       0.248  -1.018  -8.049  1.00  0.00     0.279 C 
BRANCH  32  37
ATOM     37  C   UNL     1      -0.621  -3.726  -9.158  1.00  0.00     0.191 C 
BRANCH  37  38
ATOM     38  O   UNL     1      -1.872  -3.304  -9.724  1.00  0.00    -0.394 OA
ATOM     39  H   UNL     1      -1.834  -3.513 -10.719  1.00  0.00     0.210 HD
ENDBRANCH  37  38
ENDBRANCH  32  37
BRANCH  33  40
ATOM     40  O   UNL     1      -1.614  -0.814  -5.034  1.00  0.00    -0.387 OA
ATOM     41  H   UNL     1      -0.759  -0.287  -4.806  1.00  0.00     0.211 HD
ENDBRANCH  33  40
BRANCH  35  42
ATOM     42  O   UNL     1       0.683  -0.343  -5.791  1.00  0.00    -0.385 OA
ATOM     43  H   UNL     1       0.159  -0.048  -4.948  1.00  0.00     0.211 HD
ENDBRANCH  35  42
BRANCH  36  44
ATOM     44  O   UNL     1      -0.534  -0.888  -9.177  1.00  0.00    -0.366 OA
ATOM     45  H   UNL     1      -0.094  -1.187 -10.021  1.00  0.00     0.213 HD
ENDBRANCH  36  44
ENDBRANCH  30  31
ENDBRANCH   4  30
TORSDOF 18
ENDMDL
MODEL 4
REMARK VINA RESULT:    -3.816      1.528      2.746
REMARK INTER + INTRA:          -9.308
REMARK INTER:                  -6.867
REMARK INTRA:                  -2.441
REMARK UNBOUND:                -2.703
REMARK SMILES OC[C@@H]1O[C@H](O[C@H]2[C@@H](O)[C@@H](O)[C@H](O[C@@H]3[C@@H](O)[C@@H](O)[C@H](O)O[C@@H]3CO)O[C@@H]2CO)[C@H](O)[C@H](O)[C@H]1O
REMARK SMILES IDX 7 1 26 2 25 3 12 4 10 5 8 6 6 7 5 8 3 9 33 10 4 11 31 12
REMARK SMILES IDX 29 13 2 14 1 15 34 17 32 19 30 21 27 23 28 24 9 26 11 28
REMARK SMILES IDX 13 30 14 31 22 32 15 33 21 34 17 35 19 36 23 37 24 38 16 40
REMARK SMILES IDX 18 42 20 44
REMARK H PARENT 1 16 34 18 32 20 30 22 28 25 9 27 11 29 24 39 16 41 18 43
REMARK H PARENT 20 45
REMARK Flexibility Score: inf
ROOT
ATOM      1  C   UNL     1      -2.847  -0.413  -7.946  1.00  0.00     0.184 C 
ATOM      2  C   UNL     1      -3.624  -1.021  -6.701  1.00  0.00     0.178 C 
ATOM      3  O   UNL     1      -3.948   0.003  -5.625  1.00  0.00    -0.341 OA
ATOM      4  C   UNL     1      -4.107   1.399  -6.160  1.00  0.00     0.282 C 
ATOM      5  C   UNL     1      -4.681   1.304  -7.641  1.00  0.00     0.202 C 
ATOM      6  C   UNL     1      -3.477   0.901  -8.502  1.00  0.00     0.180 C 
ENDROOT
BRANCH   1   7
ATOM      7  O   UNL     1      -2.280  -1.324  -8.872  1.00  0.00    -0.341 OA
BRANCH   7   8
ATOM      8  C   UNL     1      -0.964  -1.091  -9.386  1.00  0.00     0.282 C 
ATOM      9  C   UNL     1       0.692  -1.871  -7.805  1.00  0.00     0.178 C 
ATOM     10  C   UNL     1       0.016  -3.272  -8.040  1.00  0.00     0.177 C 
ATOM     11  O   UNL     1      -0.043  -0.772  -8.357  1.00  0.00    -0.341 OA
ATOM     12  C   UNL     1      -0.241  -3.580  -9.569  1.00  0.00     0.179 C 
ATOM     13  C   UNL     1      -0.377  -2.288 -10.356  1.00  0.00     0.202 C 
BRANCH   9  14
ATOM     14  C   UNL     1       1.099  -1.701  -6.266  1.00  0.00     0.191 C 
BRANCH  14  15
ATOM     15  O   UNL     1       0.755  -0.578  -5.514  1.00  0.00    -0.394 OA
ATOM     16  H   UNL     1       1.644  -0.344  -4.997  1.00  0.00     0.210 HD
ENDBRANCH  14  15
ENDBRANCH   9  14
BRANCH  10  17
ATOM     17  O   UNL     1       0.935  -4.322  -7.614  1.00  0.00    -0.387 OA
ATOM     18  H   UNL     1       1.773  -4.318  -8.230  1.00  0.00     0.211 HD
ENDBRANCH  10  17
BRANCH  12  19
ATOM     19  O   UNL     1      -1.402  -4.374  -9.624  1.00  0.00    -0.387 OA
ATOM     20  H   UNL     1      -2.055  -4.037 -10.345  1.00  0.00     0.211 HD
ENDBRANCH  12  19
BRANCH  13  21
ATOM     21  O   UNL     1      -1.222  -2.607 -11.517  1.00  0.00    -0.385 OA
ATOM     22  H   UNL     1      -0.923  -3.405 -12.052  1.00  0.00     0.211 HD
ENDBRANCH  13  21
ENDBRANCH   7   8
ENDBRANCH   1   7
BRANCH   2  23
ATOM     23  C   UNL     1      -3.185  -2.448  -6.292  1.00  0.00     0.191 C 
BRANCH  23  24
ATOM     24  O   UNL     1      -3.478  -3.391  -7.277  1.00  0.00    -0.394 OA
ATOM     25  H   UNL     1      -4.227  -4.026  -7.040  1.00  0.00     0.210 HD
ENDBRANCH  23  24
ENDBRANCH   2  23
BRANCH   6  26
ATOM     26  O   UNL     1      -3.807   1.161  -9.865  1.00  0.00    -0.387 OA
ATOM     27  H   UNL     1      -3.047   1.747 -10.166  1.00  0.00     0.211 HD
ENDBRANCH   6  26
BRANCH   5  28
ATOM     28  O   UNL     1      -5.793   0.389  -7.693  1.00  0.00    -0.385 OA
ATOM     29  H   UNL     1      -6.158   0.206  -6.784  1.00  0.00     0.211 HD
ENDBRANCH   5  28
BRANCH   4  30
ATOM     30  O   UNL     1      -2.914   2.139  -5.668  1.00  0.00    -0.341 OA
BRANCH  30  31
ATOM     31  C   UNL     1      -2.000   3.088  -6.402  1.00  0.00     0.184 C 
ATOM     32  C   UNL     1      -2.013   4.733  -6.786  1.00  0.00     0.178 C 
ATOM     33  C   UNL     1      -0.480   2.550  -6.275  1.00  0.00     0.180 C 
ATOM     34  O   UNL     1      -0.776   5.208  -7.252  1.00  0.00    -0.342 OA
ATOM     35  C   UNL     1       0.683   3.567  -6.477  1.00  0.00     0.201 C 
ATOM     36  C   UNL     1       0.119   4.917  -6.195  1.00  0.00     0.279 C 
BRANCH  32  37
ATOM     37  C   UNL     1      -2.772   5.852  -5.903  1.00  0.00     0.191 C 
BRANCH  37  38
ATOM     38  O   UNL     1      -3.637   5.141  -5.002  1.00  0.00    -0.394 OA
ATOM     39  H   UNL     1      -4.495   4.939  -5.510  1.00  0.00     0.210 HD
ENDBRANCH  37  38
ENDBRANCH  32  37
BRANCH  33  40
ATOM     40  O   UNL     1      -0.287   1.567  -7.297  1.00  0.00    -0.387 OA
ATOM     41  H   UNL     1       0.655   1.195  -7.110  1.00  0.00     0.211 HD
ENDBRANCH  33  40
BRANCH  35  42
ATOM     42  O   UNL     1       1.125   3.509  -7.852  1.00  0.00    -0.385 OA
ATOM     43  H   UNL     1       0.678   4.317  -8.321  1.00  0.00     0.211 HD
ENDBRANCH  35  42
BRANCH  36  44
ATOM     44  O   UNL     1      -0.235   5.099  -4.875  1.00  0.00    -0.366 OA
ATOM     45  H   UNL     1      -0.849   4.403  -4.513  1.00  0.00     0.213 HD
ENDBRANCH  36  44
ENDBRANCH  30  31
ENDBRANCH   4  30
TORSDOF 18
ENDMDL
MODEL 5
REMARK VINA RESULT:    -3.734      1.951      4.940
REMARK INTER + INTRA:          -9.166
REMARK INTER:                  -8.622
REMARK INTRA:                  -0.544
REMARK UNBOUND:                -2.703
REMARK SMILES OC[C@@H]1O[C@H](O[C@H]2[C@@H](O)[C@@H](O)[C@H](O[C@@H]3[C@@H](O)[C@@H](O)[C@H](O)O[C@@H]3CO)O[C@@H]2CO)[C@H](O)[C@H](O)[C@H]1O
REMARK SMILES IDX 7 1 26 2 25 3 12 4 10 5 8 6 6 7 5 8 3 9 33 10 4 11 31 12
REMARK SMILES IDX 29 13 2 14 1 15 34 17 32 19 30 21 27 23 28 24 9 26 11 28
REMARK SMILES IDX 13 30 14 31 22 32 15 33 21 34 17 35 19 36 23 37 24 38 16 40
REMARK SMILES IDX 18 42 20 44
REMARK H PARENT 1 16 34 18 32 20 30 22 28 25 9 27 11 29 24 39 16 41 18 43
REMARK H PARENT 20 45
REMARK Flexibility Score: inf
ROOT
ATOM      1  C   UNL     1      -0.061  -1.535  -7.738  1.00  0.00     0.184 C 
ATOM      2  C   UNL     1       0.403  -0.588  -6.550  1.00  0.00     0.178 C 
ATOM      3  O   UNL     1      -0.510  -0.640  -5.336  1.00  0.00    -0.341 OA
ATOM      4  C   UNL     1      -1.218  -1.957  -5.180  1.00  0.00     0.282 C 
ATOM      5  C   UNL     1      -0.279  -3.101  -5.762  1.00  0.00     0.202 C 
ATOM      6  C   UNL     1      -0.418  -2.984  -7.286  1.00  0.00     0.180 C 
ENDROOT
BRANCH   1   7
ATOM      7  O   UNL     1       0.571  -1.366  -8.995  1.00  0.00    -0.341 OA
BRANCH   7   8
ATOM      8  C   UNL     1       0.149  -0.315  -9.870  1.00  0.00     0.282 C 
ATOM      9  C   UNL     1       0.146  -1.095 -12.159  1.00  0.00     0.178 C 
ATOM     10  C   UNL     1      -0.919  -2.126 -11.633  1.00  0.00     0.177 C 
ATOM     11  O   UNL     1       0.813  -0.368 -11.121  1.00  0.00    -0.341 OA
ATOM     12  C   UNL     1      -2.025  -1.457 -10.723  1.00  0.00     0.179 C 
ATOM     13  C   UNL     1      -1.484  -0.196 -10.071  1.00  0.00     0.202 C 
BRANCH   9  14
ATOM     14  C   UNL     1       1.118  -1.793 -13.223  1.00  0.00     0.191 C 
BRANCH  14  15
ATOM     15  O   UNL     1       0.659  -2.332 -14.423  1.00  0.00    -0.394 OA
ATOM     16  H   UNL     1       1.453  -2.154 -15.094  1.00  0.00     0.210 HD
ENDBRANCH  14  15
ENDBRANCH   9  14
BRANCH  10  17
ATOM     17  O   UNL     1      -1.666  -2.661 -12.767  1.00  0.00    -0.387 OA
ATOM     18  H   UNL     1      -1.813  -3.682 -12.632  1.00  0.00     0.211 HD
ENDBRANCH  10  17
BRANCH  12  19
ATOM     19  O   UNL     1      -2.409  -2.432  -9.784  1.00  0.00    -0.387 OA
ATOM     20  H   UNL     1      -1.948  -3.334  -9.968  1.00  0.00     0.211 HD
ENDBRANCH  12  19
BRANCH  13  21
ATOM     21  O   UNL     1      -2.246  -0.025  -8.824  1.00  0.00    -0.385 OA
ATOM     22  H   UNL     1      -2.941  -0.732  -8.652  1.00  0.00     0.211 HD
ENDBRANCH  13  21
ENDBRANCH   7   8
ENDBRANCH   1   7
BRANCH   2  23
ATOM     23  C   UNL     1       1.009   0.766  -6.995  1.00  0.00     0.191 C 
BRANCH  23  24
ATOM     24  O   UNL     1       0.030   1.735  -7.213  1.00  0.00    -0.394 OA
ATOM     25  H   UNL     1      -0.444   2.047  -6.377  1.00  0.00     0.210 HD
ENDBRANCH  23  24
ENDBRANCH   2  23
BRANCH   6  26
ATOM     26  O   UNL     1       0.079  -4.189  -7.864  1.00  0.00    -0.387 OA
ATOM     27  H   UNL     1       0.702  -3.849  -8.577  1.00  0.00     0.211 HD
ENDBRANCH   6  26
BRANCH   5  28
ATOM     28  O   UNL     1       1.066  -2.952  -5.266  1.00  0.00    -0.385 OA
ATOM     29  H   UNL     1       1.736  -3.289  -5.922  1.00  0.00     0.211 HD
ENDBRANCH   5  28
BRANCH   4  30
ATOM     30  O   UNL     1      -2.643  -1.668  -5.497  1.00  0.00    -0.341 OA
BRANCH  30  31
ATOM     31  C   UNL     1      -3.271  -0.411  -6.045  1.00  0.00     0.184 C 
ATOM     32  C   UNL     1      -4.409  -0.043  -7.237  1.00  0.00     0.178 C 
ATOM     33  C   UNL     1      -3.292   0.711  -4.880  1.00  0.00     0.180 C 
ATOM     34  O   UNL     1      -4.874   1.282  -7.177  1.00  0.00    -0.342 OA
ATOM     35  C   UNL     1      -4.316   1.879  -4.996  1.00  0.00     0.201 C 
ATOM     36  C   UNL     1      -5.417   1.391  -5.874  1.00  0.00     0.279 C 
BRANCH  32  37
ATOM     37  C   UNL     1      -5.583  -1.053  -7.697  1.00  0.00     0.191 C 
BRANCH  37  38
ATOM     38  O   UNL     1      -5.258  -1.473  -9.032  1.00  0.00    -0.394 OA
ATOM     39  H   UNL     1      -4.370  -1.038  -9.273  1.00  0.00     0.210 HD
ENDBRANCH  37  38
ENDBRANCH  32  37
BRANCH  33  40
ATOM     40  O   UNL     1      -2.011   1.347  -4.875  1.00  0.00    -0.387 OA
ATOM     41  H   UNL     1      -1.577   1.040  -5.757  1.00  0.00     0.211 HD
ENDBRANCH  33  40
BRANCH  35  42
ATOM     42  O   UNL     1      -3.669   3.010  -5.621  1.00  0.00    -0.385 OA
ATOM     43  H   UNL     1      -4.130   3.119  -6.542  1.00  0.00     0.211 HD
ENDBRANCH  35  42
BRANCH  36  44
ATOM     44  O   UNL     1      -6.159   0.374  -5.311  1.00  0.00    -0.366 OA
ATOM     45  H   UNL     1      -7.143   0.533  -5.310  1.00  0.00     0.213 HD
ENDBRANCH  36  44
ENDBRANCH  30  31
ENDBRANCH   4  30
TORSDOF 18
ENDMDL
MODEL 6
REMARK VINA RESULT:    -3.687      1.469      3.485
REMARK INTER + INTRA:          -9.085
REMARK INTER:                  -7.509
REMARK INTRA:                  -1.576
REMARK UNBOUND:                -2.703
REMARK SMILES OC[C@@H]1O[C@H](O[C@H]2[C@@H](O)[C@@H](O)[C@H](O[C@@H]3[C@@H](O)[C@@H](O)[C@H](O)O[C@@H]3CO)O[C@@H]2CO)[C@H](O)[C@H](O)[C@H]1O
REMARK SMILES IDX 7 1 26 2 25 3 12 4 10 5 8 6 6 7 5 8 3 9 33 10 4 11 31 12
REMARK SMILES IDX 29 13 2 14 1 15 34 17 32 19 30 21 27 23 28 24 9 26 11 28
REMARK SMILES IDX 13 30 14 31 22 32 15 33 21 34 17 35 19 36 23 37 24 38 16 40
REMARK SMILES IDX 18 42 20 44
REMARK H PARENT 1 16 34 18 32 20 30 22 28 25 9 27 11 29 24 39 16 41 18 43
REMARK H PARENT 20 45
REMARK Flexibility Score: inf
ROOT
ATOM      1  C   UNL     1      -3.591  -1.507  -7.428  1.00  0.00     0.184 C 
ATOM      2  C   UNL     1      -3.985  -2.336  -6.132  1.00  0.00     0.178 C 
ATOM      3  O   UNL     1      -4.148  -1.479  -4.887  1.00  0.00    -0.341 OA
ATOM      4  C   UNL     1      -4.572  -0.069  -5.186  1.00  0.00     0.282 C 
ATOM      5  C   UNL     1      -5.468  -0.084  -6.501  1.00  0.00     0.202 C 
ATOM      6  C   UNL     1      -4.466  -0.236  -7.654  1.00  0.00     0.180 C 
ENDROOT
BRANCH   1   7
ATOM      7  O   UNL     1      -3.169  -2.236  -8.568  1.00  0.00    -0.341 OA
BRANCH   7   8
ATOM      8  C   UNL     1      -1.886  -2.871  -8.572  1.00  0.00     0.282 C 
ATOM      9  C   UNL     1      -0.831  -2.592 -10.731  1.00  0.00     0.178 C 
ATOM     10  C   UNL     1      -0.923  -1.058 -10.393  1.00  0.00     0.177 C 
ATOM     11  O   UNL     1      -1.576  -3.429  -9.838  1.00  0.00    -0.341 OA
ATOM     12  C   UNL     1      -0.462  -0.726  -8.918  1.00  0.00     0.179 C 
ATOM     13  C   UNL     1      -0.647  -1.934  -8.018  1.00  0.00     0.202 C 
BRANCH   9  14
ATOM     14  C   UNL     1      -1.126  -2.838 -12.285  1.00  0.00     0.191 C 
BRANCH  14  15
ATOM     15  O   UNL     1      -0.411  -2.200 -13.298  1.00  0.00    -0.394 OA
ATOM     16  H   UNL     1       0.168  -2.976 -13.718  1.00  0.00     0.210 HD
ENDBRANCH  14  15
ENDBRANCH   9  14
BRANCH  10  17
ATOM     17  O   UNL     1       0.017  -0.327 -11.236  1.00  0.00    -0.387 OA
ATOM     18  H   UNL     1      -0.302   0.658 -11.334  1.00  0.00     0.211 HD
ENDBRANCH  10  17
BRANCH  12  19
ATOM     19  O   UNL     1      -1.224   0.382  -8.504  1.00  0.00    -0.387 OA
ATOM     20  H   UNL     1      -0.922   0.723  -7.580  1.00  0.00     0.211 HD
ENDBRANCH  12  19
BRANCH  13  21
ATOM     21  O   UNL     1      -0.839  -1.404  -6.659  1.00  0.00    -0.385 OA
ATOM     22  H   UNL     1      -1.766  -1.519  -6.287  1.00  0.00     0.211 HD
ENDBRANCH  13  21
ENDBRANCH   7   8
ENDBRANCH   1   7
BRANCH   2  23
ATOM     23  C   UNL     1      -3.318  -3.729  -6.021  1.00  0.00     0.191 C 
BRANCH  23  24
ATOM     24  O   UNL     1      -4.234  -4.726  -5.687  1.00  0.00    -0.394 OA
ATOM     25  H   UNL     1      -5.071  -4.391  -5.231  1.00  0.00     0.210 HD
ENDBRANCH  23  24
ENDBRANCH   2  23
BRANCH   6  26
ATOM     26  O   UNL     1      -5.134   0.118  -8.863  1.00  0.00    -0.387 OA
ATOM     27  H   UNL     1      -4.972  -0.685  -9.446  1.00  0.00     0.211 HD
ENDBRANCH   6  26
BRANCH   5  28
ATOM     28  O   UNL     1      -6.461  -1.126  -6.423  1.00  0.00    -0.385 OA
ATOM     29  H   UNL     1      -6.059  -1.991  -6.131  1.00  0.00     0.211 HD
ENDBRANCH   5  28
BRANCH   4  30
ATOM     30  O   UNL     1      -3.379   0.766  -4.880  1.00  0.00    -0.341 OA
BRANCH  30  31
ATOM     31  C   UNL     1      -2.660   1.771  -5.745  1.00  0.00     0.184 C 
ATOM     32  C   UNL     1      -3.113   3.033  -6.771  1.00  0.00     0.178 C 
ATOM     33  C   UNL     1      -1.201   2.057  -5.107  1.00  0.00     0.180 C 
ATOM     34  O   UNL     1      -2.043   3.867  -7.138  1.00  0.00    -0.342 OA
ATOM     35  C   UNL     1      -0.481   3.387  -5.479  1.00  0.00     0.201 C 
ATOM     36  C   UNL     1      -1.545   4.342  -5.901  1.00  0.00     0.279 C 
BRANCH  32  37
ATOM     37  C   UNL     1      -4.479   3.877  -6.603  1.00  0.00     0.191 C 
BRANCH  37  38
ATOM     38  O   UNL     1      -5.056   3.471  -5.351  1.00  0.00    -0.394 OA
ATOM     39  H   UNL     1      -4.319   3.018  -4.817  1.00  0.00     0.210 HD
ENDBRANCH  37  38
ENDBRANCH  32  37
BRANCH  33  40
ATOM     40  O   UNL     1      -0.323   1.025  -5.567  1.00  0.00    -0.387 OA
ATOM     41  H   UNL     1      -0.891   0.498  -6.244  1.00  0.00     0.211 HD
ENDBRANCH  33  40
BRANCH  35  42
ATOM     42  O   UNL     1       0.414   3.144  -6.588  1.00  0.00    -0.385 OA
ATOM     43  H   UNL     1       1.080   2.423  -6.253  1.00  0.00     0.211 HD
ENDBRANCH  35  42
BRANCH  36  44
ATOM     44  O   UNL     1      -2.387   4.713  -4.875  1.00  0.00    -0.366 OA
ATOM     45  H   UNL     1      -1.933   4.857  -4.000  1.00  0.00     0.213 HD
ENDBRANCH  36  44
ENDBRANCH  30  31
ENDBRANCH   4  30
TORSDOF 18
ENDMDL
MODEL 7
REMARK VINA RESULT:    -3.687      2.011      4.586
REMARK INTER + INTRA:          -9.084
REMARK INTER:                  -7.688
REMARK INTRA:                  -1.395
REMARK UNBOUND:                -2.703
REMARK SMILES OC[C@@H]1O[C@H](O[C@H]2[C@@H](O)[C@@H](O)[C@H](O[C@@H]3[C@@H](O)[C@@H](O)[C@H](O)O[C@@H]3CO)O[C@@H]2CO)[C@H](O)[C@H](O)[C@H]1O
REMARK SMILES IDX 7 1 26 2 25 3 12 4 10 5 8 6 6 7 5 8 3 9 33 10 4 11 31 12
REMARK SMILES IDX 29 13 2 14 1 15 34 17 32 19 30 21 27 23 28 24 9 26 11 28
REMARK SMILES IDX 13 30 14 31 22 32 15 33 21 34 17 35 19 36 23 37 24 38 16 40
REMARK SMILES IDX 18 42 20 44
REMARK H PARENT 1 16 34 18 32 20 30 22 28 25 9 27 11 29 24 39 16 41 18 43
REMARK H PARENT 20 45
REMARK Flexibility Score: inf
ROOT
ATOM      1  C   UNL     1      -2.169  -1.103  -7.613  1.00  0.00     0.184 C 
ATOM      2  C   UNL     1      -1.460   0.149  -6.941  1.00  0.00     0.178 C 
ATOM      3  O   UNL     1      -2.074   0.556  -5.611  1.00  0.00    -0.341 OA
ATOM      4  C   UNL     1      -2.713  -0.588  -4.875  1.00  0.00     0.282 C 
ATOM      5  C   UNL     1      -1.916  -1.918  -5.230  1.00  0.00     0.202 C 
ATOM      6  C   UNL     1      -2.396  -2.298  -6.637  1.00  0.00     0.180 C 
ENDROOT
BRANCH   1   7
ATOM      7  O   UNL     1      -1.839  -1.397  -8.960  1.00  0.00    -0.341 OA
BRANCH   7   8
ATOM      8  C   UNL     1      -1.118  -2.593  -9.272  1.00  0.00     0.282 C 
ATOM      9  C   UNL     1      -0.657  -2.687 -11.645  1.00  0.00     0.178 C 
ATOM     10  C   UNL     1       0.144  -1.360 -11.374  1.00  0.00     0.177 C 
ATOM     11  O   UNL     1      -1.472  -3.108 -10.544  1.00  0.00    -0.341 OA
ATOM     12  C   UNL     1       1.067  -1.451 -10.093  1.00  0.00     0.179 C 
ATOM     13  C   UNL     1       0.520  -2.476  -9.116  1.00  0.00     0.202 C 
BRANCH   9  14
ATOM     14  C   UNL     1      -1.419  -2.600 -13.050  1.00  0.00     0.191 C 
BRANCH  14  15
ATOM     15  O   UNL     1      -0.748  -2.589 -14.272  1.00  0.00    -0.394 OA
ATOM     16  H   UNL     1      -1.314  -1.921 -14.859  1.00  0.00     0.210 HD
ENDBRANCH  14  15
ENDBRANCH   9  14
BRANCH  10  17
ATOM     17  O   UNL     1       1.077  -1.134 -12.472  1.00  0.00    -0.387 OA
ATOM     18  H   UNL     1       2.040  -1.034 -12.092  1.00  0.00     0.211 HD
ENDBRANCH  10  17
BRANCH  12  19
ATOM     19  O   UNL     1       1.118  -0.154  -9.549  1.00  0.00    -0.387 OA
ATOM     20  H   UNL     1       0.849  -0.152  -8.556  1.00  0.00     0.211 HD
ENDBRANCH  12  19
BRANCH  13  21
ATOM     21  O   UNL     1       0.981  -2.053  -7.784  1.00  0.00    -0.385 OA
ATOM     22  H   UNL     1       1.060  -1.058  -7.660  1.00  0.00     0.211 HD
ENDBRANCH  13  21
ENDBRANCH   7   8
ENDBRANCH   1   7
BRANCH   2  23
ATOM     23  C   UNL     1      -0.986   1.241  -7.932  1.00  0.00     0.191 C 
BRANCH  23  24
ATOM     24  O   UNL     1      -1.071   2.521  -7.385  1.00  0.00    -0.394 OA
ATOM     25  H   UNL     1      -1.966   2.972  -7.512  1.00  0.00     0.210 HD
ENDBRANCH  23  24
ENDBRANCH   2  23
BRANCH   6  26
ATOM     26  O   UNL     1      -2.029  -3.655  -6.873  1.00  0.00    -0.387 OA
ATOM     27  H   UNL     1      -2.618  -3.910  -7.647  1.00  0.00     0.211 HD
ENDBRANCH   6  26
BRANCH   5  28
ATOM     28  O   UNL     1      -0.495  -1.700  -5.117  1.00  0.00    -0.385 OA
ATOM     29  H   UNL     1      -0.261  -0.742  -5.258  1.00  0.00     0.211 HD
ENDBRANCH   5  28
BRANCH   4  30
ATOM     30  O   UNL     1      -4.176  -0.328  -4.953  1.00  0.00    -0.341 OA
BRANCH  30  31
ATOM     31  C   UNL     1      -4.930   0.689  -5.772  1.00  0.00     0.184 C 
ATOM     32  C   UNL     1      -6.042   0.641  -7.042  1.00  0.00     0.178 C 
ATOM     33  C   UNL     1      -5.154   2.017  -4.876  1.00  0.00     0.180 C 
ATOM     34  O   UNL     1      -6.675   1.873  -7.278  1.00  0.00    -0.342 OA
ATOM     35  C   UNL     1      -6.311   2.984  -5.264  1.00  0.00     0.201 C 
ATOM     36  C   UNL     1      -7.294   2.178  -6.043  1.00  0.00     0.279 C 
BRANCH  32  37
ATOM     37  C   UNL     1      -7.052  -0.592  -7.302  1.00  0.00     0.191 C 
BRANCH  37  38
ATOM     38  O   UNL     1      -6.346  -1.527  -8.134  1.00  0.00    -0.394 OA
ATOM     39  H   UNL     1      -6.128  -1.046  -9.003  1.00  0.00     0.210 HD
ENDBRANCH  37  38
ENDBRANCH  32  37
BRANCH  33  40
ATOM     40  O   UNL     1      -3.966   2.808  -4.978  1.00  0.00    -0.387 OA
ATOM     41  H   UNL     1      -4.153   3.618  -4.370  1.00  0.00     0.211 HD
ENDBRANCH  33  40
BRANCH  35  42
ATOM     42  O   UNL     1      -5.783   4.037  -6.101  1.00  0.00    -0.385 OA
ATOM     43  H   UNL     1      -6.090   3.806  -7.064  1.00  0.00     0.211 HD
ENDBRANCH  35  42
BRANCH  36  44
ATOM     44  O   UNL     1      -7.928   1.212  -5.292  1.00  0.00    -0.366 OA
ATOM     45  H   UNL     1      -7.738   0.276  -5.578  1.00  0.00     0.213 HD
ENDBRANCH  36  44
ENDBRANCH  30  31
ENDBRANCH   4  30
TORSDOF 18
ENDMDL
MODEL 8
REMARK VINA RESULT:    -3.533      2.196      7.055
REMARK INTER + INTRA:          -8.817
REMARK INTER:                  -5.943
REMARK INTRA:                  -2.875
REMARK UNBOUND:                -2.703
REMARK SMILES OC[C@@H]1O[C@H](O[C@H]2[C@@H](O)[C@@H](O)[C@H](O[C@@H]3[C@@H](O)[C@@H](O)[C@H](O)O[C@@H]3CO)O[C@@H]2CO)[C@H](O)[C@H](O)[C@H]1O
REMARK SMILES IDX 7 1 26 2 25 3 12 4 10 5 8 6 6 7 5 8 3 9 33 10 4 11 31 12
REMARK SMILES IDX 29 13 2 14 1 15 34 17 32 19 30 21 27 23 28 24 9 26 11 28
REMARK SMILES IDX 13 30 14 31 22 32 15 33 21 34 17 35 19 36 23 37 24 38 16 40
REMARK SMILES IDX 18 42 20 44
REMARK H PARENT 1 16 34 18 32 20 30 22 28 25 9 27 11 29 24 39 16 41 18 43
REMARK H PARENT 20 45
REMARK Flexibility Score: inf
ROOT
ATOM      1  C   UNL     1      -4.089   1.763  -6.494  1.00  0.00     0.184 C 
ATOM      2  C   UNL     1      -3.446   3.125  -5.988  1.00  0.00     0.178 C 
ATOM      3  O   UNL     1      -1.928   3.097  -5.927  1.00  0.00    -0.341 OA
ATOM      4  C   UNL     1      -1.309   2.153  -6.920  1.00  0.00     0.282 C 
ATOM      5  C   UNL     1      -2.249   2.090  -8.201  1.00  0.00     0.202 C 
ATOM      6  C   UNL     1      -3.422   1.192  -7.783  1.00  0.00     0.180 C 
ENDROOT
BRANCH   1   7
ATOM      7  O   UNL     1      -5.489   1.603  -6.342  1.00  0.00    -0.341 OA
BRANCH   7   8
ATOM      8  C   UNL     1      -6.003   0.490  -5.604  1.00  0.00     0.282 C 
ATOM      9  C   UNL     1      -8.419   0.589  -5.533  1.00  0.00     0.178 C 
ATOM     10  C   UNL     1      -8.304   0.481  -7.098  1.00  0.00     0.177 C 
ATOM     11  O   UNL     1      -7.170   0.832  -4.875  1.00  0.00    -0.341 OA
ATOM     12  C   UNL     1      -7.286  -0.635  -7.564  1.00  0.00     0.179 C 
ATOM     13  C   UNL     1      -6.240  -0.880  -6.492  1.00  0.00     0.202 C 
BRANCH   9  14
ATOM     14  C   UNL     1      -9.598   1.594  -5.129  1.00  0.00     0.191 C 
BRANCH  14  15
ATOM     15  O   UNL     1     -10.945   1.244  -5.203  1.00  0.00    -0.394 OA
ATOM     16  H   UNL     1     -11.192   1.001  -4.206  1.00  0.00     0.210 HD
ENDBRANCH  14  15
ENDBRANCH   9  14
BRANCH  10  17
ATOM     17  O   UNL     1      -9.587   0.044  -7.641  1.00  0.00    -0.387 OA
ATOM     18  H   UNL     1     -10.352   0.599  -7.207  1.00  0.00     0.211 HD
ENDBRANCH  10  17
BRANCH  12  19
ATOM     19  O   UNL     1      -6.728  -0.182  -8.774  1.00  0.00    -0.387 OA
ATOM     20  H   UNL     1      -6.612   0.841  -8.775  1.00  0.00     0.211 HD
ENDBRANCH  12  19
BRANCH  13  21
ATOM     21  O   UNL     1      -5.044  -1.369  -7.195  1.00  0.00    -0.385 OA
ATOM     22  H   UNL     1      -5.206  -2.144  -7.816  1.00  0.00     0.211 HD
ENDBRANCH  13  21
ENDBRANCH   7   8
ENDBRANCH   1   7
BRANCH   2  23
ATOM     23  C   UNL     1      -4.244   3.848  -4.875  1.00  0.00     0.191 C 
BRANCH  23  24
ATOM     24  O   UNL     1      -5.371   4.501  -5.375  1.00  0.00    -0.394 OA
ATOM     25  H   UNL     1      -5.521   4.377  -6.366  1.00  0.00     0.210 HD
ENDBRANCH  23  24
ENDBRANCH   2  23
BRANCH   6  26
ATOM     26  O   UNL     1      -4.101   0.779  -8.966  1.00  0.00    -0.387 OA
ATOM     27  H   UNL     1      -5.061   0.751  -8.668  1.00  0.00     0.211 HD
ENDBRANCH   6  26
BRANCH   5  28
ATOM     28  O   UNL     1      -2.626   3.418  -8.618  1.00  0.00    -0.385 OA
ATOM     29  H   UNL     1      -1.909   3.845  -9.164  1.00  0.00     0.211 HD
ENDBRANCH   5  28
BRANCH   4  30
ATOM     30  O   UNL     1      -0.769   1.033  -6.103  1.00  0.00    -0.341 OA
BRANCH  30  31
ATOM     31  C   UNL     1      -0.355  -0.354  -6.526  1.00  0.00     0.184 C 
ATOM     32  C   UNL     1      -0.572  -1.920  -5.933  1.00  0.00     0.178 C 
ATOM     33  C   UNL     1      -0.187  -0.378  -8.135  1.00  0.00     0.180 C 
ATOM     34  O   UNL     1      -0.222  -2.921  -6.855  1.00  0.00    -0.342 OA
ATOM     35  C   UNL     1      -0.277  -1.750  -8.867  1.00  0.00     0.201 C 
ATOM     36  C   UNL     1      -1.050  -2.657  -7.972  1.00  0.00     0.279 C 
BRANCH  32  37
ATOM     37  C   UNL     1      -1.838  -2.370  -5.037  1.00  0.00     0.191 C 
BRANCH  37  38
ATOM     38  O   UNL     1      -2.844  -1.359  -5.217  1.00  0.00    -0.394 OA
ATOM     39  H   UNL     1      -2.775  -0.727  -4.423  1.00  0.00     0.210 HD
ENDBRANCH  37  38
ENDBRANCH  32  37
BRANCH  33  40
ATOM     40  O   UNL     1       1.124   0.110  -8.436  1.00  0.00    -0.387 OA
ATOM     41  H   UNL     1       1.703  -0.232  -7.656  1.00  0.00     0.211 HD
ENDBRANCH  33  40
BRANCH  35  42
ATOM     42  O   UNL     1       1.057  -2.276  -9.048  1.00  0.00    -0.385 OA
ATOM     43  H   UNL     1       0.965  -3.303  -8.950  1.00  0.00     0.211 HD
ENDBRANCH  35  42
BRANCH  36  44
ATOM     44  O   UNL     1      -2.370  -2.289  -7.825  1.00  0.00    -0.366 OA
ATOM     45  H   UNL     1      -2.546  -1.682  -7.054  1.00  0.00     0.213 HD
ENDBRANCH  36  44
ENDBRANCH  30  31
ENDBRANCH   4  30
TORSDOF 18
ENDMDL
