MODEL 1
REMARK VINA RESULT:    -5.737      0.000      0.000
REMARK INTER + INTRA:          -7.121
REMARK INTER:                  -6.911
REMARK INTRA:                  -0.210
REMARK UNBOUND:                -0.210
REMARK SMILES C=CCc1ccc(O)c(OC)c1
REMARK SMILES IDX 9 1 7 2 6 3 5 4 4 5 12 6 10 7 11 8 8 9 3 11 2 12 1 13
REMARK H PARENT 8 10
REMARK Flexibility Score: inf
ROOT
ATOM      1  C   UNL     1      -0.060  44.790  -1.449  1.00  0.00     0.160 A 
ATOM      2  C   UNL     1      -1.272  44.910  -0.743  1.00  0.00     0.157 A 
ATOM      3  C   UNL     1      -1.265  44.970   0.654  1.00  0.00     0.050 A 
ATOM      4  C   UNL     1      -0.060  44.914   1.358  1.00  0.00     0.008 A 
ATOM      5  C   UNL     1       1.156  44.807   0.670  1.00  0.00    -0.040 A 
ATOM      6  C   UNL     1       1.151  44.736  -0.732  1.00  0.00     0.054 A 
ENDROOT
BRANCH   1   7
ATOM      7  O   UNL     1      -0.098  44.726  -2.852  1.00  0.00    -0.493 OA
ATOM      8  C   UNL     1       0.880  44.076  -3.657  1.00  0.00     0.278 C 
ENDBRANCH   1   7
BRANCH   2   9
ATOM      9  O   UNL     1      -2.494  44.967  -1.412  1.00  0.00    -0.504 OA
ATOM     10  H   UNL     1      -3.015  45.830  -1.510  1.00  0.00     0.293 HD
ENDBRANCH   2   9
BRANCH   5  11
ATOM     11  C   UNL     1       2.454  44.718   1.428  1.00  0.00     0.062 C 
BRANCH  11  12
ATOM     12  C   UNL     1       2.387  45.525   2.695  1.00  0.00    -0.030 C 
ATOM     13  C   UNL     1       3.108  45.201   3.772  1.00  0.00     0.004 C 
ENDBRANCH  11  12
ENDBRANCH   5  11
TORSDOF 4
ENDMDL
MODEL 2
REMARK VINA RESULT:    -5.722      2.015      4.054
REMARK INTER + INTRA:          -7.102
REMARK INTER:                  -6.893
REMARK INTRA:                  -0.210
REMARK UNBOUND:                -0.210
REMARK SMILES C=CCc1ccc(O)c(OC)c1
REMARK SMILES IDX 9 1 7 2 6 3 5 4 4 5 12 6 10 7 11 8 8 9 3 11 2 12 1 13
REMARK H PARENT 8 10
REMARK Flexibility Score: inf
ROOT
ATOM      1  C   UNL     1       0.441  44.529   0.195  1.00  0.00     0.160 A 
ATOM      2  C   UNL     1       0.266  44.848  -1.165  1.00  0.00     0.157 A 
ATOM      3  C   UNL     1      -1.004  45.170  -1.650  1.00  0.00     0.050 A 
ATOM      4  C   UNL     1      -2.107  45.181  -0.794  1.00  0.00     0.008 A 
ATOM      5  C   UNL     1      -1.949  44.877   0.565  1.00  0.00    -0.040 A 
ATOM      6  C   UNL     1      -0.676  44.543   1.053  1.00  0.00     0.054 A 
ENDROOT
BRANCH   1   7
ATOM      7  O   UNL     1       1.729  44.204   0.653  1.00  0.00    -0.493 OA
ATOM      8  C   UNL     1       2.457  44.960   1.616  1.00  0.00     0.278 C 
ENDBRANCH   1   7
BRANCH   2   9
ATOM      9  O   UNL     1       1.344  44.847  -2.051  1.00  0.00    -0.504 OA
ATOM     10  H   UNL     1       2.304  44.883  -1.731  1.00  0.00     0.293 HD
ENDBRANCH   2   9
BRANCH   5  11
ATOM     11  C   UNL     1      -3.141  44.860   1.485  1.00  0.00     0.062 C 
BRANCH  11  12
ATOM     12  C   UNL     1      -2.794  44.211   2.796  1.00  0.00    -0.030 C 
ATOM     13  C   UNL     1      -3.123  44.770   3.964  1.00  0.00     0.004 C 
ENDBRANCH  11  12
ENDBRANCH   5  11
TORSDOF 4
ENDMDL
MODEL 3
REMARK VINA RESULT:    -5.705      3.623      5.338
REMARK INTER + INTRA:          -7.082
REMARK INTER:                  -6.876
REMARK INTRA:                  -0.206
REMARK UNBOUND:                -0.210
REMARK SMILES C=CCc1ccc(O)c(OC)c1
REMARK SMILES IDX 9 1 7 2 6 3 5 4 4 5 12 6 10 7 11 8 8 9 3 11 2 12 1 13
REMARK H PARENT 8 10
REMARK Flexibility Score: inf
ROOT
ATOM      1  C   UNL     1      -2.482  45.388   4.299  1.00  0.00     0.160 A 
ATOM      2  C   UNL     1      -2.924  45.192   2.978  1.00  0.00     0.157 A 
ATOM      3  C   UNL     1      -2.043  45.382   1.909  1.00  0.00     0.050 A 
ATOM      4  C   UNL     1      -0.721  45.766   2.142  1.00  0.00     0.008 A 
ATOM      5  C   UNL     1      -0.261  45.955   3.452  1.00  0.00    -0.040 A 
ATOM      6  C   UNL     1      -1.146  45.773   4.527  1.00  0.00     0.054 A 
ENDROOT
BRANCH   1   7
ATOM      7  O   UNL     1      -3.390  45.195   5.353  1.00  0.00    -0.493 OA
ATOM      8  C   UNL     1      -3.431  45.983   6.538  1.00  0.00     0.278 C 
ENDBRANCH   1   7
BRANCH   2   9
ATOM      9  O   UNL     1      -4.238  44.809   2.706  1.00  0.00    -0.504 OA
ATOM     10  H   UNL     1      -4.459  43.959   2.202  1.00  0.00     0.293 HD
ENDBRANCH   2   9
BRANCH   5  11
ATOM     11  C   UNL     1       1.157  46.395   3.705  1.00  0.00     0.062 C 
BRANCH  11  12
ATOM     12  C   UNL     1       2.116  45.630   2.835  1.00  0.00    -0.030 C 
ATOM     13  C   UNL     1       3.317  46.119   2.517  1.00  0.00     0.004 C 
ENDBRANCH  11  12
ENDBRANCH   5  11
TORSDOF 4
ENDMDL
MODEL 4
REMARK VINA RESULT:    -5.654      3.415      5.537
REMARK INTER + INTRA:          -7.021
REMARK INTER:                  -6.818
REMARK INTRA:                  -0.202
REMARK UNBOUND:                -0.210
REMARK SMILES C=CCc1ccc(O)c(OC)c1
REMARK SMILES IDX 9 1 7 2 6 3 5 4 4 5 12 6 10 7 11 8 8 9 3 11 2 12 1 13
REMARK H PARENT 8 10
REMARK Flexibility Score: inf
ROOT
ATOM      1  C   UNL     1      -0.933  45.953   3.364  1.00  0.00     0.160 A 
ATOM      2  C   UNL     1      -1.880  45.552   4.326  1.00  0.00     0.157 A 
ATOM      3  C   UNL     1      -3.063  44.926   3.923  1.00  0.00     0.050 A 
ATOM      4  C   UNL     1      -3.315  44.691   2.570  1.00  0.00     0.008 A 
ATOM      5  C   UNL     1      -2.378  45.074   1.601  1.00  0.00    -0.040 A 
ATOM      6  C   UNL     1      -1.193  45.712   2.001  1.00  0.00     0.054 A 
ENDROOT
BRANCH   1   7
ATOM      7  O   UNL     1       0.245  46.585   3.797  1.00  0.00    -0.493 OA
ATOM      8  C   UNL     1       1.560  46.148   3.473  1.00  0.00     0.278 C 
ENDBRANCH   1   7
BRANCH   2   9
ATOM      9  O   UNL     1      -1.663  45.770   5.686  1.00  0.00    -0.504 OA
ATOM     10  H   UNL     1      -2.092  45.193   6.400  1.00  0.00     0.293 HD
ENDBRANCH   2   9
BRANCH   5  11
ATOM     11  C   UNL     1      -2.660  44.848   0.139  1.00  0.00     0.062 C 
BRANCH  11  12
ATOM     12  C   UNL     1      -1.785  45.724  -0.715  1.00  0.00    -0.030 C 
ATOM     13  C   UNL     1      -1.260  45.285  -1.863  1.00  0.00     0.004 C 
ENDBRANCH  11  12
ENDBRANCH   5  11
TORSDOF 4
ENDMDL
MODEL 5
REMARK VINA RESULT:    -5.568      2.299      4.007
REMARK INTER + INTRA:          -6.917
REMARK INTER:                  -6.715
REMARK INTRA:                  -0.202
REMARK UNBOUND:                -0.210
REMARK SMILES C=CCc1ccc(O)c(OC)c1
REMARK SMILES IDX 9 1 7 2 6 3 5 4 4 5 12 6 10 7 11 8 8 9 3 11 2 12 1 13
REMARK H PARENT 8 10
REMARK Flexibility Score: inf
ROOT
ATOM      1  C   UNL     1      -0.314  45.543   2.474  1.00  0.00     0.160 A 
ATOM      2  C   UNL     1      -0.302  44.807   1.274  1.00  0.00     0.157 A 
ATOM      3  C   UNL     1       0.914  44.463   0.676  1.00  0.00     0.050 A 
ATOM      4  C   UNL     1       2.123  44.842   1.262  1.00  0.00     0.008 A 
ATOM      5  C   UNL     1       2.130  45.565   2.463  1.00  0.00    -0.040 A 
ATOM      6  C   UNL     1       0.910  45.920   3.061  1.00  0.00     0.054 A 
ENDROOT
BRANCH   1   7
ATOM      7  O   UNL     1      -1.550  45.879   3.050  1.00  0.00    -0.493 OA
ATOM      8  C   UNL     1      -1.923  45.579   4.391  1.00  0.00     0.278 C 
ENDBRANCH   1   7
BRANCH   2   9
ATOM      9  O   UNL     1      -1.490  44.411   0.660  1.00  0.00    -0.504 OA
ATOM     10  H   UNL     1      -2.266  45.048   0.526  1.00  0.00     0.293 HD
ENDBRANCH   2   9
BRANCH   5  11
ATOM     11  C   UNL     1       3.432  46.000   3.082  1.00  0.00     0.062 C 
BRANCH  11  12
ATOM     12  C   UNL     1       4.216  46.857   2.128  1.00  0.00    -0.030 C 
ATOM     13  C   UNL     1       5.419  47.343   2.449  1.00  0.00     0.004 C 
ENDBRANCH  11  12
ENDBRANCH   5  11
TORSDOF 4
ENDMDL
MODEL 6
REMARK VINA RESULT:    -5.546      2.021      2.883
REMARK INTER + INTRA:          -6.890
REMARK INTER:                  -6.706
REMARK INTRA:                  -0.184
REMARK UNBOUND:                -0.210
REMARK SMILES C=CCc1ccc(O)c(OC)c1
REMARK SMILES IDX 9 1 7 2 6 3 5 4 4 5 12 6 10 7 11 8 8 9 3 11 2 12 1 13
REMARK H PARENT 8 10
REMARK Flexibility Score: inf
ROOT
ATOM      1  C   UNL     1      -0.057  45.062   1.403  1.00  0.00     0.160 A 
ATOM      2  C   UNL     1      -0.895  45.659   2.363  1.00  0.00     0.157 A 
ATOM      3  C   UNL     1      -0.343  46.244   3.506  1.00  0.00     0.050 A 
ATOM      4  C   UNL     1       1.039  46.243   3.705  1.00  0.00     0.008 A 
ATOM      5  C   UNL     1       1.889  45.662   2.753  1.00  0.00    -0.040 A 
ATOM      6  C   UNL     1       1.337  45.066   1.609  1.00  0.00     0.054 A 
ENDROOT
BRANCH   1   7
ATOM      7  O   UNL     1      -0.640  44.477   0.266  1.00  0.00    -0.493 OA
ATOM      8  C   UNL     1      -0.298  44.808  -1.076  1.00  0.00     0.278 C 
ENDBRANCH   1   7
BRANCH   2   9
ATOM      9  O   UNL     1      -2.280  45.679   2.200  1.00  0.00    -0.504 OA
ATOM     10  H   UNL     1      -2.715  45.898   1.312  1.00  0.00     0.293 HD
ENDBRANCH   2   9
BRANCH   5  11
ATOM     11  C   UNL     1       3.377  45.635   2.978  1.00  0.00     0.062 C 
BRANCH  11  12
ATOM     12  C   UNL     1       4.044  46.786   2.277  1.00  0.00    -0.030 C 
ATOM     13  C   UNL     1       5.251  47.226   2.643  1.00  0.00     0.004 C 
ENDBRANCH  11  12
ENDBRANCH   5  11
TORSDOF 4
ENDMDL
MODEL 7
REMARK VINA RESULT:    -5.419      2.130      3.124
REMARK INTER + INTRA:          -6.738
REMARK INTER:                  -6.529
REMARK INTRA:                  -0.209
REMARK UNBOUND:                -0.210
REMARK SMILES C=CCc1ccc(O)c(OC)c1
REMARK SMILES IDX 9 1 7 2 6 3 5 4 4 5 12 6 10 7 11 8 8 9 3 11 2 12 1 13
REMARK H PARENT 8 10
REMARK Flexibility Score: inf
ROOT
ATOM      1  C   UNL     1      -1.605  45.006   1.528  1.00  0.00     0.160 A 
ATOM      2  C   UNL     1      -2.649  44.910   2.468  1.00  0.00     0.157 A 
ATOM      3  C   UNL     1      -2.431  45.287   3.796  1.00  0.00     0.050 A 
ATOM      4  C   UNL     1      -1.183  45.763   4.201  1.00  0.00     0.008 A 
ATOM      5  C   UNL     1      -0.136  45.876   3.276  1.00  0.00    -0.040 A 
ATOM      6  C   UNL     1      -0.349  45.489   1.944  1.00  0.00     0.054 A 
ENDROOT
BRANCH   1   7
ATOM      7  O   UNL     1      -1.851  44.615   0.201  1.00  0.00    -0.493 OA
ATOM      8  C   UNL     1      -1.690  45.462  -0.932  1.00  0.00     0.278 C 
ENDBRANCH   1   7
BRANCH   2   9
ATOM      9  O   UNL     1      -3.909  44.438   2.100  1.00  0.00    -0.504 OA
ATOM     10  H   UNL     1      -4.231  44.453   1.140  1.00  0.00     0.293 HD
ENDBRANCH   2   9
BRANCH   5  11
ATOM     11  C   UNL     1       1.219  46.362   3.716  1.00  0.00     0.062 C 
BRANCH  11  12
ATOM     12  C   UNL     1       2.309  45.689   2.929  1.00  0.00    -0.030 C 
ATOM     13  C   UNL     1       3.363  45.126   3.529  1.00  0.00     0.004 C 
ENDBRANCH  11  12
ENDBRANCH   5  11
TORSDOF 4
ENDMDL
MODEL 8
REMARK VINA RESULT:    -5.390      7.070      8.513
REMARK INTER + INTRA:          -6.703
REMARK INTER:                  -6.516
REMARK INTRA:                  -0.187
REMARK UNBOUND:                -0.210
REMARK SMILES C=CCc1ccc(O)c(OC)c1
REMARK SMILES IDX 9 1 7 2 6 3 5 4 4 5 12 6 10 7 11 8 8 9 3 11 2 12 1 13
REMARK H PARENT 8 10
REMARK Flexibility Score: inf
ROOT
ATOM      1  C   UNL     1       6.488  45.989  -5.009  1.00  0.00     0.160 A 
ATOM      2  C   UNL     1       7.424  45.473  -5.925  1.00  0.00     0.157 A 
ATOM      3  C   UNL     1       8.791  45.539  -5.642  1.00  0.00     0.050 A 
ATOM      4  C   UNL     1       9.240  46.114  -4.451  1.00  0.00     0.008 A 
ATOM      5  C   UNL     1       8.321  46.623  -3.522  1.00  0.00    -0.040 A 
ATOM      6  C   UNL     1       6.948  46.566  -3.808  1.00  0.00     0.054 A 
ENDROOT
BRANCH   1   7
ATOM      7  O   UNL     1       5.121  45.914  -5.322  1.00  0.00    -0.493 OA
ATOM      8  C   UNL     1       4.291  44.790  -5.045  1.00  0.00     0.278 C 
ENDBRANCH   1   7
BRANCH   2   9
ATOM      9  O   UNL     1       7.013  44.892  -7.125  1.00  0.00    -0.504 OA
ATOM     10  H   UNL     1       6.293  44.181  -7.161  1.00  0.00     0.293 HD
ENDBRANCH   2   9
BRANCH   5  11
ATOM     11  C   UNL     1       8.804  47.268  -2.250  1.00  0.00     0.062 C 
BRANCH  11  12
ATOM     12  C   UNL     1       7.696  48.043  -1.592  1.00  0.00    -0.030 C 
ATOM     13  C   UNL     1       7.497  47.998  -0.271  1.00  0.00     0.004 C 
ENDBRANCH  11  12
ENDBRANCH   5  11
TORSDOF 4
ENDMDL
MODEL 9
REMARK VINA RESULT:    -5.385      2.641      4.219
REMARK INTER + INTRA:          -6.697
REMARK INTER:                  -6.531
REMARK INTRA:                  -0.166
REMARK UNBOUND:                -0.210
REMARK SMILES C=CCc1ccc(O)c(OC)c1
REMARK SMILES IDX 9 1 7 2 6 3 5 4 4 5 12 6 10 7 11 8 8 9 3 11 2 12 1 13
REMARK H PARENT 8 10
REMARK Flexibility Score: inf
ROOT
ATOM      1  C   UNL     1      -2.670  44.411   2.006  1.00  0.00     0.160 A 
ATOM      2  C   UNL     1      -3.546  45.081   1.131  1.00  0.00     0.157 A 
ATOM      3  C   UNL     1      -3.073  45.577  -0.088  1.00  0.00     0.050 A 
ATOM      4  C   UNL     1      -1.735  45.411  -0.448  1.00  0.00     0.008 A 
ATOM      5  C   UNL     1      -0.852  44.737   0.407  1.00  0.00    -0.040 A 
ATOM      6  C   UNL     1      -1.321  44.246   1.635  1.00  0.00     0.054 A 
ENDROOT
BRANCH   1   7
ATOM      7  O   UNL     1      -3.172  43.928   3.226  1.00  0.00    -0.493 OA
ATOM      8  C   UNL     1      -3.359  44.723   4.393  1.00  0.00     0.278 C 
ENDBRANCH   1   7
BRANCH   2   9
ATOM      9  O   UNL     1      -4.889  45.266   1.456  1.00  0.00    -0.504 OA
ATOM     10  H   UNL     1      -5.593  45.458   0.754  1.00  0.00     0.293 HD
ENDBRANCH   2   9
BRANCH   5  11
ATOM     11  C   UNL     1       0.599  44.581   0.034  1.00  0.00     0.062 C 
BRANCH  11  12
ATOM     12  C   UNL     1       1.449  44.404   1.261  1.00  0.00    -0.030 C 
ATOM     13  C   UNL     1       2.502  45.189   1.504  1.00  0.00     0.004 C 
ENDBRANCH  11  12
ENDBRANCH   5  11
TORSDOF 4
ENDMDL
