MODEL 1
REMARK VINA RESULT:    -4.079      0.000      0.000
REMARK INTER + INTRA:          -5.309
REMARK INTER:                  -5.032
REMARK INTRA:                  -0.276
REMARK UNBOUND:                -0.276
REMARK SMILES CCCCC=CC(C)=O
REMARK SMILES IDX 4 1 3 2 2 3 1 4 5 5 6 6 7 7 9 8 8 9
REMARK H PARENT
REMARK Flexibility Score: inf
ROOT
ATOM      1  C   UNL     1       4.210   4.141  11.405  1.00  0.00     0.027 C 
ENDROOT
BRANCH   1   2
ATOM      2  C   UNL     1       3.887   5.637  11.274  1.00  0.00     0.004 C 
BRANCH   2   3
ATOM      3  C   UNL     1       2.715   5.894  10.317  1.00  0.00    -0.003 C 
ATOM      4  C   UNL     1       1.542   4.967  10.624  1.00  0.00     0.004 C 
ENDBRANCH   2   3
ENDBRANCH   1   2
BRANCH   1   5
ATOM      5  C   UNL     1       4.422   3.724  12.833  1.00  0.00    -0.023 C 
ATOM      6  C   UNL     1       3.435   3.779  13.734  1.00  0.00     0.042 C 
BRANCH   6   7
ATOM      7  C   UNL     1       3.622   3.369  15.138  1.00  0.00     0.152 C 
ATOM      8  O   UNL     1       3.234   4.108  16.083  1.00  0.00    -0.295 OA
ATOM      9  C   UNL     1       4.276   2.060  15.445  1.00  0.00     0.093 C 
ENDBRANCH   6   7
ENDBRANCH   1   5
TORSDOF 4
ENDMDL
MODEL 2
REMARK VINA RESULT:    -4.006      1.194      1.466
REMARK INTER + INTRA:          -5.220
REMARK INTER:                  -4.977
REMARK INTRA:                  -0.243
REMARK UNBOUND:                -0.276
REMARK SMILES CCCCC=CC(C)=O
REMARK SMILES IDX 4 1 3 2 2 3 1 4 5 5 6 6 7 7 9 8 8 9
REMARK H PARENT
REMARK Flexibility Score: inf
ROOT
ATOM      1  C   UNL     1       4.482   3.532  11.777  1.00  0.00     0.027 C 
ENDROOT
BRANCH   1   2
ATOM      2  C   UNL     1       4.653   5.058  11.829  1.00  0.00     0.004 C 
BRANCH   2   3
ATOM      3  C   UNL     1       3.550   5.790  11.052  1.00  0.00    -0.003 C 
ATOM      4  C   UNL     1       3.029   4.935   9.901  1.00  0.00     0.004 C 
ENDBRANCH   2   3
ENDBRANCH   1   2
BRANCH   1   5
ATOM      5  C   UNL     1       4.054   2.958  13.098  1.00  0.00    -0.023 C 
ATOM      6  C   UNL     1       3.852   3.735  14.167  1.00  0.00     0.042 C 
BRANCH   6   7
ATOM      7  C   UNL     1       3.427   3.191  15.470  1.00  0.00     0.152 C 
ATOM      8  O   UNL     1       3.595   1.972  15.747  1.00  0.00    -0.295 OA
ATOM      9  C   UNL     1       2.792   4.095  16.477  1.00  0.00     0.093 C 
ENDBRANCH   6   7
ENDBRANCH   1   5
TORSDOF 4
ENDMDL
MODEL 3
REMARK VINA RESULT:    -3.974      2.658      5.202
REMARK INTER + INTRA:          -5.180
REMARK INTER:                  -5.083
REMARK INTRA:                  -0.097
REMARK UNBOUND:                -0.276
REMARK SMILES CCCCC=CC(C)=O
REMARK SMILES IDX 4 1 3 2 2 3 1 4 5 5 6 6 7 7 9 8 8 9
REMARK H PARENT
REMARK Flexibility Score: inf
ROOT
ATOM      1  C   UNL     1       2.949   3.342  15.900  1.00  0.00     0.027 C 
ENDROOT
BRANCH   1   2
ATOM      2  C   UNL     1       2.778   4.626  16.725  1.00  0.00     0.004 C 
BRANCH   2   3
ATOM      3  C   UNL     1       1.835   4.424  17.920  1.00  0.00    -0.003 C 
ATOM      4  C   UNL     1       1.977   5.558  18.931  1.00  0.00     0.004 C 
ENDBRANCH   2   3
ENDBRANCH   1   2
BRANCH   1   5
ATOM      5  C   UNL     1       3.890   3.526  14.743  1.00  0.00    -0.023 C 
ATOM      6  C   UNL     1       3.444   3.820  13.517  1.00  0.00     0.042 C 
BRANCH   6   7
ATOM      7  C   UNL     1       4.352   4.010  12.371  1.00  0.00     0.152 C 
ATOM      8  O   UNL     1       4.897   3.021  11.808  1.00  0.00    -0.295 OA
ATOM      9  C   UNL     1       4.628   5.390  11.866  1.00  0.00     0.093 C 
ENDBRANCH   6   7
ENDBRANCH   1   5
TORSDOF 4
ENDMDL
MODEL 4
REMARK VINA RESULT:    -3.924     14.840     15.815
REMARK INTER + INTRA:          -5.118
REMARK INTER:                  -4.889
REMARK INTRA:                  -0.229
REMARK UNBOUND:                -0.276
REMARK SMILES CCCCC=CC(C)=O
REMARK SMILES IDX 4 1 3 2 2 3 1 4 5 5 6 6 7 7 9 8 8 9
REMARK H PARENT
REMARK Flexibility Score: inf
ROOT
ATOM      1  C   UNL     1      -3.069  -6.980   2.430  1.00  0.00     0.027 C 
ENDROOT
BRANCH   1   2
ATOM      2  C   UNL     1      -3.033  -8.491   2.705  1.00  0.00     0.004 C 
BRANCH   2   3
ATOM      3  C   UNL     1      -4.325  -8.989   3.367  1.00  0.00    -0.003 C 
ATOM      4  C   UNL     1      -5.552  -8.329   2.745  1.00  0.00     0.004 C 
ENDBRANCH   2   3
ENDBRANCH   1   2
BRANCH   1   5
ATOM      5  C   UNL     1      -2.115  -6.216   3.303  1.00  0.00    -0.023 C 
ATOM      6  C   UNL     1      -1.355  -6.830   4.216  1.00  0.00     0.042 C 
BRANCH   6   7
ATOM      7  C   UNL     1      -0.409  -6.098   5.078  1.00  0.00     0.152 C 
ATOM      8  O   UNL     1       0.201  -5.081   4.649  1.00  0.00    -0.295 OA
ATOM      9  C   UNL     1      -0.172  -6.564   6.479  1.00  0.00     0.093 C 
ENDBRANCH   6   7
ENDBRANCH   1   5
TORSDOF 4
ENDMDL
MODEL 5
REMARK VINA RESULT:    -3.891     16.137     17.157
REMARK INTER + INTRA:          -5.077
REMARK INTER:                  -4.810
REMARK INTRA:                  -0.267
REMARK UNBOUND:                -0.276
REMARK SMILES CCCCC=CC(C)=O
REMARK SMILES IDX 4 1 3 2 2 3 1 4 5 5 6 6 7 7 9 8 8 9
REMARK H PARENT
REMARK Flexibility Score: inf
ROOT
ATOM      1  C   UNL     1      -8.604  -8.258  14.659  1.00  0.00     0.027 C 
ENDROOT
BRANCH   1   2
ATOM      2  C   UNL     1     -10.116  -8.026  14.796  1.00  0.00     0.004 C 
BRANCH   2   3
ATOM      3  C   UNL     1     -10.933  -9.070  14.021  1.00  0.00    -0.003 C 
ATOM      4  C   UNL     1     -10.024 -10.125  13.396  1.00  0.00     0.004 C 
ENDBRANCH   2   3
ENDBRANCH   1   2
BRANCH   1   5
ATOM      5  C   UNL     1      -7.904  -7.099  14.006  1.00  0.00    -0.023 C 
ATOM      6  C   UNL     1      -8.503  -6.356  13.069  1.00  0.00     0.042 C 
BRANCH   6   7
ATOM      7  C   UNL     1      -7.835  -5.213  12.421  1.00  0.00     0.152 C 
ATOM      8  O   UNL     1      -7.862  -4.067  12.947  1.00  0.00    -0.295 OA
ATOM      9  C   UNL     1      -7.112  -5.414  11.128  1.00  0.00     0.093 C 
ENDBRANCH   6   7
ENDBRANCH   1   5
TORSDOF 4
ENDMDL
MODEL 6
REMARK VINA RESULT:    -3.837     16.128     17.145
REMARK INTER + INTRA:          -5.010
REMARK INTER:                  -4.729
REMARK INTRA:                  -0.282
REMARK UNBOUND:                -0.276
REMARK SMILES CCCCC=CC(C)=O
REMARK SMILES IDX 4 1 3 2 2 3 1 4 5 5 6 6 7 7 9 8 8 9
REMARK H PARENT
REMARK Flexibility Score: inf
ROOT
ATOM      1  C   UNL     1      -8.413  -8.441  14.789  1.00  0.00     0.027 C 
ENDROOT
BRANCH   1   2
ATOM      2  C   UNL     1      -8.243  -9.741  13.988  1.00  0.00     0.004 C 
BRANCH   2   3
ATOM      3  C   UNL     1      -9.463 -10.038  13.104  1.00  0.00    -0.003 C 
ATOM      4  C   UNL     1     -10.757  -9.620  13.796  1.00  0.00     0.004 C 
ENDBRANCH   2   3
ENDBRANCH   1   2
BRANCH   1   5
ATOM      5  C   UNL     1      -7.850  -7.247  14.071  1.00  0.00    -0.023 C 
ATOM      6  C   UNL     1      -8.641  -6.285  13.584  1.00  0.00     0.042 C 
BRANCH   6   7
ATOM      7  C   UNL     1      -8.107  -5.104  12.882  1.00  0.00     0.152 C 
ATOM      8  O   UNL     1      -8.443  -3.939  13.231  1.00  0.00    -0.295 OA
ATOM      9  C   UNL     1      -7.153  -5.287  11.745  1.00  0.00     0.093 C 
ENDBRANCH   6   7
ENDBRANCH   1   5
TORSDOF 4
ENDMDL
MODEL 7
REMARK VINA RESULT:    -3.827      2.327      5.028
REMARK INTER + INTRA:          -4.999
REMARK INTER:                  -4.822
REMARK INTRA:                  -0.176
REMARK UNBOUND:                -0.276
REMARK SMILES CCCCC=CC(C)=O
REMARK SMILES IDX 4 1 3 2 2 3 1 4 5 5 6 6 7 7 9 8 8 9
REMARK H PARENT
REMARK Flexibility Score: inf
ROOT
ATOM      1  C   UNL     1       4.032   3.495  14.363  1.00  0.00     0.027 C 
ENDROOT
BRANCH   1   2
ATOM      2  C   UNL     1       3.276   3.919  15.631  1.00  0.00     0.004 C 
BRANCH   2   3
ATOM      3  C   UNL     1       2.493   2.754  16.254  1.00  0.00    -0.003 C 
ATOM      4  C   UNL     1       3.198   1.424  16.007  1.00  0.00     0.004 C 
ENDBRANCH   2   3
ENDBRANCH   1   2
BRANCH   1   5
ATOM      5  C   UNL     1       3.339   3.941  13.107  1.00  0.00    -0.023 C 
ATOM      6  C   UNL     1       3.997   4.062  11.949  1.00  0.00     0.042 C 
BRANCH   6   7
ATOM      7  C   UNL     1       3.334   4.493  10.705  1.00  0.00     0.152 C 
ATOM      8  O   UNL     1       3.055   3.660   9.800  1.00  0.00    -0.295 OA
ATOM      9  C   UNL     1       2.984   5.934  10.514  1.00  0.00     0.093 C 
ENDBRANCH   6   7
ENDBRANCH   1   5
TORSDOF 4
ENDMDL
MODEL 8
REMARK VINA RESULT:    -3.784      2.324      3.498
REMARK INTER + INTRA:          -4.946
REMARK INTER:                  -4.816
REMARK INTRA:                  -0.129
REMARK UNBOUND:                -0.276
REMARK SMILES CCCCC=CC(C)=O
REMARK SMILES IDX 4 1 3 2 2 3 1 4 5 5 6 6 7 7 9 8 8 9
REMARK H PARENT
REMARK Flexibility Score: inf
ROOT
ATOM      1  C   UNL     1       3.880   3.753  14.566  1.00  0.00     0.027 C 
ENDROOT
BRANCH   1   2
ATOM      2  C   UNL     1       3.142   3.401  13.265  1.00  0.00     0.004 C 
BRANCH   2   3
ATOM      3  C   UNL     1       4.044   3.545  12.031  1.00  0.00    -0.003 C 
ATOM      4  C   UNL     1       4.764   4.890  12.031  1.00  0.00     0.004 C 
ENDBRANCH   2   3
ENDBRANCH   1   2
BRANCH   1   5
ATOM      5  C   UNL     1       3.034   3.522  15.786  1.00  0.00    -0.023 C 
ATOM      6  C   UNL     1       2.760   4.510  16.645  1.00  0.00     0.042 C 
BRANCH   6   7
ATOM      7  C   UNL     1       1.927   4.305  17.845  1.00  0.00     0.152 C 
ATOM      8  O   UNL     1       1.189   3.289  17.951  1.00  0.00    -0.295 OA
ATOM      9  C   UNL     1       1.961   5.312  18.949  1.00  0.00     0.093 C 
ENDBRANCH   6   7
ENDBRANCH   1   5
TORSDOF 4
ENDMDL
MODEL 9
REMARK VINA RESULT:    -3.762     17.376     18.252
REMARK INTER + INTRA:          -4.918
REMARK INTER:                  -4.739
REMARK INTRA:                  -0.179
REMARK UNBOUND:                -0.276
REMARK SMILES CCCCC=CC(C)=O
REMARK SMILES IDX 4 1 3 2 2 3 1 4 5 5 6 6 7 7 9 8 8 9
REMARK H PARENT
REMARK Flexibility Score: inf
ROOT
ATOM      1  C   UNL     1     -10.344  -9.283  13.746  1.00  0.00     0.027 C 
ENDROOT
BRANCH   1   2
ATOM      2  C   UNL     1      -9.939  -8.197  14.754  1.00  0.00     0.004 C 
BRANCH   2   3
ATOM      3  C   UNL     1     -11.125  -7.306  15.151  1.00  0.00    -0.003 C 
ATOM      4  C   UNL     1     -10.864  -5.848  14.783  1.00  0.00     0.004 C 
ENDBRANCH   2   3
ENDBRANCH   1   2
BRANCH   1   5
ATOM      5  C   UNL     1      -9.203  -9.696  12.859  1.00  0.00    -0.023 C 
ATOM      6  C   UNL     1      -8.302  -8.811  12.420  1.00  0.00     0.042 C 
BRANCH   6   7
ATOM      7  C   UNL     1      -7.172  -9.197  11.554  1.00  0.00     0.152 C 
ATOM      8  O   UNL     1      -6.301 -10.016  11.956  1.00  0.00    -0.295 OA
ATOM      9  C   UNL     1      -7.060  -8.614  10.181  1.00  0.00     0.093 C 
ENDBRANCH   6   7
ENDBRANCH   1   5
TORSDOF 4
ENDMDL
