MODEL 1
REMARK VINA RESULT:    -4.564      0.000      0.000
REMARK INTER + INTRA:          -5.820
REMARK INTER:                  -5.364
REMARK INTRA:                  -0.456
REMARK UNBOUND:                -0.456
REMARK SMILES CCCC[C@@H]1OC(=O)C2=C1CCC=C2
REMARK SMILES IDX 3 1 2 2 1 3 4 4 5 5 10 6 6 7 9 8 11 9 7 10 14 11 12 12 8 13
REMARK SMILES IDX 13 14
REMARK H PARENT
REMARK Flexibility Score: inf
ROOT
ATOM      1  C   UNL     1      -1.892  87.408  -6.536  1.00  0.00     0.004 C 
ENDROOT
BRANCH   1   2
ATOM      2  C   UNL     1      -3.301  87.937  -6.219  1.00  0.00    -0.003 C 
ATOM      3  C   UNL     1      -3.959  88.634  -7.409  1.00  0.00     0.004 C 
ENDBRANCH   1   2
BRANCH   1   4
ATOM      4  C   UNL     1      -1.894  86.129  -7.400  1.00  0.00     0.050 C 
BRANCH   4   5
ATOM      5  C   UNL     1      -2.948  85.111  -6.937  1.00  0.00     0.204 C 
ATOM      6  C   UNL     1      -3.719  84.540  -8.104  1.00  0.00    -0.015 C 
ATOM      7  O   UNL     1      -2.313  83.956  -6.378  1.00  0.00    -0.454 OA
ATOM      8  C   UNL     1      -3.521  83.237  -8.207  1.00  0.00     0.062 C 
ATOM      9  C   UNL     1      -4.498  85.300  -9.142  1.00  0.00     0.040 C 
ATOM     10  C   UNL     1      -2.644  82.844  -7.134  1.00  0.00     0.338 C 
ATOM     11  C   UNL     1      -4.106  82.426  -9.280  1.00  0.00     0.011 C 
ATOM     12  C   UNL     1      -5.535  84.386  -9.835  1.00  0.00     0.032 C 
ATOM     13  O   UNL     1      -2.231  81.678  -6.903  1.00  0.00    -0.246 OA
ATOM     14  C   UNL     1      -5.004  82.989 -10.100  1.00  0.00    -0.026 C 
ENDBRANCH   4   5
ENDBRANCH   1   4
TORSDOF 3
ENDMDL
MODEL 2
REMARK VINA RESULT:    -4.066      2.002      4.317
REMARK INTER + INTRA:          -5.235
REMARK INTER:                  -4.792
REMARK INTRA:                  -0.443
REMARK UNBOUND:                -0.456
REMARK SMILES CCCC[C@@H]1OC(=O)C2=C1CCC=C2
REMARK SMILES IDX 3 1 2 2 1 3 4 4 5 5 10 6 6 7 9 8 11 9 7 10 14 11 12 12 8 13
REMARK SMILES IDX 13 14
REMARK H PARENT
REMARK Flexibility Score: inf
ROOT
ATOM      1  C   UNL     1      -1.875  83.151  -6.628  1.00  0.00     0.004 C 
ENDROOT
BRANCH   1   2
ATOM      2  C   UNL     1      -2.818  82.018  -7.065  1.00  0.00    -0.003 C 
ATOM      3  C   UNL     1      -2.629  81.612  -8.526  1.00  0.00     0.004 C 
ENDBRANCH   1   2
BRANCH   1   4
ATOM      4  C   UNL     1      -2.613  84.439  -6.207  1.00  0.00     0.050 C 
BRANCH   4   5
ATOM      5  C   UNL     1      -2.390  85.593  -7.198  1.00  0.00     0.204 C 
ATOM      6  C   UNL     1      -3.620  85.853  -8.035  1.00  0.00    -0.015 C 
ATOM      7  O   UNL     1      -2.216  86.828  -6.494  1.00  0.00    -0.454 OA
ATOM      8  C   UNL     1      -4.094  87.066  -7.810  1.00  0.00     0.062 C 
ATOM      9  C   UNL     1      -4.354  84.871  -8.907  1.00  0.00     0.040 C 
ATOM     10  C   UNL     1      -3.230  87.701  -6.849  1.00  0.00     0.338 C 
ATOM     11  C   UNL     1      -5.313  87.574  -8.448  1.00  0.00     0.011 C 
ATOM     12  C   UNL     1      -5.210  85.605  -9.966  1.00  0.00     0.032 C 
ATOM     13  O   UNL     1      -3.360  88.865  -6.389  1.00  0.00    -0.246 OA
ATOM     14  C   UNL     1      -5.887  86.848  -9.417  1.00  0.00    -0.026 C 
ENDBRANCH   4   5
ENDBRANCH   1   4
TORSDOF 3
ENDMDL
MODEL 3
REMARK VINA RESULT:    -4.048      1.974      4.681
REMARK INTER + INTRA:          -5.214
REMARK INTER:                  -4.986
REMARK INTRA:                  -0.229
REMARK UNBOUND:                -0.456
REMARK SMILES CCCC[C@@H]1OC(=O)C2=C1CCC=C2
REMARK SMILES IDX 3 1 2 2 1 3 4 4 5 5 10 6 6 7 9 8 11 9 7 10 14 11 12 12 8 13
REMARK SMILES IDX 13 14
REMARK H PARENT
REMARK Flexibility Score: inf
ROOT
ATOM      1  C   UNL     1      -3.832  82.263  -9.197  1.00  0.00     0.004 C 
ENDROOT
BRANCH   1   2
ATOM      2  C   UNL     1      -2.651  81.582  -8.484  1.00  0.00    -0.003 C 
ATOM      3  C   UNL     1      -3.030  81.005  -7.120  1.00  0.00     0.004 C 
ENDBRANCH   1   2
BRANCH   1   4
ATOM      4  C   UNL     1      -4.408  83.467  -8.423  1.00  0.00     0.050 C 
BRANCH   4   5
ATOM      5  C   UNL     1      -3.732  84.792  -8.811  1.00  0.00     0.204 C 
ATOM      6  C   UNL     1      -4.748  85.873  -9.091  1.00  0.00    -0.015 C 
ATOM      7  O   UNL     1      -3.000  85.321  -7.701  1.00  0.00    -0.454 OA
ATOM      8  C   UNL     1      -4.623  86.870  -8.231  1.00  0.00     0.062 C 
ATOM      9  C   UNL     1      -5.875  85.830 -10.086  1.00  0.00     0.040 C 
ATOM     10  C   UNL     1      -3.531  86.550  -7.349  1.00  0.00     0.338 C 
ATOM     11  C   UNL     1      -5.512  88.037  -8.233  1.00  0.00     0.011 C 
ATOM     12  C   UNL     1      -6.354  87.258 -10.441  1.00  0.00     0.032 C 
ATOM     13  O   UNL     1      -3.111  87.262  -6.400  1.00  0.00    -0.246 OA
ATOM     14  C   UNL     1      -6.385  88.184  -9.239  1.00  0.00    -0.026 C 
ENDBRANCH   4   5
ENDBRANCH   1   4
TORSDOF 3
ENDMDL
MODEL 4
REMARK VINA RESULT:    -4.042      7.299      8.540
REMARK INTER + INTRA:          -5.207
REMARK INTER:                  -4.806
REMARK INTRA:                  -0.401
REMARK UNBOUND:                -0.456
REMARK SMILES CCCC[C@@H]1OC(=O)C2=C1CCC=C2
REMARK SMILES IDX 3 1 2 2 1 3 4 4 5 5 10 6 6 7 9 8 11 9 7 10 14 11 12 12 8 13
REMARK SMILES IDX 13 14
REMARK H PARENT
REMARK Flexibility Score: inf
ROOT
ATOM      1  C   UNL     1      -4.914  93.926  -9.765  1.00  0.00     0.004 C 
ENDROOT
BRANCH   1   2
ATOM      2  C   UNL     1      -3.517  94.546  -9.592  1.00  0.00    -0.003 C 
ATOM      3  C   UNL     1      -2.996  95.210 -10.866  1.00  0.00     0.004 C 
ENDBRANCH   1   2
BRANCH   1   4
ATOM      4  C   UNL     1      -4.885  92.407 -10.038  1.00  0.00     0.050 C 
BRANCH   4   5
ATOM      5  C   UNL     1      -5.819  92.001 -11.189  1.00  0.00     0.204 C 
ATOM      6  C   UNL     1      -5.046  91.689 -12.448  1.00  0.00    -0.015 C 
ATOM      7  O   UNL     1      -6.462  90.757 -10.893  1.00  0.00    -0.454 OA
ATOM      8  C   UNL     1      -5.210  90.425 -12.800  1.00  0.00     0.062 C 
ATOM      9  C   UNL     1      -4.082  92.588 -13.173  1.00  0.00     0.040 C 
ATOM     10  C   UNL     1      -6.097  89.818 -11.842  1.00  0.00     0.338 C 
ATOM     11  C   UNL     1      -4.536  89.829 -13.959  1.00  0.00     0.011 C 
ATOM     12  C   UNL     1      -3.901  92.136 -14.641  1.00  0.00     0.032 C 
ATOM     13  O   UNL     1      -6.488  88.622 -11.848  1.00  0.00    -0.246 OA
ATOM     14  C   UNL     1      -3.852  90.626 -14.790  1.00  0.00    -0.026 C 
ENDBRANCH   4   5
ENDBRANCH   1   4
TORSDOF 3
ENDMDL
MODEL 5
REMARK VINA RESULT:    -3.966      1.805      4.145
REMARK INTER + INTRA:          -5.118
REMARK INTER:                  -4.515
REMARK INTRA:                  -0.603
REMARK UNBOUND:                -0.456
REMARK SMILES CCCC[C@@H]1OC(=O)C2=C1CCC=C2
REMARK SMILES IDX 3 1 2 2 1 3 4 4 5 5 10 6 6 7 9 8 11 9 7 10 14 11 12 12 8 13
REMARK SMILES IDX 13 14
REMARK H PARENT
REMARK Flexibility Score: inf
ROOT
ATOM      1  C   UNL     1      -6.653  83.187  -8.930  1.00  0.00     0.004 C 
ENDROOT
BRANCH   1   2
ATOM      2  C   UNL     1      -7.318  83.557  -7.593  1.00  0.00    -0.003 C 
ATOM      3  C   UNL     1      -6.482  83.154  -6.378  1.00  0.00     0.004 C 
ENDBRANCH   1   2
BRANCH   1   4
ATOM      4  C   UNL     1      -5.761  84.307  -9.505  1.00  0.00     0.050 C 
BRANCH   4   5
ATOM      5  C   UNL     1      -4.277  83.908  -9.554  1.00  0.00     0.204 C 
ATOM      6  C   UNL     1      -3.492  84.549  -8.435  1.00  0.00    -0.015 C 
ATOM      7  O   UNL     1      -4.128  82.509  -9.288  1.00  0.00    -0.454 OA
ATOM      8  C   UNL     1      -2.990  83.631  -7.626  1.00  0.00     0.062 C 
ATOM      9  C   UNL     1      -3.379  86.016  -8.123  1.00  0.00     0.040 C 
ATOM     10  C   UNL     1      -3.372  82.342  -8.141  1.00  0.00     0.338 C 
ATOM     11  C   UNL     1      -2.222  83.966  -6.422  1.00  0.00     0.011 C 
ATOM     12  C   UNL     1      -2.123  86.305  -7.266  1.00  0.00     0.032 C 
ATOM     13  O   UNL     1      -3.077  81.225  -7.640  1.00  0.00    -0.246 OA
ATOM     14  C   UNL     1      -1.875  85.243  -6.211  1.00  0.00    -0.026 C 
ENDBRANCH   4   5
ENDBRANCH   1   4
TORSDOF 3
ENDMDL
MODEL 6
REMARK VINA RESULT:    -3.946      8.125      9.782
REMARK INTER + INTRA:          -5.094
REMARK INTER:                  -4.479
REMARK INTRA:                  -0.615
REMARK UNBOUND:                -0.456
REMARK SMILES CCCC[C@@H]1OC(=O)C2=C1CCC=C2
REMARK SMILES IDX 3 1 2 2 1 3 4 4 5 5 10 6 6 7 9 8 11 9 7 10 14 11 12 12 8 13
REMARK SMILES IDX 13 14
REMARK H PARENT
REMARK Flexibility Score: inf
ROOT
ATOM      1  C   UNL     1      -8.058  89.821 -13.161  1.00  0.00     0.004 C 
ENDROOT
BRANCH   1   2
ATOM      2  C   UNL     1      -8.936  90.891 -13.833  1.00  0.00    -0.003 C 
ATOM      3  C   UNL     1      -8.155  92.143 -14.229  1.00  0.00     0.004 C 
ENDBRANCH   1   2
BRANCH   1   4
ATOM      4  C   UNL     1      -7.199  89.015 -14.157  1.00  0.00     0.050 C 
BRANCH   4   5
ATOM      5  C   UNL     1      -5.693  89.179 -13.899  1.00  0.00     0.204 C 
ATOM      6  C   UNL     1      -5.077  90.196 -14.830  1.00  0.00    -0.015 C 
ATOM      7  O   UNL     1      -5.468  89.751 -12.606  1.00  0.00    -0.454 OA
ATOM      8  C   UNL     1      -4.593  91.223 -14.151  1.00  0.00     0.062 C 
ATOM      9  C   UNL     1      -5.106  90.192 -16.334  1.00  0.00     0.040 C 
ATOM     10  C   UNL     1      -4.823  90.967 -12.752  1.00  0.00     0.338 C 
ATOM     11  C   UNL     1      -3.980  92.387 -14.799  1.00  0.00     0.011 C 
ATOM     12  C   UNL     1      -3.970  91.070 -16.911  1.00  0.00     0.032 C 
ATOM     13  O   UNL     1      -4.499  91.720 -11.797  1.00  0.00    -0.246 OA
ATOM     14  C   UNL     1      -3.753  92.347 -16.119  1.00  0.00    -0.026 C 
ENDBRANCH   4   5
ENDBRANCH   1   4
TORSDOF 3
ENDMDL
MODEL 7
REMARK VINA RESULT:    -3.932      1.822      2.736
REMARK INTER + INTRA:          -5.077
REMARK INTER:                  -4.468
REMARK INTRA:                  -0.610
REMARK UNBOUND:                -0.456
REMARK SMILES CCCC[C@@H]1OC(=O)C2=C1CCC=C2
REMARK SMILES IDX 3 1 2 2 1 3 4 4 5 5 10 6 6 7 9 8 11 9 7 10 14 11 12 12 8 13
REMARK SMILES IDX 13 14
REMARK H PARENT
REMARK Flexibility Score: inf
ROOT
ATOM      1  C   UNL     1      -1.878  84.118  -6.653  1.00  0.00     0.004 C 
ENDROOT
BRANCH   1   2
ATOM      2  C   UNL     1      -2.156  85.630  -6.714  1.00  0.00    -0.003 C 
ATOM      3  C   UNL     1      -3.080  86.022  -7.866  1.00  0.00     0.004 C 
ENDBRANCH   1   2
BRANCH   1   4
ATOM      4  C   UNL     1      -2.948  83.325  -5.875  1.00  0.00     0.050 C 
BRANCH   4   5
ATOM      5  C   UNL     1      -3.622  82.246  -6.738  1.00  0.00     0.204 C 
ATOM      6  C   UNL     1      -4.871  82.769  -7.407  1.00  0.00    -0.015 C 
ATOM      7  O   UNL     1      -2.786  81.902  -7.848  1.00  0.00    -0.454 OA
ATOM      8  C   UNL     1      -4.743  82.750  -8.723  1.00  0.00     0.062 C 
ATOM      9  C   UNL     1      -6.070  83.388  -6.743  1.00  0.00     0.040 C 
ATOM     10  C   UNL     1      -3.445  82.207  -9.027  1.00  0.00     0.338 C 
ATOM     11  C   UNL     1      -5.783  83.248  -9.630  1.00  0.00     0.011 C 
ATOM     12  C   UNL     1      -7.310  83.321  -7.666  1.00  0.00     0.032 C 
ATOM     13  O   UNL     1      -2.965  82.031 -10.177  1.00  0.00    -0.246 OA
ATOM     14  C   UNL     1      -6.975  83.590  -9.122  1.00  0.00    -0.026 C 
ENDBRANCH   4   5
ENDBRANCH   1   4
TORSDOF 3
ENDMDL
MODEL 8
REMARK VINA RESULT:    -3.881      1.738      3.798
REMARK INTER + INTRA:          -5.018
REMARK INTER:                  -4.679
REMARK INTRA:                  -0.339
REMARK UNBOUND:                -0.456
REMARK SMILES CCCC[C@@H]1OC(=O)C2=C1CCC=C2
REMARK SMILES IDX 3 1 2 2 1 3 4 4 5 5 10 6 6 7 9 8 11 9 7 10 14 11 12 12 8 13
REMARK SMILES IDX 13 14
REMARK H PARENT
REMARK Flexibility Score: inf
ROOT
ATOM      1  C   UNL     1      -6.499  85.219 -10.106  1.00  0.00     0.004 C 
ENDROOT
BRANCH   1   2
ATOM      2  C   UNL     1      -6.962  86.539  -9.467  1.00  0.00    -0.003 C 
ATOM      3  C   UNL     1      -6.908  87.722 -10.434  1.00  0.00     0.004 C 
ENDBRANCH   1   2
BRANCH   1   4
ATOM      4  C   UNL     1      -6.056  84.158  -9.076  1.00  0.00     0.050 C 
BRANCH   4   5
ATOM      5  C   UNL     1      -4.580  83.762  -9.240  1.00  0.00     0.204 C 
ATOM      6  C   UNL     1      -3.695  84.498  -8.262  1.00  0.00    -0.015 C 
ATOM      7  O   UNL     1      -4.388  82.391  -8.875  1.00  0.00    -0.454 OA
ATOM      8  C   UNL     1      -3.105  83.654  -7.434  1.00  0.00     0.062 C 
ATOM      9  C   UNL     1      -3.570  85.987  -8.088  1.00  0.00     0.040 C 
ATOM     10  C   UNL     1      -3.520  82.324  -7.799  1.00  0.00     0.338 C 
ATOM     11  C   UNL     1      -2.225  84.092  -6.345  1.00  0.00     0.011 C 
ATOM     12  C   UNL     1      -2.240  86.352  -7.387  1.00  0.00     0.032 C 
ATOM     13  O   UNL     1      -3.163  81.255  -7.238  1.00  0.00    -0.246 OA
ATOM     14  C   UNL     1      -1.875  85.384  -6.276  1.00  0.00    -0.026 C 
ENDBRANCH   4   5
ENDBRANCH   1   4
TORSDOF 3
ENDMDL
