MODEL 1
REMARK VINA RESULT:    -5.101      0.000      0.000
REMARK INTER + INTRA:          -5.399
REMARK INTER:                  -5.399
REMARK INTRA:                   0.000
REMARK UNBOUND:                 0.000
REMARK SMILES O=c1ccc2cc(O)c(O)cc2o1
REMARK SMILES IDX 4 1 3 2 2 3 1 4 13 5 12 6 11 7 9 8 7 9 6 10 5 11 8 12 10 14
REMARK H PARENT 8 13 10 15
REMARK Flexibility Score: inf
ROOT
ATOM      1  C   UNL     1      13.672  36.611  47.283  1.00  0.00     0.019 A 
ATOM      2  C   UNL     1      12.334  36.243  47.422  1.00  0.00     0.094 A 
ATOM      3  C   UNL     1      11.752  36.267  48.694  1.00  0.00     0.336 A 
ATOM      4  O   UNL     1      10.546  35.940  48.839  1.00  0.00    -0.246 OA
ATOM      5  O   UNL     1      12.467  36.635  49.754  1.00  0.00    -0.423 OA
ATOM      6  C   UNL     1      13.747  36.992  49.666  1.00  0.00     0.142 A 
ATOM      7  C   UNL     1      14.447  37.371  50.816  1.00  0.00     0.098 A 
ATOM      8  C   UNL     1      15.796  37.748  50.729  1.00  0.00     0.161 A 
ATOM      9  C   UNL     1      16.445  37.748  49.485  1.00  0.00     0.158 A 
ATOM     10  C   UNL     1      15.747  37.370  48.329  1.00  0.00     0.062 A 
ATOM     11  C   UNL     1      14.399  36.992  48.415  1.00  0.00     0.022 A 
ENDROOT
BRANCH   9  12
ATOM     12  O   UNL     1      17.784  38.125  49.408  1.00  0.00    -0.504 OA
ATOM     13  H   UNL     1      18.166  38.555  48.574  1.00  0.00     0.293 HD
ENDBRANCH   9  12
BRANCH   8  14
ATOM     14  O   UNL     1      16.497  38.125  51.873  1.00  0.00    -0.504 OA
ATOM     15  H   UNL     1      16.651  37.478  52.638  1.00  0.00     0.293 HD
ENDBRANCH   8  14
TORSDOF 2
ENDMDL
MODEL 2
REMARK VINA RESULT:    -4.654      1.197      5.031
REMARK INTER + INTRA:          -4.926
REMARK INTER:                  -4.926
REMARK INTRA:                   0.000
REMARK UNBOUND:                 0.000
REMARK SMILES O=c1ccc2cc(O)c(O)cc2o1
REMARK SMILES IDX 4 1 3 2 2 3 1 4 13 5 12 6 11 7 9 8 7 9 6 10 5 11 8 12 10 14
REMARK H PARENT 8 13 10 15
REMARK Flexibility Score: inf
ROOT
ATOM      1  C   UNL     1      14.702  37.557  51.146  1.00  0.00     0.019 A 
ATOM      2  C   UNL     1      16.005  37.917  50.799  1.00  0.00     0.094 A 
ATOM      3  C   UNL     1      16.407  37.804  49.464  1.00  0.00     0.336 A 
ATOM      4  O   UNL     1      17.577  38.125  49.130  1.00  0.00    -0.246 OA
ATOM      5  O   UNL     1      15.558  37.358  48.540  1.00  0.00    -0.423 OA
ATOM      6  C   UNL     1      14.308  37.002  48.829  1.00  0.00     0.142 A 
ATOM      7  C   UNL     1      13.461  36.541  47.816  1.00  0.00     0.098 A 
ATOM      8  C   UNL     1      12.143  36.165  48.115  1.00  0.00     0.161 A 
ATOM      9  C   UNL     1      11.671  36.252  49.433  1.00  0.00     0.158 A 
ATOM     10  C   UNL     1      12.515  36.715  50.452  1.00  0.00     0.062 A 
ATOM     11  C   UNL     1      13.833  37.090  50.155  1.00  0.00     0.022 A 
ENDROOT
BRANCH   9  12
ATOM     12  O   UNL     1      10.359  35.878  49.720  1.00  0.00    -0.504 OA
ATOM     13  H   UNL     1       9.568  36.362  49.313  1.00  0.00     0.293 HD
ENDBRANCH   9  12
BRANCH   8  14
ATOM     14  O   UNL     1      11.297  35.704  47.108  1.00  0.00    -0.504 OA
ATOM     15  H   UNL     1      11.460  35.930  46.133  1.00  0.00     0.293 HD
ENDBRANCH   8  14
TORSDOF 2
ENDMDL
MODEL 3
REMARK VINA RESULT:    -4.627      1.582      2.819
REMARK INTER + INTRA:          -4.898
REMARK INTER:                  -4.898
REMARK INTRA:                   0.000
REMARK UNBOUND:                 0.000
REMARK SMILES O=c1ccc2cc(O)c(O)cc2o1
REMARK SMILES IDX 4 1 3 2 2 3 1 4 13 5 12 6 11 7 9 8 7 9 6 10 5 11 8 12 10 14
REMARK H PARENT 8 13 10 15
REMARK Flexibility Score: inf
ROOT
ATOM      1  C   UNL     1      13.184  36.967  50.562  1.00  0.00     0.019 A 
ATOM      2  C   UNL     1      11.855  36.544  50.532  1.00  0.00     0.094 A 
ATOM      3  C   UNL     1      11.295  36.154  49.310  1.00  0.00     0.336 A 
ATOM      4  O   UNL     1      10.098  35.769  49.262  1.00  0.00    -0.246 OA
ATOM      5  O   UNL     1      12.021  36.188  48.196  1.00  0.00    -0.423 OA
ATOM      6  C   UNL     1      13.292  36.586  48.180  1.00  0.00     0.142 A 
ATOM      7  C   UNL     1      14.006  36.599  46.977  1.00  0.00     0.098 A 
ATOM      8  C   UNL     1      15.345  37.018  46.956  1.00  0.00     0.161 A 
ATOM      9  C   UNL     1      15.972  37.422  48.144  1.00  0.00     0.158 A 
ATOM     10  C   UNL     1      15.261  37.410  49.353  1.00  0.00     0.062 A 
ATOM     11  C   UNL     1      13.923  36.993  49.375  1.00  0.00     0.022 A 
ENDROOT
BRANCH   9  12
ATOM     12  O   UNL     1      17.302  37.836  48.113  1.00  0.00    -0.504 OA
ATOM     13  H   UNL     1      17.959  37.563  48.835  1.00  0.00     0.293 HD
ENDBRANCH   9  12
BRANCH   8  14
ATOM     14  O   UNL     1      16.058  37.033  45.759  1.00  0.00    -0.504 OA
ATOM     15  H   UNL     1      15.704  37.507  44.936  1.00  0.00     0.293 HD
ENDBRANCH   8  14
TORSDOF 2
ENDMDL
MODEL 4
REMARK VINA RESULT:    -4.490      2.193      2.629
REMARK INTER + INTRA:          -4.752
REMARK INTER:                  -4.752
REMARK INTRA:                   0.000
REMARK UNBOUND:                 0.000
REMARK SMILES O=c1ccc2cc(O)c(O)cc2o1
REMARK SMILES IDX 4 1 3 2 2 3 1 4 13 5 12 6 11 7 9 8 7 9 6 10 5 11 8 12 10 14
REMARK H PARENT 8 13 10 15
REMARK Flexibility Score: inf
ROOT
ATOM      1  C   UNL     1      12.339  36.827  50.148  1.00  0.00     0.019 A 
ATOM      2  C   UNL     1      11.395  35.815  49.970  1.00  0.00     0.094 A 
ATOM      3  C   UNL     1      11.709  34.515  50.378  1.00  0.00     0.336 A 
ATOM      4  O   UNL     1      10.871  33.588  50.227  1.00  0.00    -0.246 OA
ATOM      5  O   UNL     1      12.892  34.249  50.928  1.00  0.00    -0.423 OA
ATOM      6  C   UNL     1      13.821  35.184  51.115  1.00  0.00     0.142 A 
ATOM      7  C   UNL     1      15.046  34.845  51.698  1.00  0.00     0.098 A 
ATOM      8  C   UNL     1      16.029  35.826  51.897  1.00  0.00     0.161 A 
ATOM      9  C   UNL     1      15.783  37.152  51.512  1.00  0.00     0.158 A 
ATOM     10  C   UNL     1      14.556  37.498  50.927  1.00  0.00     0.062 A 
ATOM     11  C   UNL     1      13.574  36.518  50.727  1.00  0.00     0.022 A 
ENDROOT
BRANCH   9  12
ATOM     12  O   UNL     1      16.765  38.121  51.714  1.00  0.00    -0.504 OA
ATOM     13  H   UNL     1      16.527  39.098  51.840  1.00  0.00     0.293 HD
ENDBRANCH   9  12
BRANCH   8  14
ATOM     14  O   UNL     1      17.251  35.491  52.477  1.00  0.00    -0.504 OA
ATOM     15  H   UNL     1      17.685  36.082  53.177  1.00  0.00     0.293 HD
ENDBRANCH   8  14
TORSDOF 2
ENDMDL
MODEL 5
REMARK VINA RESULT:    -4.397      1.165      4.595
REMARK INTER + INTRA:          -4.654
REMARK INTER:                  -4.654
REMARK INTRA:                   0.000
REMARK UNBOUND:                 0.000
REMARK SMILES O=c1ccc2cc(O)c(O)cc2o1
REMARK SMILES IDX 4 1 3 2 2 3 1 4 13 5 12 6 11 7 9 8 7 9 6 10 5 11 8 12 10 14
REMARK H PARENT 8 13 10 15
REMARK Flexibility Score: inf
ROOT
ATOM      1  C   UNL     1      15.332  37.242  48.436  1.00  0.00     0.019 A 
ATOM      2  C   UNL     1      16.131  37.673  49.495  1.00  0.00     0.094 A 
ATOM      3  C   UNL     1      15.579  37.738  50.779  1.00  0.00     0.336 A 
ATOM      4  O   UNL     1      16.284  38.123  51.748  1.00  0.00    -0.246 OA
ATOM      5  O   UNL     1      14.310  37.393  50.984  1.00  0.00    -0.423 OA
ATOM      6  C   UNL     1      13.513  36.978  50.002  1.00  0.00     0.142 A 
ATOM      7  C   UNL     1      12.187  36.629  50.278  1.00  0.00     0.098 A 
ATOM      8  C   UNL     1      11.343  36.191  49.246  1.00  0.00     0.161 A 
ATOM      9  C   UNL     1      11.829  36.101  47.934  1.00  0.00     0.158 A 
ATOM     10  C   UNL     1      13.158  36.449  47.651  1.00  0.00     0.062 A 
ATOM     11  C   UNL     1      14.002  36.888  48.681  1.00  0.00     0.022 A 
ENDROOT
BRANCH   9  12
ATOM     12  O   UNL     1      10.984  35.664  46.915  1.00  0.00    -0.504 OA
ATOM     13  H   UNL     1      10.103  35.206  47.117  1.00  0.00     0.293 HD
ENDBRANCH   9  12
BRANCH   8  14
ATOM     14  O   UNL     1      10.021  35.843  49.518  1.00  0.00    -0.504 OA
ATOM     15  H   UNL     1       9.688  35.729  50.468  1.00  0.00     0.293 HD
ENDBRANCH   8  14
TORSDOF 2
ENDMDL
MODEL 6
REMARK VINA RESULT:    -4.354      2.025      3.629
REMARK INTER + INTRA:          -4.608
REMARK INTER:                  -4.608
REMARK INTRA:                   0.000
REMARK UNBOUND:                 0.000
REMARK SMILES O=c1ccc2cc(O)c(O)cc2o1
REMARK SMILES IDX 4 1 3 2 2 3 1 4 13 5 12 6 11 7 9 8 7 9 6 10 5 11 8 12 10 14
REMARK H PARENT 8 13 10 15
REMARK Flexibility Score: inf
ROOT
ATOM      1  C   UNL     1      13.395  36.216  46.544  1.00  0.00     0.019 A 
ATOM      2  C   UNL     1      14.360  36.204  45.536  1.00  0.00     0.094 A 
ATOM      3  C   UNL     1      15.677  36.548  45.855  1.00  0.00     0.336 A 
ATOM      4  O   UNL     1      16.563  36.542  44.961  1.00  0.00    -0.246 OA
ATOM      5  O   UNL     1      16.003  36.882  47.102  1.00  0.00    -0.423 OA
ATOM      6  C   UNL     1      15.114  36.908  48.092  1.00  0.00     0.142 A 
ATOM      7  C   UNL     1      15.515  37.266  49.383  1.00  0.00     0.098 A 
ATOM      8  C   UNL     1      14.581  37.295  50.430  1.00  0.00     0.161 A 
ATOM      9  C   UNL     1      13.242  36.962  50.184  1.00  0.00     0.158 A 
ATOM     10  C   UNL     1      12.834  36.600  48.891  1.00  0.00     0.062 A 
ATOM     11  C   UNL     1      13.766  36.572  47.844  1.00  0.00     0.022 A 
ENDROOT
BRANCH   9  12
ATOM     12  O   UNL     1      12.321  36.992  51.230  1.00  0.00    -0.504 OA
ATOM     13  H   UNL     1      11.455  37.513  51.159  1.00  0.00     0.293 HD
ENDBRANCH   9  12
BRANCH   8  14
ATOM     14  O   UNL     1      14.979  37.652  51.717  1.00  0.00    -0.504 OA
ATOM     15  H   UNL     1      15.459  38.525  51.901  1.00  0.00     0.293 HD
ENDBRANCH   8  14
TORSDOF 2
ENDMDL
MODEL 7
REMARK VINA RESULT:    -4.309      1.912      2.612
REMARK INTER + INTRA:          -4.561
REMARK INTER:                  -4.561
REMARK INTRA:                   0.000
REMARK UNBOUND:                 0.000
REMARK SMILES O=c1ccc2cc(O)c(O)cc2o1
REMARK SMILES IDX 4 1 3 2 2 3 1 4 13 5 12 6 11 7 9 8 7 9 6 10 5 11 8 12 10 14
REMARK H PARENT 8 13 10 15
REMARK Flexibility Score: inf
ROOT
ATOM      1  C   UNL     1      12.774  34.378  50.887  1.00  0.00     0.019 A 
ATOM      2  C   UNL     1      11.588  34.806  50.291  1.00  0.00     0.094 A 
ATOM      3  C   UNL     1      11.466  36.147  49.911  1.00  0.00     0.336 A 
ATOM      4  O   UNL     1      10.404  36.553  49.371  1.00  0.00    -0.246 OA
ATOM      5  O   UNL     1      12.467  36.999  50.116  1.00  0.00    -0.423 OA
ATOM      6  C   UNL     1      13.615  36.632  50.683  1.00  0.00     0.142 A 
ATOM      7  C   UNL     1      14.633  37.572  50.872  1.00  0.00     0.098 A 
ATOM      8  C   UNL     1      15.844  37.190  51.469  1.00  0.00     0.161 A 
ATOM      9  C   UNL     1      16.037  35.862  51.875  1.00  0.00     0.158 A 
ATOM     10  C   UNL     1      15.020  34.914  51.687  1.00  0.00     0.062 A 
ATOM     11  C   UNL     1      13.809  35.295  51.092  1.00  0.00     0.022 A 
ENDROOT
BRANCH   9  12
ATOM     12  O   UNL     1      17.244  35.491  52.466  1.00  0.00    -0.504 OA
ATOM     13  H   UNL     1      17.274  35.046  53.376  1.00  0.00     0.293 HD
ENDBRANCH   9  12
BRANCH   8  14
ATOM     14  O   UNL     1      16.860  38.125  51.660  1.00  0.00    -0.504 OA
ATOM     15  H   UNL     1      17.837  37.857  51.642  1.00  0.00     0.293 HD
ENDBRANCH   8  14
TORSDOF 2
ENDMDL
MODEL 8
REMARK VINA RESULT:    -4.209      2.102      3.122
REMARK INTER + INTRA:          -4.456
REMARK INTER:                  -4.456
REMARK INTRA:                   0.000
REMARK UNBOUND:                 0.000
REMARK SMILES O=c1ccc2cc(O)c(O)cc2o1
REMARK SMILES IDX 4 1 3 2 2 3 1 4 13 5 12 6 11 7 9 8 7 9 6 10 5 11 8 12 10 14
REMARK H PARENT 8 13 10 15
REMARK Flexibility Score: inf
ROOT
ATOM      1  C   UNL     1      15.863  36.983  47.011  1.00  0.00     0.019 A 
ATOM      2  C   UNL     1      15.378  36.616  45.756  1.00  0.00     0.094 A 
ATOM      3  C   UNL     1      14.033  36.251  45.629  1.00  0.00     0.336 A 
ATOM      4  O   UNL     1      13.576  35.918  44.505  1.00  0.00    -0.246 OA
ATOM      5  O   UNL     1      13.231  36.257  46.691  1.00  0.00    -0.423 OA
ATOM      6  C   UNL     1      13.654  36.599  47.906  1.00  0.00     0.142 A 
ATOM      7  C   UNL     1      12.764  36.586  48.985  1.00  0.00     0.098 A 
ATOM      8  C   UNL     1      13.205  36.946  50.268  1.00  0.00     0.161 A 
ATOM      9  C   UNL     1      14.541  37.323  50.470  1.00  0.00     0.158 A 
ATOM     10  C   UNL     1      15.437  37.339  49.391  1.00  0.00     0.062 A 
ATOM     11  C   UNL     1      14.998  36.978  48.109  1.00  0.00     0.022 A 
ENDROOT
BRANCH   9  12
ATOM     12  O   UNL     1      14.970  37.680  51.747  1.00  0.00    -0.504 OA
ATOM     13  H   UNL     1      15.395  37.005  52.371  1.00  0.00     0.293 HD
ENDBRANCH   9  12
BRANCH   8  14
ATOM     14  O   UNL     1      12.321  36.933  51.345  1.00  0.00    -0.504 OA
ATOM     15  H   UNL     1      11.628  37.662  51.471  1.00  0.00     0.293 HD
ENDBRANCH   8  14
TORSDOF 2
ENDMDL
