MODEL 1
REMARK VINA RESULT:    -4.313      0.000      0.000
REMARK INTER + INTRA:          -9.219
REMARK INTER:                  -7.842
REMARK INTRA:                  -1.377
REMARK UNBOUND:                -1.377
REMARK SMILES CCCCCCCCCCCCCCCC(=O)[O-]
REMARK SMILES IDX 9 1 10 2 11 3 12 4 13 5 14 6 15 7 16 8 17 9 18 10 8 11 7 12
REMARK SMILES IDX 6 13 5 14 4 15 3 16 2 17 1 18
REMARK H PARENT
REMARK Flexibility Score: inf
ROOT
ATOM      1  C   UNL     1       7.868  -2.153  39.970  1.00  0.00     0.000 C 
ENDROOT
BRANCH   1   2
ATOM      2  C   UNL     1       8.669  -1.893  41.255  1.00  0.00     0.000 C 
BRANCH   2   3
ATOM      3  C   UNL     1       9.047  -3.188  41.988  1.00  0.00     0.000 C 
BRANCH   3   4
ATOM      4  C   UNL     1       7.880  -3.696  42.844  1.00  0.00     0.000 C 
BRANCH   4   5
ATOM      5  C   UNL     1       7.446  -5.103  42.405  1.00  0.00     0.000 C 
BRANCH   5   6
ATOM      6  C   UNL     1       8.625  -5.962  41.921  1.00  0.00     0.006 C 
BRANCH   6   7
ATOM      7  C   UNL     1       8.903  -7.156  42.844  1.00  0.00     0.053 C 
BRANCH   7   8
ATOM      8  C   UNL     1       8.018  -8.308  42.487  1.00  0.00     0.041 C 
ATOM      9  O   UNL     1       7.437  -8.340  41.370  1.00  0.00    -0.550 OA
ATOM     10  O   UNL     1       7.798  -9.326  43.407  1.00  0.00    -0.550 OA
ENDBRANCH   7   8
ENDBRANCH   6   7
ENDBRANCH   5   6
ENDBRANCH   4   5
ENDBRANCH   3   4
ENDBRANCH   2   3
ENDBRANCH   1   2
BRANCH   1  11
ATOM     11  C   UNL     1       8.488  -3.262  39.103  1.00  0.00     0.000 C 
BRANCH  11  12
ATOM     12  C   UNL     1       7.536  -3.755  37.999  1.00  0.00    -0.000 C 
BRANCH  12  13
ATOM     13  C   UNL     1       8.135  -3.751  36.577  1.00  0.00    -0.000 C 
BRANCH  13  14
ATOM     14  C   UNL     1       7.173  -3.295  35.461  1.00  0.00    -0.000 C 
BRANCH  14  15
ATOM     15  C   UNL     1       7.033  -1.770  35.311  1.00  0.00    -0.000 C 
BRANCH  15  16
ATOM     16  C   UNL     1       5.617  -1.266  35.644  1.00  0.00    -0.000 C 
BRANCH  16  17
ATOM     17  C   UNL     1       5.465  -0.877  37.123  1.00  0.00    -0.003 C 
ATOM     18  C   UNL     1       5.868   0.572  37.395  1.00  0.00     0.004 C 
ENDBRANCH  16  17
ENDBRANCH  15  16
ENDBRANCH  14  15
ENDBRANCH  13  14
ENDBRANCH  12  13
ENDBRANCH  11  12
ENDBRANCH   1  11
TORSDOF 14
ENDMDL
MODEL 2
REMARK VINA RESULT:    -4.310      4.684      8.957
REMARK INTER + INTRA:          -9.214
REMARK INTER:                  -7.577
REMARK INTRA:                  -1.637
REMARK UNBOUND:                -1.377
REMARK SMILES CCCCCCCCCCCCCCCC(=O)[O-]
REMARK SMILES IDX 9 1 10 2 11 3 12 4 13 5 14 6 15 7 16 8 17 9 18 10 8 11 7 12
REMARK SMILES IDX 6 13 5 14 4 15 3 16 2 17 1 18
REMARK H PARENT
REMARK Flexibility Score: inf
ROOT
ATOM      1  C   UNL     1       6.750 -11.216  42.826  1.00  0.00     0.000 C 
ENDROOT
BRANCH   1   2
ATOM      2  C   UNL     1       6.954 -10.520  44.180  1.00  0.00     0.000 C 
BRANCH   2   3
ATOM      3  C   UNL     1       7.761  -9.219  44.060  1.00  0.00     0.000 C 
BRANCH   3   4
ATOM      4  C   UNL     1       8.172  -8.960  42.605  1.00  0.00     0.000 C 
BRANCH   4   5
ATOM      5  C   UNL     1       7.945  -7.489  42.222  1.00  0.00     0.000 C 
BRANCH   5   6
ATOM      6  C   UNL     1       7.957  -6.552  43.440  1.00  0.00     0.006 C 
BRANCH   6   7
ATOM      7  C   UNL     1       7.381  -5.166  43.124  1.00  0.00     0.053 C 
BRANCH   7   8
ATOM      8  C   UNL     1       8.244  -4.457  42.129  1.00  0.00     0.041 C 
ATOM      9  O   UNL     1       9.397  -4.069  42.452  1.00  0.00    -0.550 OA
ATOM     10  O   UNL     1       7.756  -4.182  40.858  1.00  0.00    -0.550 OA
ENDBRANCH   7   8
ENDBRANCH   6   7
ENDBRANCH   5   6
ENDBRANCH   4   5
ENDBRANCH   3   4
ENDBRANCH   2   3
ENDBRANCH   1   2
BRANCH   1  11
ATOM     11  C   UNL     1       5.277 -11.221  42.381  1.00  0.00     0.000 C 
BRANCH  11  12
ATOM     12  C   UNL     1       5.116 -11.375  40.858  1.00  0.00    -0.000 C 
BRANCH  12  13
ATOM     13  C   UNL     1       6.328 -10.905  40.028  1.00  0.00    -0.000 C 
BRANCH  13  14
ATOM     14  C   UNL     1       6.853 -11.927  38.998  1.00  0.00    -0.000 C 
BRANCH  14  15
ATOM     15  C   UNL     1       7.393 -13.235  39.603  1.00  0.00    -0.000 C 
BRANCH  15  16
ATOM     16  C   UNL     1       6.689 -14.484  39.045  1.00  0.00    -0.000 C 
BRANCH  16  17
ATOM     17  C   UNL     1       5.465 -14.891  39.880  1.00  0.00    -0.003 C 
ATOM     18  C   UNL     1       5.781 -15.008  41.370  1.00  0.00     0.004 C 
ENDBRANCH  16  17
ENDBRANCH  15  16
ENDBRANCH  14  15
ENDBRANCH  13  14
ENDBRANCH  12  13
ENDBRANCH  11  12
ENDBRANCH   1  11
TORSDOF 14
ENDMDL
MODEL 3
REMARK VINA RESULT:    -4.285      1.278      2.685
REMARK INTER + INTRA:          -9.170
REMARK INTER:                  -7.651
REMARK INTRA:                  -1.519
REMARK UNBOUND:                -1.377
REMARK SMILES CCCCCCCCCCCCCCCC(=O)[O-]
REMARK SMILES IDX 9 1 10 2 11 3 12 4 13 5 14 6 15 7 16 8 17 9 18 10 8 11 7 12
REMARK SMILES IDX 6 13 5 14 4 15 3 16 2 17 1 18
REMARK H PARENT
REMARK Flexibility Score: inf
ROOT
ATOM      1  C   UNL     1       9.317  -3.003  39.101  1.00  0.00     0.000 C 
ENDROOT
BRANCH   1   2
ATOM      2  C   UNL     1       8.914  -4.377  39.658  1.00  0.00     0.000 C 
BRANCH   2   3
ATOM      3  C   UNL     1       9.967  -4.959  40.611  1.00  0.00     0.000 C 
BRANCH   3   4
ATOM      4  C   UNL     1       9.661  -4.584  42.066  1.00  0.00     0.000 C 
BRANCH   4   5
ATOM      5  C   UNL     1       8.190  -4.171  42.230  1.00  0.00     0.000 C 
BRANCH   5   6
ATOM      6  C   UNL     1       7.304  -5.320  42.734  1.00  0.00     0.006 C 
BRANCH   6   7
ATOM      7  C   UNL     1       8.113  -6.442  43.399  1.00  0.00     0.053 C 
BRANCH   7   8
ATOM      8  C   UNL     1       7.973  -7.715  42.626  1.00  0.00     0.041 C 
ATOM      9  O   UNL     1       7.564  -7.693  41.435  1.00  0.00    -0.550 OA
ATOM     10  O   UNL     1       8.250  -8.932  43.236  1.00  0.00    -0.550 OA
ENDBRANCH   7   8
ENDBRANCH   6   7
ENDBRANCH   5   6
ENDBRANCH   4   5
ENDBRANCH   3   4
ENDBRANCH   2   3
ENDBRANCH   1   2
BRANCH   1  11
ATOM     11  C   UNL     1       8.156  -1.994  39.122  1.00  0.00     0.000 C 
BRANCH  11  12
ATOM     12  C   UNL     1       6.785  -2.660  38.911  1.00  0.00    -0.000 C 
BRANCH  12  13
ATOM     13  C   UNL     1       5.938  -2.054  37.774  1.00  0.00    -0.000 C 
BRANCH  13  14
ATOM     14  C   UNL     1       6.739  -1.313  36.683  1.00  0.00    -0.000 C 
BRANCH  14  15
ATOM     15  C   UNL     1       6.860  -2.066  35.346  1.00  0.00    -0.000 C 
BRANCH  15  16
ATOM     16  C   UNL     1       7.313  -3.526  35.524  1.00  0.00    -0.000 C 
BRANCH  16  17
ATOM     17  C   UNL     1       8.813  -3.713  35.251  1.00  0.00    -0.003 C 
ATOM     18  C   UNL     1       9.125  -5.040  34.560  1.00  0.00     0.004 C 
ENDBRANCH  16  17
ENDBRANCH  15  16
ENDBRANCH  14  15
ENDBRANCH  13  14
ENDBRANCH  12  13
ENDBRANCH  11  12
ENDBRANCH   1  11
TORSDOF 14
ENDMDL
MODEL 4
REMARK VINA RESULT:    -4.249      3.244      7.480
REMARK INTER + INTRA:          -9.103
REMARK INTER:                  -7.838
REMARK INTRA:                  -1.264
REMARK UNBOUND:                -1.377
REMARK SMILES CCCCCCCCCCCCCCCC(=O)[O-]
REMARK SMILES IDX 9 1 10 2 11 3 12 4 13 5 14 6 15 7 16 8 17 9 18 10 8 11 7 12
REMARK SMILES IDX 6 13 5 14 4 15 3 16 2 17 1 18
REMARK H PARENT
REMARK Flexibility Score: inf
ROOT
ATOM      1  C   UNL     1       7.968  -3.744  38.932  1.00  0.00     0.000 C 
ENDROOT
BRANCH   1   2
ATOM      2  C   UNL     1       7.496  -2.284  39.020  1.00  0.00     0.000 C 
BRANCH   2   3
ATOM      3  C   UNL     1       6.940  -1.763  37.687  1.00  0.00     0.000 C 
BRANCH   3   4
ATOM      4  C   UNL     1       6.497  -2.922  36.785  1.00  0.00     0.000 C 
BRANCH   4   5
ATOM      5  C   UNL     1       7.289  -2.928  35.469  1.00  0.00     0.000 C 
BRANCH   5   6
ATOM      6  C   UNL     1       8.034  -4.252  35.232  1.00  0.00     0.006 C 
BRANCH   6   7
ATOM      7  C   UNL     1       9.544  -4.055  35.049  1.00  0.00     0.053 C 
BRANCH   7   8
ATOM      8  C   UNL     1      10.074  -5.011  34.027  1.00  0.00     0.041 C 
ATOM      9  O   UNL     1       9.925  -4.775  32.800  1.00  0.00    -0.550 OA
ATOM     10  O   UNL     1      10.693  -6.187  34.432  1.00  0.00    -0.550 OA
ENDBRANCH   7   8
ENDBRANCH   6   7
ENDBRANCH   5   6
ENDBRANCH   4   5
ENDBRANCH   3   4
ENDBRANCH   2   3
ENDBRANCH   1   2
BRANCH   1  11
ATOM     11  C   UNL     1       8.646  -4.224  40.227  1.00  0.00     0.000 C 
BRANCH  11  12
ATOM     12  C   UNL     1       8.471  -3.234  41.392  1.00  0.00    -0.000 C 
BRANCH  12  13
ATOM     13  C   UNL     1       8.180  -3.886  42.759  1.00  0.00    -0.000 C 
BRANCH  13  14
ATOM     14  C   UNL     1       7.332  -5.173  42.703  1.00  0.00    -0.000 C 
BRANCH  14  15
ATOM     15  C   UNL     1       7.906  -6.361  43.495  1.00  0.00    -0.000 C 
BRANCH  15  16
ATOM     16  C   UNL     1       9.167  -6.957  42.843  1.00  0.00    -0.000 C 
BRANCH  16  17
ATOM     17  C   UNL     1       8.867  -7.641  41.500  1.00  0.00    -0.003 C 
ATOM     18  C   UNL     1       7.996  -8.887  41.655  1.00  0.00     0.004 C 
ENDBRANCH  16  17
ENDBRANCH  15  16
ENDBRANCH  14  15
ENDBRANCH  13  14
ENDBRANCH  12  13
ENDBRANCH  11  12
ENDBRANCH   1  11
TORSDOF 14
ENDMDL
MODEL 5
REMARK VINA RESULT:    -4.247      3.410      6.124
REMARK INTER + INTRA:          -9.101
REMARK INTER:                  -6.713
REMARK INTRA:                  -2.388
REMARK UNBOUND:                -1.377
REMARK SMILES CCCCCCCCCCCCCCCC(=O)[O-]
REMARK SMILES IDX 9 1 10 2 11 3 12 4 13 5 14 6 15 7 16 8 17 9 18 10 8 11 7 12
REMARK SMILES IDX 6 13 5 14 4 15 3 16 2 17 1 18
REMARK H PARENT
REMARK Flexibility Score: inf
ROOT
ATOM      1  C   UNL     1      10.353  -2.012  42.830  1.00  0.00     0.000 C 
ENDROOT
BRANCH   1   2
ATOM      2  C   UNL     1       8.910  -1.695  42.408  1.00  0.00     0.000 C 
BRANCH   2   3
ATOM      3  C   UNL     1       8.836  -0.587  41.348  1.00  0.00     0.000 C 
BRANCH   3   4
ATOM      4  C   UNL     1       7.979  -1.025  40.154  1.00  0.00     0.000 C 
BRANCH   4   5
ATOM      5  C   UNL     1       8.013  -2.551  39.982  1.00  0.00     0.000 C 
BRANCH   5   6
ATOM      6  C   UNL     1       7.449  -3.008  38.628  1.00  0.00     0.006 C 
BRANCH   6   7
ATOM      7  C   UNL     1       8.480  -3.769  37.785  1.00  0.00     0.053 C 
BRANCH   7   8
ATOM      8  C   UNL     1       8.044  -3.828  36.355  1.00  0.00     0.041 C 
ATOM      9  O   UNL     1       8.870  -4.120  35.451  1.00  0.00    -0.550 OA
ATOM     10  O   UNL     1       6.733  -3.514  36.015  1.00  0.00    -0.550 OA
ENDBRANCH   7   8
ENDBRANCH   6   7
ENDBRANCH   5   6
ENDBRANCH   4   5
ENDBRANCH   3   4
ENDBRANCH   2   3
ENDBRANCH   1   2
BRANCH   1  11
ATOM     11  C   UNL     1      11.392  -1.480  41.828  1.00  0.00     0.000 C 
BRANCH  11  12
ATOM     12  C   UNL     1      12.055  -2.601  41.007  1.00  0.00    -0.000 C 
BRANCH  12  13
ATOM     13  C   UNL     1      11.625  -4.030  41.398  1.00  0.00    -0.000 C 
BRANCH  13  14
ATOM     14  C   UNL     1      11.135  -4.910  40.229  1.00  0.00    -0.000 C 
BRANCH  14  15
ATOM     15  C   UNL     1       9.853  -5.711  40.516  1.00  0.00    -0.000 C 
BRANCH  15  16
ATOM     16  C   UNL     1       9.284  -5.440  41.920  1.00  0.00    -0.000 C 
BRANCH  16  17
ATOM     17  C   UNL     1       7.779  -5.738  42.012  1.00  0.00    -0.003 C 
ATOM     18  C   UNL     1       7.087  -4.938  43.114  1.00  0.00     0.004 C 
ENDBRANCH  16  17
ENDBRANCH  15  16
ENDBRANCH  14  15
ENDBRANCH  13  14
ENDBRANCH  12  13
ENDBRANCH  11  12
ENDBRANCH   1  11
TORSDOF 14
ENDMDL
MODEL 6
REMARK VINA RESULT:    -4.212      3.639      7.092
REMARK INTER + INTRA:          -9.036
REMARK INTER:                  -7.506
REMARK INTRA:                  -1.530
REMARK UNBOUND:                -1.377
REMARK SMILES CCCCCCCCCCCCCCCC(=O)[O-]
REMARK SMILES IDX 9 1 10 2 11 3 12 4 13 5 14 6 15 7 16 8 17 9 18 10 8 11 7 12
REMARK SMILES IDX 6 13 5 14 4 15 3 16 2 17 1 18
REMARK H PARENT
REMARK Flexibility Score: inf
ROOT
ATOM      1  C   UNL     1       7.138  -1.639  38.654  1.00  0.00     0.000 C 
ENDROOT
BRANCH   1   2
ATOM      2  C   UNL     1       6.132  -2.293  37.694  1.00  0.00     0.000 C 
BRANCH   2   3
ATOM      3  C   UNL     1       6.005  -1.533  36.366  1.00  0.00     0.000 C 
BRANCH   3   4
ATOM      4  C   UNL     1       6.849  -2.196  35.270  1.00  0.00     0.000 C 
BRANCH   4   5
ATOM      5  C   UNL     1       7.210  -3.639  35.652  1.00  0.00     0.000 C 
BRANCH   5   6
ATOM      6  C   UNL     1       8.722  -3.909  35.586  1.00  0.00     0.006 C 
BRANCH   6   7
ATOM      7  C   UNL     1       9.102  -4.870  34.453  1.00  0.00     0.053 C 
BRANCH   7   8
ATOM      8  C   UNL     1      10.485  -4.576  33.961  1.00  0.00     0.041 C 
ATOM      9  O   UNL     1      10.873  -3.385  33.832  1.00  0.00    -0.550 OA
ATOM     10  O   UNL     1      11.330  -5.618  33.600  1.00  0.00    -0.550 OA
ENDBRANCH   7   8
ENDBRANCH   6   7
ENDBRANCH   5   6
ENDBRANCH   4   5
ENDBRANCH   3   4
ENDBRANCH   2   3
ENDBRANCH   1   2
BRANCH   1  11
ATOM     11  C   UNL     1       7.647  -2.615  39.729  1.00  0.00     0.000 C 
BRANCH  11  12
ATOM     12  C   UNL     1       8.444  -3.790  39.136  1.00  0.00    -0.000 C 
BRANCH  12  13
ATOM     13  C   UNL     1       9.942  -3.806  39.501  1.00  0.00    -0.000 C 
BRANCH  13  14
ATOM     14  C   UNL     1      10.473  -5.153  40.036  1.00  0.00    -0.000 C 
BRANCH  14  15
ATOM     15  C   UNL     1       9.941  -5.551  41.424  1.00  0.00    -0.000 C 
BRANCH  15  16
ATOM     16  C   UNL     1       8.998  -6.767  41.373  1.00  0.00    -0.000 C 
BRANCH  16  17
ATOM     17  C   UNL     1       7.537  -6.390  41.665  1.00  0.00    -0.003 C 
ATOM     18  C   UNL     1       7.414  -5.182  42.592  1.00  0.00     0.004 C 
ENDBRANCH  16  17
ENDBRANCH  15  16
ENDBRANCH  14  15
ENDBRANCH  13  14
ENDBRANCH  12  13
ENDBRANCH  11  12
ENDBRANCH   1  11
TORSDOF 14
ENDMDL
MODEL 7
REMARK VINA RESULT:    -4.180      2.896      7.728
REMARK INTER + INTRA:          -8.978
REMARK INTER:                  -8.074
REMARK INTRA:                  -0.904
REMARK UNBOUND:                -1.377
REMARK SMILES CCCCCCCCCCCCCCCC(=O)[O-]
REMARK SMILES IDX 9 1 10 2 11 3 12 4 13 5 14 6 15 7 16 8 17 9 18 10 8 11 7 12
REMARK SMILES IDX 6 13 5 14 4 15 3 16 2 17 1 18
REMARK H PARENT
REMARK Flexibility Score: inf
ROOT
ATOM      1  C   UNL     1       8.951  -4.651  41.965  1.00  0.00     0.000 C 
ENDROOT
BRANCH   1   2
ATOM      2  C   UNL     1       8.919  -3.252  42.601  1.00  0.00     0.000 C 
BRANCH   2   3
ATOM      3  C   UNL     1       9.406  -2.157  41.642  1.00  0.00     0.000 C 
BRANCH   3   4
ATOM      4  C   UNL     1       8.264  -1.203  41.271  1.00  0.00     0.000 C 
BRANCH   4   5
ATOM      5  C   UNL     1       7.998  -1.226  39.758  1.00  0.00     0.000 C 
BRANCH   5   6
ATOM      6  C   UNL     1       7.567  -2.612  39.253  1.00  0.00     0.006 C 
BRANCH   6   7
ATOM      7  C   UNL     1       6.620  -2.533  38.049  1.00  0.00     0.053 C 
BRANCH   7   8
ATOM      8  C   UNL     1       7.143  -3.362  36.918  1.00  0.00     0.041 C 
ATOM      9  O   UNL     1       8.162  -4.083  37.078  1.00  0.00    -0.550 OA
ATOM     10  O   UNL     1       6.531  -3.302  35.672  1.00  0.00    -0.550 OA
ENDBRANCH   7   8
ENDBRANCH   6   7
ENDBRANCH   5   6
ENDBRANCH   4   5
ENDBRANCH   3   4
ENDBRANCH   2   3
ENDBRANCH   1   2
BRANCH   1  11
ATOM     11  C   UNL     1       7.780  -5.536  42.427  1.00  0.00     0.000 C 
BRANCH  11  12
ATOM     12  C   UNL     1       8.177  -6.506  43.553  1.00  0.00    -0.000 C 
BRANCH  12  13
ATOM     13  C   UNL     1       8.548  -7.927  43.084  1.00  0.00    -0.000 C 
BRANCH  13  14
ATOM     14  C   UNL     1       7.755  -8.443  41.865  1.00  0.00    -0.000 C 
BRANCH  14  15
ATOM     15  C   UNL     1       7.025  -9.780  42.088  1.00  0.00    -0.000 C 
BRANCH  15  16
ATOM     16  C   UNL     1       7.070 -10.245  43.554  1.00  0.00    -0.000 C 
BRANCH  16  17
ATOM     17  C   UNL     1       5.923 -11.207  43.901  1.00  0.00    -0.003 C 
ATOM     18  C   UNL     1       5.064 -11.561  42.687  1.00  0.00     0.004 C 
ENDBRANCH  16  17
ENDBRANCH  15  16
ENDBRANCH  14  15
ENDBRANCH  13  14
ENDBRANCH  12  13
ENDBRANCH  11  12
ENDBRANCH   1  11
TORSDOF 14
ENDMDL
MODEL 8
REMARK VINA RESULT:    -4.156      3.158      7.217
REMARK INTER + INTRA:          -8.935
REMARK INTER:                  -7.432
REMARK INTRA:                  -1.503
REMARK UNBOUND:                -1.377
REMARK SMILES CCCCCCCCCCCCCCCC(=O)[O-]
REMARK SMILES IDX 9 1 10 2 11 3 12 4 13 5 14 6 15 7 16 8 17 9 18 10 8 11 7 12
REMARK SMILES IDX 6 13 5 14 4 15 3 16 2 17 1 18
REMARK H PARENT
REMARK Flexibility Score: inf
ROOT
ATOM      1  C   UNL     1      11.418  -3.124  41.526  1.00  0.00     0.000 C 
ENDROOT
BRANCH   1   2
ATOM      2  C   UNL     1      11.401  -3.226  39.992  1.00  0.00     0.000 C 
BRANCH   2   3
ATOM      3  C   UNL     1      10.422  -4.294  39.483  1.00  0.00     0.000 C 
BRANCH   3   4
ATOM      4  C   UNL     1       9.462  -3.708  38.441  1.00  0.00     0.000 C 
BRANCH   4   5
ATOM      5  C   UNL     1       8.627  -2.567  39.041  1.00  0.00     0.000 C 
BRANCH   5   6
ATOM      6  C   UNL     1       7.136  -2.674  38.686  1.00  0.00     0.006 C 
BRANCH   6   7
ATOM      7  C   UNL     1       6.691  -1.609  37.676  1.00  0.00     0.053 C 
BRANCH   7   8
ATOM      8  C   UNL     1       6.781  -2.142  36.281  1.00  0.00     0.041 C 
ATOM      9  O   UNL     1       6.771  -3.384  36.075  1.00  0.00    -0.550 OA
ATOM     10  O   UNL     1       6.924  -1.267  35.211  1.00  0.00    -0.550 OA
ENDBRANCH   7   8
ENDBRANCH   6   7
ENDBRANCH   5   6
ENDBRANCH   4   5
ENDBRANCH   3   4
ENDBRANCH   2   3
ENDBRANCH   1   2
BRANCH   1  11
ATOM     11  C   UNL     1      10.472  -4.136  42.195  1.00  0.00     0.000 C 
BRANCH  11  12
ATOM     12  C   UNL     1       9.153  -3.496  42.665  1.00  0.00    -0.000 C 
BRANCH  12  13
ATOM     13  C   UNL     1       7.877  -4.222  42.193  1.00  0.00    -0.000 C 
BRANCH  13  14
ATOM     14  C   UNL     1       7.300  -5.249  43.189  1.00  0.00    -0.000 C 
BRANCH  14  15
ATOM     15  C   UNL     1       7.925  -6.652  43.106  1.00  0.00    -0.000 C 
BRANCH  15  16
ATOM     16  C   UNL     1       8.070  -7.155  41.659  1.00  0.00    -0.000 C 
BRANCH  16  17
ATOM     17  C   UNL     1       7.546  -8.588  41.478  1.00  0.00    -0.003 C 
ATOM     18  C   UNL     1       7.607  -9.404  42.769  1.00  0.00     0.004 C 
ENDBRANCH  16  17
ENDBRANCH  15  16
ENDBRANCH  14  15
ENDBRANCH  13  14
ENDBRANCH  12  13
ENDBRANCH  11  12
ENDBRANCH   1  11
TORSDOF 14
ENDMDL
MODEL 9
REMARK VINA RESULT:    -4.154      3.030      6.420
REMARK INTER + INTRA:          -8.931
REMARK INTER:                  -6.844
REMARK INTRA:                  -2.086
REMARK UNBOUND:                -1.377
REMARK SMILES CCCCCCCCCCCCCCCC(=O)[O-]
REMARK SMILES IDX 9 1 10 2 11 3 12 4 13 5 14 6 15 7 16 8 17 9 18 10 8 11 7 12
REMARK SMILES IDX 6 13 5 14 4 15 3 16 2 17 1 18
REMARK H PARENT
REMARK Flexibility Score: inf
ROOT
ATOM      1  C   UNL     1       8.826  -1.786  43.093  1.00  0.00     0.000 C 
ENDROOT
BRANCH   1   2
ATOM      2  C   UNL     1       8.683  -0.745  41.972  1.00  0.00     0.000 C 
BRANCH   2   3
ATOM      3  C   UNL     1       8.908  -1.345  40.577  1.00  0.00     0.000 C 
BRANCH   3   4
ATOM      4  C   UNL     1       7.997  -2.557  40.346  1.00  0.00     0.000 C 
BRANCH   4   5
ATOM      5  C   UNL     1       8.759  -3.692  39.644  1.00  0.00     0.000 C 
BRANCH   5   6
ATOM      6  C   UNL     1       8.929  -4.932  40.536  1.00  0.00     0.006 C 
BRANCH   6   7
ATOM      7  C   UNL     1       7.838  -5.041  41.610  1.00  0.00     0.053 C 
BRANCH   7   8
ATOM      8  C   UNL     1       7.868  -6.394  42.248  1.00  0.00     0.041 C 
ATOM      9  O   UNL     1       7.576  -7.418  41.578  1.00  0.00    -0.550 OA
ATOM     10  O   UNL     1       8.174  -6.518  43.598  1.00  0.00    -0.550 OA
ENDBRANCH   7   8
ENDBRANCH   6   7
ENDBRANCH   5   6
ENDBRANCH   4   5
ENDBRANCH   3   4
ENDBRANCH   2   3
ENDBRANCH   1   2
BRANCH   1  11
ATOM     11  C   UNL     1       8.594  -1.184  44.490  1.00  0.00     0.000 C 
BRANCH  11  12
ATOM     12  C   UNL     1       9.239   0.203  44.655  1.00  0.00    -0.000 C 
BRANCH  12  13
ATOM     13  C   UNL     1      10.310   0.292  45.761  1.00  0.00    -0.000 C 
BRANCH  13  14
ATOM     14  C   UNL     1      11.769   0.179  45.271  1.00  0.00    -0.000 C 
BRANCH  14  15
ATOM     15  C   UNL     1      11.932   0.062  43.746  1.00  0.00    -0.000 C 
BRANCH  15  16
ATOM     16  C   UNL     1      12.737  -1.181  43.327  1.00  0.00    -0.000 C 
BRANCH  16  17
ATOM     17  C   UNL     1      12.346  -1.693  41.932  1.00  0.00    -0.003 C 
ATOM     18  C   UNL     1      11.957  -3.171  41.935  1.00  0.00     0.004 C 
ENDBRANCH  16  17
ENDBRANCH  15  16
ENDBRANCH  14  15
ENDBRANCH  13  14
ENDBRANCH  12  13
ENDBRANCH  11  12
ENDBRANCH   1  11
TORSDOF 14
ENDMDL
