MODEL 1
REMARK VINA RESULT:    -3.282      0.000      0.000
REMARK INTER + INTRA:          -5.456
REMARK INTER:                  -4.817
REMARK INTRA:                  -0.639
REMARK UNBOUND:                -0.639
REMARK SMILES O=C([O-])CCCCCCCC(=O)[O-]
REMARK SMILES IDX 7 1 6 2 5 3 4 4 2 5 1 6 3 7 8 8 9 9 10 10 11 11 12 12 13 13
REMARK H PARENT
REMARK Flexibility Score: inf
ROOT
ATOM      1  C   UNL     1     -23.870   2.518 -33.509  1.00  0.00     0.000 C 
ENDROOT
BRANCH   1   2
ATOM      2  C   UNL     1     -22.658   3.199 -34.180  1.00  0.00     0.000 C 
BRANCH   2   3
ATOM      3  C   UNL     1     -23.001   4.391 -35.090  1.00  0.00     0.006 C 
BRANCH   3   4
ATOM      4  C   UNL     1     -23.777   3.977 -36.347  1.00  0.00     0.053 C 
BRANCH   4   5
ATOM      5  C   UNL     1     -22.892   3.209 -37.277  1.00  0.00     0.041 C 
ATOM      6  O   UNL     1     -22.023   3.808 -37.964  1.00  0.00    -0.550 OA
ATOM      7  O   UNL     1     -22.994   1.826 -37.350  1.00  0.00    -0.550 OA
ENDBRANCH   4   5
ENDBRANCH   3   4
ENDBRANCH   2   3
ENDBRANCH   1   2
BRANCH   1   8
ATOM      8  C   UNL     1     -24.505   3.310 -32.353  1.00  0.00     0.000 C 
BRANCH   8   9
ATOM      9  C   UNL     1     -25.762   4.083 -32.778  1.00  0.00     0.006 C 
BRANCH   9  10
ATOM     10  C   UNL     1     -26.568   3.293 -33.812  1.00  0.00     0.053 C 
BRANCH  10  11
ATOM     11  C   UNL     1     -27.633   4.154 -34.416  1.00  0.00     0.041 C 
ATOM     12  O   UNL     1     -27.381   4.855 -35.431  1.00  0.00    -0.550 OA
ATOM     13  O   UNL     1     -28.917   4.146 -33.886  1.00  0.00    -0.550 OA
ENDBRANCH  10  11
ENDBRANCH   9  10
ENDBRANCH   8   9
ENDBRANCH   1   8
TORSDOF 8
ENDMDL
MODEL 2
REMARK VINA RESULT:    -3.264      0.529      4.917
REMARK INTER + INTRA:          -5.430
REMARK INTER:                  -4.799
REMARK INTRA:                  -0.631
REMARK UNBOUND:                -0.639
REMARK SMILES O=C([O-])CCCCCCCC(=O)[O-]
REMARK SMILES IDX 7 1 6 2 5 3 4 4 2 5 1 6 3 7 8 8 9 9 10 10 11 11 12 12 13 13
REMARK H PARENT
REMARK Flexibility Score: inf
ROOT
ATOM      1  C   UNL     1     -23.510   2.136 -33.818  1.00  0.00     0.000 C 
ENDROOT
BRANCH   1   2
ATOM      2  C   UNL     1     -24.610   2.557 -32.821  1.00  0.00     0.000 C 
BRANCH   2   3
ATOM      3  C   UNL     1     -26.026   2.652 -33.416  1.00  0.00     0.006 C 
BRANCH   3   4
ATOM      4  C   UNL     1     -26.576   4.085 -33.418  1.00  0.00     0.053 C 
BRANCH   4   5
ATOM      5  C   UNL     1     -27.686   4.216 -34.412  1.00  0.00     0.041 C 
ATOM      6  O   UNL     1     -27.481   4.776 -35.521  1.00  0.00    -0.550 OA
ATOM      7  O   UNL     1     -28.936   3.677 -34.135  1.00  0.00    -0.550 OA
ENDBRANCH   4   5
ENDBRANCH   3   4
ENDBRANCH   2   3
ENDBRANCH   1   2
BRANCH   1   8
ATOM      8  C   UNL     1     -22.498   3.238 -34.177  1.00  0.00     0.000 C 
BRANCH   8   9
ATOM      9  C   UNL     1     -23.107   4.352 -35.041  1.00  0.00     0.006 C 
BRANCH   9  10
ATOM     10  C   UNL     1     -23.890   3.766 -36.219  1.00  0.00     0.053 C 
BRANCH  10  11
ATOM     11  C   UNL     1     -22.954   3.213 -37.246  1.00  0.00     0.041 C 
ATOM     12  O   UNL     1     -22.834   1.968 -37.389  1.00  0.00    -0.550 OA
ATOM     13  O   UNL     1     -22.249   4.073 -38.079  1.00  0.00    -0.550 OA
ENDBRANCH  10  11
ENDBRANCH   9  10
ENDBRANCH   8   9
ENDBRANCH   1   8
TORSDOF 8
ENDMDL
MODEL 3
REMARK VINA RESULT:    -3.168      2.496      3.336
REMARK INTER + INTRA:          -5.289
REMARK INTER:                  -4.610
REMARK INTRA:                  -0.679
REMARK UNBOUND:                -0.639
REMARK SMILES O=C([O-])CCCCCCCC(=O)[O-]
REMARK SMILES IDX 7 1 6 2 5 3 4 4 2 5 1 6 3 7 8 8 9 9 10 10 11 11 12 12 13 13
REMARK H PARENT
REMARK Flexibility Score: inf
ROOT
ATOM      1  C   UNL     1     -26.247   4.076 -34.740  1.00  0.00     0.000 C 
ENDROOT
BRANCH   1   2
ATOM      2  C   UNL     1     -25.295   5.091 -35.407  1.00  0.00     0.000 C 
BRANCH   2   3
ATOM      3  C   UNL     1     -24.803   4.698 -36.811  1.00  0.00     0.006 C 
BRANCH   3   4
ATOM      4  C   UNL     1     -23.292   4.894 -36.990  1.00  0.00     0.053 C 
BRANCH   4   5
ATOM      5  C   UNL     1     -22.696   3.727 -37.712  1.00  0.00     0.041 C 
ATOM      6  O   UNL     1     -22.027   3.908 -38.764  1.00  0.00    -0.550 OA
ATOM      7  O   UNL     1     -22.837   2.445 -37.199  1.00  0.00    -0.550 OA
ENDBRANCH   4   5
ENDBRANCH   3   4
ENDBRANCH   2   3
ENDBRANCH   1   2
BRANCH   1   8
ATOM      8  C   UNL     1     -26.235   4.084 -33.201  1.00  0.00     0.000 C 
BRANCH   8   9
ATOM      9  C   UNL     1     -24.868   3.705 -32.612  1.00  0.00     0.006 C 
BRANCH   9  10
ATOM     10  C   UNL     1     -24.454   2.298 -33.049  1.00  0.00     0.053 C 
BRANCH  10  11
ATOM     11  C   UNL     1     -23.115   2.329 -33.717  1.00  0.00     0.041 C 
ATOM     12  O   UNL     1     -22.561   3.430 -33.974  1.00  0.00    -0.550 OA
ATOM     13  O   UNL     1     -22.458   1.141 -34.013  1.00  0.00    -0.550 OA
ENDBRANCH  10  11
ENDBRANCH   9  10
ENDBRANCH   8   9
ENDBRANCH   1   8
TORSDOF 8
ENDMDL
MODEL 4
REMARK VINA RESULT:    -3.127      1.712      4.203
REMARK INTER + INTRA:          -5.229
REMARK INTER:                  -4.510
REMARK INTRA:                  -0.718
REMARK UNBOUND:                -0.639
REMARK SMILES O=C([O-])CCCCCCCC(=O)[O-]
REMARK SMILES IDX 7 1 6 2 5 3 4 4 2 5 1 6 3 7 8 8 9 9 10 10 11 11 12 12 13 13
REMARK H PARENT
REMARK Flexibility Score: inf
ROOT
ATOM      1  C   UNL     1     -25.631   2.577 -33.802  1.00  0.00     0.000 C 
ENDROOT
BRANCH   1   2
ATOM      2  C   UNL     1     -26.776   3.585 -33.572  1.00  0.00     0.000 C 
BRANCH   2   3
ATOM      3  C   UNL     1     -27.210   4.374 -34.820  1.00  0.00     0.006 C 
BRANCH   3   4
ATOM      4  C   UNL     1     -26.026   4.987 -35.579  1.00  0.00     0.053 C 
BRANCH   4   5
ATOM      5  C   UNL     1     -26.288   4.973 -37.053  1.00  0.00     0.041 C 
ATOM      6  O   UNL     1     -25.327   4.924 -37.865  1.00  0.00    -0.550 OA
ATOM      7  O   UNL     1     -27.593   4.964 -37.528  1.00  0.00    -0.550 OA
ENDBRANCH   4   5
ENDBRANCH   3   4
ENDBRANCH   2   3
ENDBRANCH   1   2
BRANCH   1   8
ATOM      8  C   UNL     1     -24.408   2.759 -32.887  1.00  0.00     0.000 C 
BRANCH   8   9
ATOM      9  C   UNL     1     -23.115   3.039 -33.667  1.00  0.00     0.006 C 
BRANCH   9  10
ATOM     10  C   UNL     1     -23.054   2.201 -34.947  1.00  0.00     0.053 C 
BRANCH  10  11
ATOM     11  C   UNL     1     -22.838   3.079 -36.139  1.00  0.00     0.041 C 
ATOM     12  O   UNL     1     -22.553   4.296 -35.986  1.00  0.00    -0.550 OA
ATOM     13  O   UNL     1     -22.903   2.543 -37.419  1.00  0.00    -0.550 OA
ENDBRANCH  10  11
ENDBRANCH   9  10
ENDBRANCH   8   9
ENDBRANCH   1   8
TORSDOF 8
ENDMDL
MODEL 5
REMARK VINA RESULT:    -3.108      1.742      2.590
REMARK INTER + INTRA:          -5.202
REMARK INTER:                  -4.560
REMARK INTRA:                  -0.642
REMARK UNBOUND:                -0.639
REMARK SMILES O=C([O-])CCCCCCCC(=O)[O-]
REMARK SMILES IDX 7 1 6 2 5 3 4 4 2 5 1 6 3 7 8 8 9 9 10 10 11 11 12 12 13 13
REMARK H PARENT
REMARK Flexibility Score: inf
ROOT
ATOM      1  C   UNL     1     -25.895   2.589 -33.613  1.00  0.00     0.000 C 
ENDROOT
BRANCH   1   2
ATOM      2  C   UNL     1     -24.603   2.548 -32.771  1.00  0.00     0.000 C 
BRANCH   2   3
ATOM      3  C   UNL     1     -23.355   3.125 -33.464  1.00  0.00     0.006 C 
BRANCH   3   4
ATOM      4  C   UNL     1     -22.713   2.141 -34.450  1.00  0.00     0.053 C 
BRANCH   4   5
ATOM      5  C   UNL     1     -22.730   2.705 -35.836  1.00  0.00     0.041 C 
ATOM      6  O   UNL     1     -22.507   3.930 -36.023  1.00  0.00    -0.550 OA
ATOM      7  O   UNL     1     -22.943   1.870 -36.925  1.00  0.00    -0.550 OA
ENDBRANCH   4   5
ENDBRANCH   3   4
ENDBRANCH   2   3
ENDBRANCH   1   2
BRANCH   1   8
ATOM      8  C   UNL     1     -26.697   3.898 -33.515  1.00  0.00     0.000 C 
BRANCH   8   9
ATOM      9  C   UNL     1     -27.078   4.470 -34.888  1.00  0.00     0.006 C 
BRANCH   9  10
ATOM     10  C   UNL     1     -25.836   4.941 -35.650  1.00  0.00     0.053 C 
BRANCH  10  11
ATOM     11  C   UNL     1     -26.079   4.901 -37.125  1.00  0.00     0.041 C 
ATOM     12  O   UNL     1     -25.109   4.900 -37.928  1.00  0.00    -0.550 OA
ATOM     13  O   UNL     1     -27.377   4.815 -37.613  1.00  0.00    -0.550 OA
ENDBRANCH  10  11
ENDBRANCH   9  10
ENDBRANCH   8   9
ENDBRANCH   1   8
TORSDOF 8
ENDMDL
MODEL 6
REMARK VINA RESULT:    -3.086     20.898     22.385
REMARK INTER + INTRA:          -5.168
REMARK INTER:                  -4.859
REMARK INTRA:                  -0.308
REMARK UNBOUND:                -0.639
REMARK SMILES O=C([O-])CCCCCCCC(=O)[O-]
REMARK SMILES IDX 7 1 6 2 5 3 4 4 2 5 1 6 3 7 8 8 9 9 10 10 11 11 12 12 13 13
REMARK H PARENT
REMARK Flexibility Score: inf
ROOT
ATOM      1  C   UNL     1     -22.312 -13.481 -19.893  1.00  0.00     0.000 C 
ENDROOT
BRANCH   1   2
ATOM      2  C   UNL     1     -23.452 -14.474 -20.196  1.00  0.00     0.000 C 
BRANCH   2   3
ATOM      3  C   UNL     1     -23.442 -15.063 -21.618  1.00  0.00     0.006 C 
BRANCH   3   4
ATOM      4  C   UNL     1     -24.575 -14.519 -22.497  1.00  0.00     0.053 C 
BRANCH   4   5
ATOM      5  C   UNL     1     -24.049 -14.122 -23.840  1.00  0.00     0.041 C 
ATOM      6  O   UNL     1     -22.899 -14.484 -24.202  1.00  0.00    -0.550 OA
ATOM      7  O   UNL     1     -24.847 -13.393 -24.713  1.00  0.00    -0.550 OA
ENDBRANCH   4   5
ENDBRANCH   3   4
ENDBRANCH   2   3
ENDBRANCH   1   2
BRANCH   1   8
ATOM      8  C   UNL     1     -21.238 -13.997 -18.919  1.00  0.00     0.000 C 
BRANCH   8   9
ATOM      9  C   UNL     1     -19.979 -13.118 -18.896  1.00  0.00     0.006 C 
BRANCH   9  10
ATOM     10  C   UNL     1     -20.287 -11.706 -19.400  1.00  0.00     0.053 C 
BRANCH  10  11
ATOM     11  C   UNL     1     -19.069 -11.091 -20.013  1.00  0.00     0.041 C 
ATOM     12  O   UNL     1     -18.177 -11.820 -20.519  1.00  0.00    -0.550 OA
ATOM     13  O   UNL     1     -18.941  -9.708 -20.068  1.00  0.00    -0.550 OA
ENDBRANCH  10  11
ENDBRANCH   9  10
ENDBRANCH   8   9
ENDBRANCH   1   8
TORSDOF 8
ENDMDL
MODEL 7
REMARK VINA RESULT:    -2.983      2.459      4.280
REMARK INTER + INTRA:          -5.017
REMARK INTER:                  -4.445
REMARK INTRA:                  -0.572
REMARK UNBOUND:                -0.639
REMARK SMILES O=C([O-])CCCCCCCC(=O)[O-]
REMARK SMILES IDX 7 1 6 2 5 3 4 4 2 5 1 6 3 7 8 8 9 9 10 10 11 11 12 12 13 13
REMARK H PARENT
REMARK Flexibility Score: inf
ROOT
ATOM      1  C   UNL     1     -26.355   3.766 -34.457  1.00  0.00     0.000 C 
ENDROOT
BRANCH   1   2
ATOM      2  C   UNL     1     -26.004   4.273 -33.043  1.00  0.00     0.000 C 
BRANCH   2   3
ATOM      3  C   UNL     1     -24.718   3.681 -32.439  1.00  0.00     0.006 C 
BRANCH   3   4
ATOM      4  C   UNL     1     -24.374   2.299 -33.008  1.00  0.00     0.053 C 
BRANCH   4   5
ATOM      5  C   UNL     1     -23.074   2.347 -33.748  1.00  0.00     0.041 C 
ATOM      6  O   UNL     1     -22.506   1.280 -34.099  1.00  0.00    -0.550 OA
ATOM      7  O   UNL     1     -22.514   3.571 -34.092  1.00  0.00    -0.550 OA
ENDBRANCH   4   5
ENDBRANCH   3   4
ENDBRANCH   2   3
ENDBRANCH   1   2
BRANCH   1   8
ATOM      8  C   UNL     1     -26.897   4.837 -35.419  1.00  0.00     0.000 C 
BRANCH   8   9
ATOM      9  C   UNL     1     -26.069   4.959 -36.707  1.00  0.00     0.006 C 
BRANCH   9  10
ATOM     10  C   UNL     1     -24.571   4.854 -36.407  1.00  0.00     0.053 C 
BRANCH  10  11
ATOM     11  C   UNL     1     -23.853   4.203 -37.546  1.00  0.00     0.041 C 
ATOM     12  O   UNL     1     -22.784   3.569 -37.342  1.00  0.00    -0.550 OA
ATOM     13  O   UNL     1     -24.389   4.254 -38.827  1.00  0.00    -0.550 OA
ENDBRANCH  10  11
ENDBRANCH   9  10
ENDBRANCH   8   9
ENDBRANCH   1   8
TORSDOF 8
ENDMDL
MODEL 8
REMARK VINA RESULT:    -2.821     13.521     15.476
REMARK INTER + INTRA:          -4.780
REMARK INTER:                  -4.355
REMARK INTRA:                  -0.425
REMARK UNBOUND:                -0.639
REMARK SMILES O=C([O-])CCCCCCCC(=O)[O-]
REMARK SMILES IDX 7 1 6 2 5 3 4 4 2 5 1 6 3 7 8 8 9 9 10 10 11 11 12 12 13 13
REMARK H PARENT
REMARK Flexibility Score: inf
ROOT
ATOM      1  C   UNL     1     -10.630  -0.043 -36.163  1.00  0.00     0.000 C 
ENDROOT
BRANCH   1   2
ATOM      2  C   UNL     1     -10.355  -1.528 -36.480  1.00  0.00     0.000 C 
BRANCH   2   3
ATOM      3  C   UNL     1      -9.428  -1.775 -37.684  1.00  0.00     0.006 C 
BRANCH   3   4
ATOM      4  C   UNL     1      -9.987  -2.815 -38.663  1.00  0.00     0.053 C 
BRANCH   4   5
ATOM      5  C   UNL     1     -10.026  -4.167 -38.024  1.00  0.00     0.041 C 
ATOM      6  O   UNL     1     -11.111  -4.626 -37.578  1.00  0.00    -0.550 OA
ATOM      7  O   UNL     1      -8.875  -4.941 -37.962  1.00  0.00    -0.550 OA
ENDBRANCH   4   5
ENDBRANCH   3   4
ENDBRANCH   2   3
ENDBRANCH   1   2
BRANCH   1   8
ATOM      8  C   UNL     1      -9.405   0.883 -36.256  1.00  0.00     0.000 C 
BRANCH   8   9
ATOM      9  C   UNL     1      -9.596   2.027 -37.263  1.00  0.00     0.006 C 
BRANCH   9  10
ATOM     10  C   UNL     1     -11.062   2.146 -37.686  1.00  0.00     0.053 C 
BRANCH  10  11
ATOM     11  C   UNL     1     -11.541   3.554 -37.524  1.00  0.00     0.041 C 
ATOM     12  O   UNL     1     -11.033   4.300 -36.646  1.00  0.00    -0.550 OA
ATOM     13  O   UNL     1     -12.517   4.059 -38.375  1.00  0.00    -0.550 OA
ENDBRANCH  10  11
ENDBRANCH   9  10
ENDBRANCH   8   9
ENDBRANCH   1   8
TORSDOF 8
ENDMDL
