MODEL 1
REMARK VINA RESULT:    -5.845      0.000      0.000
REMARK INTER + INTRA:          -6.016
REMARK INTER:                  -6.016
REMARK INTRA:                   0.000
REMARK UNBOUND:                 0.000
REMARK SMILES C=C1[C@@H](O)C[C@@]23C[C@@H]1C(C)(C)[C@H]2CC[C@@H]3C
REMARK SMILES IDX 16 1 15 2 14 3 13 4 12 5 6 6 7 7 8 8 9 9 10 10 11 11 2 12
REMARK SMILES IDX 1 13 3 14 5 15 4 16
REMARK H PARENT 4 17
REMARK Flexibility Score: inf
ROOT
ATOM      1  C   UNL     1     147.466 143.378 140.706  1.00  0.00     0.008 C 
ATOM      2  C   UNL     1     148.693 142.451 140.661  1.00  0.00    -0.008 C 
ATOM      3  C   UNL     1     149.279 142.171 142.084  1.00  0.00     0.004 C 
ATOM      4  C   UNL     1     148.974 140.692 142.436  1.00  0.00     0.005 C 
ATOM      5  C   UNL     1     147.958 140.318 141.377  1.00  0.00     0.002 C 
ATOM      6  C   UNL     1     148.406 141.032 140.109  1.00  0.00    -0.020 C 
ATOM      7  C   UNL     1     147.222 140.688 139.211  1.00  0.00     0.016 C 
ATOM      8  C   UNL     1     147.178 139.148 139.417  1.00  0.00     0.023 C 
ATOM      9  C   UNL     1     147.489 138.912 140.951  1.00  0.00    -0.025 C 
ATOM     10  C   UNL     1     146.182 138.523 141.681  1.00  0.00     0.012 C 
ATOM     11  C   UNL     1     148.543 137.821 141.273  1.00  0.00     0.012 C 
ATOM     12  C   UNL     1     148.260 138.565 138.536  1.00  0.00    -0.045 C 
ATOM     13  C   UNL     1     148.079 137.385 137.921  1.00  0.00     0.011 C 
ATOM     14  C   UNL     1     149.572 139.312 138.399  1.00  0.00     0.140 C 
ATOM     15  C   UNL     1     149.734 140.458 139.449  1.00  0.00     0.044 C 
ENDROOT
BRANCH  14  16
ATOM     16  O   UNL     1     149.659 139.854 137.106  1.00  0.00    -0.389 OA
ATOM     17  H   UNL     1     149.440 139.125 136.467  1.00  0.00     0.211 HD
ENDBRANCH  14  16
TORSDOF 1
ENDMDL
MODEL 2
REMARK VINA RESULT:    -5.513      1.347      4.125
REMARK INTER + INTRA:          -5.674
REMARK INTER:                  -5.674
REMARK INTRA:                   0.000
REMARK UNBOUND:                 0.000
REMARK SMILES C=C1[C@@H](O)C[C@@]23C[C@@H]1C(C)(C)[C@H]2CC[C@@H]3C
REMARK SMILES IDX 16 1 15 2 14 3 13 4 12 5 6 6 7 7 8 8 9 9 10 10 11 11 2 12
REMARK SMILES IDX 1 13 3 14 5 15 4 16
REMARK H PARENT 4 17
REMARK Flexibility Score: inf
ROOT
ATOM      1  C   UNL     1     150.123 136.964 137.678  1.00  0.00     0.008 C 
ATOM      2  C   UNL     1     148.718 137.565 137.861  1.00  0.00    -0.008 C 
ATOM      3  C   UNL     1     147.731 136.568 138.552  1.00  0.00     0.004 C 
ATOM      4  C   UNL     1     147.447 137.100 139.980  1.00  0.00     0.005 C 
ATOM      5  C   UNL     1     148.525 138.150 140.146  1.00  0.00     0.002 C 
ATOM      6  C   UNL     1     148.668 138.810 138.782  1.00  0.00    -0.020 C 
ATOM      7  C   UNL     1     149.868 139.705 139.074  1.00  0.00     0.016 C 
ATOM      8  C   UNL     1     149.363 140.401 140.369  1.00  0.00     0.023 C 
ATOM      9  C   UNL     1     148.612 139.279 141.194  1.00  0.00    -0.025 C 
ATOM     10  C   UNL     1     149.494 138.850 142.391  1.00  0.00     0.012 C 
ATOM     11  C   UNL     1     147.220 139.662 141.758  1.00  0.00     0.012 C 
ATOM     12  C   UNL     1     148.415 141.494 139.930  1.00  0.00    -0.045 C 
ATOM     13  C   UNL     1     148.360 142.660 140.593  1.00  0.00     0.011 C 
ATOM     14  C   UNL     1     147.491 141.231 138.757  1.00  0.00     0.140 C 
ATOM     15  C   UNL     1     147.441 139.724 138.346  1.00  0.00     0.044 C 
ENDROOT
BRANCH  14  16
ATOM     16  O   UNL     1     147.916 141.996 137.658  1.00  0.00    -0.389 OA
ATOM     17  H   UNL     1     147.636 142.934 137.828  1.00  0.00     0.211 HD
ENDBRANCH  14  16
TORSDOF 1
ENDMDL
MODEL 3
REMARK VINA RESULT:    -5.302     11.834     14.332
REMARK INTER + INTRA:          -5.457
REMARK INTER:                  -5.457
REMARK INTRA:                   0.000
REMARK UNBOUND:                 0.000
REMARK SMILES C=C1[C@@H](O)C[C@@]23C[C@@H]1C(C)(C)[C@H]2CC[C@@H]3C
REMARK SMILES IDX 16 1 15 2 14 3 13 4 12 5 6 6 7 7 8 8 9 9 10 10 11 11 2 12
REMARK SMILES IDX 1 13 3 14 5 15 4 16
REMARK H PARENT 4 17
REMARK Flexibility Score: inf
ROOT
ATOM      1  C   UNL     1     133.222 138.844 140.607  1.00  0.00     0.008 C 
ATOM      2  C   UNL     1     133.295 137.515 141.379  1.00  0.00    -0.008 C 
ATOM      3  C   UNL     1     133.679 136.312 140.455  1.00  0.00     0.004 C 
ATOM      4  C   UNL     1     135.117 135.871 140.830  1.00  0.00     0.005 C 
ATOM      5  C   UNL     1     135.592 137.031 141.680  1.00  0.00     0.002 C 
ATOM      6  C   UNL     1     134.378 137.473 142.485  1.00  0.00    -0.020 C 
ATOM      7  C   UNL     1     134.970 138.712 143.148  1.00  0.00     0.016 C 
ATOM      8  C   UNL     1     136.272 138.097 143.734  1.00  0.00     0.023 C 
ATOM      9  C   UNL     1     136.802 137.089 142.635  1.00  0.00    -0.025 C 
ATOM     10  C   UNL     1     138.031 137.707 141.928  1.00  0.00     0.012 C 
ATOM     11  C   UNL     1     137.215 135.683 143.142  1.00  0.00     0.012 C 
ATOM     12  C   UNL     1     135.875 137.377 145.003  1.00  0.00    -0.045 C 
ATOM     13  C   UNL     1     136.694 137.362 146.066  1.00  0.00     0.011 C 
ATOM     14  C   UNL     1     134.557 136.627 145.034  1.00  0.00     0.140 C 
ATOM     15  C   UNL     1     133.918 136.456 143.619  1.00  0.00     0.044 C 
ENDROOT
BRANCH  14  16
ATOM     16  O   UNL     1     133.658 137.316 145.867  1.00  0.00    -0.389 OA
ATOM     17  H   UNL     1     132.806 136.805 145.864  1.00  0.00     0.211 HD
ENDBRANCH  14  16
TORSDOF 1
ENDMDL
MODEL 4
REMARK VINA RESULT:    -5.281      2.051      3.528
REMARK INTER + INTRA:          -5.436
REMARK INTER:                  -5.436
REMARK INTRA:                   0.000
REMARK UNBOUND:                 0.000
REMARK SMILES C=C1[C@@H](O)C[C@@]23C[C@@H]1C(C)(C)[C@H]2CC[C@@H]3C
REMARK SMILES IDX 16 1 15 2 14 3 13 4 12 5 6 6 7 7 8 8 9 9 10 10 11 11 2 12
REMARK SMILES IDX 1 13 3 14 5 15 4 16
REMARK H PARENT 4 17
REMARK Flexibility Score: inf
ROOT
ATOM      1  C   UNL     1     149.369 142.014 142.125  1.00  0.00     0.008 C 
ATOM      2  C   UNL     1     148.037 141.421 141.634  1.00  0.00    -0.008 C 
ATOM      3  C   UNL     1     147.508 142.134 140.346  1.00  0.00     0.004 C 
ATOM      4  C   UNL     1     147.650 141.140 139.165  1.00  0.00     0.005 C 
ATOM      5  C   UNL     1     148.546 140.073 139.757  1.00  0.00     0.002 C 
ATOM      6  C   UNL     1     148.113 139.934 141.210  1.00  0.00    -0.020 C 
ATOM      7  C   UNL     1     149.190 138.964 141.687  1.00  0.00     0.016 C 
ATOM      8  C   UNL     1     149.056 137.868 140.593  1.00  0.00     0.023 C 
ATOM      9  C   UNL     1     148.812 138.645 139.236  1.00  0.00    -0.025 C 
ATOM     10  C   UNL     1     150.103 138.602 138.385  1.00  0.00     0.012 C 
ATOM     11  C   UNL     1     147.654 138.121 138.349  1.00  0.00     0.012 C 
ATOM     12  C   UNL     1     147.860 137.024 140.972  1.00  0.00    -0.045 C 
ATOM     13  C   UNL     1     147.857 135.701 140.745  1.00  0.00     0.011 C 
ATOM     14  C   UNL     1     146.644 137.707 141.566  1.00  0.00     0.140 C 
ATOM     15  C   UNL     1     146.687 139.263 141.424  1.00  0.00     0.044 C 
ENDROOT
BRANCH  14  16
ATOM     16  O   UNL     1     146.546 137.369 142.926  1.00  0.00    -0.389 OA
ATOM     17  H   UNL     1     145.579 137.317 143.146  1.00  0.00     0.211 HD
ENDBRANCH  14  16
TORSDOF 1
ENDMDL
MODEL 5
REMARK VINA RESULT:    -5.258      1.860      3.897
REMARK INTER + INTRA:          -5.412
REMARK INTER:                  -5.412
REMARK INTRA:                   0.000
REMARK UNBOUND:                 0.000
REMARK SMILES C=C1[C@@H](O)C[C@@]23C[C@@H]1C(C)(C)[C@H]2CC[C@@H]3C
REMARK SMILES IDX 16 1 15 2 14 3 13 4 12 5 6 6 7 7 8 8 9 9 10 10 11 11 2 12
REMARK SMILES IDX 1 13 3 14 5 15 4 16
REMARK H PARENT 4 17
REMARK Flexibility Score: inf
ROOT
ATOM      1  C   UNL     1     144.801 139.481 137.693  1.00  0.00     0.008 C 
ATOM      2  C   UNL     1     146.315 139.298 137.487  1.00  0.00    -0.008 C 
ATOM      3  C   UNL     1     146.926 140.402 136.564  1.00  0.00     0.004 C 
ATOM      4  C   UNL     1     147.806 141.322 137.449  1.00  0.00     0.005 C 
ATOM      5  C   UNL     1     147.384 140.915 138.845  1.00  0.00     0.002 C 
ATOM      6  C   UNL     1     147.157 139.411 138.783  1.00  0.00    -0.020 C 
ATOM      7  C   UNL     1     146.599 139.195 140.186  1.00  0.00     0.016 C 
ATOM      8  C   UNL     1     147.700 139.912 141.016  1.00  0.00     0.023 C 
ATOM      9  C   UNL     1     148.094 141.200 140.185  1.00  0.00    -0.025 C 
ATOM     10  C   UNL     1     147.494 142.451 140.869  1.00  0.00     0.012 C 
ATOM     11  C   UNL     1     149.612 141.455 139.999  1.00  0.00     0.012 C 
ATOM     12  C   UNL     1     148.858 138.945 141.123  1.00  0.00    -0.045 C 
ATOM     13  C   UNL     1     149.597 138.883 142.242  1.00  0.00     0.011 C 
ATOM     14  C   UNL     1     149.201 138.083 139.923  1.00  0.00     0.140 C 
ATOM     15  C   UNL     1     148.477 138.539 138.616  1.00  0.00     0.044 C 
ENDROOT
BRANCH  14  16
ATOM     16  O   UNL     1     148.855 136.750 140.203  1.00  0.00    -0.389 OA
ATOM     17  H   UNL     1     147.946 136.600 139.831  1.00  0.00     0.211 HD
ENDBRANCH  14  16
TORSDOF 1
ENDMDL
MODEL 6
REMARK VINA RESULT:    -5.232      1.324      1.989
REMARK INTER + INTRA:          -5.385
REMARK INTER:                  -5.385
REMARK INTRA:                   0.000
REMARK UNBOUND:                 0.000
REMARK SMILES C=C1[C@@H](O)C[C@@]23C[C@@H]1C(C)(C)[C@H]2CC[C@@H]3C
REMARK SMILES IDX 16 1 15 2 14 3 13 4 12 5 6 6 7 7 8 8 9 9 10 10 11 11 2 12
REMARK SMILES IDX 1 13 3 14 5 15 4 16
REMARK H PARENT 4 17
REMARK Flexibility Score: inf
ROOT
ATOM      1  C   UNL     1     148.488 141.475 142.133  1.00  0.00     0.008 C 
ATOM      2  C   UNL     1     149.135 140.331 141.333  1.00  0.00    -0.008 C 
ATOM      3  C   UNL     1     149.330 139.040 142.194  1.00  0.00     0.004 C 
ATOM      4  C   UNL     1     148.328 137.975 141.680  1.00  0.00     0.005 C 
ATOM      5  C   UNL     1     147.404 138.803 140.813  1.00  0.00     0.002 C 
ATOM      6  C   UNL     1     148.295 139.832 140.131  1.00  0.00    -0.020 C 
ATOM      7  C   UNL     1     147.216 140.661 139.441  1.00  0.00     0.016 C 
ATOM      8  C   UNL     1     146.433 139.525 138.726  1.00  0.00     0.023 C 
ATOM      9  C   UNL     1     146.393 138.321 139.752  1.00  0.00    -0.025 C 
ATOM     10  C   UNL     1     144.973 138.212 140.355  1.00  0.00     0.012 C 
ATOM     11  C   UNL     1     146.764 136.927 139.183  1.00  0.00     0.012 C 
ATOM     12  C   UNL     1     147.222 139.171 137.485  1.00  0.00    -0.045 C 
ATOM     13  C   UNL     1     146.594 138.823 136.351  1.00  0.00     0.011 C 
ATOM     14  C   UNL     1     148.737 139.167 137.561  1.00  0.00     0.140 C 
ATOM     15  C   UNL     1     149.275 139.244 139.025  1.00  0.00     0.044 C 
ENDROOT
BRANCH  14  16
ATOM     16  O   UNL     1     149.235 140.257 136.827  1.00  0.00    -0.389 OA
ATOM     17  H   UNL     1     149.011 141.080 137.336  1.00  0.00     0.211 HD
ENDBRANCH  14  16
TORSDOF 1
ENDMDL
MODEL 7
REMARK VINA RESULT:    -5.174      1.480      2.234
REMARK INTER + INTRA:          -5.325
REMARK INTER:                  -5.325
REMARK INTRA:                   0.000
REMARK UNBOUND:                 0.000
REMARK SMILES C=C1[C@@H](O)C[C@@]23C[C@@H]1C(C)(C)[C@H]2CC[C@@H]3C
REMARK SMILES IDX 16 1 15 2 14 3 13 4 12 5 6 6 7 7 8 8 9 9 10 10 11 11 2 12
REMARK SMILES IDX 1 13 3 14 5 15 4 16
REMARK H PARENT 4 17
REMARK Flexibility Score: inf
ROOT
ATOM      1  C   UNL     1     146.207 141.150 137.583  1.00  0.00     0.008 C 
ATOM      2  C   UNL     1     147.651 140.991 138.090  1.00  0.00    -0.008 C 
ATOM      3  C   UNL     1     148.000 142.014 139.221  1.00  0.00     0.004 C 
ATOM      4  C   UNL     1     148.126 141.224 140.549  1.00  0.00     0.005 C 
ATOM      5  C   UNL     1     147.519 139.887 140.179  1.00  0.00     0.002 C 
ATOM      6  C   UNL     1     147.955 139.621 138.746  1.00  0.00    -0.020 C 
ATOM      7  C   UNL     1     147.150 138.352 138.484  1.00  0.00     0.016 C 
ATOM      8  C   UNL     1     147.567 137.518 139.728  1.00  0.00     0.023 C 
ATOM      9  C   UNL     1     147.625 138.544 140.931  1.00  0.00    -0.025 C 
ATOM     10  C   UNL     1     146.396 138.327 141.845  1.00  0.00     0.012 C 
ATOM     11  C   UNL     1     148.888 138.474 141.827  1.00  0.00     0.012 C 
ATOM     12  C   UNL     1     148.932 136.942 139.423  1.00  0.00    -0.045 C 
ATOM     13  C   UNL     1     149.269 135.716 139.854  1.00  0.00     0.011 C 
ATOM     14  C   UNL     1     149.931 137.795 138.666  1.00  0.00     0.140 C 
ATOM     15  C   UNL     1     149.501 139.294 138.564  1.00  0.00     0.044 C 
ENDROOT
BRANCH  14  16
ATOM     16  O   UNL     1     150.094 137.271 137.372  1.00  0.00    -0.389 OA
ATOM     17  H   UNL     1     149.620 137.881 136.748  1.00  0.00     0.211 HD
ENDBRANCH  14  16
TORSDOF 1
ENDMDL
MODEL 8
REMARK VINA RESULT:    -5.155      1.719      2.669
REMARK INTER + INTRA:          -5.306
REMARK INTER:                  -5.306
REMARK INTRA:                   0.000
REMARK UNBOUND:                 0.000
REMARK SMILES C=C1[C@@H](O)C[C@@]23C[C@@H]1C(C)(C)[C@H]2CC[C@@H]3C
REMARK SMILES IDX 16 1 15 2 14 3 13 4 12 5 6 6 7 7 8 8 9 9 10 10 11 11 2 12
REMARK SMILES IDX 1 13 3 14 5 15 4 16
REMARK H PARENT 4 17
REMARK Flexibility Score: inf
ROOT
ATOM      1  C   UNL     1     147.593 141.140 142.491  1.00  0.00     0.008 C 
ATOM      2  C   UNL     1     147.820 141.566 141.030  1.00  0.00    -0.008 C 
ATOM      3  C   UNL     1     149.294 142.017 140.765  1.00  0.00     0.004 C 
ATOM      4  C   UNL     1     149.967 140.935 139.883  1.00  0.00     0.005 C 
ATOM      5  C   UNL     1     148.980 139.791 139.979  1.00  0.00     0.002 C 
ATOM      6  C   UNL     1     147.602 140.438 139.991  1.00  0.00    -0.020 C 
ATOM      7  C   UNL     1     146.757 139.194 140.245  1.00  0.00     0.016 C 
ATOM      8  C   UNL     1     147.314 138.268 139.128  1.00  0.00     0.023 C 
ATOM      9  C   UNL     1     148.873 138.538 139.086  1.00  0.00    -0.025 C 
ATOM     10  C   UNL     1     149.615 137.341 139.726  1.00  0.00     0.012 C 
ATOM     11  C   UNL     1     149.488 138.767 137.681  1.00  0.00     0.012 C 
ATOM     12  C   UNL     1     146.643 138.692 137.842  1.00  0.00    -0.045 C 
ATOM     13  C   UNL     1     146.313 137.784 136.910  1.00  0.00     0.011 C 
ATOM     14  C   UNL     1     146.395 140.169 137.601  1.00  0.00     0.140 C 
ATOM     15  C   UNL     1     147.154 141.088 138.610  1.00  0.00     0.044 C 
ENDROOT
BRANCH  14  16
ATOM     16  O   UNL     1     145.016 140.423 137.691  1.00  0.00    -0.389 OA
ATOM     17  H   UNL     1     144.886 141.078 138.426  1.00  0.00     0.211 HD
ENDBRANCH  14  16
TORSDOF 1
ENDMDL
MODEL 9
REMARK VINA RESULT:    -5.135      2.016      4.659
REMARK INTER + INTRA:          -5.285
REMARK INTER:                  -5.285
REMARK INTRA:                   0.000
REMARK UNBOUND:                 0.000
REMARK SMILES C=C1[C@@H](O)C[C@@]23C[C@@H]1C(C)(C)[C@H]2CC[C@@H]3C
REMARK SMILES IDX 16 1 15 2 14 3 13 4 12 5 6 6 7 7 8 8 9 9 10 10 11 11 2 12
REMARK SMILES IDX 1 13 3 14 5 15 4 16
REMARK H PARENT 4 17
REMARK Flexibility Score: inf
ROOT
ATOM      1  C   UNL     1     148.030 135.238 140.192  1.00  0.00     0.008 C 
ATOM      2  C   UNL     1     149.175 136.244 139.984  1.00  0.00    -0.008 C 
ATOM      3  C   UNL     1     150.019 135.927 138.706  1.00  0.00     0.004 C 
ATOM      4  C   UNL     1     149.717 137.028 137.657  1.00  0.00     0.005 C 
ATOM      5  C   UNL     1     148.493 137.697 138.245  1.00  0.00     0.002 C 
ATOM      6  C   UNL     1     148.713 137.704 139.751  1.00  0.00    -0.020 C 
ATOM      7  C   UNL     1     147.358 138.250 140.188  1.00  0.00     0.016 C 
ATOM      8  C   UNL     1     147.279 139.508 139.278  1.00  0.00     0.023 C 
ATOM      9  C   UNL     1     147.878 139.065 137.882  1.00  0.00    -0.025 C 
ATOM     10  C   UNL     1     146.726 138.896 136.863  1.00  0.00     0.012 C 
ATOM     11  C   UNL     1     148.919 140.024 137.250  1.00  0.00     0.012 C 
ATOM     12  C   UNL     1     148.131 140.570 139.935  1.00  0.00    -0.045 C 
ATOM     13  C   UNL     1     147.772 141.863 139.886  1.00  0.00     0.011 C 
ATOM     14  C   UNL     1     149.426 140.154 140.607  1.00  0.00     0.140 C 
ATOM     15  C   UNL     1     149.852 138.692 140.259  1.00  0.00     0.044 C 
ENDROOT
BRANCH  14  16
ATOM     16  O   UNL     1     149.279 140.274 141.999  1.00  0.00    -0.389 OA
ATOM     17  H   UNL     1     149.795 139.534 142.413  1.00  0.00     0.211 HD
ENDBRANCH  14  16
TORSDOF 1
ENDMDL
