MODEL 1
REMARK VINA RESULT:    -3.192      0.000      0.000
REMARK INTER + INTRA:          -3.472
REMARK INTER:                  -3.472
REMARK INTRA:                   0.000
REMARK UNBOUND:                 0.000
REMARK SMILES Oc1cccc(O)c1O
REMARK SMILES IDX 4 1 5 2 6 3 8 4 2 5 3 6 7 7 1 9 9 11
REMARK H PARENT 7 8 1 10 9 12
REMARK Flexibility Score: inf
ROOT
ATOM      1  C   UNL     1     164.772 155.164 163.518  1.00  0.00     0.008 A 
ATOM      2  C   UNL     1     163.490 155.713 163.552  1.00  0.00     0.050 A 
ATOM      3  C   UNL     1     162.955 156.176 164.760  1.00  0.00     0.161 A 
ATOM      4  C   UNL     1     163.704 156.090 165.945  1.00  0.00     0.200 A 
ATOM      5  C   UNL     1     165.006 155.531 165.907  1.00  0.00     0.161 A 
ATOM      6  C   UNL     1     165.525 155.074 164.689  1.00  0.00     0.050 A 
ENDROOT
BRANCH   3   7
ATOM      7  O   UNL     1     161.674 156.725 164.794  1.00  0.00    -0.504 OA
ATOM      8  H   UNL     1     160.905 156.311 164.281  1.00  0.00     0.293 HD
ENDBRANCH   3   7
BRANCH   5   9
ATOM      9  O   UNL     1     165.811 155.414 167.042  1.00  0.00    -0.504 OA
ATOM     10  H   UNL     1     166.277 156.191 167.488  1.00  0.00     0.293 HD
ENDBRANCH   5   9
BRANCH   4  11
ATOM     11  O   UNL     1     163.126 156.565 167.124  1.00  0.00    -0.502 OA
ATOM     12  H   UNL     1     163.649 156.816 167.950  1.00  0.00     0.293 HD
ENDBRANCH   4  11
TORSDOF 3
ENDMDL
MODEL 2
REMARK VINA RESULT:    -3.189     10.056     10.425
REMARK INTER + INTRA:          -3.469
REMARK INTER:                  -3.469
REMARK INTRA:                   0.000
REMARK UNBOUND:                 0.000
REMARK SMILES Oc1cccc(O)c1O
REMARK SMILES IDX 4 1 5 2 6 3 8 4 2 5 3 6 7 7 1 9 9 11
REMARK H PARENT 7 8 1 10 9 12
REMARK Flexibility Score: inf
ROOT
ATOM      1  C   UNL     1     155.550 149.676 163.394  1.00  0.00     0.008 A 
ATOM      2  C   UNL     1     155.098 149.719 164.713  1.00  0.00     0.050 A 
ATOM      3  C   UNL     1     155.847 149.119 165.733  1.00  0.00     0.161 A 
ATOM      4  C   UNL     1     157.056 148.471 165.435  1.00  0.00     0.200 A 
ATOM      5  C   UNL     1     157.513 148.428 164.094  1.00  0.00     0.161 A 
ATOM      6  C   UNL     1     156.751 149.034 163.087  1.00  0.00     0.050 A 
ENDROOT
BRANCH   3   7
ATOM      7  O   UNL     1     155.395 149.163 167.051  1.00  0.00    -0.504 OA
ATOM      8  H   UNL     1     154.412 149.271 167.273  1.00  0.00     0.293 HD
ENDBRANCH   3   7
BRANCH   5   9
ATOM      9  O   UNL     1     158.705 147.803 163.722  1.00  0.00    -0.504 OA
ATOM     10  H   UNL     1     159.119 147.031 164.223  1.00  0.00     0.293 HD
ENDBRANCH   5   9
BRANCH   4  11
ATOM     11  O   UNL     1     157.765 147.888 166.488  1.00  0.00    -0.502 OA
ATOM     12  H   UNL     1     157.376 147.711 167.402  1.00  0.00     0.293 HD
ENDBRANCH   4  11
TORSDOF 3
ENDMDL
MODEL 3
REMARK VINA RESULT:    -3.185      8.844      9.707
REMARK INTER + INTRA:          -3.464
REMARK INTER:                  -3.464
REMARK INTRA:                   0.000
REMARK UNBOUND:                 0.000
REMARK SMILES Oc1cccc(O)c1O
REMARK SMILES IDX 4 1 5 2 6 3 8 4 2 5 3 6 7 7 1 9 9 11
REMARK H PARENT 7 8 1 10 9 12
REMARK Flexibility Score: inf
ROOT
ATOM      1  C   UNL     1     155.205 150.146 163.531  1.00  0.00     0.008 A 
ATOM      2  C   UNL     1     155.788 151.413 163.551  1.00  0.00     0.050 A 
ATOM      3  C   UNL     1     156.257 151.953 164.755  1.00  0.00     0.161 A 
ATOM      4  C   UNL     1     156.143 151.223 165.949  1.00  0.00     0.200 A 
ATOM      5  C   UNL     1     155.549 149.937 165.926  1.00  0.00     0.161 A 
ATOM      6  C   UNL     1     155.087 149.412 164.712  1.00  0.00     0.050 A 
ENDROOT
BRANCH   3   7
ATOM      7  O   UNL     1     156.840 153.219 164.774  1.00  0.00    -0.504 OA
ATOM      8  H   UNL     1     157.773 153.370 165.141  1.00  0.00     0.293 HD
ENDBRANCH   3   7
BRANCH   5   9
ATOM      9  O   UNL     1     155.402 149.152 167.072  1.00  0.00    -0.504 OA
ATOM     10  H   UNL     1     154.983 148.234 167.078  1.00  0.00     0.293 HD
ENDBRANCH   5   9
BRANCH   4  11
ATOM     11  O   UNL     1     156.625 151.806 167.123  1.00  0.00    -0.502 OA
ATOM     12  H   UNL     1     156.284 151.583 168.047  1.00  0.00     0.293 HD
ENDBRANCH   4  11
TORSDOF 3
ENDMDL
MODEL 4
REMARK VINA RESULT:    -3.178     10.172     10.665
REMARK INTER + INTRA:          -3.457
REMARK INTER:                  -3.457
REMARK INTRA:                   0.000
REMARK UNBOUND:                 0.000
REMARK SMILES Oc1cccc(O)c1O
REMARK SMILES IDX 4 1 5 2 6 3 8 4 2 5 3 6 7 7 1 9 9 11
REMARK H PARENT 7 8 1 10 9 12
REMARK Flexibility Score: inf
ROOT
ATOM      1  C   UNL     1     155.428 149.447 163.420  1.00  0.00     0.008 A 
ATOM      2  C   UNL     1     156.633 148.814 163.116  1.00  0.00     0.050 A 
ATOM      3  C   UNL     1     157.433 148.292 164.142  1.00  0.00     0.161 A 
ATOM      4  C   UNL     1     157.027 148.405 165.481  1.00  0.00     0.200 A 
ATOM      5  C   UNL     1     155.802 149.050 165.787  1.00  0.00     0.161 A 
ATOM      6  C   UNL     1     155.016 149.564 164.749  1.00  0.00     0.050 A 
ENDROOT
BRANCH   3   7
ATOM      7  O   UNL     1     158.637 147.659 163.837  1.00  0.00    -0.504 OA
ATOM      8  H   UNL     1     159.492 147.874 164.337  1.00  0.00     0.293 HD
ENDBRANCH   3   7
BRANCH   5   9
ATOM      9  O   UNL     1     155.333 149.198 167.094  1.00  0.00    -0.504 OA
ATOM     10  H   UNL     1     155.098 148.427 167.701  1.00  0.00     0.293 HD
ENDBRANCH   5   9
BRANCH   4  11
ATOM     11  O   UNL     1     157.859 147.870 166.467  1.00  0.00    -0.502 OA
ATOM     12  H   UNL     1     157.954 146.882 166.651  1.00  0.00     0.293 HD
ENDBRANCH   4  11
TORSDOF 3
ENDMDL
MODEL 5
REMARK VINA RESULT:    -3.154      0.113      2.817
REMARK INTER + INTRA:          -3.430
REMARK INTER:                  -3.430
REMARK INTRA:                   0.000
REMARK UNBOUND:                 0.000
REMARK SMILES Oc1cccc(O)c1O
REMARK SMILES IDX 4 1 5 2 6 3 8 4 2 5 3 6 7 7 1 9 9 11
REMARK H PARENT 7 8 1 10 9 12
REMARK Flexibility Score: inf
ROOT
ATOM      1  C   UNL     1     164.828 155.137 163.466  1.00  0.00     0.008 A 
ATOM      2  C   UNL     1     165.575 155.065 164.642  1.00  0.00     0.050 A 
ATOM      3  C   UNL     1     165.024 155.500 165.854  1.00  0.00     0.161 A 
ATOM      4  C   UNL     1     163.717 156.011 165.892  1.00  0.00     0.200 A 
ATOM      5  C   UNL     1     162.960 156.084 164.696  1.00  0.00     0.161 A 
ATOM      6  C   UNL     1     163.528 155.643 163.494  1.00  0.00     0.050 A 
ENDROOT
BRANCH   3   7
ATOM      7  O   UNL     1     165.770 155.428 167.028  1.00  0.00    -0.504 OA
ATOM      8  H   UNL     1     165.768 156.180 167.707  1.00  0.00     0.293 HD
ENDBRANCH   3   7
BRANCH   5   9
ATOM      9  O   UNL     1     161.655 156.578 164.656  1.00  0.00    -0.504 OA
ATOM     10  H   UNL     1     160.833 156.021 164.839  1.00  0.00     0.293 HD
ENDBRANCH   5   9
BRANCH   4  11
ATOM     11  O   UNL     1     163.213 156.432 167.125  1.00  0.00    -0.502 OA
ATOM     12  H   UNL     1     162.662 157.268 167.255  1.00  0.00     0.293 HD
ENDBRANCH   4  11
TORSDOF 3
ENDMDL
MODEL 6
REMARK VINA RESULT:    -3.109      9.000      9.981
REMARK INTER + INTRA:          -3.382
REMARK INTER:                  -3.382
REMARK INTRA:                   0.000
REMARK UNBOUND:                 0.000
REMARK SMILES Oc1cccc(O)c1O
REMARK SMILES IDX 4 1 5 2 6 3 8 4 2 5 3 6 7 7 1 9 9 11
REMARK H PARENT 7 8 1 10 9 12
REMARK Flexibility Score: inf
ROOT
ATOM      1  C   UNL     1     155.127 150.066 163.445  1.00  0.00     0.008 A 
ATOM      2  C   UNL     1     155.122 149.303 164.613  1.00  0.00     0.050 A 
ATOM      3  C   UNL     1     155.502 149.880 165.832  1.00  0.00     0.161 A 
ATOM      4  C   UNL     1     155.890 151.228 165.886  1.00  0.00     0.200 A 
ATOM      5  C   UNL     1     155.895 152.000 164.698  1.00  0.00     0.161 A 
ATOM      6  C   UNL     1     155.511 151.407 163.489  1.00  0.00     0.050 A 
ENDROOT
BRANCH   3   7
ATOM      7  O   UNL     1     155.497 149.117 166.999  1.00  0.00    -0.504 OA
ATOM      8  H   UNL     1     156.221 149.215 167.701  1.00  0.00     0.293 HD
ENDBRANCH   3   7
BRANCH   5   9
ATOM      9  O   UNL     1     156.267 153.346 164.673  1.00  0.00    -0.504 OA
ATOM     10  H   UNL     1     157.190 153.673 164.427  1.00  0.00     0.293 HD
ENDBRANCH   5   9
BRANCH   4  11
ATOM     11  O   UNL     1     156.261 151.755 167.125  1.00  0.00    -0.502 OA
ATOM     12  H   UNL     1     157.209 151.772 167.472  1.00  0.00     0.293 HD
ENDBRANCH   4  11
TORSDOF 3
ENDMDL
MODEL 7
REMARK VINA RESULT:    -3.098      8.709      9.793
REMARK INTER + INTRA:          -3.370
REMARK INTER:                  -3.370
REMARK INTRA:                   0.000
REMARK UNBOUND:                 0.000
REMARK SMILES Oc1cccc(O)c1O
REMARK SMILES IDX 4 1 5 2 6 3 8 4 2 5 3 6 7 7 1 9 9 11
REMARK H PARENT 7 8 1 10 9 12
REMARK Flexibility Score: inf
ROOT
ATOM      1  C   UNL     1     159.686 164.768 163.420  1.00  0.00     0.008 A 
ATOM      2  C   UNL     1     159.309 163.430 163.539  1.00  0.00     0.050 A 
ATOM      3  C   UNL     1     158.905 162.920 164.780  1.00  0.00     0.161 A 
ATOM      4  C   UNL     1     158.878 163.752 165.911  1.00  0.00     0.200 A 
ATOM      5  C   UNL     1     159.262 165.110 165.788  1.00  0.00     0.161 A 
ATOM      6  C   UNL     1     159.662 165.603 164.539  1.00  0.00     0.050 A 
ENDROOT
BRANCH   3   7
ATOM      7  O   UNL     1     158.528 161.584 164.898  1.00  0.00    -0.504 OA
ATOM      8  H   UNL     1     158.281 161.178 165.793  1.00  0.00     0.293 HD
ENDBRANCH   3   7
BRANCH   5   9
ATOM      9  O   UNL     1     159.260 165.997 166.866  1.00  0.00    -0.504 OA
ATOM     10  H   UNL     1     159.039 165.732 167.815  1.00  0.00     0.293 HD
ENDBRANCH   5   9
BRANCH   4  11
ATOM     11  O   UNL     1     158.469 163.196 167.125  1.00  0.00    -0.502 OA
ATOM     12  H   UNL     1     158.294 163.732 167.962  1.00  0.00     0.293 HD
ENDBRANCH   4  11
TORSDOF 3
ENDMDL
MODEL 8
REMARK VINA RESULT:    -3.093      8.613      9.757
REMARK INTER + INTRA:          -3.364
REMARK INTER:                  -3.364
REMARK INTRA:                   0.000
REMARK UNBOUND:                 0.000
REMARK SMILES Oc1cccc(O)c1O
REMARK SMILES IDX 4 1 5 2 6 3 8 4 2 5 3 6 7 7 1 9 9 11
REMARK H PARENT 7 8 1 10 9 12
REMARK Flexibility Score: inf
ROOT
ATOM      1  C   UNL     1     159.821 164.743 163.419  1.00  0.00     0.008 A 
ATOM      2  C   UNL     1     159.743 165.578 164.534  1.00  0.00     0.050 A 
ATOM      3  C   UNL     1     159.297 165.072 165.762  1.00  0.00     0.161 A 
ATOM      4  C   UNL     1     158.927 163.723 165.878  1.00  0.00     0.200 A 
ATOM      5  C   UNL     1     159.008 162.877 164.744  1.00  0.00     0.161 A 
ATOM      6  C   UNL     1     159.456 163.400 163.525  1.00  0.00     0.050 A 
ENDROOT
BRANCH   3   7
ATOM      7  O   UNL     1     159.219 165.907 166.875  1.00  0.00    -0.504 OA
ATOM      8  H   UNL     1     158.627 165.684 167.667  1.00  0.00     0.293 HD
ENDBRANCH   3   7
BRANCH   5   9
ATOM      9  O   UNL     1     158.658 161.526 164.784  1.00  0.00    -0.504 OA
ATOM     10  H   UNL     1     157.743 161.171 164.546  1.00  0.00     0.293 HD
ENDBRANCH   5   9
BRANCH   4  11
ATOM     11  O   UNL     1     158.489 163.268 167.124  1.00  0.00    -0.502 OA
ATOM     12  H   UNL     1     158.214 162.315 167.313  1.00  0.00     0.293 HD
ENDBRANCH   4  11
TORSDOF 3
ENDMDL
