MODEL 1
REMARK VINA RESULT:    -2.722      0.000      0.000
REMARK INTER + INTRA:          -4.529
REMARK INTER:                  -4.155
REMARK INTRA:                  -0.374
REMARK UNBOUND:                -0.374
REMARK SMILES O=C([O-])CCCCCCCCC(=O)[O-]
REMARK SMILES IDX 7 1 6 2 5 3 4 4 2 5 1 6 3 7 8 8 9 9 10 10 11 11 12 12 13 13
REMARK SMILES IDX 14 14
REMARK H PARENT
REMARK Flexibility Score: inf
ROOT
ATOM      1  C   UNL     1       3.914 -51.674  10.287  1.00  0.00     0.000 C 
ENDROOT
BRANCH   1   2
ATOM      2  C   UNL     1       4.041 -52.957  11.121  1.00  0.00     0.000 C 
BRANCH   2   3
ATOM      3  C   UNL     1       5.461 -53.536  11.024  1.00  0.00     0.006 C 
BRANCH   3   4
ATOM      4  C   UNL     1       6.533 -52.440  10.966  1.00  0.00     0.053 C 
BRANCH   4   5
ATOM      5  C   UNL     1       7.895 -53.010  10.714  1.00  0.00     0.041 C 
ATOM      6  O   UNL     1       8.923 -52.313  10.924  1.00  0.00    -0.550 OA
ATOM      7  O   UNL     1       8.031 -54.322  10.279  1.00  0.00    -0.550 OA
ENDBRANCH   4   5
ENDBRANCH   3   4
ENDBRANCH   2   3
ENDBRANCH   1   2
BRANCH   1   8
ATOM      8  C   UNL     1       3.371 -50.490  11.103  1.00  0.00     0.000 C 
BRANCH   8   9
ATOM      9  C   UNL     1       1.835 -50.403  11.070  1.00  0.00     0.000 C 
BRANCH   9  10
ATOM     10  C   UNL     1       1.254 -50.764   9.694  1.00  0.00     0.006 C 
BRANCH  10  11
ATOM     11  C   UNL     1      -0.279 -50.817   9.697  1.00  0.00     0.053 C 
BRANCH  11  12
ATOM     12  C   UNL     1      -0.849 -49.438   9.587  1.00  0.00     0.041 C 
ATOM     13  O   UNL     1      -1.123 -48.954   8.458  1.00  0.00    -0.550 OA
ATOM     14  O   UNL     1      -1.124 -48.706  10.735  1.00  0.00    -0.550 OA
ENDBRANCH  11  12
ENDBRANCH  10  11
ENDBRANCH   9  10
ENDBRANCH   8   9
ENDBRANCH   1   8
TORSDOF 9
ENDMDL
MODEL 2
REMARK VINA RESULT:    -2.709      1.445      2.086
REMARK INTER + INTRA:          -4.509
REMARK INTER:                  -4.026
REMARK INTRA:                  -0.482
REMARK UNBOUND:                -0.374
REMARK SMILES O=C([O-])CCCCCCCCC(=O)[O-]
REMARK SMILES IDX 7 1 6 2 5 3 4 4 2 5 1 6 3 7 8 8 9 9 10 10 11 11 12 12 13 13
REMARK SMILES IDX 14 14
REMARK H PARENT
REMARK Flexibility Score: inf
ROOT
ATOM      1  C   UNL     1       4.733 -53.145  10.890  1.00  0.00     0.000 C 
ENDROOT
BRANCH   1   2
ATOM      2  C   UNL     1       5.461 -52.965   9.551  1.00  0.00     0.000 C 
BRANCH   2   3
ATOM      3  C   UNL     1       6.899 -53.497   9.631  1.00  0.00     0.006 C 
BRANCH   3   4
ATOM      4  C   UNL     1       7.473 -53.409  11.052  1.00  0.00     0.053 C 
BRANCH   4   5
ATOM      5  C   UNL     1       8.737 -52.605  11.090  1.00  0.00     0.041 C 
ATOM      6  O   UNL     1       8.689 -51.348  11.125  1.00  0.00    -0.550 OA
ATOM      7  O   UNL     1       9.968 -53.248  11.121  1.00  0.00    -0.550 OA
ENDBRANCH   4   5
ENDBRANCH   3   4
ENDBRANCH   2   3
ENDBRANCH   1   2
BRANCH   1   8
ATOM      8  C   UNL     1       3.437 -52.322  10.975  1.00  0.00     0.000 C 
BRANCH   8   9
ATOM      9  C   UNL     1       3.232 -51.415   9.749  1.00  0.00     0.000 C 
BRANCH   9  10
ATOM     10  C   UNL     1       2.258 -50.259  10.028  1.00  0.00     0.006 C 
BRANCH  10  11
ATOM     11  C   UNL     1       1.210 -50.614  11.090  1.00  0.00     0.053 C 
BRANCH  11  12
ATOM     12  C   UNL     1      -0.038 -51.127  10.440  1.00  0.00     0.041 C 
ATOM     13  O   UNL     1      -0.656 -52.103  10.939  1.00  0.00    -0.550 OA
ATOM     14  O   UNL     1      -0.544 -50.495   9.312  1.00  0.00    -0.550 OA
ENDBRANCH  11  12
ENDBRANCH  10  11
ENDBRANCH   9  10
ENDBRANCH   8   9
ENDBRANCH   1   8
TORSDOF 9
ENDMDL
MODEL 3
REMARK VINA RESULT:    -2.495      1.419      1.950
REMARK INTER + INTRA:          -4.183
REMARK INTER:                  -4.065
REMARK INTRA:                  -0.118
REMARK UNBOUND:                -0.374
REMARK SMILES O=C([O-])CCCCCCCCC(=O)[O-]
REMARK SMILES IDX 7 1 6 2 5 3 4 4 2 5 1 6 3 7 8 8 9 9 10 10 11 11 12 12 13 13
REMARK SMILES IDX 14 14
REMARK H PARENT
REMARK Flexibility Score: inf
ROOT
ATOM      1  C   UNL     1       3.873 -52.120  10.168  1.00  0.00     0.000 C 
ENDROOT
BRANCH   1   2
ATOM      2  C   UNL     1       4.035 -53.502  10.818  1.00  0.00     0.000 C 
BRANCH   2   3
ATOM      3  C   UNL     1       5.511 -53.795  11.125  1.00  0.00     0.006 C 
BRANCH   3   4
ATOM      4  C   UNL     1       6.371 -52.524  11.108  1.00  0.00     0.053 C 
BRANCH   4   5
ATOM      5  C   UNL     1       7.821 -52.838  10.893  1.00  0.00     0.041 C 
ATOM      6  O   UNL     1       8.190 -54.025  10.695  1.00  0.00    -0.550 OA
ATOM      7  O   UNL     1       8.759 -51.813  10.879  1.00  0.00    -0.550 OA
ENDBRANCH   4   5
ENDBRANCH   3   4
ENDBRANCH   2   3
ENDBRANCH   1   2
BRANCH   1   8
ATOM      8  C   UNL     1       3.045 -51.155  11.032  1.00  0.00     0.000 C 
BRANCH   8   9
ATOM      9  C   UNL     1       1.973 -50.407  10.220  1.00  0.00     0.000 C 
BRANCH   9  10
ATOM     10  C   UNL     1       0.994 -49.628  11.113  1.00  0.00     0.006 C 
BRANCH  10  11
ATOM     11  C   UNL     1      -0.466 -50.039  10.885  1.00  0.00     0.053 C 
BRANCH  11  12
ATOM     12  C   UNL     1      -0.536 -51.405  10.276  1.00  0.00     0.041 C 
ATOM     13  O   UNL     1      -0.465 -52.427  11.006  1.00  0.00    -0.550 OA
ATOM     14  O   UNL     1      -0.727 -51.547   8.908  1.00  0.00    -0.550 OA
ENDBRANCH  11  12
ENDBRANCH  10  11
ENDBRANCH   9  10
ENDBRANCH   8   9
ENDBRANCH   1   8
TORSDOF 9
ENDMDL
MODEL 4
REMARK VINA RESULT:    -2.402      3.478      4.353
REMARK INTER + INTRA:          -4.040
REMARK INTER:                  -3.746
REMARK INTRA:                  -0.294
REMARK UNBOUND:                -0.374
REMARK SMILES O=C([O-])CCCCCCCCC(=O)[O-]
REMARK SMILES IDX 7 1 6 2 5 3 4 4 2 5 1 6 3 7 8 8 9 9 10 10 11 11 12 12 13 13
REMARK SMILES IDX 14 14
REMARK H PARENT
REMARK Flexibility Score: inf
ROOT
ATOM      1  C   UNL     1       4.877 -53.803  10.566  1.00  0.00     0.000 C 
ENDROOT
BRANCH   1   2
ATOM      2  C   UNL     1       3.665 -54.617  11.041  1.00  0.00     0.000 C 
BRANCH   2   3
ATOM      3  C   UNL     1       4.006 -56.112  11.125  1.00  0.00     0.006 C 
BRANCH   3   4
ATOM      4  C   UNL     1       2.752 -56.996  11.107  1.00  0.00     0.053 C 
BRANCH   4   5
ATOM      5  C   UNL     1       3.101 -58.453  11.083  1.00  0.00     0.041 C 
ATOM      6  O   UNL     1       2.194 -59.321  10.995  1.00  0.00    -0.550 OA
ATOM      7  O   UNL     1       4.431 -58.850  11.124  1.00  0.00    -0.550 OA
ENDBRANCH   4   5
ENDBRANCH   3   4
ENDBRANCH   2   3
ENDBRANCH   1   2
BRANCH   1   8
ATOM      8  C   UNL     1       4.478 -52.449   9.958  1.00  0.00     0.000 C 
BRANCH   8   9
ATOM      9  C   UNL     1       3.522 -51.652  10.864  1.00  0.00     0.000 C 
BRANCH   9  10
ATOM     10  C   UNL     1       2.455 -50.888  10.066  1.00  0.00     0.006 C 
BRANCH  10  11
ATOM     11  C   UNL     1       1.179 -50.634  10.880  1.00  0.00     0.053 C 
BRANCH  11  12
ATOM     12  C   UNL     1      -0.027 -50.706   9.996  1.00  0.00     0.041 C 
ATOM     13  O   UNL     1      -0.642 -51.794   9.851  1.00  0.00    -0.550 OA
ATOM     14  O   UNL     1      -0.500 -49.559   9.372  1.00  0.00    -0.550 OA
ENDBRANCH  11  12
ENDBRANCH  10  11
ENDBRANCH   9  10
ENDBRANCH   8   9
ENDBRANCH   1   8
TORSDOF 9
ENDMDL
MODEL 5
REMARK VINA RESULT:    -1.894      1.491      7.586
REMARK INTER + INTRA:          -3.264
REMARK INTER:                  -2.866
REMARK INTRA:                  -0.398
REMARK UNBOUND:                -0.374
REMARK SMILES O=C([O-])CCCCCCCCC(=O)[O-]
REMARK SMILES IDX 7 1 6 2 5 3 4 4 2 5 1 6 3 7 8 8 9 9 10 10 11 11 12 12 13 13
REMARK SMILES IDX 14 14
REMARK H PARENT
REMARK Flexibility Score: inf
ROOT
ATOM      1  C   UNL     1       3.600 -51.238   9.864  1.00  0.00     0.000 C 
ENDROOT
BRANCH   1   2
ATOM      2  C   UNL     1       2.489 -50.469  10.593  1.00  0.00     0.000 C 
BRANCH   2   3
ATOM      3  C   UNL     1       1.354 -50.099   9.628  1.00  0.00     0.006 C 
BRANCH   3   4
ATOM      4  C   UNL     1      -0.029 -50.226  10.281  1.00  0.00     0.053 C 
BRANCH   4   5
ATOM      5  C   UNL     1      -0.680 -51.534   9.950  1.00  0.00     0.041 C 
ATOM      6  O   UNL     1      -0.846 -51.875   8.749  1.00  0.00    -0.550 OA
ATOM      7  O   UNL     1      -1.074 -52.392  10.969  1.00  0.00    -0.550 OA
ENDBRANCH   4   5
ENDBRANCH   3   4
ENDBRANCH   2   3
ENDBRANCH   1   2
BRANCH   1   8
ATOM      8  C   UNL     1       3.505 -52.758  10.076  1.00  0.00     0.000 C 
BRANCH   8   9
ATOM      9  C   UNL     1       4.510 -53.273  11.121  1.00  0.00     0.000 C 
BRANCH   9  10
ATOM     10  C   UNL     1       5.867 -52.557  11.038  1.00  0.00     0.006 C 
BRANCH  10  11
ATOM     11  C   UNL     1       6.825 -53.222  10.043  1.00  0.00     0.053 C 
BRANCH  11  12
ATOM     12  C   UNL     1       8.082 -53.650  10.735  1.00  0.00     0.041 C 
ATOM     13  O   UNL     1       8.975 -52.806  11.005  1.00  0.00    -0.550 OA
ATOM     14  O   UNL     1       8.244 -54.973  11.125  1.00  0.00    -0.550 OA
ENDBRANCH  11  12
ENDBRANCH  10  11
ENDBRANCH   9  10
ENDBRANCH   8   9
ENDBRANCH   1   8
TORSDOF 9
ENDMDL
