MODEL 1
REMARK VINA RESULT:    -3.895      0.000      0.000
REMARK INTER + INTRA:         -15.445
REMARK INTER:                 -10.271
REMARK INTRA:                  -5.174
REMARK UNBOUND:                -5.174
REMARK SMILES CCCCCCCCCCCCCCCCCCCCCCCCCCCCCC(=O)[O-]
REMARK SMILES IDX 16 1 17 2 18 3 19 4 20 5 21 6 22 7 23 8 24 9 25 10 26 11
REMARK SMILES IDX 27 12 28 13 29 14 30 15 31 16 32 17 15 18 14 19 13 20 12 21
REMARK SMILES IDX 11 22 10 23 9 24 8 25 7 26 6 27 5 28 4 29 3 30 2 31 1 32
REMARK H PARENT
REMARK Flexibility Score: inf
ROOT
ATOM      1  C   UNL     1      21.376  -5.689  -5.487  1.00  0.00     0.000 C 
ENDROOT
BRANCH   1   2
ATOM      2  C   UNL     1      21.742  -6.693  -4.378  1.00  0.00     0.000 C 
BRANCH   2   3
ATOM      3  C   UNL     1      22.142  -6.064  -3.026  1.00  0.00     0.000 C 
BRANCH   3   4
ATOM      4  C   UNL     1      21.404  -4.761  -2.660  1.00  0.00     0.000 C 
BRANCH   4   5
ATOM      5  C   UNL     1      22.083  -3.980  -1.522  1.00  0.00     0.000 C 
BRANCH   5   6
ATOM      6  C   UNL     1      21.214  -3.903  -0.254  1.00  0.00     0.000 C 
BRANCH   6   7
ATOM      7  C   UNL     1      21.812  -3.071   0.898  1.00  0.00     0.000 C 
BRANCH   7   8
ATOM      8  C   UNL     1      21.565  -3.636   2.312  1.00  0.00     0.000 C 
BRANCH   8   9
ATOM      9  C   UNL     1      20.673  -4.892   2.368  1.00  0.00     0.000 C 
BRANCH   9  10
ATOM     10  C   UNL     1      21.330  -6.135   2.996  1.00  0.00     0.000 C 
BRANCH  10  11
ATOM     11  C   UNL     1      22.744  -6.439   2.456  1.00  0.00     0.000 C 
BRANCH  11  12
ATOM     12  C   UNL     1      22.718  -7.141   1.090  1.00  0.00     0.000 C 
BRANCH  12  13
ATOM     13  C   UNL     1      23.843  -6.621   0.180  1.00  0.00     0.006 C 
BRANCH  13  14
ATOM     14  C   UNL     1      24.785  -5.656   0.913  1.00  0.00     0.053 C 
BRANCH  14  15
ATOM     15  C   UNL     1      26.218  -6.084   0.807  1.00  0.00     0.041 C 
ATOM     16  O   UNL     1      26.588  -6.836  -0.132  1.00  0.00    -0.550 OA
ATOM     17  O   UNL     1      27.140  -5.666   1.758  1.00  0.00    -0.550 OA
ENDBRANCH  14  15
ENDBRANCH  13  14
ENDBRANCH  12  13
ENDBRANCH  11  12
ENDBRANCH  10  11
ENDBRANCH   9  10
ENDBRANCH   8   9
ENDBRANCH   7   8
ENDBRANCH   6   7
ENDBRANCH   5   6
ENDBRANCH   4   5
ENDBRANCH   3   4
ENDBRANCH   2   3
ENDBRANCH   1   2
BRANCH   1  18
ATOM     18  C   UNL     1      19.950  -5.835  -6.050  1.00  0.00     0.000 C 
BRANCH  18  19
ATOM     19  C   UNL     1      19.040  -6.761  -5.216  1.00  0.00     0.000 C 
BRANCH  19  20
ATOM     20  C   UNL     1      17.996  -5.990  -4.385  1.00  0.00     0.000 C 
BRANCH  20  21
ATOM     21  C   UNL     1      17.890  -4.512  -4.798  1.00  0.00     0.000 C 
BRANCH  21  22
ATOM     22  C   UNL     1      17.075  -3.669  -3.805  1.00  0.00     0.000 C 
BRANCH  22  23
ATOM     23  C   UNL     1      17.003  -4.355  -2.432  1.00  0.00     0.000 C 
BRANCH  23  24
ATOM     24  C   UNL     1      17.666  -3.525  -1.322  1.00  0.00    -0.000 C 
BRANCH  24  25
ATOM     25  C   UNL     1      18.032  -2.103  -1.782  1.00  0.00    -0.000 C 
BRANCH  25  26
ATOM     26  C   UNL     1      18.835  -1.334  -0.710  1.00  0.00    -0.000 C 
BRANCH  26  27
ATOM     27  C   UNL     1      19.775  -0.257  -1.288  1.00  0.00    -0.000 C 
BRANCH  27  28
ATOM     28  C   UNL     1      20.797  -0.774  -2.316  1.00  0.00    -0.000 C 
BRANCH  28  29
ATOM     29  C   UNL     1      21.917   0.243  -2.602  1.00  0.00    -0.000 C 
BRANCH  29  30
ATOM     30  C   UNL     1      23.261  -0.180  -1.987  1.00  0.00    -0.000 C 
BRANCH  30  31
ATOM     31  C   UNL     1      23.382   0.222  -0.509  1.00  0.00    -0.003 C 
ATOM     32  C   UNL     1      22.966   1.675  -0.300  1.00  0.00     0.004 C 
ENDBRANCH  30  31
ENDBRANCH  29  30
ENDBRANCH  28  29
ENDBRANCH  27  28
ENDBRANCH  26  27
ENDBRANCH  25  26
ENDBRANCH  24  25
ENDBRANCH  23  24
ENDBRANCH  22  23
ENDBRANCH  21  22
ENDBRANCH  20  21
ENDBRANCH  19  20
ENDBRANCH  18  19
ENDBRANCH   1  18
TORSDOF 28
ENDMDL
MODEL 2
REMARK VINA RESULT:    -3.869      2.037      4.632
REMARK INTER + INTRA:         -15.377
REMARK INTER:                  -9.665
REMARK INTRA:                  -5.713
REMARK UNBOUND:                -5.174
REMARK SMILES CCCCCCCCCCCCCCCCCCCCCCCCCCCCCC(=O)[O-]
REMARK SMILES IDX 16 1 17 2 18 3 19 4 20 5 21 6 22 7 23 8 24 9 25 10 26 11
REMARK SMILES IDX 27 12 28 13 29 14 30 15 31 16 32 17 15 18 14 19 13 20 12 21
REMARK SMILES IDX 11 22 10 23 9 24 8 25 7 26 6 27 5 28 4 29 3 30 2 31 1 32
REMARK H PARENT
REMARK Flexibility Score: inf
ROOT
ATOM      1  C   UNL     1      23.068  -6.273   0.366  1.00  0.00     0.000 C 
ENDROOT
BRANCH   1   2
ATOM      2  C   UNL     1      22.623  -7.642   0.914  1.00  0.00     0.000 C 
BRANCH   2   3
ATOM      3  C   UNL     1      21.698  -7.586   2.149  1.00  0.00     0.000 C 
BRANCH   3   4
ATOM      4  C   UNL     1      21.905  -6.373   3.075  1.00  0.00     0.000 C 
BRANCH   4   5
ATOM      5  C   UNL     1      20.706  -5.409   3.089  1.00  0.00     0.000 C 
BRANCH   5   6
ATOM      6  C   UNL     1      21.126  -3.942   3.297  1.00  0.00     0.000 C 
BRANCH   6   7
ATOM      7  C   UNL     1      22.631  -3.724   3.548  1.00  0.00     0.000 C 
BRANCH   7   8
ATOM      8  C   UNL     1      23.371  -2.931   2.452  1.00  0.00     0.000 C 
BRANCH   8   9
ATOM      9  C   UNL     1      24.745  -3.498   2.048  1.00  0.00     0.000 C 
BRANCH   9  10
ATOM     10  C   UNL     1      25.815  -3.475   3.156  1.00  0.00     0.000 C 
BRANCH  10  11
ATOM     11  C   UNL     1      26.374  -4.867   3.519  1.00  0.00     0.000 C 
BRANCH  11  12
ATOM     12  C   UNL     1      25.593  -6.011   2.854  1.00  0.00     0.000 C 
BRANCH  12  13
ATOM     13  C   UNL     1      26.519  -6.884   1.992  1.00  0.00     0.006 C 
BRANCH  13  14
ATOM     14  C   UNL     1      26.697  -6.320   0.575  1.00  0.00     0.053 C 
BRANCH  14  15
ATOM     15  C   UNL     1      26.688  -7.401  -0.463  1.00  0.00     0.041 C 
ATOM     16  O   UNL     1      27.436  -7.318  -1.472  1.00  0.00    -0.550 OA
ATOM     17  O   UNL     1      25.839  -8.491  -0.323  1.00  0.00    -0.550 OA
ENDBRANCH  14  15
ENDBRANCH  13  14
ENDBRANCH  12  13
ENDBRANCH  11  12
ENDBRANCH  10  11
ENDBRANCH   9  10
ENDBRANCH   8   9
ENDBRANCH   7   8
ENDBRANCH   6   7
ENDBRANCH   5   6
ENDBRANCH   4   5
ENDBRANCH   3   4
ENDBRANCH   2   3
ENDBRANCH   1   2
BRANCH   1  18
ATOM     18  C   UNL     1      22.612  -5.972  -1.074  1.00  0.00     0.000 C 
BRANCH  18  19
ATOM     19  C   UNL     1      22.175  -4.509  -1.298  1.00  0.00     0.000 C 
BRANCH  19  20
ATOM     20  C   UNL     1      21.040  -4.068  -0.355  1.00  0.00     0.000 C 
BRANCH  20  21
ATOM     21  C   UNL     1      20.882  -2.540  -0.297  1.00  0.00     0.000 C 
BRANCH  21  22
ATOM     22  C   UNL     1      19.470  -2.067  -0.678  1.00  0.00     0.000 C 
BRANCH  22  23
ATOM     23  C   UNL     1      18.577  -3.258  -1.060  1.00  0.00     0.000 C 
BRANCH  23  24
ATOM     24  C   UNL     1      17.174  -2.824  -1.512  1.00  0.00    -0.000 C 
BRANCH  24  25
ATOM     25  C   UNL     1      16.422  -3.935  -2.265  1.00  0.00    -0.000 C 
BRANCH  25  26
ATOM     26  C   UNL     1      16.215  -3.590  -3.756  1.00  0.00    -0.000 C 
BRANCH  26  27
ATOM     27  C   UNL     1      16.978  -4.518  -4.723  1.00  0.00    -0.000 C 
BRANCH  27  28
ATOM     28  C   UNL     1      17.882  -5.559  -4.042  1.00  0.00    -0.000 C 
BRANCH  28  29
ATOM     29  C   UNL     1      19.378  -5.215  -4.161  1.00  0.00    -0.000 C 
BRANCH  29  30
ATOM     30  C   UNL     1      19.622  -3.957  -5.010  1.00  0.00    -0.000 C 
BRANCH  30  31
ATOM     31  C   UNL     1      20.331  -2.845  -4.222  1.00  0.00    -0.003 C 
ATOM     32  C   UNL     1      19.583  -1.521  -4.348  1.00  0.00     0.004 C 
ENDBRANCH  30  31
ENDBRANCH  29  30
ENDBRANCH  28  29
ENDBRANCH  27  28
ENDBRANCH  26  27
ENDBRANCH  25  26
ENDBRANCH  24  25
ENDBRANCH  23  24
ENDBRANCH  22  23
ENDBRANCH  21  22
ENDBRANCH  20  21
ENDBRANCH  19  20
ENDBRANCH  18  19
ENDBRANCH   1  18
TORSDOF 28
ENDMDL
MODEL 3
REMARK VINA RESULT:    -3.865      2.804      7.244
REMARK INTER + INTRA:         -15.365
REMARK INTER:                 -10.783
REMARK INTRA:                  -4.582
REMARK UNBOUND:                -5.174
REMARK SMILES CCCCCCCCCCCCCCCCCCCCCCCCCCCCCC(=O)[O-]
REMARK SMILES IDX 16 1 17 2 18 3 19 4 20 5 21 6 22 7 23 8 24 9 25 10 26 11
REMARK SMILES IDX 27 12 28 13 29 14 30 15 31 16 32 17 15 18 14 19 13 20 12 21
REMARK SMILES IDX 11 22 10 23 9 24 8 25 7 26 6 27 5 28 4 29 3 30 2 31 1 32
REMARK H PARENT
REMARK Flexibility Score: inf
ROOT
ATOM      1  C   UNL     1      22.261  -6.488  -3.229  1.00  0.00     0.000 C 
ENDROOT
BRANCH   1   2
ATOM      2  C   UNL     1      22.284  -7.140  -4.624  1.00  0.00     0.000 C 
BRANCH   2   3
ATOM      3  C   UNL     1      22.386  -6.155  -5.809  1.00  0.00     0.000 C 
BRANCH   3   4
ATOM      4  C   UNL     1      21.149  -6.096  -6.727  1.00  0.00     0.000 C 
BRANCH   4   5
ATOM      5  C   UNL     1      20.014  -7.032  -6.276  1.00  0.00     0.000 C 
BRANCH   5   6
ATOM      6  C   UNL     1      18.838  -6.273  -5.636  1.00  0.00     0.000 C 
BRANCH   6   7
ATOM      7  C   UNL     1      18.911  -4.738  -5.754  1.00  0.00     0.000 C 
BRANCH   7   8
ATOM      8  C   UNL     1      18.160  -3.959  -4.654  1.00  0.00     0.000 C 
BRANCH   8   9
ATOM      9  C   UNL     1      17.193  -4.802  -3.800  1.00  0.00     0.000 C 
BRANCH   9  10
ATOM     10  C   UNL     1      16.942  -4.270  -2.377  1.00  0.00     0.000 C 
BRANCH  10  11
ATOM     11  C   UNL     1      18.220  -3.813  -1.642  1.00  0.00     0.000 C 
BRANCH  11  12
ATOM     12  C   UNL     1      18.090  -2.402  -1.048  1.00  0.00     0.000 C 
BRANCH  12  13
ATOM     13  C   UNL     1      19.283  -1.521  -1.451  1.00  0.00     0.006 C 
BRANCH  13  14
ATOM     14  C   UNL     1      19.093  -0.880  -2.832  1.00  0.00     0.053 C 
BRANCH  14  15
ATOM     15  C   UNL     1      20.329  -0.167  -3.294  1.00  0.00     0.041 C 
ATOM     16  O   UNL     1      20.582   0.995  -2.882  1.00  0.00    -0.550 OA
ATOM     17  O   UNL     1      21.190  -0.783  -4.193  1.00  0.00    -0.550 OA
ENDBRANCH  14  15
ENDBRANCH  13  14
ENDBRANCH  12  13
ENDBRANCH  11  12
ENDBRANCH  10  11
ENDBRANCH   9  10
ENDBRANCH   8   9
ENDBRANCH   7   8
ENDBRANCH   6   7
ENDBRANCH   5   6
ENDBRANCH   4   5
ENDBRANCH   3   4
ENDBRANCH   2   3
ENDBRANCH   1   2
BRANCH   1  18
ATOM     18  C   UNL     1      21.380  -5.229  -3.117  1.00  0.00     0.000 C 
BRANCH  18  19
ATOM     19  C   UNL     1      21.932  -4.166  -2.143  1.00  0.00     0.000 C 
BRANCH  19  20
ATOM     20  C   UNL     1      21.714  -4.534  -0.663  1.00  0.00     0.000 C 
BRANCH  20  21
ATOM     21  C   UNL     1      22.046  -3.372   0.288  1.00  0.00     0.000 C 
BRANCH  21  22
ATOM     22  C   UNL     1      21.302  -3.462   1.629  1.00  0.00     0.000 C 
BRANCH  22  23
ATOM     23  C   UNL     1      21.038  -4.926   2.013  1.00  0.00     0.000 C 
BRANCH  23  24
ATOM     24  C   UNL     1      21.987  -5.430   3.111  1.00  0.00    -0.000 C 
BRANCH  24  25
ATOM     25  C   UNL     1      23.208  -6.175   2.545  1.00  0.00    -0.000 C 
BRANCH  25  26
ATOM     26  C   UNL     1      22.805  -7.254   1.516  1.00  0.00    -0.000 C 
BRANCH  26  27
ATOM     27  C   UNL     1      23.932  -7.633   0.534  1.00  0.00    -0.000 C 
BRANCH  27  28
ATOM     28  C   UNL     1      24.912  -6.494   0.204  1.00  0.00    -0.000 C 
BRANCH  28  29
ATOM     29  C   UNL     1      26.322  -7.005  -0.143  1.00  0.00    -0.000 C 
BRANCH  29  30
ATOM     30  C   UNL     1      26.294  -8.392  -0.807  1.00  0.00    -0.000 C 
BRANCH  30  31
ATOM     31  C   UNL     1      27.574  -8.687  -1.602  1.00  0.00    -0.003 C 
ATOM     32  C   UNL     1      27.789  -7.651  -2.702  1.00  0.00     0.004 C 
ENDBRANCH  30  31
ENDBRANCH  29  30
ENDBRANCH  28  29
ENDBRANCH  27  28
ENDBRANCH  26  27
ENDBRANCH  25  26
ENDBRANCH  24  25
ENDBRANCH  23  24
ENDBRANCH  22  23
ENDBRANCH  21  22
ENDBRANCH  20  21
ENDBRANCH  19  20
ENDBRANCH  18  19
ENDBRANCH   1  18
TORSDOF 28
ENDMDL
MODEL 4
REMARK VINA RESULT:    -3.857      3.249      8.149
REMARK INTER + INTRA:         -15.344
REMARK INTER:                 -10.279
REMARK INTRA:                  -5.065
REMARK UNBOUND:                -5.174
REMARK SMILES CCCCCCCCCCCCCCCCCCCCCCCCCCCCCC(=O)[O-]
REMARK SMILES IDX 16 1 17 2 18 3 19 4 20 5 21 6 22 7 23 8 24 9 25 10 26 11
REMARK SMILES IDX 27 12 28 13 29 14 30 15 31 16 32 17 15 18 14 19 13 20 12 21
REMARK SMILES IDX 11 22 10 23 9 24 8 25 7 26 6 27 5 28 4 29 3 30 2 31 1 32
REMARK H PARENT
REMARK Flexibility Score: inf
ROOT
ATOM      1  C   UNL     1      21.962  -4.029   0.289  1.00  0.00     0.000 C 
ENDROOT
BRANCH   1   2
ATOM      2  C   UNL     1      22.558  -2.758   0.923  1.00  0.00     0.000 C 
BRANCH   2   3
ATOM      3  C   UNL     1      23.701  -2.097   0.124  1.00  0.00     0.000 C 
BRANCH   3   4
ATOM      4  C   UNL     1      24.469  -0.986   0.864  1.00  0.00     0.000 C 
BRANCH   4   5
ATOM      5  C   UNL     1      24.209   0.418   0.289  1.00  0.00     0.000 C 
BRANCH   5   6
ATOM      6  C   UNL     1      23.198   0.405  -0.871  1.00  0.00     0.000 C 
BRANCH   6   7
ATOM      7  C   UNL     1      22.572   1.773  -1.206  1.00  0.00     0.000 C 
BRANCH   7   8
ATOM      8  C   UNL     1      21.884   1.860  -2.584  1.00  0.00     0.000 C 
BRANCH   8   9
ATOM      9  C   UNL     1      20.708   2.853  -2.666  1.00  0.00     0.000 C 
BRANCH   9  10
ATOM     10  C   UNL     1      19.518   2.539  -1.740  1.00  0.00     0.000 C 
BRANCH  10  11
ATOM     11  C   UNL     1      19.006   1.088  -1.846  1.00  0.00     0.000 C 
BRANCH  11  12
ATOM     12  C   UNL     1      18.883   0.400  -0.477  1.00  0.00     0.000 C 
BRANCH  12  13
ATOM     13  C   UNL     1      19.744  -0.872  -0.419  1.00  0.00     0.006 C 
BRANCH  13  14
ATOM     14  C   UNL     1      19.873  -1.550  -1.790  1.00  0.00     0.053 C 
BRANCH  14  15
ATOM     15  C   UNL     1      18.976  -2.746  -1.910  1.00  0.00     0.041 C 
ATOM     16  O   UNL     1      19.459  -3.876  -2.187  1.00  0.00    -0.550 OA
ATOM     17  O   UNL     1      17.606  -2.608  -1.732  1.00  0.00    -0.550 OA
ENDBRANCH  14  15
ENDBRANCH  13  14
ENDBRANCH  12  13
ENDBRANCH  11  12
ENDBRANCH  10  11
ENDBRANCH   9  10
ENDBRANCH   8   9
ENDBRANCH   7   8
ENDBRANCH   6   7
ENDBRANCH   5   6
ENDBRANCH   4   5
ENDBRANCH   3   4
ENDBRANCH   2   3
ENDBRANCH   1   2
BRANCH   1  18
ATOM     18  C   UNL     1      23.000  -5.031  -0.252  1.00  0.00     0.000 C 
BRANCH  18  19
ATOM     19  C   UNL     1      22.539  -6.502  -0.192  1.00  0.00     0.000 C 
BRANCH  19  20
ATOM     20  C   UNL     1      22.986  -7.221   1.094  1.00  0.00     0.000 C 
BRANCH  20  21
ATOM     21  C   UNL     1      21.888  -7.241   2.170  1.00  0.00     0.000 C 
BRANCH  21  22
ATOM     22  C   UNL     1      22.124  -6.214   3.289  1.00  0.00     0.000 C 
BRANCH  22  23
ATOM     23  C   UNL     1      23.626  -5.954   3.487  1.00  0.00     0.000 C 
BRANCH  23  24
ATOM     24  C   UNL     1      23.939  -4.474   3.754  1.00  0.00    -0.000 C 
BRANCH  24  25
ATOM     25  C   UNL     1      25.312  -4.049   3.207  1.00  0.00    -0.000 C 
BRANCH  25  26
ATOM     26  C   UNL     1      25.663  -4.773   1.888  1.00  0.00    -0.000 C 
BRANCH  26  27
ATOM     27  C   UNL     1      26.894  -5.695   1.989  1.00  0.00    -0.000 C 
BRANCH  27  28
ATOM     28  C   UNL     1      26.755  -7.042   1.259  1.00  0.00    -0.000 C 
BRANCH  28  29
ATOM     29  C   UNL     1      26.440  -6.875  -0.239  1.00  0.00    -0.000 C 
BRANCH  29  30
ATOM     30  C   UNL     1      26.135  -8.217  -0.924  1.00  0.00    -0.000 C 
BRANCH  30  31
ATOM     31  C   UNL     1      27.389  -9.090  -1.089  1.00  0.00    -0.003 C 
ATOM     32  C   UNL     1      28.446  -8.379  -1.929  1.00  0.00     0.004 C 
ENDBRANCH  30  31
ENDBRANCH  29  30
ENDBRANCH  28  29
ENDBRANCH  27  28
ENDBRANCH  26  27
ENDBRANCH  25  26
ENDBRANCH  24  25
ENDBRANCH  23  24
ENDBRANCH  22  23
ENDBRANCH  21  22
ENDBRANCH  20  21
ENDBRANCH  19  20
ENDBRANCH  18  19
ENDBRANCH   1  18
TORSDOF 28
ENDMDL
MODEL 5
REMARK VINA RESULT:    -3.851      2.306      4.782
REMARK INTER + INTRA:         -15.327
REMARK INTER:                  -9.664
REMARK INTRA:                  -5.663
REMARK UNBOUND:                -5.174
REMARK SMILES CCCCCCCCCCCCCCCCCCCCCCCCCCCCCC(=O)[O-]
REMARK SMILES IDX 16 1 17 2 18 3 19 4 20 5 21 6 22 7 23 8 24 9 25 10 26 11
REMARK SMILES IDX 27 12 28 13 29 14 30 15 31 16 32 17 15 18 14 19 13 20 12 21
REMARK SMILES IDX 11 22 10 23 9 24 8 25 7 26 6 27 5 28 4 29 3 30 2 31 1 32
REMARK H PARENT
REMARK Flexibility Score: inf
ROOT
ATOM      1  C   UNL     1      17.000  -4.034  -1.966  1.00  0.00     0.000 C 
ENDROOT
BRANCH   1   2
ATOM      2  C   UNL     1      16.246  -3.646  -3.252  1.00  0.00     0.000 C 
BRANCH   2   3
ATOM      3  C   UNL     1      17.018  -3.890  -4.566  1.00  0.00     0.000 C 
BRANCH   3   4
ATOM      4  C   UNL     1      18.397  -4.561  -4.407  1.00  0.00     0.000 C 
BRANCH   4   5
ATOM      5  C   UNL     1      19.294  -4.404  -5.648  1.00  0.00     0.000 C 
BRANCH   5   6
ATOM      6  C   UNL     1      20.781  -4.243  -5.287  1.00  0.00     0.000 C 
BRANCH   6   7
ATOM      7  C   UNL     1      21.529  -5.560  -5.001  1.00  0.00     0.000 C 
BRANCH   7   8
ATOM      8  C   UNL     1      21.857  -5.818  -3.516  1.00  0.00     0.000 C 
BRANCH   8   9
ATOM      9  C   UNL     1      21.637  -4.615  -2.578  1.00  0.00     0.000 C 
BRANCH   9  10
ATOM     10  C   UNL     1      22.225  -4.770  -1.163  1.00  0.00     0.000 C 
BRANCH  10  11
ATOM     11  C   UNL     1      22.439  -3.434  -0.422  1.00  0.00     0.000 C 
BRANCH  11  12
ATOM     12  C   UNL     1      22.084  -3.521   1.071  1.00  0.00     0.000 C 
BRANCH  12  13
ATOM     13  C   UNL     1      20.871  -4.437   1.298  1.00  0.00     0.006 C 
BRANCH  13  14
ATOM     14  C   UNL     1      20.784  -4.940   2.745  1.00  0.00     0.053 C 
BRANCH  14  15
ATOM     15  C   UNL     1      21.116  -6.398   2.853  1.00  0.00     0.041 C 
ATOM     16  O   UNL     1      20.705  -7.072   3.834  1.00  0.00    -0.550 OA
ATOM     17  O   UNL     1      21.894  -7.007   1.877  1.00  0.00    -0.550 OA
ENDBRANCH  14  15
ENDBRANCH  13  14
ENDBRANCH  12  13
ENDBRANCH  11  12
ENDBRANCH  10  11
ENDBRANCH   9  10
ENDBRANCH   8   9
ENDBRANCH   7   8
ENDBRANCH   6   7
ENDBRANCH   5   6
ENDBRANCH   4   5
ENDBRANCH   3   4
ENDBRANCH   2   3
ENDBRANCH   1   2
BRANCH   1  18
ATOM     18  C   UNL     1      17.396  -2.849  -1.064  1.00  0.00     0.000 C 
BRANCH  18  19
ATOM     19  C   UNL     1      18.910  -2.552  -1.050  1.00  0.00     0.000 C 
BRANCH  19  20
ATOM     20  C   UNL     1      19.268  -1.220  -1.735  1.00  0.00     0.000 C 
BRANCH  20  21
ATOM     21  C   UNL     1      19.947  -1.424  -3.100  1.00  0.00     0.000 C 
BRANCH  21  22
ATOM     22  C   UNL     1      19.187  -0.752  -4.255  1.00  0.00     0.000 C 
BRANCH  22  23
ATOM     23  C   UNL     1      17.795  -0.288  -3.799  1.00  0.00     0.000 C 
BRANCH  23  24
ATOM     24  C   UNL     1      17.379   1.046  -4.438  1.00  0.00    -0.000 C 
BRANCH  24  25
ATOM     25  C   UNL     1      18.280   2.217  -4.010  1.00  0.00    -0.000 C 
BRANCH  25  26
ATOM     26  C   UNL     1      18.163   2.519  -2.500  1.00  0.00    -0.000 C 
BRANCH  26  27
ATOM     27  C   UNL     1      19.516   2.540  -1.761  1.00  0.00    -0.000 C 
BRANCH  27  28
ATOM     28  C   UNL     1      20.739   2.235  -2.643  1.00  0.00    -0.000 C 
BRANCH  28  29
ATOM     29  C   UNL     1      22.058   2.230  -1.848  1.00  0.00    -0.000 C 
BRANCH  29  30
ATOM     30  C   UNL     1      22.148   1.043  -0.875  1.00  0.00    -0.000 C 
BRANCH  30  31
ATOM     31  C   UNL     1      23.357   0.140  -1.161  1.00  0.00    -0.003 C 
ATOM     32  C   UNL     1      24.145  -0.144   0.115  1.00  0.00     0.004 C 
ENDBRANCH  30  31
ENDBRANCH  29  30
ENDBRANCH  28  29
ENDBRANCH  27  28
ENDBRANCH  26  27
ENDBRANCH  25  26
ENDBRANCH  24  25
ENDBRANCH  23  24
ENDBRANCH  22  23
ENDBRANCH  21  22
ENDBRANCH  20  21
ENDBRANCH  19  20
ENDBRANCH  18  19
ENDBRANCH   1  18
TORSDOF 28
ENDMDL
MODEL 6
REMARK VINA RESULT:    -3.836      2.441      5.491
REMARK INTER + INTRA:         -15.289
REMARK INTER:                  -9.896
REMARK INTRA:                  -5.393
REMARK UNBOUND:                -5.174
REMARK SMILES CCCCCCCCCCCCCCCCCCCCCCCCCCCCCC(=O)[O-]
REMARK SMILES IDX 16 1 17 2 18 3 19 4 20 5 21 6 22 7 23 8 24 9 25 10 26 11
REMARK SMILES IDX 27 12 28 13 29 14 30 15 31 16 32 17 15 18 14 19 13 20 12 21
REMARK SMILES IDX 11 22 10 23 9 24 8 25 7 26 6 27 5 28 4 29 3 30 2 31 1 32
REMARK H PARENT
REMARK Flexibility Score: inf
ROOT
ATOM      1  C   UNL     1      21.449  -3.270   0.113  1.00  0.00     0.000 C 
ENDROOT
BRANCH   1   2
ATOM      2  C   UNL     1      22.529  -4.171  -0.514  1.00  0.00     0.000 C 
BRANCH   2   3
ATOM      3  C   UNL     1      22.341  -5.685  -0.278  1.00  0.00     0.000 C 
BRANCH   3   4
ATOM      4  C   UNL     1      23.642  -6.500  -0.146  1.00  0.00     0.000 C 
BRANCH   4   5
ATOM      5  C   UNL     1      23.907  -6.989   1.288  1.00  0.00     0.000 C 
BRANCH   5   6
ATOM      6  C   UNL     1      23.338  -8.395   1.550  1.00  0.00     0.000 C 
BRANCH   6   7
ATOM      7  C   UNL     1      21.811  -8.454   1.749  1.00  0.00     0.000 C 
BRANCH   7   8
ATOM      8  C   UNL     1      21.347  -8.653   3.207  1.00  0.00     0.000 C 
BRANCH   8   9
ATOM      9  C   UNL     1      20.860  -7.375   3.919  1.00  0.00     0.000 C 
BRANCH   9  10
ATOM     10  C   UNL     1      20.596  -6.171   2.996  1.00  0.00     0.000 C 
BRANCH  10  11
ATOM     11  C   UNL     1      21.476  -4.941   3.301  1.00  0.00     0.000 C 
BRANCH  11  12
ATOM     12  C   UNL     1      22.465  -5.190   4.450  1.00  0.00     0.000 C 
BRANCH  12  13
ATOM     13  C   UNL     1      23.811  -4.498   4.181  1.00  0.00     0.006 C 
BRANCH  13  14
ATOM     14  C   UNL     1      23.808  -3.713   2.862  1.00  0.00     0.053 C 
BRANCH  14  15
ATOM     15  C   UNL     1      23.986  -2.241   3.086  1.00  0.00     0.041 C 
ATOM     16  O   UNL     1      23.906  -1.761   4.247  1.00  0.00    -0.550 OA
ATOM     17  O   UNL     1      24.223  -1.398   2.008  1.00  0.00    -0.550 OA
ENDBRANCH  14  15
ENDBRANCH  13  14
ENDBRANCH  12  13
ENDBRANCH  11  12
ENDBRANCH  10  11
ENDBRANCH   9  10
ENDBRANCH   8   9
ENDBRANCH   7   8
ENDBRANCH   6   7
ENDBRANCH   5   6
ENDBRANCH   4   5
ENDBRANCH   3   4
ENDBRANCH   2   3
ENDBRANCH   1   2
BRANCH   1  18
ATOM     18  C   UNL     1      20.025  -3.487  -0.433  1.00  0.00     0.000 C 
BRANCH  18  19
ATOM     19  C   UNL     1      19.355  -2.202  -0.963  1.00  0.00     0.000 C 
BRANCH  19  20
ATOM     20  C   UNL     1      17.882  -2.411  -1.362  1.00  0.00     0.000 C 
BRANCH  20  21
ATOM     21  C   UNL     1      17.491  -3.897  -1.412  1.00  0.00     0.000 C 
BRANCH  21  22
ATOM     22  C   UNL     1      16.679  -4.263  -2.664  1.00  0.00     0.000 C 
BRANCH  22  23
ATOM     23  C   UNL     1      17.570  -4.258  -3.916  1.00  0.00     0.000 C 
BRANCH  23  24
ATOM     24  C   UNL     1      18.909  -4.977  -3.691  1.00  0.00    -0.000 C 
BRANCH  24  25
ATOM     25  C   UNL     1      20.117  -4.133  -4.131  1.00  0.00    -0.000 C 
BRANCH  25  26
ATOM     26  C   UNL     1      21.458  -4.854  -3.867  1.00  0.00    -0.000 C 
BRANCH  26  27
ATOM     27  C   UNL     1      21.345  -6.392  -3.840  1.00  0.00    -0.000 C 
BRANCH  27  28
ATOM     28  C   UNL     1      22.195  -7.121  -4.895  1.00  0.00    -0.000 C 
BRANCH  28  29
ATOM     29  C   UNL     1      21.770  -6.786  -6.336  1.00  0.00    -0.000 C 
BRANCH  29  30
ATOM     30  C   UNL     1      20.382  -7.351  -6.681  1.00  0.00    -0.000 C 
BRANCH  30  31
ATOM     31  C   UNL     1      19.451  -6.290  -7.287  1.00  0.00    -0.003 C 
ATOM     32  C   UNL     1      20.223  -5.027  -7.656  1.00  0.00     0.004 C 
ENDBRANCH  30  31
ENDBRANCH  29  30
ENDBRANCH  28  29
ENDBRANCH  27  28
ENDBRANCH  26  27
ENDBRANCH  25  26
ENDBRANCH  24  25
ENDBRANCH  23  24
ENDBRANCH  22  23
ENDBRANCH  21  22
ENDBRANCH  20  21
ENDBRANCH  19  20
ENDBRANCH  18  19
ENDBRANCH   1  18
TORSDOF 28
ENDMDL
MODEL 7
REMARK VINA RESULT:    -3.820      2.371      5.753
REMARK INTER + INTRA:         -15.248
REMARK INTER:                  -9.717
REMARK INTRA:                  -5.531
REMARK UNBOUND:                -5.174
REMARK SMILES CCCCCCCCCCCCCCCCCCCCCCCCCCCCCC(=O)[O-]
REMARK SMILES IDX 16 1 17 2 18 3 19 4 20 5 21 6 22 7 23 8 24 9 25 10 26 11
REMARK SMILES IDX 27 12 28 13 29 14 30 15 31 16 32 17 15 18 14 19 13 20 12 21
REMARK SMILES IDX 11 22 10 23 9 24 8 25 7 26 6 27 5 28 4 29 3 30 2 31 1 32
REMARK H PARENT
REMARK Flexibility Score: inf
ROOT
ATOM      1  C   UNL     1      16.680  -4.263  -2.191  1.00  0.00     0.000 C 
ENDROOT
BRANCH   1   2
ATOM      2  C   UNL     1      16.016  -3.121  -2.982  1.00  0.00     0.000 C 
BRANCH   2   3
ATOM      3  C   UNL     1      15.875  -3.367  -4.499  1.00  0.00     0.000 C 
BRANCH   3   4
ATOM      4  C   UNL     1      16.749  -2.471  -5.398  1.00  0.00     0.000 C 
BRANCH   4   5
ATOM      5  C   UNL     1      17.466  -1.352  -4.624  1.00  0.00     0.000 C 
BRANCH   5   6
ATOM      6  C   UNL     1      18.999  -1.485  -4.673  1.00  0.00     0.000 C 
BRANCH   6   7
ATOM      7  C   UNL     1      19.521  -2.904  -4.969  1.00  0.00     0.000 C 
BRANCH   7   8
ATOM      8  C   UNL     1      20.340  -3.044  -6.269  1.00  0.00     0.000 C 
BRANCH   8   9
ATOM      9  C   UNL     1      20.232  -4.415  -6.965  1.00  0.00     0.000 C 
BRANCH   9  10
ATOM     10  C   UNL     1      20.590  -5.627  -6.086  1.00  0.00     0.000 C 
BRANCH  10  11
ATOM     11  C   UNL     1      22.006  -5.564  -5.475  1.00  0.00     0.000 C 
BRANCH  11  12
ATOM     12  C   UNL     1      22.090  -6.246  -4.101  1.00  0.00     0.000 C 
BRANCH  12  13
ATOM     13  C   UNL     1      21.142  -5.576  -3.093  1.00  0.00     0.006 C 
BRANCH  13  14
ATOM     14  C   UNL     1      21.851  -4.505  -2.251  1.00  0.00     0.053 C 
BRANCH  14  15
ATOM     15  C   UNL     1      22.184  -5.003  -0.876  1.00  0.00     0.041 C 
ATOM     16  O   UNL     1      23.203  -5.718  -0.690  1.00  0.00    -0.550 OA
ATOM     17  O   UNL     1      21.356  -4.691   0.195  1.00  0.00    -0.550 OA
ENDBRANCH  14  15
ENDBRANCH  13  14
ENDBRANCH  12  13
ENDBRANCH  11  12
ENDBRANCH  10  11
ENDBRANCH   9  10
ENDBRANCH   8   9
ENDBRANCH   7   8
ENDBRANCH   6   7
ENDBRANCH   5   6
ENDBRANCH   4   5
ENDBRANCH   3   4
ENDBRANCH   2   3
ENDBRANCH   1   2
BRANCH   1  18
ATOM     18  C   UNL     1      17.940  -3.858  -1.402  1.00  0.00     0.000 C 
BRANCH  18  19
ATOM     19  C   UNL     1      18.098  -2.334  -1.215  1.00  0.00     0.000 C 
BRANCH  19  20
ATOM     20  C   UNL     1      19.481  -1.935  -0.668  1.00  0.00     0.000 C 
BRANCH  20  21
ATOM     21  C   UNL     1      19.623  -0.415  -0.479  1.00  0.00     0.000 C 
BRANCH  21  22
ATOM     22  C   UNL     1      19.068   0.392  -1.663  1.00  0.00     0.000 C 
BRANCH  22  23
ATOM     23  C   UNL     1      19.169   1.901  -1.393  1.00  0.00     0.000 C 
BRANCH  23  24
ATOM     24  C   UNL     1      18.548   2.745  -2.517  1.00  0.00    -0.000 C 
BRANCH  24  25
ATOM     25  C   UNL     1      19.336   2.650  -3.835  1.00  0.00    -0.000 C 
BRANCH  25  26
ATOM     26  C   UNL     1      20.813   3.066  -3.661  1.00  0.00    -0.000 C 
BRANCH  26  27
ATOM     27  C   UNL     1      21.805   2.195  -4.457  1.00  0.00    -0.000 C 
BRANCH  27  28
ATOM     28  C   UNL     1      21.874   0.723  -4.012  1.00  0.00    -0.000 C 
BRANCH  28  29
ATOM     29  C   UNL     1      23.175   0.389  -3.262  1.00  0.00    -0.000 C 
BRANCH  29  30
ATOM     30  C   UNL     1      22.913  -0.330  -1.928  1.00  0.00    -0.000 C 
BRANCH  30  31
ATOM     31  C   UNL     1      23.445   0.459  -0.722  1.00  0.00    -0.003 C 
ATOM     32  C   UNL     1      22.803   1.840  -0.642  1.00  0.00     0.004 C 
ENDBRANCH  30  31
ENDBRANCH  29  30
ENDBRANCH  28  29
ENDBRANCH  27  28
ENDBRANCH  26  27
ENDBRANCH  25  26
ENDBRANCH  24  25
ENDBRANCH  23  24
ENDBRANCH  22  23
ENDBRANCH  21  22
ENDBRANCH  20  21
ENDBRANCH  19  20
ENDBRANCH  18  19
ENDBRANCH   1  18
TORSDOF 28
ENDMDL
MODEL 8
REMARK VINA RESULT:    -3.814      4.654      8.387
REMARK INTER + INTRA:         -15.231
REMARK INTER:                  -9.713
REMARK INTRA:                  -5.518
REMARK UNBOUND:                -5.174
REMARK SMILES CCCCCCCCCCCCCCCCCCCCCCCCCCCCCC(=O)[O-]
REMARK SMILES IDX 16 1 17 2 18 3 19 4 20 5 21 6 22 7 23 8 24 9 25 10 26 11
REMARK SMILES IDX 27 12 28 13 29 14 30 15 31 16 32 17 15 18 14 19 13 20 12 21
REMARK SMILES IDX 11 22 10 23 9 24 8 25 7 26 6 27 5 28 4 29 3 30 2 31 1 32
REMARK H PARENT
REMARK Flexibility Score: inf
ROOT
ATOM      1  C   UNL     1      21.866  -5.581  -3.863  1.00  0.00     0.000 C 
ENDROOT
BRANCH   1   2
ATOM      2  C   UNL     1      20.590  -4.757  -4.118  1.00  0.00     0.000 C 
BRANCH   2   3
ATOM      3  C   UNL     1      20.493  -4.112  -5.518  1.00  0.00     0.000 C 
BRANCH   3   4
ATOM      4  C   UNL     1      19.096  -3.594  -5.911  1.00  0.00     0.000 C 
BRANCH   4   5
ATOM      5  C   UNL     1      17.951  -4.470  -5.374  1.00  0.00     0.000 C 
BRANCH   5   6
ATOM      6  C   UNL     1      16.662  -3.669  -5.117  1.00  0.00     0.000 C 
BRANCH   6   7
ATOM      7  C   UNL     1      16.234  -3.578  -3.640  1.00  0.00     0.000 C 
BRANCH   7   8
ATOM      8  C   UNL     1      16.966  -4.542  -2.683  1.00  0.00     0.000 C 
BRANCH   8   9
ATOM      9  C   UNL     1      17.424  -3.919  -1.350  1.00  0.00     0.000 C 
BRANCH   9  10
ATOM     10  C   UNL     1      17.864  -2.445  -1.432  1.00  0.00     0.000 C 
BRANCH  10  11
ATOM     11  C   UNL     1      19.293  -2.246  -1.980  1.00  0.00     0.000 C 
BRANCH  11  12
ATOM     12  C   UNL     1      19.352  -1.219  -3.122  1.00  0.00     0.000 C 
BRANCH  12  13
ATOM     13  C   UNL     1      18.496   0.015  -2.800  1.00  0.00     0.006 C 
BRANCH  13  14
ATOM     14  C   UNL     1      19.058   1.295  -3.435  1.00  0.00     0.053 C 
BRANCH  14  15
ATOM     15  C   UNL     1      19.084   2.438  -2.464  1.00  0.00     0.041 C 
ATOM     16  O   UNL     1      19.915   3.372  -2.606  1.00  0.00    -0.550 OA
ATOM     17  O   UNL     1      18.200   2.458  -1.393  1.00  0.00    -0.550 OA
ENDBRANCH  14  15
ENDBRANCH  13  14
ENDBRANCH  12  13
ENDBRANCH  11  12
ENDBRANCH  10  11
ENDBRANCH   9  10
ENDBRANCH   8   9
ENDBRANCH   7   8
ENDBRANCH   6   7
ENDBRANCH   5   6
ENDBRANCH   4   5
ENDBRANCH   3   4
ENDBRANCH   2   3
ENDBRANCH   1   2
BRANCH   1  18
ATOM     18  C   UNL     1      22.586  -6.073  -5.133  1.00  0.00     0.000 C 
BRANCH  18  19
ATOM     19  C   UNL     1      22.213  -7.512  -5.545  1.00  0.00     0.000 C 
BRANCH  19  20
ATOM     20  C   UNL     1      21.434  -7.574  -6.873  1.00  0.00     0.000 C 
BRANCH  20  21
ATOM     21  C   UNL     1      19.911  -7.527  -6.665  1.00  0.00     0.000 C 
BRANCH  21  22
ATOM     22  C   UNL     1      19.138  -8.367  -7.693  1.00  0.00     0.000 C 
BRANCH  22  23
ATOM     23  C   UNL     1      20.102  -9.099  -8.640  1.00  0.00     0.000 C 
BRANCH  23  24
ATOM     24  C   UNL     1      19.618  -9.092 -10.098  1.00  0.00    -0.000 C 
BRANCH  24  25
ATOM     25  C   UNL     1      19.733  -7.706 -10.755  1.00  0.00    -0.000 C 
BRANCH  25  26
ATOM     26  C   UNL     1      21.202  -7.249 -10.895  1.00  0.00    -0.000 C 
BRANCH  26  27
ATOM     27  C   UNL     1      21.440  -5.780 -10.490  1.00  0.00    -0.000 C 
BRANCH  27  28
ATOM     28  C   UNL     1      20.480  -5.243  -9.414  1.00  0.00    -0.000 C 
BRANCH  28  29
ATOM     29  C   UNL     1      19.697  -4.003  -9.883  1.00  0.00    -0.000 C 
BRANCH  29  30
ATOM     30  C   UNL     1      18.186  -4.269  -9.979  1.00  0.00    -0.000 C 
BRANCH  30  31
ATOM     31  C   UNL     1      17.690  -5.238  -8.894  1.00  0.00    -0.003 C 
ATOM     32  C   UNL     1      16.597  -6.154  -9.435  1.00  0.00     0.004 C 
ENDBRANCH  30  31
ENDBRANCH  29  30
ENDBRANCH  28  29
ENDBRANCH  27  28
ENDBRANCH  26  27
ENDBRANCH  25  26
ENDBRANCH  24  25
ENDBRANCH  23  24
ENDBRANCH  22  23
ENDBRANCH  21  22
ENDBRANCH  20  21
ENDBRANCH  19  20
ENDBRANCH  18  19
ENDBRANCH   1  18
TORSDOF 28
ENDMDL
MODEL 9
REMARK VINA RESULT:    -3.813      1.574      3.018
REMARK INTER + INTRA:         -15.228
REMARK INTER:                  -9.893
REMARK INTRA:                  -5.335
REMARK UNBOUND:                -5.174
REMARK SMILES CCCCCCCCCCCCCCCCCCCCCCCCCCCCCC(=O)[O-]
REMARK SMILES IDX 16 1 17 2 18 3 19 4 20 5 21 6 22 7 23 8 24 9 25 10 26 11
REMARK SMILES IDX 27 12 28 13 29 14 30 15 31 16 32 17 15 18 14 19 13 20 12 21
REMARK SMILES IDX 11 22 10 23 9 24 8 25 7 26 6 27 5 28 4 29 3 30 2 31 1 32
REMARK H PARENT
REMARK Flexibility Score: inf
ROOT
ATOM      1  C   UNL     1      18.163  -2.440  -1.300  1.00  0.00     0.000 C 
ENDROOT
BRANCH   1   2
ATOM      2  C   UNL     1      19.568  -2.499  -0.672  1.00  0.00     0.000 C 
BRANCH   2   3
ATOM      3  C   UNL     1      20.240  -3.888  -0.692  1.00  0.00     0.000 C 
BRANCH   3   4
ATOM      4  C   UNL     1      21.716  -3.903  -1.136  1.00  0.00     0.000 C 
BRANCH   4   5
ATOM      5  C   UNL     1      22.542  -2.755  -0.530  1.00  0.00     0.000 C 
BRANCH   5   6
ATOM      6  C   UNL     1      23.486  -3.231   0.589  1.00  0.00     0.000 C 
BRANCH   6   7
ATOM      7  C   UNL     1      23.111  -2.753   2.006  1.00  0.00     0.000 C 
BRANCH   7   8
ATOM      8  C   UNL     1      21.709  -3.175   2.490  1.00  0.00     0.000 C 
BRANCH   8   9
ATOM      9  C   UNL     1      21.681  -4.400   3.425  1.00  0.00     0.000 C 
BRANCH   9  10
ATOM     10  C   UNL     1      20.749  -5.543   2.981  1.00  0.00     0.000 C 
BRANCH  10  11
ATOM     11  C   UNL     1      21.490  -6.824   2.545  1.00  0.00     0.000 C 
BRANCH  11  12
ATOM     12  C   UNL     1      22.177  -6.675   1.179  1.00  0.00     0.000 C 
BRANCH  12  13
ATOM     13  C   UNL     1      23.684  -6.958   1.285  1.00  0.00     0.006 C 
BRANCH  13  14
ATOM     14  C   UNL     1      24.439  -6.576   0.004  1.00  0.00     0.053 C 
BRANCH  14  15
ATOM     15  C   UNL     1      25.748  -7.300  -0.111  1.00  0.00     0.041 C 
ATOM     16  O   UNL     1      26.685  -7.048   0.692  1.00  0.00    -0.550 OA
ATOM     17  O   UNL     1      25.936  -8.238  -1.117  1.00  0.00    -0.550 OA
ENDBRANCH  14  15
ENDBRANCH  13  14
ENDBRANCH  12  13
ENDBRANCH  11  12
ENDBRANCH  10  11
ENDBRANCH   9  10
ENDBRANCH   8   9
ENDBRANCH   7   8
ENDBRANCH   6   7
ENDBRANCH   5   6
ENDBRANCH   4   5
ENDBRANCH   3   4
ENDBRANCH   2   3
ENDBRANCH   1   2
BRANCH   1  18
ATOM     18  C   UNL     1      17.394  -3.775  -1.294  1.00  0.00     0.000 C 
BRANCH  18  19
ATOM     19  C   UNL     1      16.256  -3.846  -2.334  1.00  0.00     0.000 C 
BRANCH  19  20
ATOM     20  C   UNL     1      16.207  -2.614  -3.257  1.00  0.00     0.000 C 
BRANCH  20  21
ATOM     21  C   UNL     1      16.311  -2.990  -4.745  1.00  0.00     0.000 C 
BRANCH  21  22
ATOM     22  C   UNL     1      17.093  -4.291  -4.983  1.00  0.00     0.000 C 
BRANCH  22  23
ATOM     23  C   UNL     1      18.516  -3.993  -5.481  1.00  0.00     0.000 C 
BRANCH  23  24
ATOM     24  C   UNL     1      19.544  -3.953  -4.340  1.00  0.00    -0.000 C 
BRANCH  24  25
ATOM     25  C   UNL     1      20.368  -2.654  -4.328  1.00  0.00    -0.000 C 
BRANCH  25  26
ATOM     26  C   UNL     1      19.595  -1.469  -4.947  1.00  0.00    -0.000 C 
BRANCH  26  27
ATOM     27  C   UNL     1      19.437  -0.263  -3.999  1.00  0.00    -0.000 C 
BRANCH  27  28
ATOM     28  C   UNL     1      20.753   0.441  -3.624  1.00  0.00    -0.000 C 
BRANCH  28  29
ATOM     29  C   UNL     1      21.110   0.278  -2.136  1.00  0.00    -0.000 C 
BRANCH  29  30
ATOM     30  C   UNL     1      21.250   1.629  -1.417  1.00  0.00    -0.000 C 
BRANCH  30  31
ATOM     31  C   UNL     1      22.528   1.714  -0.568  1.00  0.00    -0.003 C 
ATOM     32  C   UNL     1      23.570   0.706  -1.043  1.00  0.00     0.004 C 
ENDBRANCH  30  31
ENDBRANCH  29  30
ENDBRANCH  28  29
ENDBRANCH  27  28
ENDBRANCH  26  27
ENDBRANCH  25  26
ENDBRANCH  24  25
ENDBRANCH  23  24
ENDBRANCH  22  23
ENDBRANCH  21  22
ENDBRANCH  20  21
ENDBRANCH  19  20
ENDBRANCH  18  19
ENDBRANCH   1  18
TORSDOF 28
ENDMDL
