MODEL 1
REMARK VINA RESULT:    -1.445      0.000      0.000
REMARK INTER + INTRA:          -4.855
REMARK INTER:                  -2.796
REMARK INTRA:                  -2.059
REMARK UNBOUND:                -2.059
REMARK SMILES CCCCCCCCCCCCCCCCCC(=O)[O-]
REMARK SMILES IDX 10 1 11 2 12 3 13 4 14 5 15 6 16 7 17 8 18 9 19 10 20 11
REMARK SMILES IDX 9 12 8 13 7 14 6 15 5 16 4 17 3 18 2 19 1 20
REMARK H PARENT
REMARK Flexibility Score: inf
ROOT
ATOM      1  C   UNL     1      -4.763  -7.182  -6.587  1.00  0.00     0.000 C 
ENDROOT
BRANCH   1   2
ATOM      2  C   UNL     1      -6.172  -7.649  -6.170  1.00  0.00     0.000 C 
BRANCH   2   3
ATOM      3  C   UNL     1      -6.277  -9.142  -5.806  1.00  0.00     0.000 C 
BRANCH   3   4
ATOM      4  C   UNL     1      -7.693  -9.746  -5.917  1.00  0.00     0.000 C 
BRANCH   4   5
ATOM      5  C   UNL     1      -8.741  -9.123  -4.976  1.00  0.00     0.000 C 
BRANCH   5   6
ATOM      6  C   UNL     1     -10.112  -8.945  -5.650  1.00  0.00     0.000 C 
BRANCH   6   7
ATOM      7  C   UNL     1     -10.123  -7.789  -6.663  1.00  0.00     0.006 C 
BRANCH   7   8
ATOM      8  C   UNL     1      -9.980  -6.420  -5.987  1.00  0.00     0.053 C 
BRANCH   8   9
ATOM      9  C   UNL     1      -9.366  -5.429  -6.928  1.00  0.00     0.041 C 
ATOM     10  O   UNL     1      -8.268  -5.681  -7.488  1.00  0.00    -0.550 OA
ATOM     11  O   UNL     1     -10.024  -4.238  -7.211  1.00  0.00    -0.550 OA
ENDBRANCH   8   9
ENDBRANCH   7   8
ENDBRANCH   6   7
ENDBRANCH   5   6
ENDBRANCH   4   5
ENDBRANCH   3   4
ENDBRANCH   2   3
ENDBRANCH   1   2
BRANCH   1  12
ATOM     12  C   UNL     1      -3.661  -8.228  -6.322  1.00  0.00     0.000 C 
BRANCH  12  13
ATOM     13  C   UNL     1      -3.584  -9.298  -7.424  1.00  0.00    -0.000 C 
BRANCH  13  14
ATOM     14  C   UNL     1      -3.625  -8.702  -8.842  1.00  0.00    -0.000 C 
BRANCH  14  15
ATOM     15  C   UNL     1      -4.859  -9.146  -9.657  1.00  0.00    -0.000 C 
BRANCH  15  16
ATOM     16  C   UNL     1      -5.707  -7.948 -10.123  1.00  0.00    -0.000 C 
BRANCH  16  17
ATOM     17  C   UNL     1      -7.208  -8.136  -9.851  1.00  0.00    -0.000 C 
BRANCH  17  18
ATOM     18  C   UNL     1      -7.584  -9.606  -9.603  1.00  0.00    -0.000 C 
BRANCH  18  19
ATOM     19  C   UNL     1      -9.067  -9.779  -9.239  1.00  0.00    -0.003 C 
ATOM     20  C   UNL     1      -9.980  -8.817 -10.000  1.00  0.00     0.004 C 
ENDBRANCH  18  19
ENDBRANCH  17  18
ENDBRANCH  16  17
ENDBRANCH  15  16
ENDBRANCH  14  15
ENDBRANCH  13  14
ENDBRANCH  12  13
ENDBRANCH   1  12
TORSDOF 16
ENDMDL
MODEL 2
REMARK VINA RESULT:    -0.245      1.416      2.637
REMARK INTER + INTRA:          -2.534
REMARK INTER:                  -2.240
REMARK INTRA:                  -0.294
REMARK UNBOUND:                -2.059
REMARK SMILES CCCCCCCCCCCCCCCCCC(=O)[O-]
REMARK SMILES IDX 10 1 11 2 12 3 13 4 14 5 15 6 16 7 17 8 18 9 19 10 20 11
REMARK SMILES IDX 9 12 8 13 7 14 6 15 5 16 4 17 3 18 2 19 1 20
REMARK H PARENT
REMARK Flexibility Score: inf
ROOT
ATOM      1  C   UNL     1      -6.419  -7.425  -5.392  1.00  0.00     0.000 C 
ENDROOT
BRANCH   1   2
ATOM      2  C   UNL     1      -6.407  -8.939  -5.686  1.00  0.00     0.000 C 
BRANCH   2   3
ATOM      3  C   UNL     1      -7.662  -9.468  -6.407  1.00  0.00     0.000 C 
BRANCH   3   4
ATOM      4  C   UNL     1      -8.873  -8.511  -6.401  1.00  0.00     0.000 C 
BRANCH   4   5
ATOM      5  C   UNL     1      -9.864  -8.708  -7.563  1.00  0.00     0.000 C 
BRANCH   5   6
ATOM      6  C   UNL     1      -9.431  -7.974  -8.843  1.00  0.00     0.000 C 
BRANCH   6   7
ATOM      7  C   UNL     1      -9.271  -6.461  -8.626  1.00  0.00     0.006 C 
BRANCH   7   8
ATOM      8  C   UNL     1     -10.125  -5.944  -7.463  1.00  0.00     0.053 C 
BRANCH   8   9
ATOM      9  C   UNL     1      -9.939  -4.468  -7.287  1.00  0.00     0.041 C 
ATOM     10  O   UNL     1      -9.893  -3.967  -6.133  1.00  0.00    -0.550 OA
ATOM     11  O   UNL     1      -9.785  -3.648  -8.398  1.00  0.00    -0.550 OA
ENDBRANCH   8   9
ENDBRANCH   7   8
ENDBRANCH   6   7
ENDBRANCH   5   6
ENDBRANCH   4   5
ENDBRANCH   3   4
ENDBRANCH   2   3
ENDBRANCH   1   2
BRANCH   1  12
ATOM     12  C   UNL     1      -5.078  -6.726  -5.696  1.00  0.00     0.000 C 
BRANCH  12  13
ATOM     13  C   UNL     1      -5.158  -5.802  -6.924  1.00  0.00    -0.000 C 
BRANCH  13  14
ATOM     14  C   UNL     1      -4.611  -6.459  -8.204  1.00  0.00    -0.000 C 
BRANCH  14  15
ATOM     15  C   UNL     1      -3.981  -7.848  -7.958  1.00  0.00    -0.000 C 
BRANCH  15  16
ATOM     16  C   UNL     1      -3.096  -8.298  -9.135  1.00  0.00    -0.000 C 
BRANCH  16  17
ATOM     17  C   UNL     1      -3.244  -9.793  -9.457  1.00  0.00    -0.000 C 
BRANCH  17  18
ATOM     18  C   UNL     1      -4.591 -10.124 -10.121  1.00  0.00    -0.000 C 
BRANCH  18  19
ATOM     19  C   UNL     1      -5.765  -9.377  -9.470  1.00  0.00    -0.003 C 
ATOM     20  C   UNL     1      -7.115 -10.042  -9.744  1.00  0.00     0.004 C 
ENDBRANCH  18  19
ENDBRANCH  17  18
ENDBRANCH  16  17
ENDBRANCH  15  16
ENDBRANCH  14  15
ENDBRANCH  13  14
ENDBRANCH  12  13
ENDBRANCH   1  12
TORSDOF 16
ENDMDL
MODEL 3
REMARK VINA RESULT:     0.910      1.681      2.739
REMARK INTER + INTRA:          -0.297
REMARK INTER:                   0.582
REMARK INTRA:                  -0.879
REMARK UNBOUND:                -2.059
REMARK SMILES CCCCCCCCCCCCCCCCCC(=O)[O-]
REMARK SMILES IDX 10 1 11 2 12 3 13 4 14 5 15 6 16 7 17 8 18 9 19 10 20 11
REMARK SMILES IDX 9 12 8 13 7 14 6 15 5 16 4 17 3 18 2 19 1 20
REMARK H PARENT
REMARK Flexibility Score: inf
ROOT
ATOM      1  C   UNL     1      -3.748  -8.200  -7.503  1.00  0.00     0.000 C 
ENDROOT
BRANCH   1   2
ATOM      2  C   UNL     1      -3.823  -8.423  -5.979  1.00  0.00     0.000 C 
BRANCH   2   3
ATOM      3  C   UNL     1      -3.485  -9.854  -5.517  1.00  0.00     0.000 C 
BRANCH   3   4
ATOM      4  C   UNL     1      -3.688 -10.120  -4.011  1.00  0.00     0.000 C 
BRANCH   4   5
ATOM      5  C   UNL     1      -5.152 -10.088  -3.536  1.00  0.00     0.000 C 
BRANCH   5   6
ATOM      6  C   UNL     1      -6.155 -10.118  -4.701  1.00  0.00     0.000 C 
BRANCH   6   7
ATOM      7  C   UNL     1      -7.246  -9.043  -4.565  1.00  0.00     0.006 C 
BRANCH   7   8
ATOM      8  C   UNL     1      -7.307  -8.116  -5.785  1.00  0.00     0.053 C 
BRANCH   8   9
ATOM      9  C   UNL     1      -8.624  -7.405  -5.841  1.00  0.00     0.041 C 
ATOM     10  O   UNL     1      -8.665  -6.150  -5.925  1.00  0.00    -0.550 OA
ATOM     11  O   UNL     1      -9.809  -8.131  -5.833  1.00  0.00    -0.550 OA
ENDBRANCH   8   9
ENDBRANCH   7   8
ENDBRANCH   6   7
ENDBRANCH   5   6
ENDBRANCH   4   5
ENDBRANCH   3   4
ENDBRANCH   2   3
ENDBRANCH   1   2
BRANCH   1  12
ATOM     12  C   UNL     1      -2.710  -9.096  -8.209  1.00  0.00     0.000 C 
BRANCH  12  13
ATOM     13  C   UNL     1      -3.352 -10.066  -9.215  1.00  0.00    -0.000 C 
BRANCH  13  14
ATOM     14  C   UNL     1      -4.393  -9.386 -10.122  1.00  0.00    -0.000 C 
BRANCH  14  15
ATOM     15  C   UNL     1      -5.787 -10.046 -10.056  1.00  0.00    -0.000 C 
BRANCH  15  16
ATOM     16  C   UNL     1      -6.918  -9.004  -9.973  1.00  0.00    -0.000 C 
BRANCH  16  17
ATOM     17  C   UNL     1      -7.765  -9.141  -8.698  1.00  0.00    -0.000 C 
BRANCH  17  18
ATOM     18  C   UNL     1      -9.211  -9.570  -8.993  1.00  0.00    -0.000 C 
BRANCH  18  19
ATOM     19  C   UNL     1     -10.092  -8.395  -9.445  1.00  0.00    -0.003 C 
ATOM     20  C   UNL     1      -9.471  -7.034  -9.128  1.00  0.00     0.004 C 
ENDBRANCH  18  19
ENDBRANCH  17  18
ENDBRANCH  16  17
ENDBRANCH  15  16
ENDBRANCH  14  15
ENDBRANCH  13  14
ENDBRANCH  12  13
ENDBRANCH   1  12
TORSDOF 16
ENDMDL
MODEL 4
REMARK VINA RESULT:     0.952     14.076     15.645
REMARK INTER + INTRA:          -0.218
REMARK INTER:                   0.392
REMARK INTRA:                  -0.610
REMARK UNBOUND:                -2.059
REMARK SMILES CCCCCCCCCCCCCCCCCC(=O)[O-]
REMARK SMILES IDX 10 1 11 2 12 3 13 4 14 5 15 6 16 7 17 8 18 9 19 10 20 11
REMARK SMILES IDX 9 12 8 13 7 14 6 15 5 16 4 17 3 18 2 19 1 20
REMARK H PARENT
REMARK Flexibility Score: inf
ROOT
ATOM      1  C   UNL     1       2.496   2.482  -1.727  1.00  0.00     0.000 C 
ENDROOT
BRANCH   1   2
ATOM      2  C   UNL     1       2.467   1.730  -0.381  1.00  0.00     0.000 C 
BRANCH   2   3
ATOM      3  C   UNL     1       2.598   0.199  -0.493  1.00  0.00     0.000 C 
BRANCH   3   4
ATOM      4  C   UNL     1       1.469  -0.606   0.186  1.00  0.00     0.000 C 
BRANCH   4   5
ATOM      5  C   UNL     1       1.590  -0.733   1.715  1.00  0.00     0.000 C 
BRANCH   5   6
ATOM      6  C   UNL     1       0.928  -2.010   2.259  1.00  0.00     0.000 C 
BRANCH   6   7
ATOM      7  C   UNL     1      -0.569  -1.817   2.551  1.00  0.00     0.006 C 
BRANCH   7   8
ATOM      8  C   UNL     1      -0.921  -2.114   4.014  1.00  0.00     0.053 C 
BRANCH   8   9
ATOM      9  C   UNL     1      -1.176  -0.842   4.764  1.00  0.00     0.041 C 
ATOM     10  O   UNL     1      -1.136   0.266   4.167  1.00  0.00    -0.550 OA
ATOM     11  O   UNL     1      -1.489  -0.882   6.116  1.00  0.00    -0.550 OA
ENDBRANCH   8   9
ENDBRANCH   7   8
ENDBRANCH   6   7
ENDBRANCH   5   6
ENDBRANCH   4   5
ENDBRANCH   3   4
ENDBRANCH   2   3
ENDBRANCH   1   2
BRANCH   1  12
ATOM     12  C   UNL     1       1.809   3.863  -1.679  1.00  0.00     0.000 C 
BRANCH  12  13
ATOM     13  C   UNL     1       1.762   4.548  -3.055  1.00  0.00    -0.000 C 
BRANCH  13  14
ATOM     14  C   UNL     1       0.406   5.214  -3.347  1.00  0.00    -0.000 C 
BRANCH  14  15
ATOM     15  C   UNL     1      -0.144   4.891  -4.753  1.00  0.00    -0.000 C 
BRANCH  15  16
ATOM     16  C   UNL     1       0.055   6.060  -5.735  1.00  0.00    -0.000 C 
BRANCH  16  17
ATOM     17  C   UNL     1       0.542   5.603  -7.119  1.00  0.00    -0.000 C 
BRANCH  17  18
ATOM     18  C   UNL     1       0.460   6.720  -8.173  1.00  0.00    -0.000 C 
BRANCH  18  19
ATOM     19  C   UNL     1       0.163   8.093  -7.551  1.00  0.00    -0.003 C 
ATOM     20  C   UNL     1      -1.149   8.699  -8.053  1.00  0.00     0.004 C 
ENDBRANCH  18  19
ENDBRANCH  17  18
ENDBRANCH  16  17
ENDBRANCH  15  16
ENDBRANCH  14  15
ENDBRANCH  13  14
ENDBRANCH  12  13
ENDBRANCH   1  12
TORSDOF 16
ENDMDL
MODEL 5
REMARK VINA RESULT:     0.969     14.775     16.936
REMARK INTER + INTRA:          -0.184
REMARK INTER:                   0.880
REMARK INTRA:                  -1.064
REMARK UNBOUND:                -2.059
REMARK SMILES CCCCCCCCCCCCCCCCCC(=O)[O-]
REMARK SMILES IDX 10 1 11 2 12 3 13 4 14 5 15 6 16 7 17 8 18 9 19 10 20 11
REMARK SMILES IDX 9 12 8 13 7 14 6 15 5 16 4 17 3 18 2 19 1 20
REMARK H PARENT
REMARK Flexibility Score: inf
ROOT
ATOM      1  C   UNL     1      -0.146   5.803  -5.320  1.00  0.00     0.000 C 
ENDROOT
BRANCH   1   2
ATOM      2  C   UNL     1       0.043   4.671  -4.291  1.00  0.00     0.000 C 
BRANCH   2   3
ATOM      3  C   UNL     1       0.743   5.093  -2.985  1.00  0.00     0.000 C 
BRANCH   3   4
ATOM      4  C   UNL     1       2.052   4.338  -2.670  1.00  0.00     0.000 C 
BRANCH   4   5
ATOM      5  C   UNL     1       2.025   3.501  -1.378  1.00  0.00     0.000 C 
BRANCH   5   6
ATOM      6  C   UNL     1       2.151   1.992  -1.646  1.00  0.00     0.000 C 
BRANCH   6   7
ATOM      7  C   UNL     1       2.727   1.228  -0.442  1.00  0.00     0.006 C 
BRANCH   7   8
ATOM      8  C   UNL     1       1.950  -0.058  -0.141  1.00  0.00     0.053 C 
BRANCH   8   9
ATOM      9  C   UNL     1       1.940  -0.336   1.331  1.00  0.00     0.041 C 
ATOM     10  O   UNL     1       2.595   0.395   2.119  1.00  0.00    -0.550 OA
ATOM     11  O   UNL     1       1.181  -1.384   1.836  1.00  0.00    -0.550 OA
ENDBRANCH   8   9
ENDBRANCH   7   8
ENDBRANCH   6   7
ENDBRANCH   5   6
ENDBRANCH   4   5
ENDBRANCH   3   4
ENDBRANCH   2   3
ENDBRANCH   1   2
BRANCH   1  12
ATOM     12  C   UNL     1       0.222   5.397  -6.762  1.00  0.00     0.000 C 
BRANCH  12  13
ATOM     13  C   UNL     1       0.861   6.548  -7.556  1.00  0.00    -0.000 C 
BRANCH  13  14
ATOM     14  C   UNL     1       0.665   6.408  -9.076  1.00  0.00    -0.000 C 
BRANCH  14  15
ATOM     15  C   UNL     1      -0.151   7.562  -9.697  1.00  0.00    -0.000 C 
BRANCH  15  16
ATOM     16  C   UNL     1       0.573   8.915  -9.574  1.00  0.00    -0.000 C 
BRANCH  16  17
ATOM     17  C   UNL     1      -0.250   9.967  -8.815  1.00  0.00    -0.000 C 
BRANCH  17  18
ATOM     18  C   UNL     1      -1.575   9.404  -8.274  1.00  0.00    -0.000 C 
BRANCH  18  19
ATOM     19  C   UNL     1      -1.844   9.827  -6.822  1.00  0.00    -0.003 C 
ATOM     20  C   UNL     1      -0.562  10.125  -6.044  1.00  0.00     0.004 C 
ENDBRANCH  18  19
ENDBRANCH  17  18
ENDBRANCH  16  17
ENDBRANCH  15  16
ENDBRANCH  14  15
ENDBRANCH  13  14
ENDBRANCH  12  13
ENDBRANCH   1  12
TORSDOF 16
ENDMDL
MODEL 6
REMARK VINA RESULT:     1.132     14.681     16.427
REMARK INTER + INTRA:           0.131
REMARK INTER:                   0.703
REMARK INTRA:                  -0.572
REMARK UNBOUND:                -2.059
REMARK SMILES CCCCCCCCCCCCCCCCCC(=O)[O-]
REMARK SMILES IDX 10 1 11 2 12 3 13 4 14 5 15 6 16 7 17 8 18 9 19 10 20 11
REMARK SMILES IDX 9 12 8 13 7 14 6 15 5 16 4 17 3 18 2 19 1 20
REMARK H PARENT
REMARK Flexibility Score: inf
ROOT
ATOM      1  C   UNL     1       1.759   3.543  -1.528  1.00  0.00     0.000 C 
ENDROOT
BRANCH   1   2
ATOM      2  C   UNL     1       1.879   4.461  -2.761  1.00  0.00     0.000 C 
BRANCH   2   3
ATOM      3  C   UNL     1       0.589   5.219  -3.131  1.00  0.00     0.000 C 
BRANCH   3   4
ATOM      4  C   UNL     1      -0.026   4.838  -4.495  1.00  0.00     0.000 C 
BRANCH   4   5
ATOM      5  C   UNL     1      -0.082   5.980  -5.525  1.00  0.00     0.000 C 
BRANCH   5   6
ATOM      6  C   UNL     1       0.464   5.565  -6.902  1.00  0.00     0.000 C 
BRANCH   6   7
ATOM      7  C   UNL     1       0.603   6.757  -7.862  1.00  0.00     0.006 C 
BRANCH   7   8
ATOM      8  C   UNL     1      -0.313   7.925  -7.478  1.00  0.00     0.053 C 
BRANCH   8   9
ATOM      9  C   UNL     1       0.442   9.219  -7.510  1.00  0.00     0.041 C 
ATOM     10  O   UNL     1       0.982   9.613  -8.577  1.00  0.00    -0.550 OA
ATOM     11  O   UNL     1       0.521  10.007  -6.369  1.00  0.00    -0.550 OA
ENDBRANCH   8   9
ENDBRANCH   7   8
ENDBRANCH   6   7
ENDBRANCH   5   6
ENDBRANCH   4   5
ENDBRANCH   3   4
ENDBRANCH   2   3
ENDBRANCH   1   2
BRANCH   1  12
ATOM     12  C   UNL     1       2.382   2.146  -1.734  1.00  0.00     0.000 C 
BRANCH  12  13
ATOM     13  C   UNL     1       2.614   1.401  -0.408  1.00  0.00    -0.000 C 
BRANCH  13  14
ATOM     14  C   UNL     1       1.777   0.115  -0.291  1.00  0.00    -0.000 C 
BRANCH  14  15
ATOM     15  C   UNL     1       2.144  -0.744   0.939  1.00  0.00    -0.000 C 
BRANCH  15  16
ATOM     16  C   UNL     1       1.094  -0.630   2.059  1.00  0.00    -0.000 C 
BRANCH  16  17
ATOM     17  C   UNL     1       0.466  -1.983   2.430  1.00  0.00    -0.000 C 
BRANCH  17  18
ATOM     18  C   UNL     1      -0.787  -1.832   3.308  1.00  0.00    -0.000 C 
BRANCH  18  19
ATOM     19  C   UNL     1      -0.862  -0.459   3.994  1.00  0.00    -0.003 C 
ATOM     20  C   UNL     1      -1.552  -0.514   5.357  1.00  0.00     0.004 C 
ENDBRANCH  18  19
ENDBRANCH  17  18
ENDBRANCH  16  17
ENDBRANCH  15  16
ENDBRANCH  14  15
ENDBRANCH  13  14
ENDBRANCH  12  13
ENDBRANCH   1  12
TORSDOF 16
ENDMDL
MODEL 7
REMARK VINA RESULT:     1.275     16.037     18.557
REMARK INTER + INTRA:           0.408
REMARK INTER:                   0.891
REMARK INTRA:                  -0.483
REMARK UNBOUND:                -2.059
REMARK SMILES CCCCCCCCCCCCCCCCCC(=O)[O-]
REMARK SMILES IDX 10 1 11 2 12 3 13 4 14 5 15 6 16 7 17 8 18 9 19 10 20 11
REMARK SMILES IDX 9 12 8 13 7 14 6 15 5 16 4 17 3 18 2 19 1 20
REMARK H PARENT
REMARK Flexibility Score: inf
ROOT
ATOM      1  C   UNL     1       4.642   1.303  -0.115  1.00  0.00     0.000 C 
ENDROOT
BRANCH   1   2
ATOM      2  C   UNL     1       3.319   1.126   0.657  1.00  0.00     0.000 C 
BRANCH   2   3
ATOM      3  C   UNL     1       2.154   0.560  -0.178  1.00  0.00     0.000 C 
BRANCH   3   4
ATOM      4  C   UNL     1       1.536  -0.747   0.362  1.00  0.00     0.000 C 
BRANCH   4   5
ATOM      5  C   UNL     1       1.489  -0.858   1.897  1.00  0.00     0.000 C 
BRANCH   5   6
ATOM      6  C   UNL     1       0.742  -2.114   2.378  1.00  0.00     0.000 C 
BRANCH   6   7
ATOM      7  C   UNL     1      -0.746  -1.842   2.654  1.00  0.00     0.006 C 
BRANCH   7   8
ATOM      8  C   UNL     1      -1.136  -2.148   4.104  1.00  0.00     0.053 C 
BRANCH   8   9
ATOM      9  C   UNL     1      -1.191  -0.887   4.912  1.00  0.00     0.041 C 
ATOM     10  O   UNL     1      -1.232  -0.940   6.169  1.00  0.00    -0.550 OA
ATOM     11  O   UNL     1      -1.165   0.348   4.277  1.00  0.00    -0.550 OA
ENDBRANCH   8   9
ENDBRANCH   7   8
ENDBRANCH   6   7
ENDBRANCH   5   6
ENDBRANCH   4   5
ENDBRANCH   3   4
ENDBRANCH   2   3
ENDBRANCH   1   2
BRANCH   1  12
ATOM     12  C   UNL     1       5.875   1.466   0.799  1.00  0.00     0.000 C 
BRANCH  12  13
ATOM     13  C   UNL     1       7.193   1.524   0.009  1.00  0.00    -0.000 C 
BRANCH  13  14
ATOM     14  C   UNL     1       7.822   2.928  -0.004  1.00  0.00    -0.000 C 
BRANCH  14  15
ATOM     15  C   UNL     1       9.228   2.964  -0.642  1.00  0.00    -0.000 C 
BRANCH  15  16
ATOM     16  C   UNL     1       9.668   4.397  -0.993  1.00  0.00    -0.000 C 
BRANCH  16  17
ATOM     17  C   UNL     1      10.125   5.200   0.235  1.00  0.00    -0.000 C 
BRANCH  17  18
ATOM     18  C   UNL     1       8.971   5.966   0.903  1.00  0.00    -0.000 C 
BRANCH  18  19
ATOM     19  C   UNL     1       9.468   7.040   1.883  1.00  0.00    -0.003 C 
ATOM     20  C   UNL     1       8.328   7.844   2.509  1.00  0.00     0.004 C 
ENDBRANCH  18  19
ENDBRANCH  17  18
ENDBRANCH  16  17
ENDBRANCH  15  16
ENDBRANCH  14  15
ENDBRANCH  13  14
ENDBRANCH  12  13
ENDBRANCH   1  12
TORSDOF 16
ENDMDL
MODEL 8
REMARK VINA RESULT:     1.321     14.122     16.043
REMARK INTER + INTRA:           0.497
REMARK INTER:                   0.912
REMARK INTRA:                  -0.415
REMARK UNBOUND:                -2.059
REMARK SMILES CCCCCCCCCCCCCCCCCC(=O)[O-]
REMARK SMILES IDX 10 1 11 2 12 3 13 4 14 5 15 6 16 7 17 8 18 9 19 10 20 11
REMARK SMILES IDX 9 12 8 13 7 14 6 15 5 16 4 17 3 18 2 19 1 20
REMARK H PARENT
REMARK Flexibility Score: inf
ROOT
ATOM      1  C   UNL     1       1.971   4.108  -2.739  1.00  0.00     0.000 C 
ENDROOT
BRANCH   1   2
ATOM      2  C   UNL     1       1.903   3.288  -1.435  1.00  0.00     0.000 C 
BRANCH   2   3
ATOM      3  C   UNL     1       2.339   1.817  -1.572  1.00  0.00     0.000 C 
BRANCH   3   4
ATOM      4  C   UNL     1       2.783   1.140  -0.258  1.00  0.00     0.000 C 
BRANCH   4   5
ATOM      5  C   UNL     1       1.855   0.018   0.242  1.00  0.00     0.000 C 
BRANCH   5   6
ATOM      6  C   UNL     1       1.795  -0.063   1.776  1.00  0.00     0.000 C 
BRANCH   6   7
ATOM      7  C   UNL     1       1.475  -1.481   2.277  1.00  0.00     0.006 C 
BRANCH   7   8
ATOM      8  C   UNL     1      -0.022  -1.802   2.204  1.00  0.00     0.053 C 
BRANCH   8   9
ATOM      9  C   UNL     1      -0.703  -1.438   3.488  1.00  0.00     0.041 C 
ATOM     10  O   UNL     1      -1.221  -2.331   4.207  1.00  0.00    -0.550 OA
ATOM     11  O   UNL     1      -0.738  -0.114   3.906  1.00  0.00    -0.550 OA
ENDBRANCH   8   9
ENDBRANCH   7   8
ENDBRANCH   6   7
ENDBRANCH   5   6
ENDBRANCH   4   5
ENDBRANCH   3   4
ENDBRANCH   2   3
ENDBRANCH   1   2
BRANCH   1  12
ATOM     12  C   UNL     1       0.748   5.023  -2.959  1.00  0.00     0.000 C 
BRANCH  12  13
ATOM     13  C   UNL     1      -0.005   4.701  -4.261  1.00  0.00    -0.000 C 
BRANCH  13  14
ATOM     14  C   UNL     1      -0.040   5.887  -5.241  1.00  0.00    -0.000 C 
BRANCH  14  15
ATOM     15  C   UNL     1       0.453   5.524  -6.659  1.00  0.00    -0.000 C 
BRANCH  15  16
ATOM     16  C   UNL     1       0.350   6.714  -7.630  1.00  0.00    -0.000 C 
BRANCH  16  17
ATOM     17  C   UNL     1       0.811   6.366  -9.054  1.00  0.00    -0.000 C 
BRANCH  17  18
ATOM     18  C   UNL     1       1.813   7.387  -9.617  1.00  0.00    -0.000 C 
BRANCH  18  19
ATOM     19  C   UNL     1       1.413   8.837  -9.303  1.00  0.00    -0.003 C 
ATOM     20  C   UNL     1       0.213   9.312 -10.124  1.00  0.00     0.004 C 
ENDBRANCH  18  19
ENDBRANCH  17  18
ENDBRANCH  16  17
ENDBRANCH  15  16
ENDBRANCH  14  15
ENDBRANCH  13  14
ENDBRANCH  12  13
ENDBRANCH   1  12
TORSDOF 16
ENDMDL
