MODEL 1
REMARK VINA RESULT:    -4.962      0.000      0.000
REMARK INTER + INTRA:          -7.548
REMARK INTER:                  -7.283
REMARK INTRA:                  -0.266
REMARK UNBOUND:                -0.266
REMARK SMILES O=C([O-])CCCCCCCC(=O)[O-]
REMARK SMILES IDX 7 1 6 2 5 3 4 4 2 5 1 6 3 7 8 8 9 9 10 10 11 11 12 12 13 13
REMARK H PARENT
REMARK Flexibility Score: inf
ROOT
ATOM      1  C   UNL     1       1.112  -8.814  -1.707  1.00  0.00     0.000 C 
ENDROOT
BRANCH   1   2
ATOM      2  C   UNL     1       1.586  -9.373  -0.351  1.00  0.00     0.000 C 
BRANCH   2   3
ATOM      3  C   UNL     1       0.484 -10.028   0.499  1.00  0.00     0.006 C 
BRANCH   3   4
ATOM      4  C   UNL     1      -0.857 -10.125  -0.242  1.00  0.00     0.053 C 
BRANCH   4   5
ATOM      5  C   UNL     1      -1.908  -9.343   0.481  1.00  0.00     0.041 C 
ATOM      6  O   UNL     1      -2.397  -8.307  -0.041  1.00  0.00    -0.550 OA
ATOM      7  O   UNL     1      -2.310  -9.729   1.753  1.00  0.00    -0.550 OA
ENDBRANCH   4   5
ENDBRANCH   3   4
ENDBRANCH   2   3
ENDBRANCH   1   2
BRANCH   1   8
ATOM      8  C   UNL     1       1.494  -9.698  -2.912  1.00  0.00     0.000 C 
BRANCH   8   9
ATOM      9  C   UNL     1       2.924  -9.428  -3.405  1.00  0.00     0.006 C 
BRANCH   9  10
ATOM     10  C   UNL     1       2.923  -8.465  -4.595  1.00  0.00     0.053 C 
BRANCH  10  11
ATOM     11  C   UNL     1       4.303  -8.322  -5.154  1.00  0.00     0.041 C 
ATOM     12  O   UNL     1       5.203  -7.753  -4.482  1.00  0.00    -0.550 OA
ATOM     13  O   UNL     1       4.610  -8.863  -6.397  1.00  0.00    -0.550 OA
ENDBRANCH  10  11
ENDBRANCH   9  10
ENDBRANCH   8   9
ENDBRANCH   1   8
TORSDOF 8
ENDMDL
MODEL 2
REMARK VINA RESULT:    -4.851      0.287      7.006
REMARK INTER + INTRA:          -7.386
REMARK INTER:                  -7.113
REMARK INTRA:                  -0.273
REMARK UNBOUND:                -0.266
REMARK SMILES O=C([O-])CCCCCCCC(=O)[O-]
REMARK SMILES IDX 7 1 6 2 5 3 4 4 2 5 1 6 3 7 8 8 9 9 10 10 11 11 12 12 13 13
REMARK H PARENT
REMARK Flexibility Score: inf
ROOT
ATOM      1  C   UNL     1       1.098  -8.942  -1.854  1.00  0.00     0.000 C 
ENDROOT
BRANCH   1   2
ATOM      2  C   UNL     1       1.673 -10.120  -2.663  1.00  0.00     0.000 C 
BRANCH   2   3
ATOM      3  C   UNL     1       2.990  -9.818  -3.398  1.00  0.00     0.006 C 
BRANCH   3   4
ATOM      4  C   UNL     1       2.874  -8.624  -4.357  1.00  0.00     0.053 C 
BRANCH   4   5
ATOM      5  C   UNL     1       4.150  -8.442  -5.117  1.00  0.00     0.041 C 
ATOM      6  O   UNL     1       4.247  -8.859  -6.301  1.00  0.00    -0.550 OA
ATOM      7  O   UNL     1       5.248  -7.856  -4.501  1.00  0.00    -0.550 OA
ENDBRANCH   4   5
ENDBRANCH   3   4
ENDBRANCH   2   3
ENDBRANCH   1   2
BRANCH   1   8
ATOM      8  C   UNL     1       1.386  -9.028  -0.340  1.00  0.00     0.000 C 
BRANCH   8   9
ATOM      9  C   UNL     1       0.452 -10.015   0.376  1.00  0.00     0.006 C 
BRANCH   9  10
ATOM     10  C   UNL     1      -0.915 -10.076  -0.310  1.00  0.00     0.053 C 
BRANCH  10  11
ATOM     11  C   UNL     1      -1.913  -9.250   0.438  1.00  0.00     0.041 C 
ATOM     12  O   UNL     1      -2.251  -8.117   0.004  1.00  0.00    -0.550 OA
ATOM     13  O   UNL     1      -2.508  -9.752   1.588  1.00  0.00    -0.550 OA
ENDBRANCH  10  11
ENDBRANCH   9  10
ENDBRANCH   8   9
ENDBRANCH   1   8
TORSDOF 8
ENDMDL
MODEL 3
REMARK VINA RESULT:    -4.566      1.309      6.892
REMARK INTER + INTRA:          -6.967
REMARK INTER:                  -6.546
REMARK INTRA:                  -0.421
REMARK UNBOUND:                -0.266
REMARK SMILES O=C([O-])CCCCCCCC(=O)[O-]
REMARK SMILES IDX 7 1 6 2 5 3 4 4 2 5 1 6 3 7 8 8 9 9 10 10 11 11 12 12 13 13
REMARK H PARENT
REMARK Flexibility Score: inf
ROOT
ATOM      1  C   UNL     1       0.327  -8.656  -1.892  1.00  0.00     0.000 C 
ENDROOT
BRANCH   1   2
ATOM      2  C   UNL     1       1.809  -8.940  -1.580  1.00  0.00     0.000 C 
BRANCH   2   3
ATOM      3  C   UNL     1       2.585  -9.640  -2.709  1.00  0.00     0.006 C 
BRANCH   3   4
ATOM      4  C   UNL     1       2.408  -8.947  -4.068  1.00  0.00     0.053 C 
BRANCH   4   5
ATOM      5  C   UNL     1       3.742  -8.610  -4.657  1.00  0.00     0.041 C 
ATOM      6  O   UNL     1       4.774  -8.623  -3.936  1.00  0.00    -0.550 OA
ATOM      7  O   UNL     1       3.837  -8.232  -5.990  1.00  0.00    -0.550 OA
ENDBRANCH   4   5
ENDBRANCH   3   4
ENDBRANCH   2   3
ENDBRANCH   1   2
BRANCH   1   8
ATOM      8  C   UNL     1      -0.511  -9.927  -2.144  1.00  0.00     0.000 C 
BRANCH   8   9
ATOM      9  C   UNL     1      -1.800  -9.951  -1.308  1.00  0.00     0.006 C 
BRANCH   9  10
ATOM     10  C   UNL     1      -1.706  -8.983  -0.125  1.00  0.00     0.053 C 
BRANCH  10  11
ATOM     11  C   UNL     1      -1.575  -9.739   1.160  1.00  0.00     0.041 C 
ATOM     12  O   UNL     1      -0.443 -10.124   1.556  1.00  0.00    -0.550 OA
ATOM     13  O   UNL     1      -2.695  -9.975   1.946  1.00  0.00    -0.550 OA
ENDBRANCH  10  11
ENDBRANCH   9  10
ENDBRANCH   8   9
ENDBRANCH   1   8
TORSDOF 8
ENDMDL
MODEL 4
REMARK VINA RESULT:    -4.416      1.106      1.740
REMARK INTER + INTRA:          -6.747
REMARK INTER:                  -6.322
REMARK INTRA:                  -0.425
REMARK UNBOUND:                -0.266
REMARK SMILES O=C([O-])CCCCCCCC(=O)[O-]
REMARK SMILES IDX 7 1 6 2 5 3 4 4 2 5 1 6 3 7 8 8 9 9 10 10 11 11 12 12 13 13
REMARK H PARENT
REMARK Flexibility Score: inf
ROOT
ATOM      1  C   UNL     1       1.331  -9.829  -2.913  1.00  0.00     0.000 C 
ENDROOT
BRANCH   1   2
ATOM      2  C   UNL     1       1.792  -8.973  -1.718  1.00  0.00     0.000 C 
BRANCH   2   3
ATOM      3  C   UNL     1       1.117  -9.316  -0.379  1.00  0.00     0.006 C 
BRANCH   3   4
ATOM      4  C   UNL     1      -0.205 -10.075  -0.558  1.00  0.00     0.053 C 
BRANCH   4   5
ATOM      5  C   UNL     1      -1.366  -9.163  -0.319  1.00  0.00     0.041 C 
ATOM      6  O   UNL     1      -2.017  -9.236   0.756  1.00  0.00    -0.550 OA
ATOM      7  O   UNL     1      -1.761  -8.267  -1.304  1.00  0.00    -0.550 OA
ENDBRANCH   4   5
ENDBRANCH   3   4
ENDBRANCH   2   3
ENDBRANCH   1   2
BRANCH   1   8
ATOM      8  C   UNL     1       2.448 -10.125  -3.935  1.00  0.00     0.000 C 
BRANCH   8   9
ATOM      9  C   UNL     1       3.530  -9.033  -3.949  1.00  0.00     0.006 C 
BRANCH   9  10
ATOM     10  C   UNL     1       3.369  -8.116  -5.165  1.00  0.00     0.053 C 
BRANCH  10  11
ATOM     11  C   UNL     1       4.056  -8.703  -6.358  1.00  0.00     0.041 C 
ATOM     12  O   UNL     1       3.641  -8.446  -7.519  1.00  0.00    -0.550 OA
ATOM     13  O   UNL     1       5.186  -9.494  -6.190  1.00  0.00    -0.550 OA
ENDBRANCH  10  11
ENDBRANCH   9  10
ENDBRANCH   8   9
ENDBRANCH   1   8
TORSDOF 8
ENDMDL
MODEL 5
REMARK VINA RESULT:    -4.156     14.774     16.134
REMARK INTER + INTRA:          -6.366
REMARK INTER:                  -5.787
REMARK INTRA:                  -0.579
REMARK UNBOUND:                -0.266
REMARK SMILES O=C([O-])CCCCCCCC(=O)[O-]
REMARK SMILES IDX 7 1 6 2 5 3 4 4 2 5 1 6 3 7 8 8 9 9 10 10 11 11 12 12 13 13
REMARK H PARENT
REMARK Flexibility Score: inf
ROOT
ATOM      1  C   UNL     1       7.746   0.583   9.755  1.00  0.00     0.000 C 
ENDROOT
BRANCH   1   2
ATOM      2  C   UNL     1       7.124  -0.825   9.811  1.00  0.00     0.000 C 
BRANCH   2   3
ATOM      3  C   UNL     1       7.469  -1.732   8.618  1.00  0.00     0.006 C 
BRANCH   3   4
ATOM      4  C   UNL     1       8.979  -1.971   8.472  1.00  0.00     0.053 C 
BRANCH   4   5
ATOM      5  C   UNL     1       9.448  -1.522   7.124  1.00  0.00     0.041 C 
ATOM      6  O   UNL     1       9.495  -2.338   6.166  1.00  0.00    -0.550 OA
ATOM      7  O   UNL     1       9.884  -0.216   6.939  1.00  0.00    -0.550 OA
ENDBRANCH   4   5
ENDBRANCH   3   4
ENDBRANCH   2   3
ENDBRANCH   1   2
BRANCH   1   8
ATOM      8  C   UNL     1       6.723   1.723   9.939  1.00  0.00     0.000 C 
BRANCH   8   9
ATOM      9  C   UNL     1       7.166   3.023   9.249  1.00  0.00     0.006 C 
BRANCH   9  10
ATOM     10  C   UNL     1       8.147   2.732   8.109  1.00  0.00     0.053 C 
BRANCH  10  11
ATOM     11  C   UNL     1       7.424   2.664   6.802  1.00  0.00     0.041 C 
ATOM     12  O   UNL     1       7.092   1.549   6.319  1.00  0.00    -0.550 OA
ATOM     13  O   UNL     1       7.071   3.833   6.140  1.00  0.00    -0.550 OA
ENDBRANCH  10  11
ENDBRANCH   9  10
ENDBRANCH   8   9
ENDBRANCH   1   8
TORSDOF 8
ENDMDL
MODEL 6
REMARK VINA RESULT:    -4.093     14.759     15.972
REMARK INTER + INTRA:          -6.273
REMARK INTER:                  -5.614
REMARK INTRA:                  -0.658
REMARK UNBOUND:                -0.266
REMARK SMILES O=C([O-])CCCCCCCC(=O)[O-]
REMARK SMILES IDX 7 1 6 2 5 3 4 4 2 5 1 6 3 7 8 8 9 9 10 10 11 11 12 12 13 13
REMARK H PARENT
REMARK Flexibility Score: inf
ROOT
ATOM      1  C   UNL     1       7.826   0.183   9.891  1.00  0.00     0.000 C 
ENDROOT
BRANCH   1   2
ATOM      2  C   UNL     1       6.835   1.355  10.028  1.00  0.00     0.000 C 
BRANCH   2   3
ATOM      3  C   UNL     1       7.293   2.669   9.373  1.00  0.00     0.006 C 
BRANCH   3   4
ATOM      4  C   UNL     1       8.236   2.441   8.183  1.00  0.00     0.053 C 
BRANCH   4   5
ATOM      5  C   UNL     1       7.470   2.472   6.898  1.00  0.00     0.041 C 
ATOM      6  O   UNL     1       7.135   1.397   6.335  1.00  0.00    -0.550 OA
ATOM      7  O   UNL     1       7.170   3.688   6.297  1.00  0.00    -0.550 OA
ENDBRANCH   4   5
ENDBRANCH   3   4
ENDBRANCH   2   3
ENDBRANCH   1   2
BRANCH   1   8
ATOM      8  C   UNL     1       7.309  -0.970   9.005  1.00  0.00     0.000 C 
BRANCH   8   9
ATOM      9  C   UNL     1       8.243  -2.190   9.032  1.00  0.00     0.006 C 
BRANCH   9  10
ATOM     10  C   UNL     1       9.664  -1.804   8.613  1.00  0.00     0.053 C 
BRANCH  10  11
ATOM     11  C   UNL     1       9.700  -1.435   7.163  1.00  0.00     0.041 C 
ATOM     12  O   UNL     1       9.352  -2.272   6.288  1.00  0.00    -0.550 OA
ATOM     13  O   UNL     1      10.069  -0.152   6.781  1.00  0.00    -0.550 OA
ENDBRANCH  10  11
ENDBRANCH   9  10
ENDBRANCH   8   9
ENDBRANCH   1   8
TORSDOF 8
ENDMDL
MODEL 7
REMARK VINA RESULT:    -4.068      9.903     11.193
REMARK INTER + INTRA:          -6.237
REMARK INTER:                  -5.843
REMARK INTRA:                  -0.394
REMARK UNBOUND:                -0.266
REMARK SMILES O=C([O-])CCCCCCCC(=O)[O-]
REMARK SMILES IDX 7 1 6 2 5 3 4 4 2 5 1 6 3 7 8 8 9 9 10 10 11 11 12 12 13 13
REMARK H PARENT
REMARK Flexibility Score: inf
ROOT
ATOM      1  C   UNL     1      -0.462   0.906  -0.139  1.00  0.00     0.000 C 
ENDROOT
BRANCH   1   2
ATOM      2  C   UNL     1      -1.309   2.191  -0.071  1.00  0.00     0.000 C 
BRANCH   2   3
ATOM      3  C   UNL     1      -1.409   2.971  -1.393  1.00  0.00     0.006 C 
BRANCH   3   4
ATOM      4  C   UNL     1      -0.680   2.273  -2.550  1.00  0.00     0.053 C 
BRANCH   4   5
ATOM      5  C   UNL     1       0.512   3.073  -2.972  1.00  0.00     0.041 C 
ATOM      6  O   UNL     1       0.804   4.139  -2.369  1.00  0.00    -0.550 OA
ATOM      7  O   UNL     1       1.269   2.669  -4.065  1.00  0.00    -0.550 OA
ENDBRANCH   4   5
ENDBRANCH   3   4
ENDBRANCH   2   3
ENDBRANCH   1   2
BRANCH   1   8
ATOM      8  C   UNL     1       0.424   0.677   1.103  1.00  0.00     0.000 C 
BRANCH   8   9
ATOM      9  C   UNL     1       0.811  -0.800   1.279  1.00  0.00     0.006 C 
BRANCH   9  10
ATOM     10  C   UNL     1       0.209  -1.662   0.166  1.00  0.00     0.053 C 
BRANCH  10  11
ATOM     11  C   UNL     1       0.987  -2.931   0.010  1.00  0.00     0.041 C 
ATOM     12  O   UNL     1       0.730  -3.719  -0.939  1.00  0.00    -0.550 OA
ATOM     13  O   UNL     1       2.029  -3.220   0.881  1.00  0.00    -0.550 OA
ENDBRANCH  10  11
ENDBRANCH   9  10
ENDBRANCH   8   9
ENDBRANCH   1   8
TORSDOF 8
ENDMDL
MODEL 8
REMARK VINA RESULT:    -4.045      9.947     10.574
REMARK INTER + INTRA:          -6.203
REMARK INTER:                  -5.825
REMARK INTRA:                  -0.377
REMARK UNBOUND:                -0.266
REMARK SMILES O=C([O-])CCCCCCCC(=O)[O-]
REMARK SMILES IDX 7 1 6 2 5 3 4 4 2 5 1 6 3 7 8 8 9 9 10 10 11 11 12 12 13 13
REMARK H PARENT
REMARK Flexibility Score: inf
ROOT
ATOM      1  C   UNL     1      -0.466   1.002  -0.191  1.00  0.00     0.000 C 
ENDROOT
BRANCH   1   2
ATOM      2  C   UNL     1       0.408   0.770   1.056  1.00  0.00     0.000 C 
BRANCH   2   3
ATOM      3  C   UNL     1       0.861  -0.685   1.266  1.00  0.00     0.006 C 
BRANCH   3   4
ATOM      4  C   UNL     1       0.159  -1.668   0.319  1.00  0.00     0.053 C 
BRANCH   4   5
ATOM      5  C   UNL     1       1.029  -2.859   0.067  1.00  0.00     0.041 C 
ATOM      6  O   UNL     1       1.931  -3.169   0.888  1.00  0.00    -0.550 OA
ATOM      7  O   UNL     1       0.875  -3.598  -1.099  1.00  0.00    -0.550 OA
ENDBRANCH   4   5
ENDBRANCH   3   4
ENDBRANCH   2   3
ENDBRANCH   1   2
BRANCH   1   8
ATOM      8  C   UNL     1      -1.327   2.280  -0.118  1.00  0.00     0.000 C 
BRANCH   8   9
ATOM      9  C   UNL     1      -1.533   2.924  -1.498  1.00  0.00     0.006 C 
BRANCH   9  10
ATOM     10  C   UNL     1      -0.702   2.209  -2.568  1.00  0.00     0.053 C 
BRANCH  10  11
ATOM     11  C   UNL     1       0.425   3.080  -3.023  1.00  0.00     0.041 C 
ATOM     12  O   UNL     1       0.738   4.107  -2.365  1.00  0.00    -0.550 OA
ATOM     13  O   UNL     1       1.163   2.733  -4.148  1.00  0.00    -0.550 OA
ENDBRANCH  10  11
ENDBRANCH   9  10
ENDBRANCH   8   9
ENDBRANCH   1   8
TORSDOF 8
ENDMDL
