MODEL 1
REMARK VINA RESULT:    -5.175      0.000      0.000
REMARK INTER + INTRA:          -8.638
REMARK INTER:                  -8.049
REMARK INTRA:                  -0.589
REMARK UNBOUND:                -0.589
REMARK SMILES COc1cc(CNC(=O)CCCCC=CC(C)C)ccc1O
REMARK SMILES IDX 11 1 12 2 13 3 14 4 15 5 16 6 17 7 18 8 10 9 8 10 9 11 7 12
REMARK SMILES IDX 6 14 5 15 4 16 19 17 3 18 20 19 21 20 2 21 1 22 22 23
REMARK H PARENT 7 13 22 24
REMARK Flexibility Score: inf
ROOT
ATOM      1  C   UNL     1      28.344  31.659  23.958  1.00  0.00     0.010 C 
ENDROOT
BRANCH   1   2
ATOM      2  C   UNL     1      29.034  33.029  23.836  1.00  0.00     0.005 C 
BRANCH   2   3
ATOM      3  C   UNL     1      28.365  33.937  22.794  1.00  0.00     0.027 C 
BRANCH   3   4
ATOM      4  C   UNL     1      27.635  35.074  23.462  1.00  0.00    -0.031 C 
ATOM      5  C   UNL     1      27.157  36.158  22.823  1.00  0.00    -0.028 C 
BRANCH   5   6
ATOM      6  C   UNL     1      27.206  36.368  21.323  1.00  0.00     0.005 C 
ATOM      7  C   UNL     1      28.436  37.203  20.954  1.00  0.00     0.012 C 
ATOM      8  C   UNL     1      25.924  37.060  20.854  1.00  0.00     0.012 C 
ENDBRANCH   5   6
ENDBRANCH   3   4
ENDBRANCH   2   3
ENDBRANCH   1   2
BRANCH   1   9
ATOM      9  C   UNL     1      28.838  30.809  25.140  1.00  0.00     0.100 C 
BRANCH   9  10
ATOM     10  C   UNL     1      28.013  29.568  25.318  1.00  0.00     0.220 C 
ATOM     11  O   UNL     1      26.893  29.484  24.747  1.00  0.00    -0.275 OA
ATOM     12  N   UNL     1      28.514  28.472  26.098  1.00  0.00    -0.352 N 
ATOM     13  H   UNL     1      29.458  28.550  26.537  1.00  0.00     0.163 HD
BRANCH  12  14
ATOM     14  C   UNL     1      27.767  27.230  26.273  1.00  0.00     0.151 C 
BRANCH  14  15
ATOM     15  C   UNL     1      27.399  27.042  27.721  1.00  0.00    -0.025 A 
ATOM     16  C   UNL     1      26.949  28.135  28.477  1.00  0.00     0.056 A 
ATOM     17  C   UNL     1      27.474  25.775  28.316  1.00  0.00     0.009 A 
ATOM     18  C   UNL     1      26.581  27.970  29.828  1.00  0.00     0.160 A 
ATOM     19  C   UNL     1      27.110  25.604  29.653  1.00  0.00     0.050 A 
ATOM     20  C   UNL     1      26.666  26.693  30.411  1.00  0.00     0.157 A 
BRANCH  18  21
ATOM     21  O   UNL     1      26.130  29.044  30.611  1.00  0.00    -0.493 OA
ATOM     22  C   UNL     1      24.777  29.485  30.674  1.00  0.00     0.278 C 
ENDBRANCH  18  21
BRANCH  20  23
ATOM     23  O   UNL     1      26.312  26.484  31.744  1.00  0.00    -0.504 OA
ATOM     24  H   UNL     1      26.667  25.702  32.280  1.00  0.00     0.293 HD
ENDBRANCH  20  23
ENDBRANCH  14  15
ENDBRANCH  12  14
ENDBRANCH   9  10
ENDBRANCH   1   9
TORSDOF 10
ENDMDL
MODEL 2
REMARK VINA RESULT:    -5.149      1.752      2.214
REMARK INTER + INTRA:          -8.597
REMARK INTER:                  -7.998
REMARK INTRA:                  -0.599
REMARK UNBOUND:                -0.589
REMARK SMILES COc1cc(CNC(=O)CCCCC=CC(C)C)ccc1O
REMARK SMILES IDX 11 1 12 2 13 3 14 4 15 5 16 6 17 7 18 8 10 9 8 10 9 11 7 12
REMARK SMILES IDX 6 14 5 15 4 16 19 17 3 18 20 19 21 20 2 21 1 22 22 23
REMARK H PARENT 7 13 22 24
REMARK Flexibility Score: inf
ROOT
ATOM      1  C   UNL     1      28.990  31.863  24.623  1.00  0.00     0.010 C 
ENDROOT
BRANCH   1   2
ATOM      2  C   UNL     1      29.031  32.670  23.313  1.00  0.00     0.005 C 
BRANCH   2   3
ATOM      3  C   UNL     1      29.071  34.186  23.554  1.00  0.00     0.027 C 
BRANCH   3   4
ATOM      4  C   UNL     1      27.677  34.751  23.651  1.00  0.00    -0.031 C 
ATOM      5  C   UNL     1      27.227  35.804  22.944  1.00  0.00    -0.028 C 
BRANCH   5   6
ATOM      6  C   UNL     1      28.023  36.535  21.882  1.00  0.00     0.005 C 
ATOM      7  C   UNL     1      27.456  37.944  21.684  1.00  0.00     0.012 C 
ATOM      8  C   UNL     1      27.982  35.749  20.570  1.00  0.00     0.012 C 
ENDBRANCH   5   6
ENDBRANCH   3   4
ENDBRANCH   2   3
ENDBRANCH   1   2
BRANCH   1   9
ATOM      9  C   UNL     1      28.353  30.471  24.485  1.00  0.00     0.100 C 
BRANCH   9  10
ATOM     10  C   UNL     1      28.450  29.683  25.759  1.00  0.00     0.220 C 
ATOM     11  O   UNL     1      28.980  30.212  26.773  1.00  0.00    -0.275 OA
ATOM     12  N   UNL     1      27.908  28.357  25.832  1.00  0.00    -0.352 N 
ATOM     13  H   UNL     1      27.445  27.948  24.989  1.00  0.00     0.163 HD
BRANCH  12  14
ATOM     14  C   UNL     1      27.946  27.562  27.056  1.00  0.00     0.151 C 
BRANCH  14  15
ATOM     15  C   UNL     1      26.877  28.021  28.011  1.00  0.00    -0.025 A 
ATOM     16  C   UNL     1      25.530  27.997  27.619  1.00  0.00     0.056 A 
ATOM     17  C   UNL     1      27.211  28.448  29.304  1.00  0.00     0.009 A 
ATOM     18  C   UNL     1      24.516  28.405  28.509  1.00  0.00     0.160 A 
ATOM     19  C   UNL     1      26.213  28.852  30.191  1.00  0.00     0.050 A 
ATOM     20  C   UNL     1      24.869  28.834  29.801  1.00  0.00     0.157 A 
BRANCH  18  21
ATOM     21  O   UNL     1      23.160  28.394  28.145  1.00  0.00    -0.493 OA
ATOM     22  C   UNL     1      22.280  27.293  28.341  1.00  0.00     0.278 C 
ENDBRANCH  18  21
BRANCH  20  23
ATOM     23  O   UNL     1      23.898  29.246  30.715  1.00  0.00    -0.504 OA
ATOM     24  H   UNL     1      23.501  28.616  31.399  1.00  0.00     0.293 HD
ENDBRANCH  20  23
ENDBRANCH  14  15
ENDBRANCH  12  14
ENDBRANCH   9  10
ENDBRANCH   1   9
TORSDOF 10
ENDMDL
MODEL 3
REMARK VINA RESULT:    -5.129      1.630      2.403
REMARK INTER + INTRA:          -8.567
REMARK INTER:                  -8.014
REMARK INTRA:                  -0.553
REMARK UNBOUND:                -0.589
REMARK SMILES COc1cc(CNC(=O)CCCCC=CC(C)C)ccc1O
REMARK SMILES IDX 11 1 12 2 13 3 14 4 15 5 16 6 17 7 18 8 10 9 8 10 9 11 7 12
REMARK SMILES IDX 6 14 5 15 4 16 19 17 3 18 20 19 21 20 2 21 1 22 22 23
REMARK H PARENT 7 13 22 24
REMARK Flexibility Score: inf
ROOT
ATOM      1  C   UNL     1      27.994  33.444  23.607  1.00  0.00     0.010 C 
ENDROOT
BRANCH   1   2
ATOM      2  C   UNL     1      28.459  34.169  22.332  1.00  0.00     0.005 C 
BRANCH   2   3
ATOM      3  C   UNL     1      28.099  35.662  22.338  1.00  0.00     0.027 C 
BRANCH   3   4
ATOM      4  C   UNL     1      28.239  36.253  20.958  1.00  0.00    -0.031 C 
ATOM      5  C   UNL     1      27.354  37.096  20.392  1.00  0.00    -0.028 C 
BRANCH   5   6
ATOM      6  C   UNL     1      26.123  37.645  21.082  1.00  0.00     0.005 C 
ATOM      7  C   UNL     1      24.880  36.883  20.613  1.00  0.00     0.012 C 
ATOM      8  C   UNL     1      25.983  39.139  20.783  1.00  0.00     0.012 C 
ENDBRANCH   5   6
ENDBRANCH   3   4
ENDBRANCH   2   3
ENDBRANCH   1   2
BRANCH   1   9
ATOM      9  C   UNL     1      29.109  32.677  24.336  1.00  0.00     0.100 C 
BRANCH   9  10
ATOM     10  C   UNL     1      28.835  31.202  24.380  1.00  0.00     0.220 C 
ATOM     11  O   UNL     1      28.744  30.558  23.300  1.00  0.00    -0.275 OA
ATOM     12  N   UNL     1      28.718  30.525  25.640  1.00  0.00    -0.352 N 
ATOM     13  H   UNL     1      28.828  31.071  26.523  1.00  0.00     0.163 HD
BRANCH  12  14
ATOM     14  C   UNL     1      28.487  29.086  25.737  1.00  0.00     0.151 C 
BRANCH  14  15
ATOM     15  C   UNL     1      27.831  28.751  27.050  1.00  0.00    -0.025 A 
ATOM     16  C   UNL     1      26.606  28.068  27.067  1.00  0.00     0.056 A 
ATOM     17  C   UNL     1      28.450  29.088  28.262  1.00  0.00     0.009 A 
ATOM     18  C   UNL     1      25.990  27.728  28.289  1.00  0.00     0.160 A 
ATOM     19  C   UNL     1      27.846  28.754  29.475  1.00  0.00     0.050 A 
ATOM     20  C   UNL     1      26.622  28.078  29.496  1.00  0.00     0.157 A 
BRANCH  18  21
ATOM     21  O   UNL     1      24.763  27.048  28.338  1.00  0.00    -0.493 OA
ATOM     22  C   UNL     1      23.488  27.681  28.338  1.00  0.00     0.278 C 
ENDBRANCH  18  21
BRANCH  20  23
ATOM     23  O   UNL     1      26.049  27.762  30.728  1.00  0.00    -0.504 OA
ATOM     24  H   UNL     1      25.069  27.925  30.924  1.00  0.00     0.293 HD
ENDBRANCH  20  23
ENDBRANCH  14  15
ENDBRANCH  12  14
ENDBRANCH   9  10
ENDBRANCH   1   9
TORSDOF 10
ENDMDL
MODEL 4
REMARK VINA RESULT:    -5.097      4.944     11.612
REMARK INTER + INTRA:          -8.516
REMARK INTER:                  -7.815
REMARK INTRA:                  -0.701
REMARK UNBOUND:                -0.589
REMARK SMILES COc1cc(CNC(=O)CCCCC=CC(C)C)ccc1O
REMARK SMILES IDX 11 1 12 2 13 3 14 4 15 5 16 6 17 7 18 8 10 9 8 10 9 11 7 12
REMARK SMILES IDX 6 14 5 15 4 16 19 17 3 18 20 19 21 20 2 21 1 22 22 23
REMARK H PARENT 7 13 22 24
REMARK Flexibility Score: inf
ROOT
ATOM      1  C   UNL     1      29.054  34.251  24.040  1.00  0.00     0.010 C 
ENDROOT
BRANCH   1   2
ATOM      2  C   UNL     1      28.300  33.031  23.482  1.00  0.00     0.005 C 
BRANCH   2   3
ATOM      3  C   UNL     1      29.046  31.712  23.729  1.00  0.00     0.027 C 
BRANCH   3   4
ATOM      4  C   UNL     1      29.123  31.406  25.203  1.00  0.00    -0.031 C 
ATOM      5  C   UNL     1      28.800  30.222  25.757  1.00  0.00    -0.028 C 
BRANCH   5   6
ATOM      6  C   UNL     1      28.389  28.988  24.979  1.00  0.00     0.005 C 
ATOM      7  C   UNL     1      26.869  28.815  25.044  1.00  0.00     0.012 C 
ATOM      8  C   UNL     1      29.096  27.756  25.548  1.00  0.00     0.012 C 
ENDBRANCH   5   6
ENDBRANCH   3   4
ENDBRANCH   2   3
ENDBRANCH   1   2
BRANCH   1   9
ATOM      9  C   UNL     1      28.152  35.452  24.370  1.00  0.00     0.100 C 
BRANCH   9  10
ATOM     10  C   UNL     1      27.126  35.689  23.301  1.00  0.00     0.220 C 
ATOM     11  O   UNL     1      25.908  35.491  23.559  1.00  0.00    -0.275 OA
ATOM     12  N   UNL     1      27.524  36.175  22.011  1.00  0.00    -0.352 N 
ATOM     13  H   UNL     1      28.535  36.362  21.827  1.00  0.00     0.163 HD
BRANCH  12  14
ATOM     14  C   UNL     1      26.563  36.455  20.948  1.00  0.00     0.151 C 
BRANCH  14  15
ATOM     15  C   UNL     1      26.854  37.791  20.319  1.00  0.00    -0.025 A 
ATOM     16  C   UNL     1      26.342  38.963  20.895  1.00  0.00     0.056 A 
ATOM     17  C   UNL     1      27.660  37.879  19.176  1.00  0.00     0.009 A 
ATOM     18  C   UNL     1      26.623  40.223  20.329  1.00  0.00     0.160 A 
ATOM     19  C   UNL     1      27.943  39.124  18.610  1.00  0.00     0.050 A 
ATOM     20  C   UNL     1      27.430  40.294  19.179  1.00  0.00     0.157 A 
BRANCH  18  21
ATOM     21  O   UNL     1      26.123  41.413  20.881  1.00  0.00    -0.493 OA
ATOM     22  C   UNL     1      26.543  41.966  22.124  1.00  0.00     0.278 C 
ENDBRANCH  18  21
BRANCH  20  23
ATOM     23  O   UNL     1      27.734  41.520  18.586  1.00  0.00    -0.504 OA
ATOM     24  H   UNL     1      27.150  42.337  18.710  1.00  0.00     0.293 HD
ENDBRANCH  20  23
ENDBRANCH  14  15
ENDBRANCH  12  14
ENDBRANCH   9  10
ENDBRANCH   1   9
TORSDOF 10
ENDMDL
MODEL 5
REMARK VINA RESULT:    -4.877      4.933     10.913
REMARK INTER + INTRA:          -8.175
REMARK INTER:                  -7.478
REMARK INTRA:                  -0.697
REMARK UNBOUND:                -0.589
REMARK SMILES COc1cc(CNC(=O)CCCCC=CC(C)C)ccc1O
REMARK SMILES IDX 11 1 12 2 13 3 14 4 15 5 16 6 17 7 18 8 10 9 8 10 9 11 7 12
REMARK SMILES IDX 6 14 5 15 4 16 19 17 3 18 20 19 21 20 2 21 1 22 22 23
REMARK H PARENT 7 13 22 24
REMARK Flexibility Score: inf
ROOT
ATOM      1  C   UNL     1      28.311  33.042  23.302  1.00  0.00     0.010 C 
ENDROOT
BRANCH   1   2
ATOM      2  C   UNL     1      29.115  32.451  24.473  1.00  0.00     0.005 C 
BRANCH   2   3
ATOM      3  C   UNL     1      29.121  30.915  24.469  1.00  0.00     0.027 C 
BRANCH   3   4
ATOM      4  C   UNL     1      27.715  30.373  24.495  1.00  0.00    -0.031 C 
ATOM      5  C   UNL     1      27.301  29.355  25.273  1.00  0.00    -0.028 C 
BRANCH   5   6
ATOM      6  C   UNL     1      28.161  28.650  26.302  1.00  0.00     0.005 C 
ATOM      7  C   UNL     1      28.980  27.546  25.627  1.00  0.00     0.012 C 
ATOM      8  C   UNL     1      27.276  28.066  27.406  1.00  0.00     0.012 C 
ENDBRANCH   5   6
ENDBRANCH   3   4
ENDBRANCH   2   3
ENDBRANCH   1   2
BRANCH   1   9
ATOM      9  C   UNL     1      28.862  32.676  21.914  1.00  0.00     0.100 C 
BRANCH   9  10
ATOM     10  C   UNL     1      28.962  33.876  21.018  1.00  0.00     0.220 C 
ATOM     11  O   UNL     1      28.927  33.719  19.768  1.00  0.00    -0.275 OA
ATOM     12  N   UNL     1      29.058  35.193  21.581  1.00  0.00    -0.352 N 
ATOM     13  H   UNL     1      29.055  35.304  22.620  1.00  0.00     0.163 HD
BRANCH  12  14
ATOM     14  C   UNL     1      29.124  36.395  20.755  1.00  0.00     0.151 C 
BRANCH  14  15
ATOM     15  C   UNL     1      27.829  37.157  20.837  1.00  0.00    -0.025 A 
ATOM     16  C   UNL     1      27.842  38.560  20.862  1.00  0.00     0.056 A 
ATOM     17  C   UNL     1      26.603  36.478  20.859  1.00  0.00     0.009 A 
ATOM     18  C   UNL     1      26.636  39.288  20.919  1.00  0.00     0.160 A 
ATOM     19  C   UNL     1      25.405  37.192  20.914  1.00  0.00     0.050 A 
ATOM     20  C   UNL     1      25.414  38.590  20.944  1.00  0.00     0.157 A 
BRANCH  18  21
ATOM     21  O   UNL     1      26.616  40.691  20.948  1.00  0.00    -0.493 OA
ATOM     22  C   UNL     1      26.954  41.526  19.845  1.00  0.00     0.278 C 
ENDBRANCH  18  21
BRANCH  20  23
ATOM     23  O   UNL     1      24.197  39.270  21.000  1.00  0.00    -0.504 OA
ATOM     24  H   UNL     1      23.409  39.011  20.421  1.00  0.00     0.293 HD
ENDBRANCH  20  23
ENDBRANCH  14  15
ENDBRANCH  12  14
ENDBRANCH   9  10
ENDBRANCH   1   9
TORSDOF 10
ENDMDL
MODEL 6
REMARK VINA RESULT:    -4.856      3.046     10.031
REMARK INTER + INTRA:          -8.142
REMARK INTER:                  -7.803
REMARK INTRA:                  -0.338
REMARK UNBOUND:                -0.589
REMARK SMILES COc1cc(CNC(=O)CCCCC=CC(C)C)ccc1O
REMARK SMILES IDX 11 1 12 2 13 3 14 4 15 5 16 6 17 7 18 8 10 9 8 10 9 11 7 12
REMARK SMILES IDX 6 14 5 15 4 16 19 17 3 18 20 19 21 20 2 21 1 22 22 23
REMARK H PARENT 7 13 22 24
REMARK Flexibility Score: inf
ROOT
ATOM      1  C   UNL     1      28.870  29.419  26.483  1.00  0.00     0.010 C 
ENDROOT
BRANCH   1   2
ATOM      2  C   UNL     1      29.084  27.942  26.860  1.00  0.00     0.005 C 
BRANCH   2   3
ATOM      3  C   UNL     1      29.125  27.720  28.379  1.00  0.00     0.027 C 
BRANCH   3   4
ATOM      4  C   UNL     1      28.015  28.478  29.062  1.00  0.00    -0.031 C 
ATOM      5  C   UNL     1      26.835  27.943  29.427  1.00  0.00    -0.028 C 
BRANCH   5   6
ATOM      6  C   UNL     1      26.469  26.480  29.284  1.00  0.00     0.005 C 
ATOM      7  C   UNL     1      25.049  26.351  28.724  1.00  0.00     0.012 C 
ATOM      8  C   UNL     1      26.577  25.782  30.642  1.00  0.00     0.012 C 
ENDBRANCH   5   6
ENDBRANCH   3   4
ENDBRANCH   2   3
ENDBRANCH   1   2
BRANCH   1   9
ATOM      9  C   UNL     1      27.818  29.642  25.385  1.00  0.00     0.100 C 
BRANCH   9  10
ATOM     10  C   UNL     1      28.424  30.220  24.140  1.00  0.00     0.220 C 
ATOM     11  O   UNL     1      28.795  29.446  23.217  1.00  0.00    -0.275 OA
ATOM     12  N   UNL     1      28.544  31.642  23.986  1.00  0.00    -0.352 N 
ATOM     13  H   UNL     1      28.202  32.267  24.750  1.00  0.00     0.163 HD
BRANCH  12  14
ATOM     14  C   UNL     1      29.094  32.256  22.781  1.00  0.00     0.151 C 
BRANCH  14  15
ATOM     15  C   UNL     1      28.538  33.643  22.601  1.00  0.00    -0.025 A 
ATOM     16  C   UNL     1      28.637  34.282  21.356  1.00  0.00     0.056 A 
ATOM     17  C   UNL     1      27.892  34.295  23.661  1.00  0.00     0.009 A 
ATOM     18  C   UNL     1      28.103  35.572  21.166  1.00  0.00     0.160 A 
ATOM     19  C   UNL     1      27.359  35.573  23.480  1.00  0.00     0.050 A 
ATOM     20  C   UNL     1      27.461  36.214  22.241  1.00  0.00     0.157 A 
BRANCH  18  21
ATOM     21  O   UNL     1      28.188  36.238  19.933  1.00  0.00    -0.493 OA
ATOM     22  C   UNL     1      28.615  37.586  19.771  1.00  0.00     0.278 C 
ENDBRANCH  18  21
BRANCH  20  23
ATOM     23  O   UNL     1      26.918  37.491  22.098  1.00  0.00    -0.504 OA
ATOM     24  H   UNL     1      25.941  37.684  22.279  1.00  0.00     0.293 HD
ENDBRANCH  20  23
ENDBRANCH  14  15
ENDBRANCH  12  14
ENDBRANCH   9  10
ENDBRANCH   1   9
TORSDOF 10
ENDMDL
MODEL 7
REMARK VINA RESULT:    -4.785      2.673      4.276
REMARK INTER + INTRA:          -8.032
REMARK INTER:                  -7.358
REMARK INTRA:                  -0.674
REMARK UNBOUND:                -0.589
REMARK SMILES COc1cc(CNC(=O)CCCCC=CC(C)C)ccc1O
REMARK SMILES IDX 11 1 12 2 13 3 14 4 15 5 16 6 17 7 18 8 10 9 8 10 9 11 7 12
REMARK SMILES IDX 6 14 5 15 4 16 19 17 3 18 20 19 21 20 2 21 1 22 22 23
REMARK H PARENT 7 13 22 24
REMARK Flexibility Score: inf
ROOT
ATOM      1  C   UNL     1      27.339  35.417  24.049  1.00  0.00     0.010 C 
ENDROOT
BRANCH   1   2
ATOM      2  C   UNL     1      26.357  35.799  22.926  1.00  0.00     0.005 C 
BRANCH   2   3
ATOM      3  C   UNL     1      26.958  36.807  21.936  1.00  0.00     0.027 C 
BRANCH   3   4
ATOM      4  C   UNL     1      25.896  37.351  21.014  1.00  0.00    -0.031 C 
ATOM      5  C   UNL     1      25.998  38.502  20.323  1.00  0.00    -0.028 C 
BRANCH   5   6
ATOM      6  C   UNL     1      27.226  39.389  20.299  1.00  0.00     0.005 C 
ATOM      7  C   UNL     1      27.030  40.576  21.246  1.00  0.00     0.012 C 
ATOM      8  C   UNL     1      27.487  39.876  18.872  1.00  0.00     0.012 C 
ENDBRANCH   5   6
ENDBRANCH   3   4
ENDBRANCH   2   3
ENDBRANCH   1   2
BRANCH   1   9
ATOM      9  C   UNL     1      28.729  34.991  23.550  1.00  0.00     0.100 C 
BRANCH   9  10
ATOM     10  C   UNL     1      28.733  33.578  23.046  1.00  0.00     0.220 C 
ATOM     11  O   UNL     1      28.615  33.363  21.810  1.00  0.00    -0.275 OA
ATOM     12  N   UNL     1      28.908  32.484  23.959  1.00  0.00    -0.352 N 
ATOM     13  H   UNL     1      29.035  32.685  24.976  1.00  0.00     0.163 HD
BRANCH  12  14
ATOM     14  C   UNL     1      28.953  31.093  23.516  1.00  0.00     0.151 C 
BRANCH  14  15
ATOM     15  C   UNL     1      28.351  30.193  24.560  1.00  0.00    -0.025 A 
ATOM     16  C   UNL     1      28.995  30.023  25.795  1.00  0.00     0.056 A 
ATOM     17  C   UNL     1      27.133  29.541  24.323  1.00  0.00     0.009 A 
ATOM     18  C   UNL     1      28.433  29.199  26.791  1.00  0.00     0.160 A 
ATOM     19  C   UNL     1      26.570  28.724  25.305  1.00  0.00     0.050 A 
ATOM     20  C   UNL     1      27.212  28.550  26.535  1.00  0.00     0.157 A 
BRANCH  18  21
ATOM     21  O   UNL     1      29.055  29.008  28.035  1.00  0.00    -0.493 OA
ATOM     22  C   UNL     1      28.893  29.867  29.159  1.00  0.00     0.278 C 
ENDBRANCH  18  21
BRANCH  20  23
ATOM     23  O   UNL     1      26.620  27.725  27.492  1.00  0.00    -0.504 OA
ATOM     24  H   UNL     1      27.122  26.965  27.933  1.00  0.00     0.293 HD
ENDBRANCH  20  23
ENDBRANCH  14  15
ENDBRANCH  12  14
ENDBRANCH   9  10
ENDBRANCH   1   9
TORSDOF 10
ENDMDL
MODEL 8
REMARK VINA RESULT:    -4.551      5.305     10.859
REMARK INTER + INTRA:          -7.667
REMARK INTER:                  -7.135
REMARK INTRA:                  -0.532
REMARK UNBOUND:                -0.589
REMARK SMILES COc1cc(CNC(=O)CCCCC=CC(C)C)ccc1O
REMARK SMILES IDX 11 1 12 2 13 3 14 4 15 5 16 6 17 7 18 8 10 9 8 10 9 11 7 12
REMARK SMILES IDX 6 14 5 15 4 16 19 17 3 18 20 19 21 20 2 21 1 22 22 23
REMARK H PARENT 7 13 22 24
REMARK Flexibility Score: inf
ROOT
ATOM      1  C   UNL     1      27.836  33.722  23.121  1.00  0.00     0.010 C 
ENDROOT
BRANCH   1   2
ATOM      2  C   UNL     1      28.534  33.547  24.481  1.00  0.00     0.005 C 
BRANCH   2   3
ATOM      3  C   UNL     1      29.078  32.125  24.686  1.00  0.00     0.027 C 
BRANCH   3   4
ATOM      4  C   UNL     1      28.042  31.095  24.314  1.00  0.00    -0.031 C 
ATOM      5  C   UNL     1      28.067  29.807  24.705  1.00  0.00    -0.028 C 
BRANCH   5   6
ATOM      6  C   UNL     1      29.094  29.211  25.645  1.00  0.00     0.005 C 
ATOM      7  C   UNL     1      29.088  27.684  25.522  1.00  0.00     0.012 C 
ATOM      8  C   UNL     1      28.791  29.636  27.084  1.00  0.00     0.012 C 
ENDBRANCH   5   6
ENDBRANCH   3   4
ENDBRANCH   2   3
ENDBRANCH   1   2
BRANCH   1   9
ATOM      9  C   UNL     1      28.686  33.282  21.917  1.00  0.00     0.100 C 
BRANCH   9  10
ATOM     10  C   UNL     1      28.651  34.294  20.809  1.00  0.00     0.220 C 
ATOM     11  O   UNL     1      28.170  33.969  19.690  1.00  0.00    -0.275 OA
ATOM     12  N   UNL     1      29.125  35.630  21.035  1.00  0.00    -0.352 N 
ATOM     13  H   UNL     1      29.491  35.888  21.978  1.00  0.00     0.163 HD
BRANCH  12  14
ATOM     14  C   UNL     1      29.081  36.661  20.001  1.00  0.00     0.151 C 
BRANCH  14  15
ATOM     15  C   UNL     1      28.086  37.728  20.370  1.00  0.00    -0.025 A 
ATOM     16  C   UNL     1      26.715  37.430  20.392  1.00  0.00     0.056 A 
ATOM     17  C   UNL     1      28.518  39.014  20.722  1.00  0.00     0.009 A 
ATOM     18  C   UNL     1      25.773  38.414  20.755  1.00  0.00     0.160 A 
ATOM     19  C   UNL     1      27.590  39.993  21.084  1.00  0.00     0.050 A 
ATOM     20  C   UNL     1      26.223  39.700  21.102  1.00  0.00     0.157 A 
BRANCH  18  21
ATOM     21  O   UNL     1      24.395  38.147  20.784  1.00  0.00    -0.493 OA
ATOM     22  C   UNL     1      23.799  37.047  21.464  1.00  0.00     0.278 C 
ENDBRANCH  18  21
BRANCH  20  23
ATOM     23  O   UNL     1      25.325  40.704  21.468  1.00  0.00    -0.504 OA
ATOM     24  H   UNL     1      25.323  41.613  21.023  1.00  0.00     0.293 HD
ENDBRANCH  20  23
ENDBRANCH  14  15
ENDBRANCH  12  14
ENDBRANCH   9  10
ENDBRANCH   1   9
TORSDOF 10
ENDMDL
