MODEL 1
REMARK VINA RESULT:    -4.693      0.000      0.000
REMARK INTER + INTRA:          -4.984
REMARK INTER:                  -4.967
REMARK INTRA:                  -0.016
REMARK UNBOUND:                -0.016
REMARK SMILES O=C([O-])c1cccnc1
REMARK SMILES IDX 4 1 5 2 9 3 6 4 8 5 7 6 2 7 1 8 3 9
REMARK H PARENT
REMARK Flexibility Score: inf
ROOT
ATOM      1  C   UNL     1      21.011  27.336  33.841  1.00  0.00     0.016 A 
ATOM      2  C   UNL     1      21.987  26.456  34.338  1.00  0.00     0.013 A 
ATOM      3  C   UNL     1      21.415  28.619  33.434  1.00  0.00     0.120 A 
ATOM      4  C   UNL     1      23.321  26.861  34.419  1.00  0.00     0.021 A 
ATOM      5  N   UNL     1      22.720  28.989  33.523  1.00  0.00    -0.264 NA
ATOM      6  C   UNL     1      23.672  28.145  34.003  1.00  0.00     0.111 A 
ENDROOT
BRANCH   1   7
ATOM      7  C   UNL     1      19.594  26.926  33.748  1.00  0.00     0.073 C 
ATOM      8  O   UNL     1      19.172  26.303  32.737  1.00  0.00    -0.545 OA
ATOM      9  O   UNL     1      18.706  27.226  34.774  1.00  0.00    -0.545 OA
ENDBRANCH   1   7
TORSDOF 1
ENDMDL
MODEL 2
REMARK VINA RESULT:    -4.671      0.147      1.086
REMARK INTER + INTRA:          -4.961
REMARK INTER:                  -4.944
REMARK INTRA:                  -0.016
REMARK UNBOUND:                -0.016
REMARK SMILES O=C([O-])c1cccnc1
REMARK SMILES IDX 4 1 5 2 9 3 6 4 8 5 7 6 2 7 1 8 3 9
REMARK H PARENT
REMARK Flexibility Score: inf
ROOT
ATOM      1  C   UNL     1      21.114  27.404  33.905  1.00  0.00     0.016 A 
ATOM      2  C   UNL     1      22.107  26.502  34.323  1.00  0.00     0.013 A 
ATOM      3  C   UNL     1      21.501  28.710  33.560  1.00  0.00     0.120 A 
ATOM      4  C   UNL     1      23.441  26.908  34.387  1.00  0.00     0.021 A 
ATOM      5  N   UNL     1      22.808  29.081  33.632  1.00  0.00    -0.264 NA
ATOM      6  C   UNL     1      23.775  28.216  34.034  1.00  0.00     0.111 A 
ENDROOT
BRANCH   1   7
ATOM      7  C   UNL     1      19.695  26.994  33.830  1.00  0.00     0.073 C 
ATOM      8  O   UNL     1      18.897  27.276  34.763  1.00  0.00    -0.545 OA
ATOM      9  O   UNL     1      19.224  26.288  32.730  1.00  0.00    -0.545 OA
ENDBRANCH   1   7
TORSDOF 1
ENDMDL
MODEL 3
REMARK VINA RESULT:    -4.670      0.878      1.604
REMARK INTER + INTRA:          -4.959
REMARK INTER:                  -4.943
REMARK INTRA:                  -0.016
REMARK UNBOUND:                -0.016
REMARK SMILES O=C([O-])c1cccnc1
REMARK SMILES IDX 4 1 5 2 9 3 6 4 8 5 7 6 2 7 1 8 3 9
REMARK H PARENT
REMARK Flexibility Score: inf
ROOT
ATOM      1  C   UNL     1      20.974  27.425  33.871  1.00  0.00     0.016 A 
ATOM      2  C   UNL     1      21.315  28.742  33.519  1.00  0.00     0.013 A 
ATOM      3  C   UNL     1      21.998  26.561  34.295  1.00  0.00     0.120 A 
ATOM      4  C   UNL     1      22.643  29.166  33.595  1.00  0.00     0.021 A 
ATOM      5  N   UNL     1      23.284  26.999  34.360  1.00  0.00    -0.264 NA
ATOM      6  C   UNL     1      23.624  28.270  34.022  1.00  0.00     0.111 A 
ENDROOT
BRANCH   1   7
ATOM      7  C   UNL     1      19.574  26.956  33.798  1.00  0.00     0.073 C 
ATOM      8  O   UNL     1      19.143  26.386  32.760  1.00  0.00    -0.545 OA
ATOM      9  O   UNL     1      18.713  27.140  34.873  1.00  0.00    -0.545 OA
ENDBRANCH   1   7
TORSDOF 1
ENDMDL
MODEL 4
REMARK VINA RESULT:    -4.623      2.652      3.182
REMARK INTER + INTRA:          -4.909
REMARK INTER:                  -4.888
REMARK INTRA:                  -0.021
REMARK UNBOUND:                -0.016
REMARK SMILES O=C([O-])c1cccnc1
REMARK SMILES IDX 4 1 5 2 9 3 6 4 8 5 7 6 2 7 1 8 3 9
REMARK H PARENT
REMARK Flexibility Score: inf
ROOT
ATOM      1  C   UNL     1      21.833  28.011  33.573  1.00  0.00     0.016 A 
ATOM      2  C   UNL     1      22.689  27.165  34.298  1.00  0.00     0.013 A 
ATOM      3  C   UNL     1      20.899  27.427  32.701  1.00  0.00     0.120 A 
ATOM      4  C   UNL     1      22.600  25.780  34.145  1.00  0.00     0.021 A 
ATOM      5  N   UNL     1      20.833  26.076  32.569  1.00  0.00    -0.264 NA
ATOM      6  C   UNL     1      21.656  25.248  33.265  1.00  0.00     0.111 A 
ENDROOT
BRANCH   1   7
ATOM      7  C   UNL     1      21.911  29.480  33.722  1.00  0.00     0.073 C 
ATOM      8  O   UNL     1      20.883  30.194  33.577  1.00  0.00    -0.545 OA
ATOM      9  O   UNL     1      23.121  30.094  34.020  1.00  0.00    -0.545 OA
ENDBRANCH   1   7
TORSDOF 1
ENDMDL
MODEL 5
REMARK VINA RESULT:    -4.607      2.650      3.173
REMARK INTER + INTRA:          -4.893
REMARK INTER:                  -4.871
REMARK INTRA:                  -0.022
REMARK UNBOUND:                -0.016
REMARK SMILES O=C([O-])c1cccnc1
REMARK SMILES IDX 4 1 5 2 9 3 6 4 8 5 7 6 2 7 1 8 3 9
REMARK H PARENT
REMARK Flexibility Score: inf
ROOT
ATOM      1  C   UNL     1      21.884  28.034  33.582  1.00  0.00     0.016 A 
ATOM      2  C   UNL     1      22.721  27.171  34.310  1.00  0.00     0.013 A 
ATOM      3  C   UNL     1      20.936  27.468  32.712  1.00  0.00     0.120 A 
ATOM      4  C   UNL     1      22.601  25.788  34.162  1.00  0.00     0.021 A 
ATOM      5  N   UNL     1      20.840  26.118  32.585  1.00  0.00    -0.264 NA
ATOM      6  C   UNL     1      21.645  25.275  33.284  1.00  0.00     0.111 A 
ENDROOT
BRANCH   1   7
ATOM      7  C   UNL     1      21.995  29.501  33.725  1.00  0.00     0.073 C 
ATOM      8  O   UNL     1      23.109  30.039  33.965  1.00  0.00    -0.545 OA
ATOM      9  O   UNL     1      20.871  30.308  33.599  1.00  0.00    -0.545 OA
ENDBRANCH   1   7
TORSDOF 1
ENDMDL
MODEL 6
REMARK VINA RESULT:    -4.468      2.629      3.338
REMARK INTER + INTRA:          -4.746
REMARK INTER:                  -4.724
REMARK INTRA:                  -0.021
REMARK UNBOUND:                -0.016
REMARK SMILES O=C([O-])c1cccnc1
REMARK SMILES IDX 4 1 5 2 9 3 6 4 8 5 7 6 2 7 1 8 3 9
REMARK H PARENT
REMARK Flexibility Score: inf
ROOT
ATOM      1  C   UNL     1      21.720  27.849  33.482  1.00  0.00     0.016 A 
ATOM      2  C   UNL     1      20.867  27.242  32.545  1.00  0.00     0.013 A 
ATOM      3  C   UNL     1      22.539  27.024  34.272  1.00  0.00     0.120 A 
ATOM      4  C   UNL     1      20.845  25.852  32.413  1.00  0.00     0.021 A 
ATOM      5  N   UNL     1      22.498  25.673  34.124  1.00  0.00    -0.264 NA
ATOM      6  C   UNL     1      21.676  25.076  33.221  1.00  0.00     0.111 A 
ENDROOT
BRANCH   1   7
ATOM      7  C   UNL     1      21.758  29.319  33.637  1.00  0.00     0.073 C 
ATOM      8  O   UNL     1      20.715  30.007  33.476  1.00  0.00    -0.545 OA
ATOM      9  O   UNL     1      22.947  29.962  33.959  1.00  0.00    -0.545 OA
ENDBRANCH   1   7
TORSDOF 1
ENDMDL
MODEL 7
REMARK VINA RESULT:    -4.364      2.935      3.742
REMARK INTER + INTRA:          -4.635
REMARK INTER:                  -4.611
REMARK INTRA:                  -0.024
REMARK UNBOUND:                -0.016
REMARK SMILES O=C([O-])c1cccnc1
REMARK SMILES IDX 4 1 5 2 9 3 6 4 8 5 7 6 2 7 1 8 3 9
REMARK H PARENT
REMARK Flexibility Score: inf
ROOT
ATOM      1  C   UNL     1      22.876  26.887  34.339  1.00  0.00     0.016 A 
ATOM      2  C   UNL     1      23.236  28.197  33.980  1.00  0.00     0.013 A 
ATOM      3  C   UNL     1      21.520  26.524  34.266  1.00  0.00     0.120 A 
ATOM      4  C   UNL     1      22.260  29.104  33.563  1.00  0.00     0.021 A 
ATOM      5  N   UNL     1      20.589  27.427  33.856  1.00  0.00    -0.264 NA
ATOM      6  C   UNL     1      20.927  28.695  33.507  1.00  0.00     0.111 A 
ENDROOT
BRANCH   1   7
ATOM      7  C   UNL     1      23.894  25.912  34.784  1.00  0.00     0.073 C 
ATOM      8  O   UNL     1      25.115  26.224  34.800  1.00  0.00    -0.545 OA
ATOM      9  O   UNL     1      23.519  24.636  35.187  1.00  0.00    -0.545 OA
ENDBRANCH   1   7
TORSDOF 1
ENDMDL
MODEL 8
REMARK VINA RESULT:    -4.360      2.806      3.590
REMARK INTER + INTRA:          -4.631
REMARK INTER:                  -4.607
REMARK INTRA:                  -0.024
REMARK UNBOUND:                -0.016
REMARK SMILES O=C([O-])c1cccnc1
REMARK SMILES IDX 4 1 5 2 9 3 6 4 8 5 7 6 2 7 1 8 3 9
REMARK H PARENT
REMARK Flexibility Score: inf
ROOT
ATOM      1  C   UNL     1      22.978  26.899  34.311  1.00  0.00     0.016 A 
ATOM      2  C   UNL     1      21.621  26.556  34.181  1.00  0.00     0.013 A 
ATOM      3  C   UNL     1      23.370  28.208  33.986  1.00  0.00     0.120 A 
ATOM      4  C   UNL     1      20.698  27.506  33.740  1.00  0.00     0.021 A 
ATOM      5  N   UNL     1      22.450  29.114  33.558  1.00  0.00    -0.264 NA
ATOM      6  C   UNL     1      21.136  28.793  33.429  1.00  0.00     0.111 A 
ENDROOT
BRANCH   1   7
ATOM      7  C   UNL     1      23.971  25.908  34.777  1.00  0.00     0.073 C 
ATOM      8  O   UNL     1      25.200  26.187  34.784  1.00  0.00    -0.545 OA
ATOM      9  O   UNL     1      23.563  24.653  35.212  1.00  0.00    -0.545 OA
ENDBRANCH   1   7
TORSDOF 1
ENDMDL
MODEL 9
REMARK VINA RESULT:    -4.142      2.316      2.920
REMARK INTER + INTRA:          -4.400
REMARK INTER:                  -4.376
REMARK INTRA:                  -0.023
REMARK UNBOUND:                -0.016
REMARK SMILES O=C([O-])c1cccnc1
REMARK SMILES IDX 4 1 5 2 9 3 6 4 8 5 7 6 2 7 1 8 3 9
REMARK H PARENT
REMARK Flexibility Score: inf
ROOT
ATOM      1  C   UNL     1      22.431  26.514  34.332  1.00  0.00     0.016 A 
ATOM      2  C   UNL     1      23.773  26.931  34.337  1.00  0.00     0.013 A 
ATOM      3  C   UNL     1      22.130  25.226  34.806  1.00  0.00     0.120 A 
ATOM      4  C   UNL     1      24.771  26.074  34.805  1.00  0.00     0.021 A 
ATOM      5  N   UNL     1      23.121  24.411  35.256  1.00  0.00    -0.264 NA
ATOM      6  C   UNL     1      24.422  24.804  35.265  1.00  0.00     0.111 A 
ENDROOT
BRANCH   1   7
ATOM      7  C   UNL     1      21.359  27.406  33.841  1.00  0.00     0.073 C 
ATOM      8  O   UNL     1      21.636  28.413  33.136  1.00  0.00    -0.545 OA
ATOM      9  O   UNL     1      20.029  27.147  34.152  1.00  0.00    -0.545 OA
ENDBRANCH   1   7
TORSDOF 1
ENDMDL
