MODEL 1
REMARK VINA RESULT:    -4.714      0.000      0.000
REMARK INTER + INTRA:          -5.454
REMARK INTER:                  -5.403
REMARK INTRA:                  -0.051
REMARK UNBOUND:                -0.051
REMARK SMILES O=C([O-])c1cc(O)c(O)c(O)c1
REMARK SMILES IDX 4 1 5 2 12 3 6 4 10 5 8 6 2 7 1 8 3 9 7 10 11 12 9 14
REMARK H PARENT 7 11 11 13 9 15
REMARK Flexibility Score: inf
ROOT
ATOM      1  C   UNL     1       8.608  51.313  23.886  1.00  0.00     0.005 A 
ATOM      2  C   UNL     1       9.603  50.331  24.001  1.00  0.00     0.060 A 
ATOM      3  C   UNL     1       8.785  52.358  22.964  1.00  0.00     0.060 A 
ATOM      4  C   UNL     1      10.756  50.389  23.208  1.00  0.00     0.162 A 
ATOM      5  C   UNL     1       9.932  52.427  22.165  1.00  0.00     0.162 A 
ATOM      6  C   UNL     1      10.930  51.432  22.287  1.00  0.00     0.200 A 
ENDROOT
BRANCH   1   7
ATOM      7  C   UNL     1       7.393  51.246  24.728  1.00  0.00     0.072 C 
ATOM      8  O   UNL     1       6.948  50.136  25.125  1.00  0.00    -0.545 OA
ATOM      9  O   UNL     1       6.725  52.409  25.095  1.00  0.00    -0.545 OA
ENDBRANCH   1   7
BRANCH   4  10
ATOM     10  O   UNL     1      11.739  49.408  23.328  1.00  0.00    -0.504 OA
ATOM     11  H   UNL     1      12.015  49.040  24.230  1.00  0.00     0.293 HD
ENDBRANCH   4  10
BRANCH   5  12
ATOM     12  O   UNL     1      10.037  53.495  21.271  1.00  0.00    -0.504 OA
ATOM     13  H   UNL     1       9.272  54.108  21.030  1.00  0.00     0.293 HD
ENDBRANCH   5  12
BRANCH   6  14
ATOM     14  O   UNL     1      12.099  51.443  21.520  1.00  0.00    -0.502 OA
ATOM     15  H   UNL     1      12.311  50.767  20.802  1.00  0.00     0.293 HD
ENDBRANCH   6  14
TORSDOF 4
ENDMDL
MODEL 2
REMARK VINA RESULT:    -4.676      0.144      2.440
REMARK INTER + INTRA:          -5.410
REMARK INTER:                  -5.360
REMARK INTRA:                  -0.051
REMARK UNBOUND:                -0.051
REMARK SMILES O=C([O-])c1cc(O)c(O)c(O)c1
REMARK SMILES IDX 4 1 5 2 12 3 6 4 10 5 8 6 2 7 1 8 3 9 7 10 11 12 9 14
REMARK H PARENT 7 11 11 13 9 15
REMARK Flexibility Score: inf
ROOT
ATOM      1  C   UNL     1       8.625  51.408  23.856  1.00  0.00     0.005 A 
ATOM      2  C   UNL     1       8.759  52.446  22.922  1.00  0.00     0.060 A 
ATOM      3  C   UNL     1       9.639  50.441  23.949  1.00  0.00     0.060 A 
ATOM      4  C   UNL     1       9.886  52.519  22.094  1.00  0.00     0.162 A 
ATOM      5  C   UNL     1      10.772  50.502  23.128  1.00  0.00     0.162 A 
ATOM      6  C   UNL     1      10.898  51.553  22.189  1.00  0.00     0.200 A 
ENDROOT
BRANCH   1   7
ATOM      7  C   UNL     1       7.431  51.337  24.727  1.00  0.00     0.072 C 
ATOM      8  O   UNL     1       6.993  50.223  25.125  1.00  0.00    -0.545 OA
ATOM      9  O   UNL     1       6.775  52.497  25.121  1.00  0.00    -0.545 OA
ENDBRANCH   1   7
BRANCH   4  10
ATOM     10  O   UNL     1      10.010  53.556  21.170  1.00  0.00    -0.504 OA
ATOM     11  H   UNL     1      10.588  53.464  20.344  1.00  0.00     0.293 HD
ENDBRANCH   4  10
BRANCH   5  12
ATOM     12  O   UNL     1      11.737  49.505  23.278  1.00  0.00    -0.504 OA
ATOM     13  H   UNL     1      12.226  49.070  22.509  1.00  0.00     0.293 HD
ENDBRANCH   5  12
BRANCH   6  14
ATOM     14  O   UNL     1      12.001  51.673  21.340  1.00  0.00    -0.502 OA
ATOM     15  H   UNL     1      12.881  51.199  21.484  1.00  0.00     0.293 HD
ENDBRANCH   6  14
TORSDOF 4
ENDMDL
MODEL 3
REMARK VINA RESULT:    -4.652      1.780      3.289
REMARK INTER + INTRA:          -5.382
REMARK INTER:                  -5.333
REMARK INTRA:                  -0.049
REMARK UNBOUND:                -0.051
REMARK SMILES O=C([O-])c1cc(O)c(O)c(O)c1
REMARK SMILES IDX 4 1 5 2 12 3 6 4 10 5 8 6 2 7 1 8 3 9 7 10 11 12 9 14
REMARK H PARENT 7 11 11 13 9 15
REMARK Flexibility Score: inf
ROOT
ATOM      1  C   UNL     1       7.823  52.109  23.123  1.00  0.00     0.005 A 
ATOM      2  C   UNL     1       6.957  52.649  22.162  1.00  0.00     0.060 A 
ATOM      3  C   UNL     1       9.210  52.193  22.916  1.00  0.00     0.060 A 
ATOM      4  C   UNL     1       7.465  53.265  21.011  1.00  0.00     0.162 A 
ATOM      5  C   UNL     1       9.731  52.807  21.770  1.00  0.00     0.162 A 
ATOM      6  C   UNL     1       8.850  53.349  20.806  1.00  0.00     0.200 A 
ENDROOT
BRANCH   1   7
ATOM      7  C   UNL     1       7.280  51.459  24.337  1.00  0.00     0.072 C 
ATOM      8  O   UNL     1       7.832  50.432  24.816  1.00  0.00    -0.545 OA
ATOM      9  O   UNL     1       6.153  51.973  24.968  1.00  0.00    -0.545 OA
ENDBRANCH   1   7
BRANCH   4  10
ATOM     10  O   UNL     1       6.596  53.800  20.061  1.00  0.00    -0.504 OA
ATOM     11  H   UNL     1       6.931  54.154  19.174  1.00  0.00     0.293 HD
ENDBRANCH   4  10
BRANCH   5  12
ATOM     12  O   UNL     1      11.120  52.853  21.633  1.00  0.00    -0.504 OA
ATOM     13  H   UNL     1      11.736  52.086  21.858  1.00  0.00     0.293 HD
ENDBRANCH   5  12
BRANCH   6  14
ATOM     14  O   UNL     1       9.303  53.973  19.640  1.00  0.00    -0.502 OA
ATOM     15  H   UNL     1       9.001  54.885  19.332  1.00  0.00     0.293 HD
ENDBRANCH   6  14
TORSDOF 4
ENDMDL
MODEL 4
REMARK VINA RESULT:    -4.649      1.811      2.695
REMARK INTER + INTRA:          -5.379
REMARK INTER:                  -5.330
REMARK INTRA:                  -0.049
REMARK UNBOUND:                -0.051
REMARK SMILES O=C([O-])c1cc(O)c(O)c(O)c1
REMARK SMILES IDX 4 1 5 2 12 3 6 4 10 5 8 6 2 7 1 8 3 9 7 10 11 12 9 14
REMARK H PARENT 7 11 11 13 9 15
REMARK Flexibility Score: inf
ROOT
ATOM      1  C   UNL     1       7.860  52.136  23.053  1.00  0.00     0.005 A 
ATOM      2  C   UNL     1       9.245  52.217  22.847  1.00  0.00     0.060 A 
ATOM      3  C   UNL     1       6.995  52.680  22.090  1.00  0.00     0.060 A 
ATOM      4  C   UNL     1       9.760  52.830  21.697  1.00  0.00     0.162 A 
ATOM      5  C   UNL     1       7.496  53.295  20.936  1.00  0.00     0.162 A 
ATOM      6  C   UNL     1       8.894  53.372  20.736  1.00  0.00     0.200 A 
ENDROOT
BRANCH   1   7
ATOM      7  C   UNL     1       7.323  51.488  24.270  1.00  0.00     0.072 C 
ATOM      8  O   UNL     1       7.865  50.450  24.736  1.00  0.00    -0.545 OA
ATOM      9  O   UNL     1       6.213  52.017  24.919  1.00  0.00    -0.545 OA
ENDBRANCH   1   7
BRANCH   4  10
ATOM     10  O   UNL     1      11.138  52.904  21.500  1.00  0.00    -0.504 OA
ATOM     11  H   UNL     1      11.645  52.178  21.009  1.00  0.00     0.293 HD
ENDBRANCH   4  10
BRANCH   5  12
ATOM     12  O   UNL     1       6.574  53.813  20.023  1.00  0.00    -0.504 OA
ATOM     13  H   UNL     1       5.583  53.618  20.048  1.00  0.00     0.293 HD
ENDBRANCH   5  12
BRANCH   6  14
ATOM     14  O   UNL     1       9.460  53.972  19.607  1.00  0.00    -0.502 OA
ATOM     15  H   UNL     1       9.024  53.991  18.698  1.00  0.00     0.293 HD
ENDBRANCH   6  14
TORSDOF 4
ENDMDL
MODEL 5
REMARK VINA RESULT:    -4.469      4.325      6.257
REMARK INTER + INTRA:          -5.173
REMARK INTER:                  -5.128
REMARK INTRA:                  -0.045
REMARK UNBOUND:                -0.051
REMARK SMILES O=C([O-])c1cc(O)c(O)c(O)c1
REMARK SMILES IDX 4 1 5 2 12 3 6 4 10 5 8 6 2 7 1 8 3 9 7 10 11 12 9 14
REMARK H PARENT 7 11 11 13 9 15
REMARK Flexibility Score: inf
ROOT
ATOM      1  C   UNL     1       7.359  53.180  20.708  1.00  0.00     0.005 A 
ATOM      2  C   UNL     1       6.385  54.101  21.120  1.00  0.00     0.060 A 
ATOM      3  C   UNL     1       7.011  52.192  19.773  1.00  0.00     0.060 A 
ATOM      4  C   UNL     1       5.083  54.038  20.608  1.00  0.00     0.162 A 
ATOM      5  C   UNL     1       5.713  52.118  19.252  1.00  0.00     0.162 A 
ATOM      6  C   UNL     1       4.737  53.051  19.673  1.00  0.00     0.200 A 
ENDROOT
BRANCH   1   7
ATOM      7  C   UNL     1       8.733  53.252  21.254  1.00  0.00     0.072 C 
ATOM      8  O   UNL     1       8.975  52.874  22.432  1.00  0.00    -0.545 OA
ATOM      9  O   UNL     1       9.777  53.737  20.475  1.00  0.00    -0.545 OA
ENDBRANCH   1   7
BRANCH   4  10
ATOM     10  O   UNL     1       4.121  54.958  21.022  1.00  0.00    -0.504 OA
ATOM     11  H   UNL     1       4.060  55.265  21.986  1.00  0.00     0.293 HD
ENDBRANCH   4  10
BRANCH   5  12
ATOM     12  O   UNL     1       5.441  51.108  18.327  1.00  0.00    -0.504 OA
ATOM     13  H   UNL     1       5.812  50.171  18.387  1.00  0.00     0.293 HD
ENDBRANCH   5  12
BRANCH   6  14
ATOM     14  O   UNL     1       3.424  53.032  19.194  1.00  0.00    -0.502 OA
ATOM     15  H   UNL     1       3.100  53.577  18.409  1.00  0.00     0.293 HD
ENDBRANCH   6  14
TORSDOF 4
ENDMDL
MODEL 6
REMARK VINA RESULT:    -4.390      1.647      3.366
REMARK INTER + INTRA:          -5.082
REMARK INTER:                  -5.029
REMARK INTRA:                  -0.053
REMARK UNBOUND:                -0.051
REMARK SMILES O=C([O-])c1cc(O)c(O)c(O)c1
REMARK SMILES IDX 4 1 5 2 12 3 6 4 10 5 8 6 2 7 1 8 3 9 7 10 11 12 9 14
REMARK H PARENT 7 11 11 13 9 15
REMARK Flexibility Score: inf
ROOT
ATOM      1  C   UNL     1       9.199  51.739  22.799  1.00  0.00     0.005 A 
ATOM      2  C   UNL     1       8.152  52.493  22.251  1.00  0.00     0.060 A 
ATOM      3  C   UNL     1      10.487  51.862  22.252  1.00  0.00     0.060 A 
ATOM      4  C   UNL     1       8.384  53.358  21.174  1.00  0.00     0.162 A 
ATOM      5  C   UNL     1      10.733  52.723  21.175  1.00  0.00     0.162 A 
ATOM      6  C   UNL     1       9.671  53.480  20.629  1.00  0.00     0.200 A 
ENDROOT
BRANCH   1   7
ATOM      7  C   UNL     1       8.947  50.827  23.937  1.00  0.00     0.072 C 
ATOM      8  O   UNL     1       7.780  50.672  24.388  1.00  0.00    -0.545 OA
ATOM      9  O   UNL     1       9.993  50.125  24.524  1.00  0.00    -0.545 OA
ENDBRANCH   1   7
BRANCH   4  10
ATOM     10  O   UNL     1       7.337  54.105  20.636  1.00  0.00    -0.504 OA
ATOM     11  H   UNL     1       6.370  53.834  20.767  1.00  0.00     0.293 HD
ENDBRANCH   4  10
BRANCH   5  12
ATOM     12  O   UNL     1      12.039  52.792  20.685  1.00  0.00    -0.504 OA
ATOM     13  H   UNL     1      12.422  53.595  20.207  1.00  0.00     0.293 HD
ENDBRANCH   5  12
BRANCH   6  14
ATOM     14  O   UNL     1       9.848  54.357  19.555  1.00  0.00    -0.502 OA
ATOM     15  H   UNL     1      10.040  54.062  18.610  1.00  0.00     0.293 HD
ENDBRANCH   6  14
TORSDOF 4
ENDMDL
MODEL 7
REMARK VINA RESULT:    -4.387      4.306      5.983
REMARK INTER + INTRA:          -5.079
REMARK INTER:                  -5.034
REMARK INTRA:                  -0.045
REMARK UNBOUND:                -0.051
REMARK SMILES O=C([O-])c1cc(O)c(O)c(O)c1
REMARK SMILES IDX 4 1 5 2 12 3 6 4 10 5 8 6 2 7 1 8 3 9 7 10 11 12 9 14
REMARK H PARENT 7 11 11 13 9 15
REMARK Flexibility Score: inf
ROOT
ATOM      1  C   UNL     1       7.485  53.149  20.642  1.00  0.00     0.005 A 
ATOM      2  C   UNL     1       7.109  52.164  19.717  1.00  0.00     0.060 A 
ATOM      3  C   UNL     1       6.536  54.101  21.047  1.00  0.00     0.060 A 
ATOM      4  C   UNL     1       5.806  52.129  19.204  1.00  0.00     0.162 A 
ATOM      5  C   UNL     1       5.230  54.077  20.543  1.00  0.00     0.162 A 
ATOM      6  C   UNL     1       4.860  53.080  19.610  1.00  0.00     0.200 A 
ENDROOT
BRANCH   1   7
ATOM      7  C   UNL     1       8.864  53.180  21.180  1.00  0.00     0.072 C 
ATOM      8  O   UNL     1       9.829  53.536  20.450  1.00  0.00    -0.545 OA
ATOM      9  O   UNL     1       9.115  52.820  22.499  1.00  0.00    -0.545 OA
ENDBRANCH   1   7
BRANCH   4  10
ATOM     10  O   UNL     1       5.442  51.146  18.286  1.00  0.00    -0.504 OA
ATOM     11  H   UNL     1       5.292  50.184  18.567  1.00  0.00     0.293 HD
ENDBRANCH   4  10
BRANCH   5  12
ATOM     12  O   UNL     1       4.342  55.057  20.992  1.00  0.00    -0.504 OA
ATOM     13  H   UNL     1       3.361  54.895  21.164  1.00  0.00     0.293 HD
ENDBRANCH   5  12
BRANCH   6  14
ATOM     14  O   UNL     1       3.574  53.000  19.067  1.00  0.00    -0.502 OA
ATOM     15  H   UNL     1       3.366  52.613  18.160  1.00  0.00     0.293 HD
ENDBRANCH   6  14
TORSDOF 4
ENDMDL
MODEL 8
REMARK VINA RESULT:    -4.288      2.712      3.670
REMARK INTER + INTRA:          -4.966
REMARK INTER:                  -4.919
REMARK INTRA:                  -0.046
REMARK UNBOUND:                -0.051
REMARK SMILES O=C([O-])c1cc(O)c(O)c(O)c1
REMARK SMILES IDX 4 1 5 2 12 3 6 4 10 5 8 6 2 7 1 8 3 9 7 10 11 12 9 14
REMARK H PARENT 7 11 11 13 9 15
REMARK Flexibility Score: inf
ROOT
ATOM      1  C   UNL     1       7.353  52.537  21.037  1.00  0.00     0.005 A 
ATOM      2  C   UNL     1       7.227  52.177  22.386  1.00  0.00     0.060 A 
ATOM      3  C   UNL     1       8.601  52.971  20.561  1.00  0.00     0.060 A 
ATOM      4  C   UNL     1       8.328  52.249  23.249  1.00  0.00     0.162 A 
ATOM      5  C   UNL     1       9.711  53.047  21.413  1.00  0.00     0.162 A 
ATOM      6  C   UNL     1       9.573  52.681  22.773  1.00  0.00     0.200 A 
ENDROOT
BRANCH   1   7
ATOM      7  C   UNL     1       6.186  52.460  20.131  1.00  0.00     0.072 C 
ATOM      8  O   UNL     1       6.214  51.721  19.110  1.00  0.00    -0.545 OA
ATOM      9  O   UNL     1       5.039  53.201  20.394  1.00  0.00    -0.545 OA
ENDBRANCH   1   7
BRANCH   4  10
ATOM     10  O   UNL     1       8.192  51.888  24.589  1.00  0.00    -0.504 OA
ATOM     11  H   UNL     1       7.393  51.359  24.919  1.00  0.00     0.293 HD
ENDBRANCH   4  10
BRANCH   5  12
ATOM     12  O   UNL     1      10.919  53.487  20.869  1.00  0.00    -0.504 OA
ATOM     13  H   UNL     1      11.026  54.350  20.355  1.00  0.00     0.293 HD
ENDBRANCH   5  12
BRANCH   6  14
ATOM     14  O   UNL     1      10.639  52.734  23.676  1.00  0.00    -0.502 OA
ATOM     15  H   UNL     1      10.774  53.472  24.350  1.00  0.00     0.293 HD
ENDBRANCH   6  14
TORSDOF 4
ENDMDL
MODEL 9
REMARK VINA RESULT:    -4.270      2.674      4.002
REMARK INTER + INTRA:          -4.944
REMARK INTER:                  -4.898
REMARK INTRA:                  -0.046
REMARK UNBOUND:                -0.051
REMARK SMILES O=C([O-])c1cc(O)c(O)c(O)c1
REMARK SMILES IDX 4 1 5 2 12 3 6 4 10 5 8 6 2 7 1 8 3 9 7 10 11 12 9 14
REMARK H PARENT 7 11 11 13 9 15
REMARK Flexibility Score: inf
ROOT
ATOM      1  C   UNL     1       7.358  52.526  21.135  1.00  0.00     0.005 A 
ATOM      2  C   UNL     1       8.619  52.911  20.658  1.00  0.00     0.060 A 
ATOM      3  C   UNL     1       7.217  52.182  22.490  1.00  0.00     0.060 A 
ATOM      4  C   UNL     1       9.724  52.954  21.519  1.00  0.00     0.162 A 
ATOM      5  C   UNL     1       8.313  52.222  23.361  1.00  0.00     0.162 A 
ATOM      6  C   UNL     1       9.581  52.613  22.871  1.00  0.00     0.200 A 
ENDROOT
BRANCH   1   7
ATOM      7  C   UNL     1       6.196  52.481  20.220  1.00  0.00     0.072 C 
ATOM      8  O   UNL     1       5.174  53.184  20.447  1.00  0.00    -0.545 OA
ATOM      9  O   UNL     1       6.214  51.663  19.096  1.00  0.00    -0.545 OA
ENDBRANCH   1   7
BRANCH   4  10
ATOM     10  O   UNL     1      10.973  53.340  21.036  1.00  0.00    -0.504 OA
ATOM     11  H   UNL     1      11.443  52.822  20.303  1.00  0.00     0.293 HD
ENDBRANCH   4  10
BRANCH   5  12
ATOM     12  O   UNL     1       8.095  51.867  24.694  1.00  0.00    -0.504 OA
ATOM     13  H   UNL     1       7.576  51.052  24.985  1.00  0.00     0.293 HD
ENDBRANCH   5  12
BRANCH   6  14
ATOM     14  O   UNL     1      10.715  52.673  23.686  1.00  0.00    -0.502 OA
ATOM     15  H   UNL     1      10.914  53.428  24.325  1.00  0.00     0.293 HD
ENDBRANCH   6  14
TORSDOF 4
ENDMDL
