MODEL 1
REMARK VINA RESULT:    -5.769      0.000      0.000
REMARK INTER + INTRA:          -6.729
REMARK INTER:                  -6.444
REMARK INTRA:                  -0.285
REMARK UNBOUND:                -0.285
REMARK SMILES CC(=O)c1ccc(O)cc1O
REMARK SMILES IDX 4 1 10 2 9 3 7 4 6 5 5 6 2 7 1 8 3 9 11 10 8 12
REMARK H PARENT 11 11 8 13
REMARK Flexibility Score: inf
ROOT
ATOM      1  C   UNL     1      35.238  40.368  84.283  1.00  0.00     0.059 A 
ATOM      2  C   UNL     1      34.319  40.088  85.324  1.00  0.00     0.130 A 
ATOM      3  C   UNL     1      32.943  40.259  85.106  1.00  0.00     0.093 A 
ATOM      4  C   UNL     1      32.466  40.689  83.863  1.00  0.00     0.119 A 
ATOM      5  C   UNL     1      33.367  40.949  82.830  1.00  0.00     0.047 A 
ATOM      6  C   UNL     1      34.739  40.788  83.035  1.00  0.00     0.019 A 
ENDROOT
BRANCH   1   7
ATOM      7  C   UNL     1      36.708  40.224  84.455  1.00  0.00     0.163 C 
ATOM      8  C   UNL     1      37.649  41.385  84.350  1.00  0.00     0.093 C 
ATOM      9  O   UNL     1      37.193  39.085  84.698  1.00  0.00    -0.294 OA
ENDBRANCH   1   7
BRANCH   2  10
ATOM     10  O   UNL     1      34.759  39.620  86.561  1.00  0.00    -0.507 OA
ATOM     11  H   UNL     1      34.518  40.091  87.425  1.00  0.00     0.293 HD
ENDBRANCH   2  10
BRANCH   4  12
ATOM     12  O   UNL     1      31.101  40.858  83.643  1.00  0.00    -0.508 OA
ATOM     13  H   UNL     1      30.623  41.709  83.916  1.00  0.00     0.293 HD
ENDBRANCH   4  12
TORSDOF 3
ENDMDL
MODEL 2
REMARK VINA RESULT:    -5.396      1.588      2.408
REMARK INTER + INTRA:          -6.313
REMARK INTER:                  -6.070
REMARK INTRA:                  -0.243
REMARK UNBOUND:                -0.285
REMARK SMILES CC(=O)c1ccc(O)cc1O
REMARK SMILES IDX 4 1 10 2 9 3 7 4 6 5 5 6 2 7 1 8 3 9 11 10 8 12
REMARK H PARENT 11 11 8 13
REMARK Flexibility Score: inf
ROOT
ATOM      1  C   UNL     1      34.364  39.967  84.002  1.00  0.00     0.059 A 
ATOM      2  C   UNL     1      33.893  40.645  82.851  1.00  0.00     0.130 A 
ATOM      3  C   UNL     1      32.631  41.259  82.868  1.00  0.00     0.093 A 
ATOM      4  C   UNL     1      31.838  41.223  84.021  1.00  0.00     0.119 A 
ATOM      5  C   UNL     1      32.306  40.573  85.162  1.00  0.00     0.047 A 
ATOM      6  C   UNL     1      33.557  39.953  85.156  1.00  0.00     0.019 A 
ENDROOT
BRANCH   1   7
ATOM      7  C   UNL     1      35.683  39.282  84.042  1.00  0.00     0.163 C 
ATOM      8  C   UNL     1      36.833  39.793  84.856  1.00  0.00     0.093 C 
ATOM      9  O   UNL     1      35.853  38.229  83.368  1.00  0.00    -0.294 OA
ENDBRANCH   1   7
BRANCH   2  10
ATOM     10  O   UNL     1      34.676  40.731  81.701  1.00  0.00    -0.507 OA
ATOM     11  H   UNL     1      35.498  40.153  81.570  1.00  0.00     0.293 HD
ENDBRANCH   2  10
BRANCH   4  12
ATOM     12  O   UNL     1      30.586  41.833  84.041  1.00  0.00    -0.508 OA
ATOM     13  H   UNL     1      30.182  42.183  84.903  1.00  0.00     0.293 HD
ENDBRANCH   4  12
TORSDOF 3
ENDMDL
MODEL 3
REMARK VINA RESULT:    -5.304      1.688      2.103
REMARK INTER + INTRA:          -6.209
REMARK INTER:                  -5.906
REMARK INTRA:                  -0.303
REMARK UNBOUND:                -0.285
REMARK SMILES CC(=O)c1ccc(O)cc1O
REMARK SMILES IDX 4 1 10 2 9 3 7 4 6 5 5 6 2 7 1 8 3 9 11 10 8 12
REMARK H PARENT 11 11 8 13
REMARK Flexibility Score: inf
ROOT
ATOM      1  C   UNL     1      34.051  40.540  84.323  1.00  0.00     0.059 A 
ATOM      2  C   UNL     1      32.673  40.520  84.649  1.00  0.00     0.130 A 
ATOM      3  C   UNL     1      31.783  41.373  83.976  1.00  0.00     0.093 A 
ATOM      4  C   UNL     1      32.242  42.232  82.972  1.00  0.00     0.119 A 
ATOM      5  C   UNL     1      33.596  42.242  82.636  1.00  0.00     0.047 A 
ATOM      6  C   UNL     1      34.493  41.404  83.302  1.00  0.00     0.019 A 
ENDROOT
BRANCH   1   7
ATOM      7  C   UNL     1      35.047  39.676  85.011  1.00  0.00     0.163 C 
ATOM      8  C   UNL     1      35.975  38.766  84.265  1.00  0.00     0.093 C 
ATOM      9  O   UNL     1      35.121  39.700  86.270  1.00  0.00    -0.294 OA
ENDBRANCH   1   7
BRANCH   2  10
ATOM     10  O   UNL     1      32.179  39.648  85.617  1.00  0.00    -0.507 OA
ATOM     11  H   UNL     1      31.888  38.705  85.386  1.00  0.00     0.293 HD
ENDBRANCH   2  10
BRANCH   4  12
ATOM     12  O   UNL     1      31.362  43.078  82.302  1.00  0.00    -0.508 OA
ATOM     13  H   UNL     1      31.667  43.650  81.523  1.00  0.00     0.293 HD
ENDBRANCH   4  12
TORSDOF 3
ENDMDL
MODEL 4
REMARK VINA RESULT:    -5.136      1.761      4.493
REMARK INTER + INTRA:          -6.021
REMARK INTER:                  -5.757
REMARK INTRA:                  -0.264
REMARK UNBOUND:                -0.285
REMARK SMILES CC(=O)c1ccc(O)cc1O
REMARK SMILES IDX 4 1 10 2 9 3 7 4 6 5 5 6 2 7 1 8 3 9 11 10 8 12
REMARK H PARENT 11 11 8 13
REMARK Flexibility Score: inf
ROOT
ATOM      1  C   UNL     1      33.229  41.346  84.047  1.00  0.00     0.059 A 
ATOM      2  C   UNL     1      34.063  40.942  82.976  1.00  0.00     0.130 A 
ATOM      3  C   UNL     1      35.051  39.968  83.189  1.00  0.00     0.093 A 
ATOM      4  C   UNL     1      35.210  39.377  84.447  1.00  0.00     0.119 A 
ATOM      5  C   UNL     1      34.379  39.760  85.500  1.00  0.00     0.047 A 
ATOM      6  C   UNL     1      33.396  40.732  85.304  1.00  0.00     0.019 A 
ENDROOT
BRANCH   1   7
ATOM      7  C   UNL     1      32.177  42.386  83.892  1.00  0.00     0.163 C 
ATOM      8  C   UNL     1      30.984  42.466  84.796  1.00  0.00     0.093 C 
ATOM      9  O   UNL     1      32.280  43.237  82.967  1.00  0.00    -0.294 OA
ENDBRANCH   1   7
BRANCH   2  10
ATOM     10  O   UNL     1      33.903  41.483  81.702  1.00  0.00    -0.507 OA
ATOM     11  H   UNL     1      33.353  41.017  80.989  1.00  0.00     0.293 HD
ENDBRANCH   2  10
BRANCH   4  12
ATOM     12  O   UNL     1      36.188  38.409  84.660  1.00  0.00    -0.508 OA
ATOM     13  H   UNL     1      36.992  38.590  85.252  1.00  0.00     0.293 HD
ENDBRANCH   4  12
TORSDOF 3
ENDMDL
MODEL 5
REMARK VINA RESULT:    -4.901      2.162      3.531
REMARK INTER + INTRA:          -5.759
REMARK INTER:                  -5.462
REMARK INTRA:                  -0.297
REMARK UNBOUND:                -0.285
REMARK SMILES CC(=O)c1ccc(O)cc1O
REMARK SMILES IDX 4 1 10 2 9 3 7 4 6 5 5 6 2 7 1 8 3 9 11 10 8 12
REMARK H PARENT 11 11 8 13
REMARK Flexibility Score: inf
ROOT
ATOM      1  C   UNL     1      35.865  41.334  85.670  1.00  0.00     0.059 A 
ATOM      2  C   UNL     1      34.830  40.368  85.620  1.00  0.00     0.130 A 
ATOM      3  C   UNL     1      34.966  39.238  84.799  1.00  0.00     0.093 A 
ATOM      4  C   UNL     1      36.126  39.046  84.039  1.00  0.00     0.119 A 
ATOM      5  C   UNL     1      37.155  39.986  84.100  1.00  0.00     0.047 A 
ATOM      6  C   UNL     1      37.030  41.117  84.908  1.00  0.00     0.019 A 
ENDROOT
BRANCH   1   7
ATOM      7  C   UNL     1      35.774  42.560  86.506  1.00  0.00     0.163 C 
ATOM      8  C   UNL     1      36.956  43.134  87.226  1.00  0.00     0.093 C 
ATOM      9  O   UNL     1      34.664  43.149  86.621  1.00  0.00    -0.294 OA
ENDBRANCH   1   7
BRANCH   2  10
ATOM     10  O   UNL     1      33.680  40.512  86.395  1.00  0.00    -0.507 OA
ATOM     11  H   UNL     1      33.252  41.416  86.553  1.00  0.00     0.293 HD
ENDBRANCH   2  10
BRANCH   4  12
ATOM     12  O   UNL     1      36.265  37.925  83.225  1.00  0.00    -0.508 OA
ATOM     13  H   UNL     1      35.744  37.831  82.360  1.00  0.00     0.293 HD
ENDBRANCH   4  12
TORSDOF 3
ENDMDL
MODEL 6
REMARK VINA RESULT:    -4.872     10.817     13.092
REMARK INTER + INTRA:          -5.727
REMARK INTER:                  -5.446
REMARK INTRA:                  -0.281
REMARK UNBOUND:                -0.285
REMARK SMILES CC(=O)c1ccc(O)cc1O
REMARK SMILES IDX 4 1 10 2 9 3 7 4 6 5 5 6 2 7 1 8 3 9 11 10 8 12
REMARK H PARENT 11 11 8 13
REMARK Flexibility Score: inf
ROOT
ATOM      1  C   UNL     1      21.971  42.318  86.837  1.00  0.00     0.059 A 
ATOM      2  C   UNL     1      22.165  41.293  85.879  1.00  0.00     0.130 A 
ATOM      3  C   UNL     1      23.179  41.417  84.917  1.00  0.00     0.093 A 
ATOM      4  C   UNL     1      24.014  42.539  84.904  1.00  0.00     0.119 A 
ATOM      5  C   UNL     1      23.838  43.543  85.857  1.00  0.00     0.047 A 
ATOM      6  C   UNL     1      22.829  43.435  86.816  1.00  0.00     0.019 A 
ENDROOT
BRANCH   1   7
ATOM      7  C   UNL     1      20.904  42.255  87.870  1.00  0.00     0.163 C 
ATOM      8  C   UNL     1      19.772  43.236  87.921  1.00  0.00     0.093 C 
ATOM      9  O   UNL     1      20.943  41.346  88.744  1.00  0.00    -0.294 OA
ENDBRANCH   1   7
BRANCH   2  10
ATOM     10  O   UNL     1      21.375  40.145  85.891  1.00  0.00    -0.507 OA
ATOM     11  H   UNL     1      20.888  39.839  86.725  1.00  0.00     0.293 HD
ENDBRANCH   2  10
BRANCH   4  12
ATOM     12  O   UNL     1      25.022  42.665  83.951  1.00  0.00    -0.508 OA
ATOM     13  H   UNL     1      25.163  41.963  83.233  1.00  0.00     0.293 HD
ENDBRANCH   4  12
TORSDOF 3
ENDMDL
MODEL 7
REMARK VINA RESULT:    -4.846     11.370     12.770
REMARK INTER + INTRA:          -5.697
REMARK INTER:                  -5.404
REMARK INTRA:                  -0.293
REMARK UNBOUND:                -0.285
REMARK SMILES CC(=O)c1ccc(O)cc1O
REMARK SMILES IDX 4 1 10 2 9 3 7 4 6 5 5 6 2 7 1 8 3 9 11 10 8 12
REMARK H PARENT 11 11 8 13
REMARK Flexibility Score: inf
ROOT
ATOM      1  C   UNL     1      22.668  43.083  86.604  1.00  0.00     0.059 A 
ATOM      2  C   UNL     1      21.655  42.106  86.765  1.00  0.00     0.130 A 
ATOM      3  C   UNL     1      21.705  40.918  86.020  1.00  0.00     0.093 A 
ATOM      4  C   UNL     1      22.758  40.679  85.129  1.00  0.00     0.119 A 
ATOM      5  C   UNL     1      23.767  41.631  84.981  1.00  0.00     0.047 A 
ATOM      6  C   UNL     1      23.726  42.820  85.712  1.00  0.00     0.019 A 
ENDROOT
BRANCH   1   7
ATOM      7  C   UNL     1      22.663  44.370  87.349  1.00  0.00     0.163 C 
ATOM      8  C   UNL     1      23.105  45.661  86.731  1.00  0.00     0.093 C 
ATOM      9  O   UNL     1      22.274  44.387  88.549  1.00  0.00    -0.294 OA
ENDBRANCH   1   7
BRANCH   2  10
ATOM     10  O   UNL     1      20.615  42.297  87.672  1.00  0.00    -0.507 OA
ATOM     11  H   UNL     1      19.656  42.421  87.367  1.00  0.00     0.293 HD
ENDBRANCH   2  10
BRANCH   4  12
ATOM     12  O   UNL     1      22.811  39.500  84.390  1.00  0.00    -0.508 OA
ATOM     13  H   UNL     1      22.071  39.245  83.745  1.00  0.00     0.293 HD
ENDBRANCH   4  12
TORSDOF 3
ENDMDL
MODEL 8
REMARK VINA RESULT:    -4.836      1.619      3.985
REMARK INTER + INTRA:          -5.687
REMARK INTER:                  -5.385
REMARK INTRA:                  -0.302
REMARK UNBOUND:                -0.285
REMARK SMILES CC(=O)c1ccc(O)cc1O
REMARK SMILES IDX 4 1 10 2 9 3 7 4 6 5 5 6 2 7 1 8 3 9 11 10 8 12
REMARK H PARENT 11 11 8 13
REMARK Flexibility Score: inf
ROOT
ATOM      1  C   UNL     1      33.796  41.386  84.395  1.00  0.00     0.059 A 
ATOM      2  C   UNL     1      33.663  40.098  84.968  1.00  0.00     0.130 A 
ATOM      3  C   UNL     1      34.774  39.243  85.034  1.00  0.00     0.093 A 
ATOM      4  C   UNL     1      36.021  39.659  84.554  1.00  0.00     0.119 A 
ATOM      5  C   UNL     1      36.160  40.934  84.005  1.00  0.00     0.047 A 
ATOM      6  C   UNL     1      35.061  41.791  83.928  1.00  0.00     0.019 A 
ENDROOT
BRANCH   1   7
ATOM      7  C   UNL     1      32.653  42.331  84.280  1.00  0.00     0.163 C 
ATOM      8  C   UNL     1      32.396  43.137  83.043  1.00  0.00     0.093 C 
ATOM      9  O   UNL     1      31.865  42.469  85.254  1.00  0.00    -0.294 OA
ENDBRANCH   1   7
BRANCH   2  10
ATOM     10  O   UNL     1      32.444  39.669  85.491  1.00  0.00    -0.507 OA
ATOM     11  H   UNL     1      31.608  40.240  85.435  1.00  0.00     0.293 HD
ENDBRANCH   2  10
BRANCH   4  12
ATOM     12  O   UNL     1      37.127  38.814  84.619  1.00  0.00    -0.508 OA
ATOM     13  H   UNL     1      37.050  37.869  84.979  1.00  0.00     0.293 HD
ENDBRANCH   4  12
TORSDOF 3
ENDMDL
MODEL 9
REMARK VINA RESULT:    -4.813      2.136      4.204
REMARK INTER + INTRA:          -5.661
REMARK INTER:                  -5.367
REMARK INTRA:                  -0.294
REMARK UNBOUND:                -0.285
REMARK SMILES CC(=O)c1ccc(O)cc1O
REMARK SMILES IDX 4 1 10 2 9 3 7 4 6 5 5 6 2 7 1 8 3 9 11 10 8 12
REMARK H PARENT 11 11 8 13
REMARK Flexibility Score: inf
ROOT
ATOM      1  C   UNL     1      34.929  42.192  83.310  1.00  0.00     0.059 A 
ATOM      2  C   UNL     1      34.411  40.941  82.896  1.00  0.00     0.130 A 
ATOM      3  C   UNL     1      35.045  39.754  83.296  1.00  0.00     0.093 A 
ATOM      4  C   UNL     1      36.178  39.793  84.116  1.00  0.00     0.119 A 
ATOM      5  C   UNL     1      36.681  41.024  84.541  1.00  0.00     0.047 A 
ATOM      6  C   UNL     1      36.063  42.211  84.145  1.00  0.00     0.019 A 
ENDROOT
BRANCH   1   7
ATOM      7  C   UNL     1      34.315  43.485  82.906  1.00  0.00     0.163 C 
ATOM      8  C   UNL     1      35.132  44.696  82.573  1.00  0.00     0.093 C 
ATOM      9  O   UNL     1      33.059  43.578  82.840  1.00  0.00    -0.294 OA
ENDBRANCH   1   7
BRANCH   2  10
ATOM     10  O   UNL     1      33.261  40.867  82.111  1.00  0.00    -0.507 OA
ATOM     11  H   UNL     1      33.248  40.368  81.229  1.00  0.00     0.293 HD
ENDBRANCH   2  10
BRANCH   4  12
ATOM     12  O   UNL     1      36.808  38.618  84.515  1.00  0.00    -0.508 OA
ATOM     13  H   UNL     1      37.818  38.529  84.506  1.00  0.00     0.293 HD
ENDBRANCH   4  12
TORSDOF 3
ENDMDL
