MODEL 1
REMARK VINA RESULT:    -3.771      0.000      0.000
REMARK INTER + INTRA:          -5.147
REMARK INTER:                  -5.314
REMARK INTRA:                   0.167
REMARK UNBOUND:                 0.167
REMARK SMILES CC1=CCC(=C(C)C)C(=O)CC(C)=CCC1
REMARK SMILES IDX 12 1 14 2 13 3 15 4 16 5 2 6 1 7 3 8 11 10 9 11 10 12 5 13
REMARK SMILES IDX 6 14 7 15 8 16 4 17
REMARK H PARENT
REMARK Flexibility Score: 60.00
ROOT
ATOM      1  C   UNL     1      55.165  18.426  -4.564  1.00  0.00    -0.070 C 
ATOM      2  C   UNL     1      54.210  18.493  -5.518  1.00  0.00    -0.027 C 
ATOM      3  C   UNL     1      56.372  19.319  -4.709  1.00  0.00     0.039 C 
ENDROOT
BRANCH   2   4
ATOM      4  C   UNL     1      52.981  17.614  -5.600  1.00  0.00     0.032 C 
BRANCH   4   5
ATOM      5  C   UNL     1      51.771  18.114  -4.783  1.00  0.00     0.034 C 
BRANCH   5   6
ATOM      6  C   UNL     1      51.155  17.039  -3.907  1.00  0.00    -0.077 C 
ATOM      7  C   UNL     1      50.311  15.985  -4.581  1.00  0.00     0.039 C 
ATOM      8  C   UNL     1      51.257  17.001  -2.557  1.00  0.00    -0.023 CG0
ATOM      9  G   UNL     1      52.062  17.934  -1.674  1.00  0.00     0.000 G0
ENDBRANCH   5   6
ENDBRANCH   4   5
ENDBRANCH   2   4
BRANCH   1  10
ATOM     10  C   UNL     1      55.125  17.438  -3.415  1.00  0.00     0.111 C 
BRANCH  10  11
ATOM     11  C   UNL     1      54.576  18.066  -2.162  1.00  0.00     0.163 C 
ATOM     12  O   UNL     1      55.113  19.129  -1.745  1.00  0.00    -0.294 OA
BRANCH  11  13
ATOM     13  C   UNL     1      53.472  17.446  -1.371  1.00  0.00    -0.002 C 
ATOM     14  C   UNL     1      53.725  16.421  -0.502  1.00  0.00    -0.069 C 
ATOM     15  C   UNL     1      52.612  15.668   0.193  1.00  0.00     0.039 C 
ATOM     16  C   UNL     1      55.140  15.984  -0.195  1.00  0.00     0.039 C 
BRANCH  13  17
ATOM     17  C   UNL     1      52.059  17.937  -1.644  1.00  0.00     0.066 CG0
ATOM     18  G   UNL     1      51.287  16.998  -2.548  1.00  0.00     0.000 G0
ENDBRANCH  13  17
ENDBRANCH  11  13
ENDBRANCH  10  11
ENDBRANCH   1  10
TORSDOF 0
ENDMDL
MODEL 2
REMARK VINA RESULT:    -3.620      1.076      1.639
REMARK INTER + INTRA:          -4.935
REMARK INTER:                  -5.452
REMARK INTRA:                   0.517
REMARK UNBOUND:                 0.167
REMARK SMILES CC1=CCC(=C(C)C)C(=O)CC(C)=CCC1
REMARK SMILES IDX 12 1 14 2 13 3 15 4 16 5 2 6 1 7 3 8 11 10 9 11 10 12 5 13
REMARK SMILES IDX 6 14 7 15 8 16 4 17
REMARK H PARENT
REMARK Flexibility Score: 60.00
ROOT
ATOM      1  C   UNL     1      55.175  18.526  -4.584  1.00  0.00    -0.070 C 
ATOM      2  C   UNL     1      54.069  18.773  -5.320  1.00  0.00    -0.027 C 
ATOM      3  C   UNL     1      56.431  19.294  -4.915  1.00  0.00     0.039 C 
ENDROOT
BRANCH   2   4
ATOM      4  C   UNL     1      52.751  18.040  -5.207  1.00  0.00     0.032 C 
BRANCH   4   5
ATOM      5  C   UNL     1      51.534  18.939  -4.903  1.00  0.00     0.034 C 
BRANCH   5   6
ATOM      6  C   UNL     1      51.642  19.661  -3.572  1.00  0.00    -0.077 C 
ATOM      7  C   UNL     1      51.518  21.165  -3.579  1.00  0.00     0.039 C 
ATOM      8  C   UNL     1      51.909  19.052  -2.392  1.00  0.00    -0.023 CG0
ATOM      9  G   UNL     1      52.053  17.564  -2.142  1.00  0.00     0.000 G0
ENDBRANCH   5   6
ENDBRANCH   4   5
ENDBRANCH   2   4
BRANCH   1  10
ATOM     10  C   UNL     1      55.239  17.456  -3.513  1.00  0.00     0.111 C 
BRANCH  10  11
ATOM     11  C   UNL     1      54.610  17.920  -2.226  1.00  0.00     0.163 C 
ATOM     12  O   UNL     1      55.125  18.908  -1.635  1.00  0.00    -0.294 OA
BRANCH  11  13
ATOM     13  C   UNL     1      53.448  17.219  -1.603  1.00  0.00    -0.002 C 
ATOM     14  C   UNL     1      53.642  16.245  -0.663  1.00  0.00    -0.069 C 
ATOM     15  C   UNL     1      52.500  15.409  -0.129  1.00  0.00     0.039 C 
ATOM     16  C   UNL     1      55.019  15.952  -0.109  1.00  0.00     0.039 C 
BRANCH  13  17
ATOM     17  C   UNL     1      52.063  17.568  -2.124  1.00  0.00     0.066 CG0
ATOM     18  G   UNL     1      51.903  19.052  -2.386  1.00  0.00     0.000 G0
ENDBRANCH  13  17
ENDBRANCH  11  13
ENDBRANCH  10  11
ENDBRANCH   1  10
TORSDOF 0
ENDMDL
MODEL 3
REMARK VINA RESULT:    -3.518      2.393      4.401
REMARK INTER + INTRA:          -4.790
REMARK INTER:                  -4.947
REMARK INTRA:                   0.157
REMARK UNBOUND:                 0.167
REMARK SMILES CC1=CCC(=C(C)C)C(=O)CC(C)=CCC1
REMARK SMILES IDX 12 1 14 2 13 3 15 4 16 5 2 6 1 7 3 8 11 10 9 11 10 12 5 13
REMARK SMILES IDX 6 14 7 15 8 16 4 17
REMARK H PARENT
REMARK Flexibility Score: 60.00
ROOT
ATOM      1  C   UNL     1      54.724  18.242  -3.109  1.00  0.00    -0.070 C 
ATOM      2  C   UNL     1      54.679  16.899  -2.968  1.00  0.00    -0.027 C 
ATOM      3  C   UNL     1      55.219  19.060  -1.943  1.00  0.00     0.039 C 
ENDROOT
BRANCH   2   4
ATOM      4  C   UNL     1      54.125  15.922  -3.981  1.00  0.00     0.032 C 
BRANCH   4   5
ATOM      5  C   UNL     1      52.585  15.873  -4.059  1.00  0.00     0.034 C 
BRANCH   5   6
ATOM      6  C   UNL     1      52.055  15.958  -5.478  1.00  0.00    -0.077 C 
ATOM      7  C   UNL     1      52.428  14.851  -6.433  1.00  0.00     0.039 C 
ATOM      8  C   UNL     1      51.330  16.994  -5.963  1.00  0.00    -0.023 CG0
ATOM      9  G   UNL     1      50.825  18.197  -5.191  1.00  0.00     0.000 G0
ENDBRANCH   5   6
ENDBRANCH   4   5
ENDBRANCH   2   4
BRANCH   1  10
ATOM     10  C   UNL     1      54.217  18.965  -4.341  1.00  0.00     0.111 C 
BRANCH  10  11
ATOM     11  C   UNL     1      52.807  19.458  -4.154  1.00  0.00     0.163 C 
ATOM     12  O   UNL     1      52.476  19.897  -3.019  1.00  0.00    -0.294 OA
BRANCH  11  13
ATOM     13  C   UNL     1      51.783  19.388  -5.238  1.00  0.00    -0.002 C 
ATOM     14  C   UNL     1      51.684  20.381  -6.173  1.00  0.00    -0.069 C 
ATOM     15  C   UNL     1      50.560  20.419  -7.185  1.00  0.00     0.039 C 
ATOM     16  C   UNL     1      52.698  21.501  -6.237  1.00  0.00     0.039 C 
BRANCH  13  17
ATOM     17  C   UNL     1      50.807  18.222  -5.199  1.00  0.00     0.066 CG0
ATOM     18  G   UNL     1      51.324  17.012  -5.953  1.00  0.00     0.000 G0
ENDBRANCH  13  17
ENDBRANCH  11  13
ENDBRANCH  10  11
ENDBRANCH   1  10
TORSDOF 0
ENDMDL
MODEL 4
REMARK VINA RESULT:    -3.458      1.895      4.098
REMARK INTER + INTRA:          -4.706
REMARK INTER:                  -4.885
REMARK INTRA:                   0.179
REMARK UNBOUND:                 0.167
REMARK SMILES CC1=CCC(=C(C)C)C(=O)CC(C)=CCC1
REMARK SMILES IDX 12 1 14 2 13 3 15 4 16 5 2 6 1 7 3 8 11 10 9 11 10 12 5 13
REMARK SMILES IDX 6 14 7 15 8 16 4 17
REMARK H PARENT
REMARK Flexibility Score: 60.00
ROOT
ATOM      1  C   UNL     1      55.108  18.263  -4.573  1.00  0.00    -0.070 C 
ATOM      2  C   UNL     1      55.221  17.745  -3.330  1.00  0.00    -0.027 C 
ATOM      3  C   UNL     1      56.284  19.024  -5.131  1.00  0.00     0.039 C 
ENDROOT
BRANCH   2   4
ATOM      4  C   UNL     1      54.123  17.038  -2.565  1.00  0.00     0.032 C 
BRANCH   4   5
ATOM      5  C   UNL     1      53.369  17.921  -1.551  1.00  0.00     0.034 C 
BRANCH   5   6
ATOM      6  C   UNL     1      51.860  17.805  -1.663  1.00  0.00    -0.077 C 
ATOM      7  C   UNL     1      51.189  16.664  -0.938  1.00  0.00     0.039 C 
ATOM      8  C   UNL     1      51.085  18.614  -2.425  1.00  0.00    -0.023 CG0
ATOM      9  G   UNL     1      51.532  19.826  -3.219  1.00  0.00     0.000 G0
ENDBRANCH   5   6
ENDBRANCH   4   5
ENDBRANCH   2   4
BRANCH   1  10
ATOM     10  C   UNL     1      53.833  18.195  -5.389  1.00  0.00     0.111 C 
BRANCH  10  11
ATOM     11  C   UNL     1      53.048  19.477  -5.300  1.00  0.00     0.163 C 
ATOM     12  O   UNL     1      53.606  20.544  -5.675  1.00  0.00    -0.294 OA
BRANCH  11  13
ATOM     13  C   UNL     1      51.669  19.535  -4.729  1.00  0.00    -0.002 C 
ATOM     14  C   UNL     1      50.573  19.414  -5.537  1.00  0.00    -0.069 C 
ATOM     15  C   UNL     1      49.168  19.624  -5.016  1.00  0.00     0.039 C 
ATOM     16  C   UNL     1      50.712  19.064  -7.002  1.00  0.00     0.039 C 
BRANCH  13  17
ATOM     17  C   UNL     1      51.543  19.825  -3.242  1.00  0.00     0.066 CG0
ATOM     18  G   UNL     1      51.089  18.611  -2.454  1.00  0.00     0.000 G0
ENDBRANCH  13  17
ENDBRANCH  11  13
ENDBRANCH  10  11
ENDBRANCH   1  10
TORSDOF 0
ENDMDL
MODEL 5
REMARK VINA RESULT:    -3.406      2.219      3.306
REMARK INTER + INTRA:          -4.632
REMARK INTER:                  -5.041
REMARK INTRA:                   0.408
REMARK UNBOUND:                 0.167
REMARK SMILES CC1=CCC(=C(C)C)C(=O)CC(C)=CCC1
REMARK SMILES IDX 12 1 14 2 13 3 15 4 16 5 2 6 1 7 3 8 11 10 9 11 10 12 5 13
REMARK SMILES IDX 6 14 7 15 8 16 4 17
REMARK H PARENT
REMARK Flexibility Score: 60.00
ROOT
ATOM      1  C   UNL     1      54.020  15.835  -4.855  1.00  0.00    -0.070 C 
ATOM      2  C   UNL     1      54.287  17.148  -5.028  1.00  0.00    -0.027 C 
ATOM      3  C   UNL     1      52.884  15.234  -5.645  1.00  0.00     0.039 C 
ENDROOT
BRANCH   2   4
ATOM      4  C   UNL     1      55.315  17.949  -4.259  1.00  0.00     0.032 C 
BRANCH   4   5
ATOM      5  C   UNL     1      54.738  19.109  -3.422  1.00  0.00     0.034 C 
BRANCH   5   6
ATOM      6  C   UNL     1      53.631  18.674  -2.480  1.00  0.00    -0.077 C 
ATOM      7  C   UNL     1      52.273  19.309  -2.653  1.00  0.00     0.039 C 
ATOM      8  C   UNL     1      53.798  17.806  -1.454  1.00  0.00    -0.023 CG0
ATOM      9  G   UNL     1      55.055  17.036  -1.102  1.00  0.00     0.000 G0
ENDBRANCH   5   6
ENDBRANCH   4   5
ENDBRANCH   2   4
BRANCH   1  10
ATOM     10  C   UNL     1      54.741  14.966  -3.844  1.00  0.00     0.111 C 
BRANCH  10  11
ATOM     11  C   UNL     1      54.114  15.065  -2.479  1.00  0.00     0.163 C 
ATOM     12  O   UNL     1      52.885  14.802  -2.369  1.00  0.00    -0.294 OA
BRANCH  11  13
ATOM     13  C   UNL     1      54.875  15.519  -1.278  1.00  0.00    -0.002 C 
ATOM     14  C   UNL     1      55.317  14.618  -0.348  1.00  0.00    -0.069 C 
ATOM     15  C   UNL     1      55.951  15.057   0.953  1.00  0.00     0.039 C 
ATOM     16  C   UNL     1      55.190  13.129  -0.577  1.00  0.00     0.039 C 
BRANCH  13  17
ATOM     17  C   UNL     1      55.051  17.017  -1.091  1.00  0.00     0.066 CG0
ATOM     18  G   UNL     1      53.806  17.796  -1.467  1.00  0.00     0.000 G0
ENDBRANCH  13  17
ENDBRANCH  11  13
ENDBRANCH  10  11
ENDBRANCH   1  10
TORSDOF 0
ENDMDL
MODEL 6
REMARK VINA RESULT:    -3.357      1.812      4.077
REMARK INTER + INTRA:          -4.563
REMARK INTER:                  -4.987
REMARK INTRA:                   0.424
REMARK UNBOUND:                 0.167
REMARK SMILES CC1=CCC(=C(C)C)C(=O)CC(C)=CCC1
REMARK SMILES IDX 12 1 14 2 13 3 15 4 16 5 2 6 1 7 3 8 11 10 9 11 10 12 5 13
REMARK SMILES IDX 6 14 7 15 8 16 4 17
REMARK H PARENT
REMARK Flexibility Score: 60.00
ROOT
ATOM      1  C   UNL     1      55.234  19.108  -4.343  1.00  0.00    -0.070 C 
ATOM      2  C   UNL     1      55.506  18.868  -3.042  1.00  0.00    -0.027 C 
ATOM      3  C   UNL     1      56.387  19.123  -5.316  1.00  0.00     0.039 C 
ENDROOT
BRANCH   2   4
ATOM      4  C   UNL     1      54.506  18.909  -1.907  1.00  0.00     0.032 C 
BRANCH   4   5
ATOM      5  C   UNL     1      54.282  17.560  -1.192  1.00  0.00     0.034 C 
BRANCH   5   6
ATOM      6  C   UNL     1      54.073  16.403  -2.151  1.00  0.00    -0.077 C 
ATOM      7  C   UNL     1      55.130  15.326  -2.191  1.00  0.00     0.039 C 
ATOM      8  C   UNL     1      53.039  16.307  -3.020  1.00  0.00    -0.023 CG0
ATOM      9  G   UNL     1      51.859  17.251  -3.145  1.00  0.00     0.000 G0
ENDBRANCH   5   6
ENDBRANCH   4   5
ENDBRANCH   2   4
BRANCH   1  10
ATOM     10  C   UNL     1      53.849  19.452  -4.852  1.00  0.00     0.111 C 
BRANCH  10  11
ATOM     11  C   UNL     1      53.071  18.218  -5.223  1.00  0.00     0.163 C 
ATOM     12  O   UNL     1      53.504  17.503  -6.168  1.00  0.00    -0.294 OA
BRANCH  11  13
ATOM     13  C   UNL     1      51.785  17.851  -4.558  1.00  0.00    -0.002 C 
ATOM     14  C   UNL     1      50.586  18.133  -5.151  1.00  0.00    -0.069 C 
ATOM     15  C   UNL     1      49.269  17.919  -4.437  1.00  0.00     0.039 C 
ATOM     16  C   UNL     1      50.517  18.681  -6.559  1.00  0.00     0.039 C 
BRANCH  13  17
ATOM     17  C   UNL     1      51.870  17.242  -3.167  1.00  0.00     0.066 CG0
ATOM     18  G   UNL     1      53.041  16.290  -3.025  1.00  0.00     0.000 G0
ENDBRANCH  13  17
ENDBRANCH  11  13
ENDBRANCH  10  11
ENDBRANCH   1  10
TORSDOF 0
ENDMDL
MODEL 7
REMARK VINA RESULT:    -3.333      1.739      3.808
REMARK INTER + INTRA:          -4.530
REMARK INTER:                  -5.241
REMARK INTRA:                   0.712
REMARK UNBOUND:                 0.167
REMARK SMILES CC1=CCC(=C(C)C)C(=O)CC(C)=CCC1
REMARK SMILES IDX 12 1 14 2 13 3 15 4 16 5 2 6 1 7 3 8 11 10 9 11 10 12 5 13
REMARK SMILES IDX 6 14 7 15 8 16 4 17
REMARK H PARENT
REMARK Flexibility Score: 60.00
ROOT
ATOM      1  C   UNL     1      53.624  16.516  -5.359  1.00  0.00    -0.070 C 
ATOM      2  C   UNL     1      54.000  15.666  -4.378  1.00  0.00    -0.027 C 
ATOM      3  C   UNL     1      52.443  16.132  -6.214  1.00  0.00     0.039 C 
ENDROOT
BRANCH   2   4
ATOM      4  C   UNL     1      55.210  15.827  -3.484  1.00  0.00     0.032 C 
BRANCH   4   5
ATOM      5  C   UNL     1      54.898  15.871  -1.974  1.00  0.00     0.034 C 
BRANCH   5   6
ATOM      6  C   UNL     1      53.443  16.179  -1.674  1.00  0.00    -0.077 C 
ATOM      7  C   UNL     1      52.544  15.026  -1.302  1.00  0.00     0.039 C 
ATOM      8  C   UNL     1      52.883  17.408  -1.783  1.00  0.00    -0.023 CG0
ATOM      9  G   UNL     1      53.588  18.708  -2.119  1.00  0.00     0.000 G0
ENDBRANCH   5   6
ENDBRANCH   4   5
ENDBRANCH   2   4
BRANCH   1  10
ATOM     10  C   UNL     1      54.384  17.783  -5.695  1.00  0.00     0.111 C 
BRANCH  10  11
ATOM     11  C   UNL     1      54.604  18.640  -4.477  1.00  0.00     0.163 C 
ATOM     12  O   UNL     1      55.789  18.947  -4.171  1.00  0.00    -0.294 OA
BRANCH  11  13
ATOM     13  C   UNL     1      53.484  19.080  -3.593  1.00  0.00    -0.002 C 
ATOM     14  C   UNL     1      52.461  19.841  -4.087  1.00  0.00    -0.069 C 
ATOM     15  C   UNL     1      51.398  20.434  -3.189  1.00  0.00     0.039 C 
ATOM     16  C   UNL     1      52.345  20.133  -5.567  1.00  0.00     0.039 C 
BRANCH  13  17
ATOM     17  C   UNL     1      53.581  18.726  -2.118  1.00  0.00     0.066 CG0
ATOM     18  G   UNL     1      52.882  17.420  -1.791  1.00  0.00     0.000 G0
ENDBRANCH  13  17
ENDBRANCH  11  13
ENDBRANCH  10  11
ENDBRANCH   1  10
TORSDOF 0
ENDMDL
MODEL 8
REMARK VINA RESULT:    -3.302      2.317      3.960
REMARK INTER + INTRA:          -4.487
REMARK INTER:                  -4.888
REMARK INTRA:                   0.401
REMARK UNBOUND:                 0.167
REMARK SMILES CC1=CCC(=C(C)C)C(=O)CC(C)=CCC1
REMARK SMILES IDX 12 1 14 2 13 3 15 4 16 5 2 6 1 7 3 8 11 10 9 11 10 12 5 13
REMARK SMILES IDX 6 14 7 15 8 16 4 17
REMARK H PARENT
REMARK Flexibility Score: 60.00
ROOT
ATOM      1  C   UNL     1      53.912  17.514  -1.249  1.00  0.00    -0.070 C 
ATOM      2  C   UNL     1      53.932  18.693  -1.907  1.00  0.00    -0.027 C 
ATOM      3  C   UNL     1      52.645  17.129  -0.525  1.00  0.00     0.039 C 
ENDROOT
BRANCH   2   4
ATOM      4  C   UNL     1      55.132  19.295  -2.605  1.00  0.00     0.032 C 
BRANCH   4   5
ATOM      5  C   UNL     1      55.517  18.613  -3.935  1.00  0.00     0.034 C 
BRANCH   5   6
ATOM      6  C   UNL     1      54.315  18.181  -4.754  1.00  0.00    -0.077 C 
ATOM      7  C   UNL     1      53.468  19.262  -5.381  1.00  0.00     0.039 C 
ATOM      8  C   UNL     1      53.913  16.896  -4.903  1.00  0.00    -0.023 CG0
ATOM      9  G   UNL     1      54.611  15.653  -4.386  1.00  0.00     0.000 G0
ENDBRANCH   5   6
ENDBRANCH   4   5
ENDBRANCH   2   4
BRANCH   1  10
ATOM     10  C   UNL     1      55.122  16.610  -1.126  1.00  0.00     0.111 C 
BRANCH  10  11
ATOM     11  C   UNL     1      54.909  15.297  -1.832  1.00  0.00     0.163 C 
ATOM     12  O   UNL     1      55.534  14.286  -1.410  1.00  0.00    -0.294 OA
BRANCH  11  13
ATOM     13  C   UNL     1      54.040  15.169  -3.040  1.00  0.00    -0.002 C 
ATOM     14  C   UNL     1      52.816  14.566  -2.960  1.00  0.00    -0.069 C 
ATOM     15  C   UNL     1      51.982  14.279  -4.190  1.00  0.00     0.039 C 
ATOM     16  C   UNL     1      52.232  14.150  -1.628  1.00  0.00     0.039 C 
BRANCH  13  17
ATOM     17  C   UNL     1      54.614  15.648  -4.364  1.00  0.00     0.066 CG0
ATOM     18  G   UNL     1      53.921  16.896  -4.874  1.00  0.00     0.000 G0
ENDBRANCH  13  17
ENDBRANCH  11  13
ENDBRANCH  10  11
ENDBRANCH   1  10
TORSDOF 0
ENDMDL
MODEL 9
REMARK VINA RESULT:    -3.178      1.881      3.407
REMARK INTER + INTRA:          -4.311
REMARK INTER:                  -4.754
REMARK INTRA:                   0.443
REMARK UNBOUND:                 0.167
REMARK SMILES CC1=CCC(=C(C)C)C(=O)CC(C)=CCC1
REMARK SMILES IDX 12 1 14 2 13 3 15 4 16 5 2 6 1 7 3 8 11 10 9 11 10 12 5 13
REMARK SMILES IDX 6 14 7 15 8 16 4 17
REMARK H PARENT
REMARK Flexibility Score: 60.00
ROOT
ATOM      1  C   UNL     1      54.424  15.005  -3.367  1.00  0.00    -0.070 C 
ATOM      2  C   UNL     1      54.513  15.525  -4.611  1.00  0.00    -0.027 C 
ATOM      3  C   UNL     1      55.525  14.081  -2.908  1.00  0.00     0.039 C 
ENDROOT
BRANCH   2   4
ATOM      4  C   UNL     1      53.467  16.387  -5.284  1.00  0.00     0.032 C 
BRANCH   4   5
ATOM      5  C   UNL     1      53.957  17.788  -5.705  1.00  0.00     0.034 C 
BRANCH   5   6
ATOM      6  C   UNL     1      54.571  18.575  -4.562  1.00  0.00    -0.077 C 
ATOM      7  C   UNL     1      56.008  19.012  -4.703  1.00  0.00     0.039 C 
ATOM      8  C   UNL     1      53.936  18.852  -3.397  1.00  0.00    -0.023 CG0
ATOM      9  G   UNL     1      52.497  18.533  -3.041  1.00  0.00     0.000 G0
ENDBRANCH   5   6
ENDBRANCH   4   5
ENDBRANCH   2   4
BRANCH   1  10
ATOM     10  C   UNL     1      53.236  15.230  -2.455  1.00  0.00     0.111 C 
BRANCH  10  11
ATOM     11  C   UNL     1      53.360  16.521  -1.690  1.00  0.00     0.163 C 
ATOM     12  O   UNL     1      54.312  16.638  -0.871  1.00  0.00    -0.294 OA
BRANCH  11  13
ATOM     13  C   UNL     1      52.368  17.629  -1.822  1.00  0.00    -0.002 C 
ATOM     14  C   UNL     1      51.352  17.770  -0.918  1.00  0.00    -0.069 C 
ATOM     15  C   UNL     1      50.243  18.781  -1.110  1.00  0.00     0.039 C 
ATOM     16  C   UNL     1      51.285  16.912   0.326  1.00  0.00     0.039 C 
BRANCH  13  17
ATOM     17  C   UNL     1      52.484  18.524  -3.045  1.00  0.00     0.066 CG0
ATOM     18  G   UNL     1      53.925  18.842  -3.393  1.00  0.00     0.000 G0
ENDBRANCH  13  17
ENDBRANCH  11  13
ENDBRANCH  10  11
ENDBRANCH   1  10
TORSDOF 0
ENDMDL
