MODEL 1
REMARK VINA RESULT:    -3.946      0.000      0.000
REMARK INTER + INTRA:          -5.602
REMARK INTER:                  -4.984
REMARK INTRA:                  -0.618
REMARK UNBOUND:                -0.618
REMARK SMILES O=C(C=Cc1ccc(O)cc1)c1ccc(O)cc1O
REMARK SMILES IDX 4 1 3 2 5 3 6 4 7 5 8 6 11 7 10 8 9 9 2 11 1 12 12 13 18 14
REMARK SMILES IDX 13 15 17 16 14 17 15 18 19 19 16 21
REMARK H PARENT 9 10 19 20 16 22
REMARK Flexibility Score: inf
ROOT
ATOM      1  C   UNL     1      49.852  -7.031  17.976  1.00  0.00     0.012 C 
ATOM      2  C   UNL     1      49.118  -8.009  17.427  1.00  0.00     0.053 C 
ENDROOT
BRANCH   1   3
ATOM      3  C   UNL     1      51.204  -7.238  18.547  1.00  0.00    -0.025 A 
ATOM      4  C   UNL     1      52.027  -6.117  18.753  1.00  0.00     0.012 A 
ATOM      5  C   UNL     1      53.314  -6.265  19.280  1.00  0.00     0.047 A 
ATOM      6  C   UNL     1      53.801  -7.538  19.599  1.00  0.00     0.115 A 
ATOM      7  C   UNL     1      51.710  -8.517  18.857  1.00  0.00     0.012 A 
ATOM      8  C   UNL     1      52.997  -8.661  19.384  1.00  0.00     0.047 A 
BRANCH   6   9
ATOM      9  O   UNL     1      55.081  -7.698  20.124  1.00  0.00    -0.508 OA
ATOM     10  H   UNL     1      55.544  -6.951  20.629  1.00  0.00     0.293 HD
ENDBRANCH   6   9
ENDBRANCH   1   3
BRANCH   2  11
ATOM     11  C   UNL     1      47.765  -7.768  16.878  1.00  0.00     0.189 C 
ATOM     12  O   UNL     1      47.626  -7.315  15.710  1.00  0.00    -0.289 OA
BRANCH  11  13
ATOM     13  C   UNL     1      46.565  -8.084  17.684  1.00  0.00     0.064 A 
ATOM     14  C   UNL     1      45.406  -8.659  17.108  1.00  0.00     0.130 A 
ATOM     15  C   UNL     1      46.589  -7.842  19.070  1.00  0.00     0.020 A 
ATOM     16  C   UNL     1      44.324  -9.008  17.926  1.00  0.00     0.093 A 
ATOM     17  C   UNL     1      45.498  -8.181  19.872  1.00  0.00     0.047 A 
ATOM     18  C   UNL     1      44.366  -8.769  19.305  1.00  0.00     0.119 A 
BRANCH  14  19
ATOM     19  O   UNL     1      45.283  -8.872  15.733  1.00  0.00    -0.507 OA
ATOM     20  H   UNL     1      45.110  -8.128  15.070  1.00  0.00     0.293 HD
ENDBRANCH  14  19
BRANCH  18  21
ATOM     21  O   UNL     1      43.287  -9.109  20.117  1.00  0.00    -0.508 OA
ATOM     22  H   UNL     1      43.316  -9.919  20.726  1.00  0.00     0.293 HD
ENDBRANCH  18  21
ENDBRANCH  11  13
ENDBRANCH   2  11
TORSDOF 6
ENDMDL
MODEL 2
REMARK VINA RESULT:    -3.577      1.875      7.835
REMARK INTER + INTRA:          -5.136
REMARK INTER:                  -4.509
REMARK INTRA:                  -0.628
REMARK UNBOUND:                -0.618
REMARK SMILES O=C(C=Cc1ccc(O)cc1)c1ccc(O)cc1O
REMARK SMILES IDX 4 1 3 2 5 3 6 4 7 5 8 6 11 7 10 8 9 9 2 11 1 12 12 13 18 14
REMARK SMILES IDX 13 15 17 16 14 17 15 18 19 19 16 21
REMARK H PARENT 9 10 19 20 16 22
REMARK Flexibility Score: inf
ROOT
ATOM      1  C   UNL     1      49.454  -8.663  18.187  1.00  0.00     0.012 C 
ATOM      2  C   UNL     1      50.384  -7.703  18.296  1.00  0.00     0.053 C 
ENDROOT
BRANCH   1   3
ATOM      3  C   UNL     1      48.115  -8.449  17.589  1.00  0.00    -0.025 A 
ATOM      4  C   UNL     1      47.991  -7.541  16.523  1.00  0.00     0.012 A 
ATOM      5  C   UNL     1      46.745  -7.300  15.934  1.00  0.00     0.047 A 
ATOM      6  C   UNL     1      45.603  -7.954  16.411  1.00  0.00     0.115 A 
ATOM      7  C   UNL     1      46.956  -9.091  18.072  1.00  0.00     0.012 A 
ATOM      8  C   UNL     1      45.712  -8.847  17.481  1.00  0.00     0.047 A 
BRANCH   6   9
ATOM      9  O   UNL     1      44.358  -7.721  15.832  1.00  0.00    -0.508 OA
ATOM     10  H   UNL     1      43.771  -8.482  15.512  1.00  0.00     0.293 HD
ENDBRANCH   6   9
ENDBRANCH   1   3
BRANCH   2  11
ATOM     11  C   UNL     1      51.706  -7.950  18.911  1.00  0.00     0.189 C 
ATOM     12  O   UNL     1      52.058  -9.125  19.207  1.00  0.00    -0.289 OA
BRANCH  11  13
ATOM     13  C   UNL     1      52.638  -6.827  19.156  1.00  0.00     0.064 A 
ATOM     14  C   UNL     1      53.944  -6.805  18.611  1.00  0.00     0.130 A 
ATOM     15  C   UNL     1      52.200  -5.730  19.921  1.00  0.00     0.020 A 
ATOM     16  C   UNL     1      54.762  -5.686  18.810  1.00  0.00     0.093 A 
ATOM     17  C   UNL     1      53.030  -4.627  20.125  1.00  0.00     0.047 A 
ATOM     18  C   UNL     1      54.309  -4.598  19.567  1.00  0.00     0.119 A 
BRANCH  14  19
ATOM     19  O   UNL     1      54.472  -7.882  17.893  1.00  0.00    -0.507 OA
ATOM     20  H   UNL     1      54.766  -8.747  18.328  1.00  0.00     0.293 HD
ENDBRANCH  14  19
BRANCH  18  21
ATOM     21  O   UNL     1      55.124  -3.488  19.772  1.00  0.00    -0.508 OA
ATOM     22  H   UNL     1      56.126  -3.581  19.896  1.00  0.00     0.293 HD
ENDBRANCH  18  21
ENDBRANCH  11  13
ENDBRANCH   2  11
TORSDOF 6
ENDMDL
MODEL 3
REMARK VINA RESULT:    -3.527      2.211      7.757
REMARK INTER + INTRA:          -5.073
REMARK INTER:                  -4.628
REMARK INTRA:                  -0.445
REMARK UNBOUND:                -0.618
REMARK SMILES O=C(C=Cc1ccc(O)cc1)c1ccc(O)cc1O
REMARK SMILES IDX 4 1 3 2 5 3 6 4 7 5 8 6 11 7 10 8 9 9 2 11 1 12 12 13 18 14
REMARK SMILES IDX 13 15 17 16 14 17 15 18 19 19 16 21
REMARK H PARENT 9 10 19 20 16 22
REMARK Flexibility Score: inf
ROOT
ATOM      1  C   UNL     1      49.108  -8.029  18.480  1.00  0.00     0.012 C 
ATOM      2  C   UNL     1      50.385  -8.329  18.200  1.00  0.00     0.053 C 
ENDROOT
BRANCH   1   3
ATOM      3  C   UNL     1      48.012  -8.084  17.483  1.00  0.00    -0.025 A 
ATOM      4  C   UNL     1      46.979  -9.018  17.671  1.00  0.00     0.012 A 
ATOM      5  C   UNL     1      45.929  -9.112  16.751  1.00  0.00     0.047 A 
ATOM      6  C   UNL     1      45.904  -8.281  15.625  1.00  0.00     0.115 A 
ATOM      7  C   UNL     1      47.985  -7.262  16.338  1.00  0.00     0.012 A 
ATOM      8  C   UNL     1      46.934  -7.360  15.421  1.00  0.00     0.047 A 
BRANCH   6   9
ATOM      9  O   UNL     1      44.863  -8.367  14.703  1.00  0.00    -0.508 OA
ATOM     10  H   UNL     1      44.818  -9.114  14.021  1.00  0.00     0.293 HD
ENDBRANCH   6   9
ENDBRANCH   1   3
BRANCH   2  11
ATOM     11  C   UNL     1      51.456  -8.250  19.217  1.00  0.00     0.189 C 
ATOM     12  O   UNL     1      51.538  -9.125  20.121  1.00  0.00    -0.289 OA
BRANCH  11  13
ATOM     13  C   UNL     1      52.456  -7.160  19.165  1.00  0.00     0.064 A 
ATOM     14  C   UNL     1      53.472  -7.122  18.179  1.00  0.00     0.130 A 
ATOM     15  C   UNL     1      52.372  -6.111  20.098  1.00  0.00     0.020 A 
ATOM     16  C   UNL     1      54.349  -6.032  18.127  1.00  0.00     0.093 A 
ATOM     17  C   UNL     1      53.262  -5.037  20.044  1.00  0.00     0.047 A 
ATOM     18  C   UNL     1      54.248  -4.991  19.057  1.00  0.00     0.119 A 
BRANCH  14  19
ATOM     19  O   UNL     1      53.658  -8.157  17.258  1.00  0.00    -0.507 OA
ATOM     20  H   UNL     1      54.333  -8.898  17.386  1.00  0.00     0.293 HD
ENDBRANCH  14  19
BRANCH  18  21
ATOM     21  O   UNL     1      55.125  -3.909  19.011  1.00  0.00    -0.508 OA
ATOM     22  H   UNL     1      56.038  -3.947  19.450  1.00  0.00     0.293 HD
ENDBRANCH  18  21
ENDBRANCH  11  13
ENDBRANCH   2  11
TORSDOF 6
ENDMDL
MODEL 4
REMARK VINA RESULT:    -3.392      1.797      2.959
REMARK INTER + INTRA:          -4.903
REMARK INTER:                  -4.236
REMARK INTRA:                  -0.667
REMARK UNBOUND:                -0.618
REMARK SMILES O=C(C=Cc1ccc(O)cc1)c1ccc(O)cc1O
REMARK SMILES IDX 4 1 3 2 5 3 6 4 7 5 8 6 11 7 10 8 9 9 2 11 1 12 12 13 18 14
REMARK SMILES IDX 13 15 17 16 14 17 15 18 19 19 16 21
REMARK H PARENT 9 10 19 20 16 22
REMARK Flexibility Score: inf
ROOT
ATOM      1  C   UNL     1      50.487  -8.127  19.091  1.00  0.00     0.012 C 
ATOM      2  C   UNL     1      49.245  -7.623  19.141  1.00  0.00     0.053 C 
ENDROOT
BRANCH   1   3
ATOM      3  C   UNL     1      51.715  -7.302  19.189  1.00  0.00    -0.025 A 
ATOM      4  C   UNL     1      51.696  -6.161  20.010  1.00  0.00     0.012 A 
ATOM      5  C   UNL     1      52.827  -5.348  20.125  1.00  0.00     0.047 A 
ATOM      6  C   UNL     1      53.992  -5.658  19.412  1.00  0.00     0.115 A 
ATOM      7  C   UNL     1      52.887  -7.597  18.463  1.00  0.00     0.012 A 
ATOM      8  C   UNL     1      54.017  -6.781  18.581  1.00  0.00     0.047 A 
BRANCH   6   9
ATOM      9  O   UNL     1      55.125  -4.854  19.520  1.00  0.00    -0.508 OA
ATOM     10  H   UNL     1      56.051  -5.253  19.615  1.00  0.00     0.293 HD
ENDBRANCH   6   9
ENDBRANCH   1   3
BRANCH   2  11
ATOM     11  C   UNL     1      48.042  -8.476  19.026  1.00  0.00     0.189 C 
ATOM     12  O   UNL     1      47.626  -9.123  20.025  1.00  0.00    -0.289 OA
BRANCH  11  13
ATOM     13  C   UNL     1      47.301  -8.555  17.748  1.00  0.00     0.064 A 
ATOM     14  C   UNL     1      45.905  -8.327  17.676  1.00  0.00     0.130 A 
ATOM     15  C   UNL     1      48.010  -8.824  16.562  1.00  0.00     0.020 A 
ATOM     16  C   UNL     1      45.262  -8.339  16.432  1.00  0.00     0.093 A 
ATOM     17  C   UNL     1      47.354  -8.848  15.330  1.00  0.00     0.047 A 
ATOM     18  C   UNL     1      45.982  -8.601  15.260  1.00  0.00     0.119 A 
BRANCH  14  19
ATOM     19  O   UNL     1      45.124  -8.114  18.815  1.00  0.00    -0.507 OA
ATOM     20  H   UNL     1      44.321  -8.682  19.051  1.00  0.00     0.293 HD
ENDBRANCH  14  19
BRANCH  18  21
ATOM     21  O   UNL     1      45.342  -8.620  14.023  1.00  0.00    -0.508 OA
ATOM     22  H   UNL     1      44.499  -8.083  13.853  1.00  0.00     0.293 HD
ENDBRANCH  18  21
ENDBRANCH  11  13
ENDBRANCH   2  11
TORSDOF 6
ENDMDL
MODEL 5
REMARK VINA RESULT:    -2.971      1.045      1.629
REMARK INTER + INTRA:          -4.371
REMARK INTER:                  -4.704
REMARK INTRA:                   0.332
REMARK UNBOUND:                -0.618
REMARK SMILES O=C(C=Cc1ccc(O)cc1)c1ccc(O)cc1O
REMARK SMILES IDX 4 1 3 2 5 3 6 4 7 5 8 6 11 7 10 8 9 9 2 11 1 12 12 13 18 14
REMARK SMILES IDX 13 15 17 16 14 17 15 18 19 19 16 21
REMARK H PARENT 9 10 19 20 16 22
REMARK Flexibility Score: inf
ROOT
ATOM      1  C   UNL     1      49.792  -6.967  17.840  1.00  0.00     0.012 C 
ATOM      2  C   UNL     1      49.041  -8.049  17.590  1.00  0.00     0.053 C 
ENDROOT
BRANCH   1   3
ATOM      3  C   UNL     1      51.160  -7.027  18.408  1.00  0.00    -0.025 A 
ATOM      4  C   UNL     1      51.857  -5.824  18.615  1.00  0.00     0.012 A 
ATOM      5  C   UNL     1      53.153  -5.833  19.139  1.00  0.00     0.047 A 
ATOM      6  C   UNL     1      53.777  -7.047  19.452  1.00  0.00     0.115 A 
ATOM      7  C   UNL     1      51.803  -8.245  18.712  1.00  0.00     0.012 A 
ATOM      8  C   UNL     1      53.100  -8.250  19.235  1.00  0.00     0.047 A 
BRANCH   6   9
ATOM      9  O   UNL     1      55.069  -7.067  19.974  1.00  0.00    -0.508 OA
ATOM     10  H   UNL     1      55.563  -6.212  20.199  1.00  0.00     0.293 HD
ENDBRANCH   6   9
ENDBRANCH   1   3
BRANCH   2  11
ATOM     11  C   UNL     1      47.674  -7.950  17.036  1.00  0.00     0.189 C 
ATOM     12  O   UNL     1      47.499  -7.595  15.838  1.00  0.00    -0.289 OA
BRANCH  11  13
ATOM     13  C   UNL     1      46.502  -8.294  17.871  1.00  0.00     0.064 A 
ATOM     14  C   UNL     1      46.533  -8.193  19.284  1.00  0.00     0.130 A 
ATOM     15  C   UNL     1      45.308  -8.695  17.243  1.00  0.00     0.020 A 
ATOM     16  C   UNL     1      45.375  -8.459  20.025  1.00  0.00     0.093 A 
ATOM     17  C   UNL     1      44.165  -8.971  17.995  1.00  0.00     0.047 A 
ATOM     18  C   UNL     1      44.193  -8.849  19.385  1.00  0.00     0.119 A 
BRANCH  14  19
ATOM     19  O   UNL     1      47.697  -7.862  19.983  1.00  0.00    -0.507 OA
ATOM     20  H   UNL     1      47.780  -7.937  20.988  1.00  0.00     0.293 HD
ENDBRANCH  14  19
BRANCH  18  21
ATOM     21  O   UNL     1      43.043  -9.120  20.122  1.00  0.00    -0.508 OA
ATOM     22  H   UNL     1      42.324  -9.744  19.774  1.00  0.00     0.293 HD
ENDBRANCH  18  21
ENDBRANCH  11  13
ENDBRANCH   2  11
TORSDOF 6
ENDMDL
MODEL 6
REMARK VINA RESULT:    -2.625      1.554      1.987
REMARK INTER + INTRA:          -3.933
REMARK INTER:                  -3.319
REMARK INTRA:                  -0.615
REMARK UNBOUND:                -0.618
REMARK SMILES O=C(C=Cc1ccc(O)cc1)c1ccc(O)cc1O
REMARK SMILES IDX 4 1 3 2 5 3 6 4 7 5 8 6 11 7 10 8 9 9 2 11 1 12 12 13 18 14
REMARK SMILES IDX 13 15 17 16 14 17 15 18 19 19 16 21
REMARK H PARENT 9 10 19 20 16 22
REMARK Flexibility Score: inf
ROOT
ATOM      1  C   UNL     1      51.206  -7.139  17.741  1.00  0.00     0.012 C 
ATOM      2  C   UNL     1      50.053  -7.453  18.350  1.00  0.00     0.053 C 
ENDROOT
BRANCH   1   3
ATOM      3  C   UNL     1      52.252  -6.283  18.350  1.00  0.00    -0.025 A 
ATOM      4  C   UNL     1      51.872  -5.345  19.324  1.00  0.00     0.012 A 
ATOM      5  C   UNL     1      52.824  -4.510  19.919  1.00  0.00     0.047 A 
ATOM      6  C   UNL     1      54.168  -4.594  19.538  1.00  0.00     0.115 A 
ATOM      7  C   UNL     1      53.607  -6.349  17.963  1.00  0.00     0.012 A 
ATOM      8  C   UNL     1      54.555  -5.513  18.559  1.00  0.00     0.047 A 
BRANCH   6   9
ATOM      9  O   UNL     1      55.125  -3.767  20.124  1.00  0.00    -0.508 OA
ATOM     10  H   UNL     1      55.034  -2.759  20.110  1.00  0.00     0.293 HD
ENDBRANCH   6   9
ENDBRANCH   1   3
BRANCH   2  11
ATOM     11  C   UNL     1      49.025  -8.299  17.706  1.00  0.00     0.189 C 
ATOM     12  O   UNL     1      49.331  -9.038  16.731  1.00  0.00    -0.289 OA
BRANCH  11  13
ATOM     13  C   UNL     1      47.637  -8.309  18.219  1.00  0.00     0.064 A 
ATOM     14  C   UNL     1      46.536  -8.647  17.394  1.00  0.00     0.130 A 
ATOM     15  C   UNL     1      47.407  -8.013  19.575  1.00  0.00     0.020 A 
ATOM     16  C   UNL     1      45.251  -8.714  17.944  1.00  0.00     0.093 A 
ATOM     17  C   UNL     1      46.118  -8.069  20.108  1.00  0.00     0.047 A 
ATOM     18  C   UNL     1      45.038  -8.425  19.298  1.00  0.00     0.119 A 
BRANCH  14  19
ATOM     19  O   UNL     1      46.677  -8.893  16.025  1.00  0.00    -0.507 OA
ATOM     20  H   UNL     1      47.528  -8.704  15.513  1.00  0.00     0.293 HD
ENDBRANCH  14  19
BRANCH  18  21
ATOM     21  O   UNL     1      43.758  -8.485  19.844  1.00  0.00    -0.508 OA
ATOM     22  H   UNL     1      43.138  -7.683  19.832  1.00  0.00     0.293 HD
ENDBRANCH  18  21
ENDBRANCH  11  13
ENDBRANCH   2  11
TORSDOF 6
ENDMDL
MODEL 7
REMARK VINA RESULT:    -1.144      1.685      7.598
REMARK INTER + INTRA:          -2.063
REMARK INTER:                  -1.449
REMARK INTRA:                  -0.614
REMARK UNBOUND:                -0.618
REMARK SMILES O=C(C=Cc1ccc(O)cc1)c1ccc(O)cc1O
REMARK SMILES IDX 4 1 3 2 5 3 6 4 7 5 8 6 11 7 10 8 9 9 2 11 1 12 12 13 18 14
REMARK SMILES IDX 13 15 17 16 14 17 15 18 19 19 16 21
REMARK H PARENT 9 10 19 20 16 22
REMARK Flexibility Score: inf
ROOT
ATOM      1  C   UNL     1      48.388  -7.054  17.077  1.00  0.00     0.012 C 
ATOM      2  C   UNL     1      49.208  -6.772  18.100  1.00  0.00     0.053 C 
ENDROOT
BRANCH   1   3
ATOM      3  C   UNL     1      47.025  -7.613  17.244  1.00  0.00    -0.025 A 
ATOM      4  C   UNL     1      46.114  -7.496  16.180  1.00  0.00     0.012 A 
ATOM      5  C   UNL     1      44.815  -8.000  16.296  1.00  0.00     0.047 A 
ATOM      6  C   UNL     1      44.404  -8.619  17.482  1.00  0.00     0.115 A 
ATOM      7  C   UNL     1      46.597  -8.225  18.440  1.00  0.00     0.012 A 
ATOM      8  C   UNL     1      45.297  -8.728  18.552  1.00  0.00     0.047 A 
BRANCH   6   9
ATOM      9  O   UNL     1      43.112  -9.125  17.609  1.00  0.00    -0.508 OA
ATOM     10  H   UNL     1      42.824  -9.969  17.129  1.00  0.00     0.293 HD
ENDBRANCH   6   9
ENDBRANCH   1   3
BRANCH   2  11
ATOM     11  C   UNL     1      50.567  -6.227  17.895  1.00  0.00     0.189 C 
ATOM     12  O   UNL     1      50.728  -5.145  17.267  1.00  0.00    -0.289 OA
BRANCH  11  13
ATOM     13  C   UNL     1      51.746  -6.930  18.449  1.00  0.00     0.064 A 
ATOM     14  C   UNL     1      52.492  -6.402  19.530  1.00  0.00     0.130 A 
ATOM     15  C   UNL     1      52.112  -8.178  17.912  1.00  0.00     0.020 A 
ATOM     16  C   UNL     1      53.554  -7.141  20.067  1.00  0.00     0.093 A 
ATOM     17  C   UNL     1      53.182  -8.897  18.447  1.00  0.00     0.047 A 
ATOM     18  C   UNL     1      53.901  -8.385  19.528  1.00  0.00     0.119 A 
BRANCH  14  19
ATOM     19  O   UNL     1      52.228  -5.143  20.076  1.00  0.00    -0.507 OA
ATOM     20  H   UNL     1      51.437  -4.576  19.804  1.00  0.00     0.293 HD
ENDBRANCH  14  19
BRANCH  18  21
ATOM     21  O   UNL     1      54.962  -9.117  20.057  1.00  0.00    -0.508 OA
ATOM     22  H   UNL     1      54.948  -9.458  21.011  1.00  0.00     0.293 HD
ENDBRANCH  18  21
ENDBRANCH  11  13
ENDBRANCH   2  11
TORSDOF 6
ENDMDL
