MODEL 1
REMARK VINA RESULT:    -3.636      0.000      0.000
REMARK INTER + INTRA:          -4.321
REMARK INTER:                  -4.274
REMARK INTRA:                  -0.047
REMARK UNBOUND:                -0.047
REMARK SMILES CCCCC(=O)[O-]
REMARK SMILES IDX 4 1 5 2 6 3 7 4 3 5 2 6 1 7
REMARK H PARENT
REMARK Flexibility Score: inf
ROOT
ATOM      1  C   UNL     1     -30.032 -20.901 -24.080  1.00  0.00     0.053 C 
ENDROOT
BRANCH   1   2
ATOM      2  C   UNL     1     -30.951 -21.069 -22.909  1.00  0.00     0.041 C 
ATOM      3  O   UNL     1     -31.910 -20.272 -22.737  1.00  0.00    -0.550 OA
ATOM      4  O   UNL     1     -30.767 -22.125 -22.026  1.00  0.00    -0.550 OA
ENDBRANCH   1   2
BRANCH   1   5
ATOM      5  C   UNL     1     -30.690 -20.100 -25.215  1.00  0.00     0.006 C 
BRANCH   5   6
ATOM      6  C   UNL     1     -30.381 -20.637 -26.625  1.00  0.00    -0.003 C 
ATOM      7  C   UNL     1     -30.752 -22.110 -26.794  1.00  0.00     0.004 C 
ENDBRANCH   5   6
ENDBRANCH   1   5
TORSDOF 3
ENDMDL
MODEL 2
REMARK VINA RESULT:    -3.551      1.884      2.310
REMARK INTER + INTRA:          -4.221
REMARK INTER:                  -4.141
REMARK INTRA:                  -0.080
REMARK UNBOUND:                -0.047
REMARK SMILES CCCCC(=O)[O-]
REMARK SMILES IDX 4 1 5 2 6 3 7 4 3 5 2 6 1 7
REMARK H PARENT
REMARK Flexibility Score: inf
ROOT
ATOM      1  C   UNL     1     -30.493 -21.767 -22.788  1.00  0.00     0.053 C 
ENDROOT
BRANCH   1   2
ATOM      2  C   UNL     1     -29.074 -21.475 -22.403  1.00  0.00     0.041 C 
ATOM      3  O   UNL     1     -28.761 -21.341 -21.191  1.00  0.00    -0.550 OA
ATOM      4  O   UNL     1     -28.093 -21.383 -23.382  1.00  0.00    -0.550 OA
ENDBRANCH   1   2
BRANCH   1   5
ATOM      5  C   UNL     1     -30.988 -20.835 -23.904  1.00  0.00     0.006 C 
BRANCH   5   6
ATOM      6  C   UNL     1     -31.004 -21.479 -25.302  1.00  0.00    -0.003 C 
ATOM      7  C   UNL     1     -30.297 -20.629 -26.357  1.00  0.00     0.004 C 
ENDBRANCH   5   6
ENDBRANCH   1   5
TORSDOF 3
ENDMDL
MODEL 3
REMARK VINA RESULT:    -3.402      2.214      3.455
REMARK INTER + INTRA:          -4.046
REMARK INTER:                  -3.984
REMARK INTRA:                  -0.062
REMARK UNBOUND:                -0.047
REMARK SMILES CCCCC(=O)[O-]
REMARK SMILES IDX 4 1 5 2 6 3 7 4 3 5 2 6 1 7
REMARK H PARENT
REMARK Flexibility Score: inf
ROOT
ATOM      1  C   UNL     1     -31.142 -20.697 -23.337  1.00  0.00     0.053 C 
ENDROOT
BRANCH   1   2
ATOM      2  C   UNL     1     -30.899 -20.629 -24.814  1.00  0.00     0.041 C 
ATOM      3  O   UNL     1     -30.464 -19.570 -25.337  1.00  0.00    -0.550 OA
ATOM      4  O   UNL     1     -31.122 -21.747 -25.608  1.00  0.00    -0.550 OA
ENDBRANCH   1   2
BRANCH   1   5
ATOM      5  C   UNL     1     -30.385 -21.864 -22.684  1.00  0.00     0.006 C 
BRANCH   5   6
ATOM      6  C   UNL     1     -29.034 -21.468 -22.061  1.00  0.00    -0.003 C 
ATOM      7  C   UNL     1     -27.881 -21.515 -23.063  1.00  0.00     0.004 C 
ENDBRANCH   5   6
ENDBRANCH   1   5
TORSDOF 3
ENDMDL
MODEL 4
REMARK VINA RESULT:    -3.273      2.575      3.257
REMARK INTER + INTRA:          -3.894
REMARK INTER:                  -3.826
REMARK INTRA:                  -0.068
REMARK UNBOUND:                -0.047
REMARK SMILES CCCCC(=O)[O-]
REMARK SMILES IDX 4 1 5 2 6 3 7 4 3 5 2 6 1 7
REMARK H PARENT
REMARK Flexibility Score: inf
ROOT
ATOM      1  C   UNL     1     -30.261 -21.837 -22.342  1.00  0.00     0.053 C 
ENDROOT
BRANCH   1   2
ATOM      2  C   UNL     1     -28.832 -21.756 -21.898  1.00  0.00     0.041 C 
ATOM      3  O   UNL     1     -28.527 -21.990 -20.699  1.00  0.00    -0.550 OA
ATOM      4  O   UNL     1     -27.835 -21.452 -22.816  1.00  0.00    -0.550 OA
ENDBRANCH   1   2
BRANCH   1   5
ATOM      5  C   UNL     1     -30.438 -21.363 -23.793  1.00  0.00     0.006 C 
BRANCH   5   6
ATOM      6  C   UNL     1     -31.310 -20.103 -23.941  1.00  0.00    -0.003 C 
ATOM      7  C   UNL     1     -32.137 -19.802 -22.691  1.00  0.00     0.004 C 
ENDBRANCH   5   6
ENDBRANCH   1   5
TORSDOF 3
ENDMDL
MODEL 5
REMARK VINA RESULT:    -3.257      2.372      3.898
REMARK INTER + INTRA:          -3.875
REMARK INTER:                  -3.849
REMARK INTRA:                  -0.026
REMARK UNBOUND:                -0.047
REMARK SMILES CCCCC(=O)[O-]
REMARK SMILES IDX 4 1 5 2 6 3 7 4 3 5 2 6 1 7
REMARK H PARENT
REMARK Flexibility Score: inf
ROOT
ATOM      1  C   UNL     1     -29.832 -21.221 -24.187  1.00  0.00     0.053 C 
ENDROOT
BRANCH   1   2
ATOM      2  C   UNL     1     -30.513 -21.075 -25.514  1.00  0.00     0.041 C 
ATOM      3  O   UNL     1     -30.909 -22.094 -26.138  1.00  0.00    -0.550 OA
ATOM      4  O   UNL     1     -30.737 -19.811 -26.045  1.00  0.00    -0.550 OA
ENDBRANCH   1   2
BRANCH   1   5
ATOM      5  C   UNL     1     -30.840 -21.290 -23.029  1.00  0.00     0.006 C 
BRANCH   5   6
ATOM      6  C   UNL     1     -30.362 -22.125 -21.828  1.00  0.00    -0.003 C 
ATOM      7  C   UNL     1     -28.850 -22.055 -21.620  1.00  0.00     0.004 C 
ENDBRANCH   5   6
ENDBRANCH   1   5
TORSDOF 3
ENDMDL
MODEL 6
REMARK VINA RESULT:    -3.090      1.699      2.846
REMARK INTER + INTRA:          -3.679
REMARK INTER:                  -3.576
REMARK INTRA:                  -0.103
REMARK UNBOUND:                -0.047
REMARK SMILES CCCCC(=O)[O-]
REMARK SMILES IDX 4 1 5 2 6 3 7 4 3 5 2 6 1 7
REMARK H PARENT
REMARK Flexibility Score: inf
ROOT
ATOM      1  C   UNL     1     -31.072 -20.196 -24.141  1.00  0.00     0.053 C 
ENDROOT
BRANCH   1   2
ATOM      2  C   UNL     1     -31.813 -20.185 -22.839  1.00  0.00     0.041 C 
ATOM      3  O   UNL     1     -31.744 -21.174 -22.063  1.00  0.00    -0.550 OA
ATOM      4  O   UNL     1     -32.554 -19.070 -22.470  1.00  0.00    -0.550 OA
ENDBRANCH   1   2
BRANCH   1   5
ATOM      5  C   UNL     1     -30.077 -21.364 -24.225  1.00  0.00     0.006 C 
BRANCH   5   6
ATOM      6  C   UNL     1     -28.653 -21.012 -23.758  1.00  0.00    -0.003 C 
ATOM      7  C   UNL     1     -28.276 -21.687 -22.440  1.00  0.00     0.004 C 
ENDBRANCH   5   6
ENDBRANCH   1   5
TORSDOF 3
ENDMDL
MODEL 7
REMARK VINA RESULT:    -2.849      2.311      3.534
REMARK INTER + INTRA:          -3.396
REMARK INTER:                  -3.440
REMARK INTRA:                   0.044
REMARK UNBOUND:                -0.047
REMARK SMILES CCCCC(=O)[O-]
REMARK SMILES IDX 4 1 5 2 6 3 7 4 3 5 2 6 1 7
REMARK H PARENT
REMARK Flexibility Score: inf
ROOT
ATOM      1  C   UNL     1     -29.717 -20.533 -24.530  1.00  0.00     0.053 C 
ENDROOT
BRANCH   1   2
ATOM      2  C   UNL     1     -30.530 -20.887 -25.737  1.00  0.00     0.041 C 
ATOM      3  O   UNL     1     -30.622 -20.079 -26.698  1.00  0.00    -0.550 OA
ATOM      4  O   UNL     1     -31.160 -22.122 -25.814  1.00  0.00    -0.550 OA
ENDBRANCH   1   2
BRANCH   1   5
ATOM      5  C   UNL     1     -30.259 -21.202 -23.257  1.00  0.00     0.006 C 
BRANCH   5   6
ATOM      6  C   UNL     1     -31.715 -20.830 -22.923  1.00  0.00    -0.003 C 
ATOM      7  C   UNL     1     -31.902 -19.337 -22.658  1.00  0.00     0.004 C 
ENDBRANCH   5   6
ENDBRANCH   1   5
TORSDOF 3
ENDMDL
MODEL 8
REMARK VINA RESULT:    -2.222      3.745      5.568
REMARK INTER + INTRA:          -2.659
REMARK INTER:                  -2.638
REMARK INTRA:                  -0.021
REMARK UNBOUND:                -0.047
REMARK SMILES CCCCC(=O)[O-]
REMARK SMILES IDX 4 1 5 2 6 3 7 4 3 5 2 6 1 7
REMARK H PARENT
REMARK Flexibility Score: inf
ROOT
ATOM      1  C   UNL     1     -27.984 -21.516 -21.501  1.00  0.00     0.053 C 
ENDROOT
BRANCH   1   2
ATOM      2  C   UNL     1     -29.000 -21.460 -22.600  1.00  0.00     0.041 C 
ATOM      3  O   UNL     1     -28.657 -21.121 -23.763  1.00  0.00    -0.550 OA
ATOM      4  O   UNL     1     -30.319 -21.813 -22.347  1.00  0.00    -0.550 OA
ENDBRANCH   1   2
BRANCH   1   5
ATOM      5  C   UNL     1     -28.564 -22.124 -20.214  1.00  0.00     0.006 C 
BRANCH   5   6
ATOM      6  C   UNL     1     -27.794 -21.744 -18.936  1.00  0.00    -0.003 C 
ATOM      7  C   UNL     1     -28.542 -22.121 -17.658  1.00  0.00     0.004 C 
ENDBRANCH   5   6
ENDBRANCH   1   5
TORSDOF 3
ENDMDL
MODEL 9
REMARK VINA RESULT:    -1.980      2.623      3.408
REMARK INTER + INTRA:          -2.375
REMARK INTER:                  -2.344
REMARK INTRA:                  -0.031
REMARK UNBOUND:                -0.047
REMARK SMILES CCCCC(=O)[O-]
REMARK SMILES IDX 4 1 5 2 6 3 7 4 3 5 2 6 1 7
REMARK H PARENT
REMARK Flexibility Score: inf
ROOT
ATOM      1  C   UNL     1     -28.694 -22.114 -21.790  1.00  0.00     0.053 C 
ENDROOT
BRANCH   1   2
ATOM      2  C   UNL     1     -28.477 -21.408 -20.487  1.00  0.00     0.041 C 
ATOM      3  O   UNL     1     -28.674 -20.167 -20.398  1.00  0.00    -0.550 OA
ATOM      4  O   UNL     1     -28.089 -22.125 -19.362  1.00  0.00    -0.550 OA
ENDBRANCH   1   2
BRANCH   1   5
ATOM      5  C   UNL     1     -30.175 -22.117 -22.201  1.00  0.00     0.006 C 
BRANCH   5   6
ATOM      6  C   UNL     1     -30.556 -20.997 -23.187  1.00  0.00    -0.003 C 
ATOM      7  C   UNL     1     -30.683 -21.491 -24.627  1.00  0.00     0.004 C 
ENDBRANCH   5   6
ENDBRANCH   1   5
TORSDOF 3
ENDMDL
