MODEL 1
REMARK VINA RESULT:    -6.007      0.000      0.000
REMARK INTER + INTRA:          -6.804
REMARK INTER:                  -6.709
REMARK INTRA:                  -0.095
REMARK UNBOUND:                -0.095
REMARK SMILES CCc1ccc(O)cc1O
REMARK SMILES IDX 3 1 9 2 8 3 6 4 5 5 4 6 2 7 1 8 10 9 7 11
REMARK H PARENT 10 10 7 12
REMARK Flexibility Score: inf
ROOT
ATOM      1  C   UNL     1      84.904  69.266 105.000  1.00  0.00    -0.006 A 
ATOM      2  C   UNL     1      85.576  69.463 103.777  1.00  0.00     0.122 A 
ATOM      3  C   UNL     1      86.831  68.874 103.567  1.00  0.00     0.092 A 
ATOM      4  C   UNL     1      87.426  68.099 104.572  1.00  0.00     0.119 A 
ATOM      5  C   UNL     1      86.766  67.915 105.789  1.00  0.00     0.047 A 
ATOM      6  C   UNL     1      85.515  68.499 106.005  1.00  0.00     0.011 A 
ENDROOT
BRANCH   1   7
ATOM      7  C   UNL     1      83.567  69.913 105.263  1.00  0.00     0.036 C 
ATOM      8  C   UNL     1      83.748  71.308 105.854  1.00  0.00     0.009 C 
ENDBRANCH   1   7
BRANCH   2   9
ATOM      9  O   UNL     1      84.998  70.244 102.776  1.00  0.00    -0.508 OA
ATOM     10  H   UNL     1      85.202  70.087 101.795  1.00  0.00     0.293 HD
ENDBRANCH   2   9
BRANCH   4  11
ATOM     11  O   UNL     1      88.673  67.510 104.371  1.00  0.00    -0.508 OA
ATOM     12  H   UNL     1      88.791  66.723 103.744  1.00  0.00     0.293 HD
ENDBRANCH   4  11
TORSDOF 3
ENDMDL
MODEL 2
REMARK VINA RESULT:    -5.980      1.307      3.494
REMARK INTER + INTRA:          -6.774
REMARK INTER:                  -6.712
REMARK INTRA:                  -0.062
REMARK UNBOUND:                -0.095
REMARK SMILES CCc1ccc(O)cc1O
REMARK SMILES IDX 3 1 9 2 8 3 6 4 5 5 4 6 2 7 1 8 10 9 7 11
REMARK H PARENT 10 10 7 12
REMARK Flexibility Score: inf
ROOT
ATOM      1  C   UNL     1      85.375  68.889 104.965  1.00  0.00    -0.006 A 
ATOM      2  C   UNL     1      86.154  68.994 103.795  1.00  0.00     0.122 A 
ATOM      3  C   UNL     1      85.946  70.063 102.911  1.00  0.00     0.092 A 
ATOM      4  C   UNL     1      84.960  71.022 103.180  1.00  0.00     0.119 A 
ATOM      5  C   UNL     1      84.180  70.911 104.333  1.00  0.00     0.047 A 
ATOM      6  C   UNL     1      84.381  69.848 105.218  1.00  0.00     0.011 A 
ENDROOT
BRANCH   1   7
ATOM      7  C   UNL     1      85.556  67.733 105.918  1.00  0.00     0.036 C 
ATOM      8  C   UNL     1      86.711  68.001 106.878  1.00  0.00     0.009 C 
ENDBRANCH   1   7
BRANCH   2   9
ATOM      9  O   UNL     1      87.128  68.036 103.512  1.00  0.00    -0.508 OA
ATOM     10  H   UNL     1      87.737  68.119 102.706  1.00  0.00     0.293 HD
ENDBRANCH   2   9
BRANCH   4  11
ATOM     11  O   UNL     1      84.749  72.087 102.307  1.00  0.00    -0.508 OA
ATOM     12  H   UNL     1      85.228  72.972 102.427  1.00  0.00     0.293 HD
ENDBRANCH   4  11
TORSDOF 3
ENDMDL
MODEL 3
REMARK VINA RESULT:    -5.772      1.623      2.500
REMARK INTER + INTRA:          -6.542
REMARK INTER:                  -6.438
REMARK INTRA:                  -0.103
REMARK UNBOUND:                -0.095
REMARK SMILES CCc1ccc(O)cc1O
REMARK SMILES IDX 3 1 9 2 8 3 6 4 5 5 4 6 2 7 1 8 10 9 7 11
REMARK H PARENT 10 10 7 12
REMARK Flexibility Score: inf
ROOT
ATOM      1  C   UNL     1      85.514  69.826 103.595  1.00  0.00    -0.006 A 
ATOM      2  C   UNL     1      84.910  69.634 104.854  1.00  0.00     0.122 A 
ATOM      3  C   UNL     1      85.532  68.817 105.810  1.00  0.00     0.092 A 
ATOM      4  C   UNL     1      86.745  68.181 105.515  1.00  0.00     0.119 A 
ATOM      5  C   UNL     1      87.337  68.361 104.262  1.00  0.00     0.047 A 
ATOM      6  C   UNL     1      86.723  69.174 103.305  1.00  0.00     0.011 A 
ENDROOT
BRANCH   1   7
ATOM      7  C   UNL     1      84.851  70.675 102.539  1.00  0.00     0.036 C 
ATOM      8  C   UNL     1      85.490  72.059 102.479  1.00  0.00     0.009 C 
ENDBRANCH   1   7
BRANCH   2   9
ATOM      9  O   UNL     1      83.695  70.251 105.152  1.00  0.00    -0.508 OA
ATOM     10  H   UNL     1      82.856  69.713 105.336  1.00  0.00     0.293 HD
ENDBRANCH   2   9
BRANCH   4  11
ATOM     11  O   UNL     1      87.369  67.368 106.459  1.00  0.00    -0.508 OA
ATOM     12  H   UNL     1      87.710  67.743 107.337  1.00  0.00     0.293 HD
ENDBRANCH   4  11
TORSDOF 3
ENDMDL
MODEL 4
REMARK VINA RESULT:    -5.649     10.179     11.087
REMARK INTER + INTRA:          -6.405
REMARK INTER:                  -6.319
REMARK INTRA:                  -0.086
REMARK UNBOUND:                -0.095
REMARK SMILES CCc1ccc(O)cc1O
REMARK SMILES IDX 3 1 9 2 8 3 6 4 5 5 4 6 2 7 1 8 10 9 7 11
REMARK H PARENT 10 10 7 12
REMARK Flexibility Score: inf
ROOT
ATOM      1  C   UNL     1      79.083  61.854 105.941  1.00  0.00    -0.006 A 
ATOM      2  C   UNL     1      78.190  60.880 106.430  1.00  0.00     0.122 A 
ATOM      3  C   UNL     1      77.346  61.184 107.509  1.00  0.00     0.092 A 
ATOM      4  C   UNL     1      77.396  62.448 108.111  1.00  0.00     0.119 A 
ATOM      5  C   UNL     1      78.291  63.409 107.635  1.00  0.00     0.047 A 
ATOM      6  C   UNL     1      79.134  63.114 106.560  1.00  0.00     0.011 A 
ENDROOT
BRANCH   1   7
ATOM      7  C   UNL     1      80.022  61.545 104.801  1.00  0.00     0.036 C 
ATOM      8  C   UNL     1      81.154  62.565 104.741  1.00  0.00     0.009 C 
ENDBRANCH   1   7
BRANCH   2   9
ATOM      9  O   UNL     1      78.143  59.614 105.846  1.00  0.00    -0.508 OA
ATOM     10  H   UNL     1      78.983  59.141 105.533  1.00  0.00     0.293 HD
ENDBRANCH   2   9
BRANCH   4  11
ATOM     11  O   UNL     1      76.561  62.757 109.183  1.00  0.00    -0.508 OA
ATOM     12  H   UNL     1      75.560  62.861 109.062  1.00  0.00     0.293 HD
ENDBRANCH   4  11
TORSDOF 3
ENDMDL
MODEL 5
REMARK VINA RESULT:    -5.640      2.159      3.724
REMARK INTER + INTRA:          -6.395
REMARK INTER:                  -6.308
REMARK INTRA:                  -0.087
REMARK UNBOUND:                -0.095
REMARK SMILES CCc1ccc(O)cc1O
REMARK SMILES IDX 3 1 9 2 8 3 6 4 5 5 4 6 2 7 1 8 10 9 7 11
REMARK H PARENT 10 10 7 12
REMARK Flexibility Score: inf
ROOT
ATOM      1  C   UNL     1      85.702  68.873 104.691  1.00  0.00    -0.006 A 
ATOM      2  C   UNL     1      84.507  69.618 104.753  1.00  0.00     0.122 A 
ATOM      3  C   UNL     1      84.313  70.700 103.881  1.00  0.00     0.092 A 
ATOM      4  C   UNL     1      85.306  71.052 102.958  1.00  0.00     0.119 A 
ATOM      5  C   UNL     1      86.495  70.321 102.905  1.00  0.00     0.047 A 
ATOM      6  C   UNL     1      86.696  69.242 103.770  1.00  0.00     0.011 A 
ENDROOT
BRANCH   1   7
ATOM      7  C   UNL     1      85.949  67.723 105.636  1.00  0.00     0.036 C 
ATOM      8  C   UNL     1      87.441  67.560 105.909  1.00  0.00     0.009 C 
ENDBRANCH   1   7
BRANCH   2   9
ATOM      9  O   UNL     1      83.518  69.284 105.678  1.00  0.00    -0.508 OA
ATOM     10  H   UNL     1      83.267  69.908 106.436  1.00  0.00     0.293 HD
ENDBRANCH   2   9
BRANCH   4  11
ATOM     11  O   UNL     1      85.120  72.125 102.089  1.00  0.00    -0.508 OA
ATOM     12  H   UNL     1      85.901  72.558 101.609  1.00  0.00     0.293 HD
ENDBRANCH   4  11
TORSDOF 3
ENDMDL
MODEL 6
REMARK VINA RESULT:    -5.284     16.201     17.235
REMARK INTER + INTRA:          -5.997
REMARK INTER:                  -5.924
REMARK INTRA:                  -0.073
REMARK UNBOUND:                -0.095
REMARK SMILES CCc1ccc(O)cc1O
REMARK SMILES IDX 3 1 9 2 8 3 6 4 5 5 4 6 2 7 1 8 10 9 7 11
REMARK H PARENT 10 10 7 12
REMARK Flexibility Score: inf
ROOT
ATOM      1  C   UNL     1      71.704  58.250 105.460  1.00  0.00    -0.006 A 
ATOM      2  C   UNL     1      72.567  58.272 106.573  1.00  0.00     0.122 A 
ATOM      3  C   UNL     1      73.497  59.313 106.716  1.00  0.00     0.092 A 
ATOM      4  C   UNL     1      73.580  60.325 105.750  1.00  0.00     0.119 A 
ATOM      5  C   UNL     1      72.732  60.296 104.640  1.00  0.00     0.047 A 
ATOM      6  C   UNL     1      71.804  59.262 104.491  1.00  0.00     0.011 A 
ENDROOT
BRANCH   1   7
ATOM      7  C   UNL     1      70.716  57.127 105.267  1.00  0.00     0.036 C 
ATOM      8  C   UNL     1      71.384  55.928 104.601  1.00  0.00     0.009 C 
ENDBRANCH   1   7
BRANCH   2   9
ATOM      9  O   UNL     1      72.502  57.262 107.533  1.00  0.00    -0.508 OA
ATOM     10  H   UNL     1      72.667  56.291 107.294  1.00  0.00     0.293 HD
ENDBRANCH   2   9
BRANCH   4  11
ATOM     11  O   UNL     1      74.500  61.362 105.885  1.00  0.00    -0.508 OA
ATOM     12  H   UNL     1      75.072  61.458 106.717  1.00  0.00     0.293 HD
ENDBRANCH   4  11
TORSDOF 3
ENDMDL
MODEL 7
REMARK VINA RESULT:    -5.279      9.959     10.788
REMARK INTER + INTRA:          -5.992
REMARK INTER:                  -5.888
REMARK INTRA:                  -0.104
REMARK UNBOUND:                -0.095
REMARK SMILES CCc1ccc(O)cc1O
REMARK SMILES IDX 3 1 9 2 8 3 6 4 5 5 4 6 2 7 1 8 10 9 7 11
REMARK H PARENT 10 10 7 12
REMARK Flexibility Score: inf
ROOT
ATOM      1  C   UNL     1      79.661  62.041 105.774  1.00  0.00    -0.006 A 
ATOM      2  C   UNL     1      78.868  62.772 106.680  1.00  0.00     0.122 A 
ATOM      3  C   UNL     1      77.636  62.253 107.108  1.00  0.00     0.092 A 
ATOM      4  C   UNL     1      77.185  61.016 106.628  1.00  0.00     0.119 A 
ATOM      5  C   UNL     1      77.966  60.297 105.719  1.00  0.00     0.047 A 
ATOM      6  C   UNL     1      79.194  60.808 105.289  1.00  0.00     0.011 A 
ENDROOT
BRANCH   1   7
ATOM      7  C   UNL     1      80.975  62.590 105.275  1.00  0.00     0.036 C 
ATOM      8  C   UNL     1      80.865  63.009 103.813  1.00  0.00     0.009 C 
ENDBRANCH   1   7
BRANCH   2   9
ATOM      9  O   UNL     1      79.301  64.011 107.153  1.00  0.00    -0.508 OA
ATOM     10  H   UNL     1      80.184  64.115 107.639  1.00  0.00     0.293 HD
ENDBRANCH   2   9
BRANCH   4  11
ATOM     11  O   UNL     1      75.964  60.493 107.048  1.00  0.00    -0.508 OA
ATOM     12  H   UNL     1      75.205  60.332 106.395  1.00  0.00     0.293 HD
ENDBRANCH   4  11
TORSDOF 3
ENDMDL
MODEL 8
REMARK VINA RESULT:    -5.145     10.300     11.665
REMARK INTER + INTRA:          -5.842
REMARK INTER:                  -5.743
REMARK INTRA:                  -0.099
REMARK UNBOUND:                -0.095
REMARK SMILES CCc1ccc(O)cc1O
REMARK SMILES IDX 3 1 9 2 8 3 6 4 5 5 4 6 2 7 1 8 10 9 7 11
REMARK H PARENT 10 10 7 12
REMARK Flexibility Score: inf
ROOT
ATOM      1  C   UNL     1      77.687  63.892 101.597  1.00  0.00    -0.006 A 
ATOM      2  C   UNL     1      76.905  62.857 101.046  1.00  0.00     0.122 A 
ATOM      3  C   UNL     1      75.542  63.070 100.793  1.00  0.00     0.092 A 
ATOM      4  C   UNL     1      74.950  64.303 101.096  1.00  0.00     0.119 A 
ATOM      5  C   UNL     1      75.722  65.325 101.654  1.00  0.00     0.047 A 
ATOM      6  C   UNL     1      77.081  65.120 101.909  1.00  0.00     0.011 A 
ENDROOT
BRANCH   1   7
ATOM      7  C   UNL     1      79.148  63.681 101.906  1.00  0.00     0.036 C 
ATOM      8  C   UNL     1      80.015  64.074 100.715  1.00  0.00     0.009 C 
ENDBRANCH   1   7
BRANCH   2   9
ATOM      9  O   UNL     1      77.482  61.621 100.753  1.00  0.00    -0.508 OA
ATOM     10  H   UNL     1      78.426  61.547 100.393  1.00  0.00     0.293 HD
ENDBRANCH   2   9
BRANCH   4  11
ATOM     11  O   UNL     1      73.597  64.522 100.848  1.00  0.00    -0.508 OA
ATOM     12  H   UNL     1      73.276  65.352 100.362  1.00  0.00     0.293 HD
ENDBRANCH   4  11
TORSDOF 3
ENDMDL
MODEL 9
REMARK VINA RESULT:    -5.114      8.777      9.506
REMARK INTER + INTRA:          -5.807
REMARK INTER:                  -5.705
REMARK INTRA:                  -0.102
REMARK UNBOUND:                -0.095
REMARK SMILES CCc1ccc(O)cc1O
REMARK SMILES IDX 3 1 9 2 8 3 6 4 5 5 4 6 2 7 1 8 10 9 7 11
REMARK H PARENT 10 10 7 12
REMARK Flexibility Score: inf
ROOT
ATOM      1  C   UNL     1      78.898  62.754 105.782  1.00  0.00    -0.006 A 
ATOM      2  C   UNL     1      78.111  63.465 104.854  1.00  0.00     0.122 A 
ATOM      3  C   UNL     1      78.653  63.826 103.611  1.00  0.00     0.092 A 
ATOM      4  C   UNL     1      79.977  63.494 103.293  1.00  0.00     0.119 A 
ATOM      5  C   UNL     1      80.760  62.800 104.218  1.00  0.00     0.047 A 
ATOM      6  C   UNL     1      80.227  62.437 105.458  1.00  0.00     0.011 A 
ENDROOT
BRANCH   1   7
ATOM      7  C   UNL     1      78.350  62.380 107.137  1.00  0.00     0.036 C 
ATOM      8  C   UNL     1      77.740  60.982 107.105  1.00  0.00     0.009 C 
ENDBRANCH   1   7
BRANCH   2   9
ATOM      9  O   UNL     1      76.797  63.813 105.167  1.00  0.00    -0.508 OA
ATOM     10  H   UNL     1      76.007  63.317 104.772  1.00  0.00     0.293 HD
ENDBRANCH   2   9
BRANCH   4  11
ATOM     11  O   UNL     1      80.522  63.848 102.061  1.00  0.00    -0.508 OA
ATOM     12  H   UNL     1      81.422  63.493 101.758  1.00  0.00     0.293 HD
ENDBRANCH   4  11
TORSDOF 3
ENDMDL
