MODEL 1
REMARK VINA RESULT:    -3.179      0.000      0.000
REMARK INTER + INTRA:          -3.914
REMARK INTER:                  -3.829
REMARK INTRA:                  -0.084
REMARK UNBOUND:                -0.084
REMARK SMILES CC[C@@H](C)[C@@H]([NH3+])C(=O)[O-]
REMARK SMILES IDX 3 1 4 2 5 3 6 4 7 8 8 9 9 10 2 11 1 12
REMARK H PARENT 6 5 6 6 6 7
REMARK Flexibility Score: inf
ROOT
ATOM      1  C   UNL     1      20.014  21.187   5.961  1.00  0.00     0.050 C 
ATOM      2  C   UNL     1      19.310  20.340   4.882  1.00  0.00     0.014 C 
ENDROOT
BRANCH   1   3
ATOM      3  C   UNL     1      20.384  22.599   5.398  1.00  0.00     0.230 C 
BRANCH   3   4
ATOM      4  N   UNL     1      19.454  23.640   5.857  1.00  0.00    -0.350 N 
ATOM      5  H   UNL     1      18.555  23.203   6.168  1.00  0.00     0.345 HD
ATOM      6  H   UNL     1      19.850  24.145   6.682  1.00  0.00     0.345 HD
ATOM      7  H   UNL     1      19.251  24.319   5.088  1.00  0.00     0.345 HD
ENDBRANCH   3   4
BRANCH   3   8
ATOM      8  C   UNL     1      21.791  22.987   5.782  1.00  0.00     0.099 C 
ATOM      9  O   UNL     1      22.538  22.168   6.381  1.00  0.00    -0.544 OA
ATOM     10  O   UNL     1      22.272  24.252   5.471  1.00  0.00    -0.544 OA
ENDBRANCH   3   8
ENDBRANCH   1   3
BRANCH   1  11
ATOM     11  C   UNL     1      19.105  21.271   7.223  1.00  0.00     0.006 C 
ATOM     12  C   UNL     1      18.431  19.938   7.553  1.00  0.00     0.004 C 
ENDBRANCH   1  11
TORSDOF 4
ENDMDL
MODEL 2
REMARK VINA RESULT:    -3.022      1.124      1.212
REMARK INTER + INTRA:          -3.725
REMARK INTER:                  -3.587
REMARK INTRA:                  -0.138
REMARK UNBOUND:                -0.084
REMARK SMILES CC[C@@H](C)[C@@H]([NH3+])C(=O)[O-]
REMARK SMILES IDX 3 1 4 2 5 3 6 4 7 8 8 9 9 10 2 11 1 12
REMARK H PARENT 6 5 6 6 6 7
REMARK Flexibility Score: inf
ROOT
ATOM      1  C   UNL     1      19.864  21.301   5.895  1.00  0.00     0.050 C 
ATOM      2  C   UNL     1      19.244  20.085   5.176  1.00  0.00     0.014 C 
ENDROOT
BRANCH   1   3
ATOM      3  C   UNL     1      20.735  22.141   4.906  1.00  0.00     0.230 C 
BRANCH   3   4
ATOM      4  N   UNL     1      19.948  23.169   4.210  1.00  0.00    -0.350 N 
ATOM      5  H   UNL     1      20.513  24.045   4.110  1.00  0.00     0.345 HD
ATOM      6  H   UNL     1      19.703  22.851   3.246  1.00  0.00     0.345 HD
ATOM      7  H   UNL     1      19.076  23.390   4.744  1.00  0.00     0.345 HD
ENDBRANCH   3   4
BRANCH   3   8
ATOM      8  C   UNL     1      21.890  22.800   5.621  1.00  0.00     0.099 C 
ATOM      9  O   UNL     1      22.575  22.154   6.458  1.00  0.00    -0.544 OA
ATOM     10  O   UNL     1      22.206  24.127   5.354  1.00  0.00    -0.544 OA
ENDBRANCH   3   8
ENDBRANCH   1   3
BRANCH   1  11
ATOM     11  C   UNL     1      18.729  22.144   6.550  1.00  0.00     0.006 C 
ATOM     12  C   UNL     1      19.088  22.623   7.958  1.00  0.00     0.004 C 
ENDBRANCH   1  11
TORSDOF 4
ENDMDL
MODEL 3
REMARK VINA RESULT:    -2.987     11.918     12.791
REMARK INTER + INTRA:          -3.683
REMARK INTER:                  -3.587
REMARK INTRA:                  -0.096
REMARK UNBOUND:                -0.084
REMARK SMILES CC[C@@H](C)[C@@H]([NH3+])C(=O)[O-]
REMARK SMILES IDX 3 1 4 2 5 3 6 4 7 8 8 9 9 10 2 11 1 12
REMARK H PARENT 6 5 6 6 6 7
REMARK Flexibility Score: inf
ROOT
ATOM      1  C   UNL     1      19.628  26.071  17.232  1.00  0.00     0.050 C 
ATOM      2  C   UNL     1      20.341  26.773  18.406  1.00  0.00     0.014 C 
ENDROOT
BRANCH   1   3
ATOM      3  C   UNL     1      18.090  26.350  17.276  1.00  0.00     0.230 C 
BRANCH   3   4
ATOM      4  N   UNL     1      17.388  25.766  16.124  1.00  0.00    -0.350 N 
ATOM      5  H   UNL     1      16.379  25.619  16.357  1.00  0.00     0.345 HD
ATOM      6  H   UNL     1      17.421  26.419  15.308  1.00  0.00     0.345 HD
ATOM      7  H   UNL     1      17.812  24.847  15.861  1.00  0.00     0.345 HD
ENDBRANCH   3   4
BRANCH   3   8
ATOM      8  C   UNL     1      17.476  25.822  18.550  1.00  0.00     0.099 C 
ATOM      9  O   UNL     1      16.957  26.611  19.383  1.00  0.00    -0.544 OA
ATOM     10  O   UNL     1      17.478  24.456  18.807  1.00  0.00    -0.544 OA
ENDBRANCH   3   8
ENDBRANCH   1   3
BRANCH   1  11
ATOM     11  C   UNL     1      20.276  26.528  15.891  1.00  0.00     0.006 C 
ATOM     12  C   UNL     1      21.529  25.723  15.538  1.00  0.00     0.004 C 
ENDBRANCH   1  11
TORSDOF 4
ENDMDL
MODEL 4
REMARK VINA RESULT:    -2.850      2.668      3.588
REMARK INTER + INTRA:          -3.518
REMARK INTER:                  -3.431
REMARK INTRA:                  -0.087
REMARK UNBOUND:                -0.084
REMARK SMILES CC[C@@H](C)[C@@H]([NH3+])C(=O)[O-]
REMARK SMILES IDX 3 1 4 2 5 3 6 4 7 8 8 9 9 10 2 11 1 12
REMARK H PARENT 6 5 6 6 6 7
REMARK Flexibility Score: inf
ROOT
ATOM      1  C   UNL     1      20.356  23.675   8.222  1.00  0.00     0.050 C 
ATOM      2  C   UNL     1      18.885  23.423   8.609  1.00  0.00     0.014 C 
ENDROOT
BRANCH   1   3
ATOM      3  C   UNL     1      20.539  23.600   6.671  1.00  0.00     0.230 C 
BRANCH   3   4
ATOM      4  N   UNL     1      21.236  24.779   6.138  1.00  0.00    -0.350 N 
ATOM      5  H   UNL     1      21.993  24.479   5.480  1.00  0.00     0.345 HD
ATOM      6  H   UNL     1      20.576  25.377   5.593  1.00  0.00     0.345 HD
ATOM      7  H   UNL     1      21.665  25.336   6.913  1.00  0.00     0.345 HD
ENDBRANCH   3   4
BRANCH   3   8
ATOM      8  C   UNL     1      21.292  22.355   6.271  1.00  0.00     0.099 C 
ATOM      9  O   UNL     1      22.537  22.277   6.448  1.00  0.00    -0.544 OA
ATOM     10  O   UNL     1      20.613  21.283   5.707  1.00  0.00    -0.544 OA
ENDBRANCH   3   8
ENDBRANCH   1   3
BRANCH   1  11
ATOM     11  C   UNL     1      20.814  25.044   8.808  1.00  0.00     0.006 C 
ATOM     12  C   UNL     1      21.712  24.887  10.038  1.00  0.00     0.004 C 
ENDBRANCH   1  11
TORSDOF 4
ENDMDL
MODEL 5
REMARK VINA RESULT:    -2.845     11.140     11.888
REMARK INTER + INTRA:          -3.512
REMARK INTER:                  -3.553
REMARK INTRA:                   0.041
REMARK UNBOUND:                -0.084
REMARK SMILES CC[C@@H](C)[C@@H]([NH3+])C(=O)[O-]
REMARK SMILES IDX 3 1 4 2 5 3 6 4 7 8 8 9 9 10 2 11 1 12
REMARK H PARENT 6 5 6 6 6 7
REMARK Flexibility Score: inf
ROOT
ATOM      1  C   UNL     1      21.125  26.020  16.046  1.00  0.00     0.050 C 
ATOM      2  C   UNL     1      22.328  26.723  16.709  1.00  0.00     0.014 C 
ENDROOT
BRANCH   1   3
ATOM      3  C   UNL     1      19.780  26.568  16.625  1.00  0.00     0.230 C 
BRANCH   3   4
ATOM      4  N   UNL     1      18.612  26.048  15.899  1.00  0.00    -0.350 N 
ATOM      5  H   UNL     1      17.767  26.623  16.124  1.00  0.00     0.345 HD
ATOM      6  H   UNL     1      18.764  26.118  14.867  1.00  0.00     0.345 HD
ATOM      7  H   UNL     1      18.425  25.054  16.165  1.00  0.00     0.345 HD
ENDBRANCH   3   4
BRANCH   3   8
ATOM      8  C   UNL     1      19.641  26.236  18.090  1.00  0.00     0.099 C 
ATOM      9  O   UNL     1      19.104  25.154  18.451  1.00  0.00    -0.544 OA
ATOM     10  O   UNL     1      20.111  27.122  19.051  1.00  0.00    -0.544 OA
ENDBRANCH   3   8
ENDBRANCH   1   3
BRANCH   1  11
ATOM     11  C   UNL     1      21.220  26.190  14.500  1.00  0.00     0.006 C 
ATOM     12  C   UNL     1      22.625  25.911  13.962  1.00  0.00     0.004 C 
ENDBRANCH   1  11
TORSDOF 4
ENDMDL
MODEL 6
REMARK VINA RESULT:    -2.826      7.456      8.205
REMARK INTER + INTRA:          -3.489
REMARK INTER:                  -3.429
REMARK INTRA:                  -0.059
REMARK UNBOUND:                -0.084
REMARK SMILES CC[C@@H](C)[C@@H]([NH3+])C(=O)[O-]
REMARK SMILES IDX 3 1 4 2 5 3 6 4 7 8 8 9 9 10 2 11 1 12
REMARK H PARENT 6 5 6 6 6 7
REMARK Flexibility Score: inf
ROOT
ATOM      1  C   UNL     1      22.443  26.647  13.012  1.00  0.00     0.050 C 
ATOM      2  C   UNL     1      23.797  26.376  13.701  1.00  0.00     0.014 C 
ENDROOT
BRANCH   1   3
ATOM      3  C   UNL     1      22.033  25.438  12.110  1.00  0.00     0.230 C 
BRANCH   3   4
ATOM      4  N   UNL     1      20.585  25.191  12.138  1.00  0.00    -0.350 N 
ATOM      5  H   UNL     1      20.160  25.655  12.975  1.00  0.00     0.345 HD
ATOM      6  H   UNL     1      20.128  25.604  11.294  1.00  0.00     0.345 HD
ATOM      7  H   UNL     1      20.386  24.165  12.184  1.00  0.00     0.345 HD
ENDBRANCH   3   4
BRANCH   3   8
ATOM      8  C   UNL     1      22.471  25.651  10.681  1.00  0.00     0.099 C 
ATOM      9  O   UNL     1      23.179  26.647  10.372  1.00  0.00    -0.544 OA
ATOM     10  O   UNL     1      22.099  24.744   9.697  1.00  0.00    -0.544 OA
ENDBRANCH   3   8
ENDBRANCH   1   3
BRANCH   1  11
ATOM     11  C   UNL     1      21.372  26.968  14.096  1.00  0.00     0.006 C 
ATOM     12  C   UNL     1      21.758  26.443  15.481  1.00  0.00     0.004 C 
ENDBRANCH   1  11
TORSDOF 4
ENDMDL
MODEL 7
REMARK VINA RESULT:    -2.795      1.390      2.054
REMARK INTER + INTRA:          -3.451
REMARK INTER:                  -3.339
REMARK INTRA:                  -0.111
REMARK UNBOUND:                -0.084
REMARK SMILES CC[C@@H](C)[C@@H]([NH3+])C(=O)[O-]
REMARK SMILES IDX 3 1 4 2 5 3 6 4 7 8 8 9 9 10 2 11 1 12
REMARK H PARENT 6 5 6 6 6 7
REMARK Flexibility Score: inf
ROOT
ATOM      1  C   UNL     1      19.336  22.421   6.236  1.00  0.00     0.050 C 
ATOM      2  C   UNL     1      19.538  22.585   7.756  1.00  0.00     0.014 C 
ENDROOT
BRANCH   1   3
ATOM      3  C   UNL     1      20.614  21.812   5.572  1.00  0.00     0.230 C 
BRANCH   3   4
ATOM      4  N   UNL     1      20.471  21.674   4.116  1.00  0.00    -0.350 N 
ATOM      5  H   UNL     1      20.127  22.573   3.704  1.00  0.00     0.345 HD
ATOM      6  H   UNL     1      21.397  21.471   3.676  1.00  0.00     0.345 HD
ATOM      7  H   UNL     1      19.791  20.914   3.882  1.00  0.00     0.345 HD
ENDBRANCH   3   4
BRANCH   3   8
ATOM      8  C   UNL     1      21.835  22.647   5.874  1.00  0.00     0.099 C 
ATOM      9  O   UNL     1      21.895  23.848   5.498  1.00  0.00    -0.544 OA
ATOM     10  O   UNL     1      22.899  22.093   6.574  1.00  0.00    -0.544 OA
ENDBRANCH   3   8
ENDBRANCH   1   3
BRANCH   1  11
ATOM     11  C   UNL     1      18.065  21.557   5.978  1.00  0.00     0.006 C 
ATOM     12  C   UNL     1      18.050  20.269   6.804  1.00  0.00     0.004 C 
ENDBRANCH   1  11
TORSDOF 4
ENDMDL
MODEL 8
REMARK VINA RESULT:    -2.782      2.111      2.673
REMARK INTER + INTRA:          -3.436
REMARK INTER:                  -3.355
REMARK INTRA:                  -0.080
REMARK UNBOUND:                -0.084
REMARK SMILES CC[C@@H](C)[C@@H]([NH3+])C(=O)[O-]
REMARK SMILES IDX 3 1 4 2 5 3 6 4 7 8 8 9 9 10 2 11 1 12
REMARK H PARENT 6 5 6 6 6 7
REMARK Flexibility Score: inf
ROOT
ATOM      1  C   UNL     1      20.973  22.263   6.018  1.00  0.00     0.050 C 
ATOM      2  C   UNL     1      21.399  22.485   4.552  1.00  0.00     0.014 C 
ENDROOT
BRANCH   1   3
ATOM      3  C   UNL     1      20.477  23.602   6.656  1.00  0.00     0.230 C 
BRANCH   3   4
ATOM      4  N   UNL     1      19.123  23.959   6.210  1.00  0.00    -0.350 N 
ATOM      5  H   UNL     1      19.135  24.209   5.194  1.00  0.00     0.345 HD
ATOM      6  H   UNL     1      18.477  23.145   6.317  1.00  0.00     0.345 HD
ATOM      7  H   UNL     1      18.759  24.776   6.754  1.00  0.00     0.345 HD
ENDBRANCH   3   4
BRANCH   3   8
ATOM      8  C   UNL     1      20.499  23.529   8.164  1.00  0.00     0.099 C 
ATOM      9  O   UNL     1      21.543  23.830   8.802  1.00  0.00    -0.544 OA
ATOM     10  O   UNL     1      19.363  23.132   8.857  1.00  0.00    -0.544 OA
ENDBRANCH   3   8
ENDBRANCH   1   3
BRANCH   1  11
ATOM     11  C   UNL     1      19.893  21.142   6.076  1.00  0.00     0.006 C 
ATOM     12  C   UNL     1      19.514  20.618   4.689  1.00  0.00     0.004 C 
ENDBRANCH   1  11
TORSDOF 4
ENDMDL
