MODEL 1
REMARK VINA RESULT:    -4.422      0.000      0.000
REMARK INTER + INTRA:          -7.025
REMARK INTER:                  -6.749
REMARK INTRA:                  -0.276
REMARK UNBOUND:                -0.276
REMARK SMILES CC1=CCC[C@@H](C)C(=O)C[C@@H](C(C)C)C(=O)C1
REMARK SMILES IDX 8 1 9 2 6 3 7 4 5 5 4 6 3 7 2 8 1 9 10 11 11 12 15 13 16 14
REMARK SMILES IDX 17 15 12 17 13 18 14 19
REMARK H PARENT
REMARK Flexibility Score: 70.00
ROOT
ATOM      1  C   UNL     1      37.540  21.552  25.685  1.00  0.00     0.136 C 
ATOM      2  O   UNL     1      38.112  22.552  25.273  1.00  0.00    -0.299 OA
ENDROOT
BRANCH   1   3
ATOM      3  C   UNL     1      37.280  21.382  27.166  1.00  0.00     0.053 C 
ATOM      4  C   UNL     1      36.302  22.464  27.637  1.00  0.00     0.016 C 
BRANCH   3   5
ATOM      5  C   UNL     1      38.574  21.424  28.008  1.00  0.00     0.015 C 
BRANCH   5   6
ATOM      6  C   UNL     1      39.138  20.028  28.339  1.00  0.00     0.028 C 
BRANCH   6   7
ATOM      7  C   UNL     1      39.817  19.407  27.139  1.00  0.00    -0.028 C 
ATOM      8  C   UNL     1      39.332  18.400  26.375  1.00  0.00    -0.070 CG0
ATOM      9  C   UNL     1      40.183  17.908  25.231  1.00  0.00     0.039 C 
ATOM     10  G   UNL     1      37.962  17.785  26.569  1.00  0.00     0.000 G0
ENDBRANCH   6   7
ENDBRANCH   5   6
ENDBRANCH   3   5
ENDBRANCH   1   3
BRANCH   1  11
ATOM     11  C   UNL     1      37.065  20.510  24.700  1.00  0.00     0.087 C 
BRANCH  11  12
ATOM     12  C   UNL     1      36.239  19.388  25.376  1.00  0.00     0.066 C 
BRANCH  12  13
ATOM     13  C   UNL     1      37.051  18.105  25.403  1.00  0.00     0.140 C 
ATOM     14  O   UNL     1      36.957  17.313  24.475  1.00  0.00    -0.299 OA
BRANCH  13  15
ATOM     15  C   UNL     1      37.958  17.774  26.557  1.00  0.00     0.106 CG0
ATOM     16  G   UNL     1      39.313  18.421  26.361  1.00  0.00     0.000 G0
ENDBRANCH  13  15
ENDBRANCH  12  13
BRANCH  12  17
ATOM     17  C   UNL     1      34.871  19.145  24.663  1.00  0.00    -0.006 C 
ATOM     18  C   UNL     1      33.702  19.223  25.664  1.00  0.00     0.008 C 
ATOM     19  C   UNL     1      34.619  20.152  23.526  1.00  0.00     0.008 C 
ENDBRANCH  12  17
ENDBRANCH  11  12
ENDBRANCH   1  11
TORSDOF 1
ENDMDL
MODEL 2
REMARK VINA RESULT:    -4.194      1.617      3.774
REMARK INTER + INTRA:          -6.676
REMARK INTER:                  -6.532
REMARK INTRA:                  -0.144
REMARK UNBOUND:                -0.276
REMARK SMILES CC1=CCC[C@@H](C)C(=O)C[C@@H](C(C)C)C(=O)C1
REMARK SMILES IDX 8 1 9 2 6 3 7 4 5 5 4 6 3 7 2 8 1 9 10 11 11 12 15 13 16 14
REMARK SMILES IDX 17 15 12 17 13 18 14 19
REMARK H PARENT
REMARK Flexibility Score: 70.00
ROOT
ATOM      1  C   UNL     1      37.004  17.893  26.522  1.00  0.00     0.136 C 
ATOM      2  O   UNL     1      37.008  16.924  27.267  1.00  0.00    -0.299 OA
ENDROOT
BRANCH   1   3
ATOM      3  C   UNL     1      38.053  18.022  25.439  1.00  0.00     0.053 C 
ATOM      4  C   UNL     1      37.805  16.960  24.362  1.00  0.00     0.016 C 
BRANCH   3   5
ATOM      5  C   UNL     1      39.493  17.905  25.986  1.00  0.00     0.015 C 
BRANCH   5   6
ATOM      6  C   UNL     1      40.149  19.267  26.286  1.00  0.00     0.028 C 
BRANCH   6   7
ATOM      7  C   UNL     1      39.545  19.916  27.511  1.00  0.00    -0.028 C 
ATOM      8  C   UNL     1      38.664  20.944  27.522  1.00  0.00    -0.070 CG0
ATOM      9  C   UNL     1      38.198  21.461  28.860  1.00  0.00     0.039 C 
ATOM     10  G   UNL     1      38.076  21.559  26.269  1.00  0.00     0.000 G0
ENDBRANCH   6   7
ENDBRANCH   5   6
ENDBRANCH   3   5
ENDBRANCH   1   3
BRANCH   1  11
ATOM     11  C   UNL     1      35.922  18.937  26.666  1.00  0.00     0.087 C 
BRANCH  11  12
ATOM     12  C   UNL     1      36.016  20.043  25.586  1.00  0.00     0.066 C 
BRANCH  12  13
ATOM     13  C   UNL     1      36.578  21.311  26.203  1.00  0.00     0.140 C 
ATOM     14  O   UNL     1      35.812  22.157  26.645  1.00  0.00    -0.299 OA
BRANCH  13  15
ATOM     15  C   UNL     1      38.060  21.563  26.269  1.00  0.00     0.106 CG0
ATOM     16  G   UNL     1      38.643  20.935  27.517  1.00  0.00     0.000 G0
ENDBRANCH  13  15
ENDBRANCH  12  13
BRANCH  12  17
ATOM     17  C   UNL     1      34.637  20.335  24.913  1.00  0.00    -0.006 C 
ATOM     18  C   UNL     1      34.693  20.076  23.395  1.00  0.00     0.008 C 
ATOM     19  C   UNL     1      33.502  19.490  25.519  1.00  0.00     0.008 C 
ENDBRANCH  12  17
ENDBRANCH  11  12
ENDBRANCH   1  11
TORSDOF 1
ENDMDL
MODEL 3
REMARK VINA RESULT:    -4.030      4.769      7.231
REMARK INTER + INTRA:          -6.426
REMARK INTER:                  -6.174
REMARK INTRA:                  -0.252
REMARK UNBOUND:                -0.276
REMARK SMILES CC1=CCC[C@@H](C)C(=O)C[C@@H](C(C)C)C(=O)C1
REMARK SMILES IDX 8 1 9 2 6 3 7 4 5 5 4 6 3 7 2 8 1 9 10 11 11 12 15 13 16 14
REMARK SMILES IDX 17 15 12 17 13 18 14 19
REMARK H PARENT
REMARK Flexibility Score: 70.00
ROOT
ATOM      1  C   UNL     1      32.949  20.597  25.107  1.00  0.00     0.136 C 
ATOM      2  O   UNL     1      33.560  21.500  25.662  1.00  0.00    -0.299 OA
ENDROOT
BRANCH   1   3
ATOM      3  C   UNL     1      33.681  19.352  24.655  1.00  0.00     0.053 C 
ATOM      4  C   UNL     1      34.732  18.971  25.703  1.00  0.00     0.016 C 
BRANCH   3   5
ATOM      5  C   UNL     1      34.341  19.518  23.268  1.00  0.00     0.015 C 
BRANCH   5   6
ATOM      6  C   UNL     1      33.729  20.655  22.428  1.00  0.00     0.028 C 
BRANCH   6   7
ATOM      7  C   UNL     1      32.954  20.115  21.246  1.00  0.00    -0.028 C 
ATOM      8  C   UNL     1      31.607  20.062  21.127  1.00  0.00    -0.070 CG0
ATOM      9  C   UNL     1      31.032  19.463  19.869  1.00  0.00     0.039 C 
ATOM     10  G   UNL     1      30.651  20.626  22.157  1.00  0.00     0.000 G0
ENDBRANCH   6   7
ENDBRANCH   5   6
ENDBRANCH   3   5
ENDBRANCH   1   3
BRANCH   1  11
ATOM     11  C   UNL     1      31.456  20.720  24.914  1.00  0.00     0.087 C 
BRANCH  11  12
ATOM     12  C   UNL     1      30.802  19.385  24.480  1.00  0.00     0.066 C 
BRANCH  12  13
ATOM     13  C   UNL     1      30.180  19.547  23.105  1.00  0.00     0.140 C 
ATOM     14  O   UNL     1      29.299  18.777  22.747  1.00  0.00    -0.299 OA
BRANCH  13  15
ATOM     15  C   UNL     1      30.635  20.625  22.159  1.00  0.00     0.106 CG0
ATOM     16  G   UNL     1      31.596  20.055  21.137  1.00  0.00     0.000 G0
ENDBRANCH  13  15
ENDBRANCH  12  13
BRANCH  12  17
ATOM     17  C   UNL     1      29.731  18.888  25.502  1.00  0.00    -0.006 C 
ATOM     18  C   UNL     1      30.387  18.120  26.665  1.00  0.00     0.008 C 
ATOM     19  C   UNL     1      28.895  20.044  26.079  1.00  0.00     0.008 C 
ENDBRANCH  12  17
ENDBRANCH  11  12
ENDBRANCH   1  11
TORSDOF 1
ENDMDL
MODEL 4
REMARK VINA RESULT:    -3.983      4.465      7.626
REMARK INTER + INTRA:          -6.354
REMARK INTER:                  -6.367
REMARK INTRA:                   0.013
REMARK UNBOUND:                -0.276
REMARK SMILES CC1=CCC[C@@H](C)C(=O)C[C@@H](C(C)C)C(=O)C1
REMARK SMILES IDX 8 1 9 2 6 3 7 4 5 5 4 6 3 7 2 8 1 9 10 11 11 12 15 13 16 14
REMARK SMILES IDX 17 15 12 17 13 18 14 19
REMARK H PARENT
REMARK Flexibility Score: 70.00
ROOT
ATOM      1  C   UNL     1      30.976  18.587  25.729  1.00  0.00     0.136 C 
ATOM      2  O   UNL     1      30.598  17.927  26.687  1.00  0.00    -0.299 OA
ENDROOT
BRANCH   1   3
ATOM      3  C   UNL     1      30.083  19.661  25.147  1.00  0.00     0.053 C 
ATOM      4  C   UNL     1      28.986  20.012  26.158  1.00  0.00     0.016 C 
BRANCH   3   5
ATOM      5  C   UNL     1      29.457  19.250  23.796  1.00  0.00     0.015 C 
BRANCH   5   6
ATOM      6  C   UNL     1      29.588  20.329  22.704  1.00  0.00     0.028 C 
BRANCH   6   7
ATOM      7  C   UNL     1      30.122  19.750  21.413  1.00  0.00    -0.028 C 
ATOM      8  C   UNL     1      31.414  19.752  21.007  1.00  0.00    -0.070 CG0
ATOM      9  C   UNL     1      31.733  19.138  19.668  1.00  0.00     0.039 C 
ATOM     10  G   UNL     1      32.557  20.279  21.848  1.00  0.00     0.000 G0
ENDBRANCH   6   7
ENDBRANCH   5   6
ENDBRANCH   3   5
ENDBRANCH   1   3
BRANCH   1  11
ATOM     11  C   UNL     1      32.354  18.347  25.160  1.00  0.00     0.087 C 
BRANCH  11  12
ATOM     12  C   UNL     1      32.895  19.569  24.379  1.00  0.00     0.066 C 
BRANCH  12  13
ATOM     13  C   UNL     1      32.956  19.241  22.898  1.00  0.00     0.140 C 
ATOM     14  O   UNL     1      33.328  18.131  22.541  1.00  0.00    -0.299 OA
BRANCH  13  15
ATOM     15  C   UNL     1      32.584  20.257  21.852  1.00  0.00     0.106 CG0
ATOM     16  G   UNL     1      31.436  19.746  21.008  1.00  0.00     0.000 G0
ENDBRANCH  13  15
ENDBRANCH  12  13
BRANCH  12  17
ATOM     17  C   UNL     1      34.300  20.026  24.888  1.00  0.00    -0.006 C 
ATOM     18  C   UNL     1      34.177  21.203  25.874  1.00  0.00     0.008 C 
ATOM     19  C   UNL     1      35.072  18.883  25.572  1.00  0.00     0.008 C 
ENDBRANCH  12  17
ENDBRANCH  11  12
ENDBRANCH   1  11
TORSDOF 1
ENDMDL
MODEL 5
REMARK VINA RESULT:    -3.952      4.605      7.850
REMARK INTER + INTRA:          -6.307
REMARK INTER:                  -6.188
REMARK INTRA:                  -0.119
REMARK UNBOUND:                -0.276
REMARK SMILES CC1=CCC[C@@H](C)C(=O)C[C@@H](C(C)C)C(=O)C1
REMARK SMILES IDX 8 1 9 2 6 3 7 4 5 5 4 6 3 7 2 8 1 9 10 11 11 12 15 13 16 14
REMARK SMILES IDX 17 15 12 17 13 18 14 19
REMARK H PARENT
REMARK Flexibility Score: 70.00
ROOT
ATOM      1  C   UNL     1      32.901  20.791  21.483  1.00  0.00     0.136 C 
ATOM      2  O   UNL     1      33.439  21.464  20.615  1.00  0.00    -0.299 OA
ENDROOT
BRANCH   1   3
ATOM      3  C   UNL     1      31.943  19.684  21.099  1.00  0.00     0.053 C 
ATOM      4  C   UNL     1      32.132  19.338  19.618  1.00  0.00     0.016 C 
BRANCH   3   5
ATOM      5  C   UNL     1      30.468  20.045  21.382  1.00  0.00     0.015 C 
BRANCH   5   6
ATOM      6  C   UNL     1      29.728  18.993  22.230  1.00  0.00     0.028 C 
BRANCH   6   7
ATOM      7  C   UNL     1      29.051  19.622  23.427  1.00  0.00    -0.028 C 
ATOM      8  C   UNL     1      29.514  19.626  24.699  1.00  0.00    -0.070 CG0
ATOM      9  C   UNL     1      28.669  20.293  25.755  1.00  0.00     0.039 C 
ATOM     10  G   UNL     1      30.855  19.054  25.106  1.00  0.00     0.000 G0
ENDBRANCH   6   7
ENDBRANCH   5   6
ENDBRANCH   3   5
ENDBRANCH   1   3
BRANCH   1  11
ATOM     11  C   UNL     1      33.230  21.049  22.934  1.00  0.00     0.087 C 
BRANCH  11  12
ATOM     12  C   UNL     1      33.030  19.796  23.820  1.00  0.00     0.066 C 
BRANCH  12  13
ATOM     13  C   UNL     1      31.956  20.072  24.857  1.00  0.00     0.140 C 
ATOM     14  O   UNL     1      31.987  21.117  25.493  1.00  0.00    -0.299 OA
BRANCH  13  15
ATOM     15  C   UNL     1      30.861  19.079  25.137  1.00  0.00     0.106 CG0
ATOM     16  G   UNL     1      29.524  19.634  24.693  1.00  0.00     0.000 G0
ENDBRANCH  13  15
ENDBRANCH  12  13
BRANCH  12  17
ATOM     17  C   UNL     1      34.352  19.344  24.519  1.00  0.00    -0.006 C 
ATOM     18  C   UNL     1      35.121  18.331  23.650  1.00  0.00     0.008 C 
ATOM     19  C   UNL     1      35.279  20.532  24.835  1.00  0.00     0.008 C 
ENDBRANCH  12  17
ENDBRANCH  11  12
ENDBRANCH   1  11
TORSDOF 1
ENDMDL
MODEL 6
REMARK VINA RESULT:    -3.819      7.364      9.547
REMARK INTER + INTRA:          -6.105
REMARK INTER:                  -6.694
REMARK INTRA:                   0.589
REMARK UNBOUND:                -0.276
REMARK SMILES CC1=CCC[C@@H](C)C(=O)C[C@@H](C(C)C)C(=O)C1
REMARK SMILES IDX 8 1 9 2 6 3 7 4 5 5 4 6 3 7 2 8 1 9 10 11 11 12 15 13 16 14
REMARK SMILES IDX 17 15 12 17 13 18 14 19
REMARK H PARENT
REMARK Flexibility Score: 70.00
ROOT
ATOM      1  C   UNL     1      33.089  21.146  16.755  1.00  0.00     0.136 C 
ATOM      2  O   UNL     1      32.030  21.758  16.725  1.00  0.00    -0.299 OA
ENDROOT
BRANCH   1   3
ATOM      3  C   UNL     1      34.371  21.867  17.108  1.00  0.00     0.053 C 
ATOM      4  C   UNL     1      35.518  21.310  16.258  1.00  0.00     0.016 C 
BRANCH   3   5
ATOM      5  C   UNL     1      34.719  21.768  18.610  1.00  0.00     0.015 C 
BRANCH   5   6
ATOM      6  C   UNL     1      33.630  22.348  19.533  1.00  0.00     0.028 C 
BRANCH   6   7
ATOM      7  C   UNL     1      33.332  21.420  20.689  1.00  0.00    -0.028 C 
ATOM      8  C   UNL     1      32.389  20.449  20.714  1.00  0.00    -0.070 CG0
ATOM      9  C   UNL     1      32.237  19.645  21.981  1.00  0.00     0.039 C 
ATOM     10  G   UNL     1      31.526  20.086  19.525  1.00  0.00     0.000 G0
ENDBRANCH   6   7
ENDBRANCH   5   6
ENDBRANCH   3   5
ENDBRANCH   1   3
BRANCH   1  11
ATOM     11  C   UNL     1      33.097  19.662  16.475  1.00  0.00     0.087 C 
BRANCH  11  12
ATOM     12  C   UNL     1      31.951  18.915  17.200  1.00  0.00     0.066 C 
BRANCH  12  13
ATOM     13  C   UNL     1      32.159  18.995  18.701  1.00  0.00     0.140 C 
ATOM     14  O   UNL     1      32.859  18.160  19.258  1.00  0.00    -0.299 OA
BRANCH  13  15
ATOM     15  C   UNL     1      31.509  20.071  19.528  1.00  0.00     0.106 CG0
ATOM     16  G   UNL     1      32.401  20.450  20.691  1.00  0.00     0.000 G0
ENDBRANCH  13  15
ENDBRANCH  12  13
BRANCH  12  17
ATOM     17  C   UNL     1      31.836  17.424  16.750  1.00  0.00    -0.006 C 
ATOM     18  C   UNL     1      30.638  17.220  15.802  1.00  0.00     0.008 C 
ATOM     19  C   UNL     1      33.114  16.926  16.050  1.00  0.00     0.008 C 
ENDBRANCH  12  17
ENDBRANCH  11  12
ENDBRANCH   1  11
TORSDOF 1
ENDMDL
MODEL 7
REMARK VINA RESULT:    -3.671      7.696     10.606
REMARK INTER + INTRA:          -5.878
REMARK INTER:                  -6.513
REMARK INTRA:                   0.635
REMARK UNBOUND:                -0.276
REMARK SMILES CC1=CCC[C@@H](C)C(=O)C[C@@H](C(C)C)C(=O)C1
REMARK SMILES IDX 8 1 9 2 6 3 7 4 5 5 4 6 3 7 2 8 1 9 10 11 11 12 15 13 16 14
REMARK SMILES IDX 17 15 12 17 13 18 14 19
REMARK H PARENT
REMARK Flexibility Score: 70.00
ROOT
ATOM      1  C   UNL     1      32.556  18.285  17.455  1.00  0.00     0.136 C 
ATOM      2  O   UNL     1      33.696  18.024  17.098  1.00  0.00    -0.299 OA
ENDROOT
BRANCH   1   3
ATOM      3  C   UNL     1      31.440  18.355  16.435  1.00  0.00     0.053 C 
ATOM      4  C   UNL     1      30.726  17.000  16.370  1.00  0.00     0.016 C 
BRANCH   3   5
ATOM      5  C   UNL     1      31.937  18.767  15.032  1.00  0.00     0.015 C 
BRANCH   5   6
ATOM      6  C   UNL     1      32.097  20.290  14.859  1.00  0.00     0.028 C 
BRANCH   6   7
ATOM      7  C   UNL     1      33.456  20.762  15.325  1.00  0.00    -0.028 C 
ATOM      8  C   UNL     1      33.722  21.438  16.467  1.00  0.00    -0.070 CG0
ATOM      9  C   UNL     1      35.151  21.837  16.734  1.00  0.00     0.039 C 
ATOM     10  G   UNL     1      32.677  21.760  17.514  1.00  0.00     0.000 G0
ENDBRANCH   6   7
ENDBRANCH   5   6
ENDBRANCH   3   5
ENDBRANCH   1   3
BRANCH   1  11
ATOM     11  C   UNL     1      32.266  18.498  18.921  1.00  0.00     0.087 C 
BRANCH  11  12
ATOM     12  C   UNL     1      31.821  19.948  19.234  1.00  0.00     0.066 C 
BRANCH  12  13
ATOM     13  C   UNL     1      32.883  20.921  18.755  1.00  0.00     0.140 C 
ATOM     14  O   UNL     1      33.924  21.038  19.388  1.00  0.00    -0.299 OA
BRANCH  13  15
ATOM     15  C   UNL     1      32.680  21.763  17.525  1.00  0.00     0.106 CG0
ATOM     16  G   UNL     1      33.714  21.417  16.475  1.00  0.00     0.000 G0
ENDBRANCH  13  15
ENDBRANCH  12  13
BRANCH  12  17
ATOM     17  C   UNL     1      31.534  20.167  20.753  1.00  0.00    -0.006 C 
ATOM     18  C   UNL     1      30.067  19.842  21.094  1.00  0.00     0.008 C 
ATOM     19  C   UNL     1      32.453  19.316  21.649  1.00  0.00     0.008 C 
ENDBRANCH  12  17
ENDBRANCH  11  12
ENDBRANCH   1  11
TORSDOF 1
ENDMDL
MODEL 8
REMARK VINA RESULT:    -3.652      3.888      6.426
REMARK INTER + INTRA:          -5.849
REMARK INTER:                  -6.613
REMARK INTRA:                   0.765
REMARK UNBOUND:                -0.276
REMARK SMILES CC1=CCC[C@@H](C)C(=O)C[C@@H](C(C)C)C(=O)C1
REMARK SMILES IDX 8 1 9 2 6 3 7 4 5 5 4 6 3 7 2 8 1 9 10 11 11 12 15 13 16 14
REMARK SMILES IDX 17 15 12 17 13 18 14 19
REMARK H PARENT
REMARK Flexibility Score: 70.00
ROOT
ATOM      1  C   UNL     1      29.992  19.596  23.047  1.00  0.00     0.136 C 
ATOM      2  O   UNL     1      29.123  19.202  22.282  1.00  0.00    -0.299 OA
ENDROOT
BRANCH   1   3
ATOM      3  C   UNL     1      29.927  19.240  24.517  1.00  0.00     0.053 C 
ATOM      4  C   UNL     1      28.667  19.857  25.134  1.00  0.00     0.016 C 
BRANCH   3   5
ATOM      5  C   UNL     1      31.182  19.690  25.297  1.00  0.00     0.015 C 
BRANCH   5   6
ATOM      6  C   UNL     1      32.104  18.524  25.703  1.00  0.00     0.028 C 
BRANCH   6   7
ATOM      7  C   UNL     1      33.530  18.988  25.903  1.00  0.00    -0.028 C 
ATOM      8  C   UNL     1      34.502  19.018  24.961  1.00  0.00    -0.070 CG0
ATOM      9  C   UNL     1      35.870  19.499  25.375  1.00  0.00     0.039 C 
ATOM     10  G   UNL     1      34.276  18.657  23.509  1.00  0.00     0.000 G0
ENDBRANCH   6   7
ENDBRANCH   5   6
ENDBRANCH   3   5
ENDBRANCH   1   3
BRANCH   1  11
ATOM     11  C   UNL     1      31.147  20.405  22.507  1.00  0.00     0.087 C 
BRANCH  11  12
ATOM     12  C   UNL     1      32.294  19.515  21.967  1.00  0.00     0.066 C 
BRANCH  12  13
ATOM     13  C   UNL     1      33.557  19.769  22.771  1.00  0.00     0.140 C 
ATOM     14  O   UNL     1      34.020  20.901  22.824  1.00  0.00    -0.299 OA
BRANCH  13  15
ATOM     15  C   UNL     1      34.267  18.656  23.492  1.00  0.00     0.106 CG0
ATOM     16  G   UNL     1      34.493  19.029  24.942  1.00  0.00     0.000 G0
ENDBRANCH  13  15
ENDBRANCH  12  13
BRANCH  12  17
ATOM     17  C   UNL     1      32.565  19.751  20.447  1.00  0.00    -0.006 C 
ATOM     18  C   UNL     1      31.295  19.501  19.611  1.00  0.00     0.008 C 
ATOM     19  C   UNL     1      33.077  21.174  20.160  1.00  0.00     0.008 C 
ENDBRANCH  12  17
ENDBRANCH  11  12
ENDBRANCH   1  11
TORSDOF 1
ENDMDL
MODEL 9
REMARK VINA RESULT:    -3.646      3.974      6.764
REMARK INTER + INTRA:          -5.840
REMARK INTER:                  -6.367
REMARK INTRA:                   0.527
REMARK UNBOUND:                -0.276
REMARK SMILES CC1=CCC[C@@H](C)C(=O)C[C@@H](C(C)C)C(=O)C1
REMARK SMILES IDX 8 1 9 2 6 3 7 4 5 5 4 6 3 7 2 8 1 9 10 11 11 12 15 13 16 14
REMARK SMILES IDX 17 15 12 17 13 18 14 19
REMARK H PARENT
REMARK Flexibility Score: 70.00
ROOT
ATOM      1  C   UNL     1      30.301  19.275  22.434  1.00  0.00     0.136 C 
ATOM      2  O   UNL     1      29.127  19.110  22.132  1.00  0.00    -0.299 OA
ENDROOT
BRANCH   1   3
ATOM      3  C   UNL     1      31.202  20.106  21.548  1.00  0.00     0.053 C 
ATOM      4  C   UNL     1      30.780  19.931  20.085  1.00  0.00     0.016 C 
BRANCH   3   5
ATOM      5  C   UNL     1      32.697  19.756  21.720  1.00  0.00     0.015 C 
BRANCH   5   6
ATOM      6  C   UNL     1      33.543  20.923  22.266  1.00  0.00     0.028 C 
BRANCH   6   7
ATOM      7  C   UNL     1      34.656  20.428  23.163  1.00  0.00    -0.028 C 
ATOM      8  C   UNL     1      34.634  20.380  24.515  1.00  0.00    -0.070 CG0
ATOM      9  C   UNL     1      35.864  19.870  25.223  1.00  0.00     0.039 C 
ATOM     10  G   UNL     1      33.425  20.749  25.349  1.00  0.00     0.000 G0
ENDBRANCH   6   7
ENDBRANCH   5   6
ENDBRANCH   3   5
ENDBRANCH   1   3
BRANCH   1  11
ATOM     11  C   UNL     1      30.829  18.676  23.716  1.00  0.00     0.087 C 
BRANCH  11  12
ATOM     12  C   UNL     1      31.047  19.738  24.821  1.00  0.00     0.066 C 
BRANCH  12  13
ATOM     13  C   UNL     1      32.447  19.600  25.391  1.00  0.00     0.140 C 
ATOM     14  O   UNL     1      32.789  18.542  25.902  1.00  0.00    -0.299 OA
BRANCH  13  15
ATOM     15  C   UNL     1      33.425  20.744  25.358  1.00  0.00     0.106 CG0
ATOM     16  G   UNL     1      34.631  20.379  24.520  1.00  0.00     0.000 G0
ENDBRANCH  13  15
ENDBRANCH  12  13
BRANCH  12  17
ATOM     17  C   UNL     1      29.987  19.632  25.964  1.00  0.00    -0.006 C 
ATOM     18  C   UNL     1      28.570  19.930  25.437  1.00  0.00     0.008 C 
ATOM     19  C   UNL     1      29.986  18.246  26.633  1.00  0.00     0.008 C 
ENDBRANCH  12  17
ENDBRANCH  11  12
ENDBRANCH   1  11
TORSDOF 1
ENDMDL
