MODEL 1
REMARK VINA RESULT:    -4.502      0.000      0.000
REMARK INTER + INTRA:         -12.940
REMARK INTER:                  -9.765
REMARK INTRA:                  -3.175
REMARK UNBOUND:                -3.175
REMARK SMILES CCCCCCCCCCCCCCCCCCCCCC(=O)[O-]
REMARK SMILES IDX 12 1 11 2 10 3 9 4 8 5 7 6 6 7 5 8 4 9 3 10 2 11 1 12 13 13
REMARK SMILES IDX 14 14 15 15 16 16 17 17 18 18 19 19 20 20 21 21 22 22 23 23
REMARK SMILES IDX 24 24
REMARK H PARENT
REMARK Flexibility Score: inf
ROOT
ATOM      1  C   UNL     1      19.349  30.504  70.277  1.00  0.00     0.000 C 
ENDROOT
BRANCH   1   2
ATOM      2  C   UNL     1      19.120  30.147  68.796  1.00  0.00     0.000 C 
BRANCH   2   3
ATOM      3  C   UNL     1      19.295  31.313  67.804  1.00  0.00     0.000 C 
BRANCH   3   4
ATOM      4  C   UNL     1      18.996  30.972  66.331  1.00  0.00    -0.000 C 
BRANCH   4   5
ATOM      5  C   UNL     1      18.898  32.219  65.437  1.00  0.00    -0.000 C 
BRANCH   5   6
ATOM      6  C   UNL     1      19.616  33.441  66.040  1.00  0.00    -0.000 C 
BRANCH   6   7
ATOM      7  C   UNL     1      18.846  34.771  65.926  1.00  0.00    -0.000 C 
BRANCH   7   8
ATOM      8  C   UNL     1      17.316  34.652  66.059  1.00  0.00    -0.000 C 
BRANCH   8   9
ATOM      9  C   UNL     1      16.639  35.929  66.601  1.00  0.00    -0.000 C 
BRANCH   9  10
ATOM     10  C   UNL     1      15.237  36.144  66.005  1.00  0.00    -0.000 C 
BRANCH  10  11
ATOM     11  C   UNL     1      14.194  36.518  67.069  1.00  0.00    -0.003 C 
ATOM     12  C   UNL     1      13.752  35.324  67.913  1.00  0.00     0.004 C 
ENDBRANCH  10  11
ENDBRANCH   9  10
ENDBRANCH   8   9
ENDBRANCH   7   8
ENDBRANCH   6   7
ENDBRANCH   5   6
ENDBRANCH   4   5
ENDBRANCH   3   4
ENDBRANCH   2   3
ENDBRANCH   1   2
BRANCH   1  13
ATOM     13  C   UNL     1      18.090  31.043  70.992  1.00  0.00     0.000 C 
BRANCH  13  14
ATOM     14  C   UNL     1      17.208  29.916  71.556  1.00  0.00     0.000 C 
BRANCH  14  15
ATOM     15  C   UNL     1      15.783  29.936  70.979  1.00  0.00     0.000 C 
BRANCH  15  16
ATOM     16  C   UNL     1      15.520  31.163  70.092  1.00  0.00     0.000 C 
BRANCH  16  17
ATOM     17  C   UNL     1      15.346  30.751  68.625  1.00  0.00     0.000 C 
BRANCH  17  18
ATOM     18  C   UNL     1      15.577  31.944  67.688  1.00  0.00     0.000 C 
BRANCH  18  19
ATOM     19  C   UNL     1      15.088  31.627  66.267  1.00  0.00     0.000 C 
BRANCH  19  20
ATOM     20  C   UNL     1      13.703  32.223  65.969  1.00  0.00     0.006 C 
BRANCH  20  21
ATOM     21  C   UNL     1      12.557  31.356  66.508  1.00  0.00     0.053 C 
BRANCH  21  22
ATOM     22  C   UNL     1      11.723  32.135  67.475  1.00  0.00     0.041 C 
ATOM     23  O   UNL     1      10.806  32.889  67.055  1.00  0.00    -0.550 OA
ATOM     24  O   UNL     1      11.991  32.067  68.836  1.00  0.00    -0.550 OA
ENDBRANCH  21  22
ENDBRANCH  20  21
ENDBRANCH  19  20
ENDBRANCH  18  19
ENDBRANCH  17  18
ENDBRANCH  16  17
ENDBRANCH  15  16
ENDBRANCH  14  15
ENDBRANCH  13  14
ENDBRANCH   1  13
TORSDOF 20
ENDMDL
MODEL 2
REMARK VINA RESULT:    -4.434      1.399      3.694
REMARK INTER + INTRA:         -12.794
REMARK INTER:                  -8.994
REMARK INTRA:                  -3.799
REMARK UNBOUND:                -3.175
REMARK SMILES CCCCCCCCCCCCCCCCCCCCCC(=O)[O-]
REMARK SMILES IDX 12 1 11 2 10 3 9 4 8 5 7 6 6 7 5 8 4 9 3 10 2 11 1 12 13 13
REMARK SMILES IDX 14 14 15 15 16 16 17 17 18 18 19 19 20 20 21 21 22 22 23 23
REMARK SMILES IDX 24 24
REMARK H PARENT
REMARK Flexibility Score: inf
ROOT
ATOM      1  C   UNL     1      18.226  30.787  66.796  1.00  0.00     0.000 C 
ENDROOT
BRANCH   1   2
ATOM      2  C   UNL     1      16.871  31.508  66.648  1.00  0.00     0.000 C 
BRANCH   2   3
ATOM      3  C   UNL     1      16.594  32.606  67.692  1.00  0.00     0.000 C 
BRANCH   3   4
ATOM      4  C   UNL     1      15.105  32.915  67.940  1.00  0.00    -0.000 C 
BRANCH   4   5
ATOM      5  C   UNL     1      14.531  33.933  66.940  1.00  0.00    -0.000 C 
BRANCH   5   6
ATOM      6  C   UNL     1      14.420  35.351  67.533  1.00  0.00    -0.000 C 
BRANCH   6   7
ATOM      7  C   UNL     1      15.558  36.312  67.138  1.00  0.00    -0.000 C 
BRANCH   7   8
ATOM      8  C   UNL     1      16.293  35.951  65.834  1.00  0.00    -0.000 C 
BRANCH   8   9
ATOM      9  C   UNL     1      17.832  35.976  65.962  1.00  0.00    -0.000 C 
BRANCH   9  10
ATOM     10  C   UNL     1      18.481  34.679  65.447  1.00  0.00    -0.000 C 
BRANCH  10  11
ATOM     11  C   UNL     1      19.947  34.539  65.884  1.00  0.00    -0.003 C 
ATOM     12  C   UNL     1      20.097  33.897  67.262  1.00  0.00     0.004 C 
ENDBRANCH  10  11
ENDBRANCH   9  10
ENDBRANCH   8   9
ENDBRANCH   7   8
ENDBRANCH   6   7
ENDBRANCH   5   6
ENDBRANCH   4   5
ENDBRANCH   3   4
ENDBRANCH   2   3
ENDBRANCH   1   2
BRANCH   1  13
ATOM     13  C   UNL     1      18.395  30.043  68.139  1.00  0.00     0.000 C 
BRANCH  13  14
ATOM     14  C   UNL     1      19.277  30.818  69.132  1.00  0.00     0.000 C 
BRANCH  14  15
ATOM     15  C   UNL     1      18.623  30.965  70.515  1.00  0.00     0.000 C 
BRANCH  15  16
ATOM     16  C   UNL     1      17.376  30.082  70.677  1.00  0.00     0.000 C 
BRANCH  16  17
ATOM     17  C   UNL     1      16.137  30.934  70.981  1.00  0.00     0.000 C 
BRANCH  17  18
ATOM     18  C   UNL     1      14.859  30.242  70.491  1.00  0.00     0.000 C 
BRANCH  18  19
ATOM     19  C   UNL     1      15.191  29.110  69.507  1.00  0.00     0.000 C 
BRANCH  19  20
ATOM     20  C   UNL     1      14.503  29.288  68.145  1.00  0.00     0.006 C 
BRANCH  20  21
ATOM     21  C   UNL     1      12.971  29.299  68.252  1.00  0.00     0.053 C 
BRANCH  21  22
ATOM     22  C   UNL     1      12.418  30.572  67.696  1.00  0.00     0.041 C 
ATOM     23  O   UNL     1      12.632  30.885  66.495  1.00  0.00    -0.550 OA
ATOM     24  O   UNL     1      11.709  31.440  68.518  1.00  0.00    -0.550 OA
ENDBRANCH  21  22
ENDBRANCH  20  21
ENDBRANCH  19  20
ENDBRANCH  18  19
ENDBRANCH  17  18
ENDBRANCH  16  17
ENDBRANCH  15  16
ENDBRANCH  14  15
ENDBRANCH  13  14
ENDBRANCH   1  13
TORSDOF 20
ENDMDL
MODEL 3
REMARK VINA RESULT:    -4.427      3.525      6.991
REMARK INTER + INTRA:         -12.777
REMARK INTER:                  -9.734
REMARK INTRA:                  -3.043
REMARK UNBOUND:                -3.175
REMARK SMILES CCCCCCCCCCCCCCCCCCCCCC(=O)[O-]
REMARK SMILES IDX 12 1 11 2 10 3 9 4 8 5 7 6 6 7 5 8 4 9 3 10 2 11 1 12 13 13
REMARK SMILES IDX 14 14 15 15 16 16 17 17 18 18 19 19 20 20 21 21 22 22 23 23
REMARK SMILES IDX 24 24
REMARK H PARENT
REMARK Flexibility Score: inf
ROOT
ATOM      1  C   UNL     1      14.968  31.965  67.161  1.00  0.00     0.000 C 
ENDROOT
BRANCH   1   2
ATOM      2  C   UNL     1      14.431  30.606  67.649  1.00  0.00     0.000 C 
BRANCH   2   3
ATOM      3  C   UNL     1      14.224  30.490  69.171  1.00  0.00     0.000 C 
BRANCH   3   4
ATOM      4  C   UNL     1      15.418  29.908  69.954  1.00  0.00    -0.000 C 
BRANCH   4   5
ATOM      5  C   UNL     1      16.092  30.942  70.871  1.00  0.00    -0.000 C 
BRANCH   5   6
ATOM      6  C   UNL     1      17.578  30.626  71.129  1.00  0.00    -0.000 C 
BRANCH   6   7
ATOM      7  C   UNL     1      18.294  29.882  69.986  1.00  0.00    -0.000 C 
BRANCH   7   8
ATOM      8  C   UNL     1      19.272  30.740  69.161  1.00  0.00    -0.000 C 
BRANCH   8   9
ATOM      9  C   UNL     1      18.576  31.658  68.134  1.00  0.00    -0.000 C 
BRANCH   9  10
ATOM     10  C   UNL     1      18.207  30.911  66.840  1.00  0.00    -0.000 C 
BRANCH  10  11
ATOM     11  C   UNL     1      19.305  31.005  65.770  1.00  0.00    -0.003 C 
ATOM     12  C   UNL     1      18.751  30.973  64.346  1.00  0.00     0.004 C 
ENDBRANCH  10  11
ENDBRANCH   9  10
ENDBRANCH   8   9
ENDBRANCH   7   8
ENDBRANCH   6   7
ENDBRANCH   5   6
ENDBRANCH   4   5
ENDBRANCH   3   4
ENDBRANCH   2   3
ENDBRANCH   1   2
BRANCH   1  13
ATOM     13  C   UNL     1      14.810  33.106  68.190  1.00  0.00     0.000 C 
BRANCH  13  14
ATOM     14  C   UNL     1      13.888  34.229  67.684  1.00  0.00     0.000 C 
BRANCH  14  15
ATOM     15  C   UNL     1      14.558  35.108  66.616  1.00  0.00     0.000 C 
BRANCH  15  16
ATOM     16  C   UNL     1      15.628  36.041  67.202  1.00  0.00     0.000 C 
BRANCH  16  17
ATOM     17  C   UNL     1      16.882  36.062  66.319  1.00  0.00     0.000 C 
BRANCH  17  18
ATOM     18  C   UNL     1      17.546  34.680  66.274  1.00  0.00     0.000 C 
BRANCH  18  19
ATOM     19  C   UNL     1      18.598  34.614  65.157  1.00  0.00     0.000 C 
BRANCH  19  20
ATOM     20  C   UNL     1      19.857  35.435  65.479  1.00  0.00     0.006 C 
BRANCH  20  21
ATOM     21  C   UNL     1      20.711  34.800  66.585  1.00  0.00     0.053 C 
BRANCH  21  22
ATOM     22  C   UNL     1      21.925  35.633  66.850  1.00  0.00     0.041 C 
ATOM     23  O   UNL     1      21.889  36.546  67.717  1.00  0.00    -0.550 OA
ATOM     24  O   UNL     1      23.080  35.436  66.105  1.00  0.00    -0.550 OA
ENDBRANCH  21  22
ENDBRANCH  20  21
ENDBRANCH  19  20
ENDBRANCH  18  19
ENDBRANCH  17  18
ENDBRANCH  16  17
ENDBRANCH  15  16
ENDBRANCH  14  15
ENDBRANCH  13  14
ENDBRANCH   1  13
TORSDOF 20
ENDMDL
MODEL 4
REMARK VINA RESULT:    -4.406      3.298      5.740
REMARK INTER + INTRA:         -12.731
REMARK INTER:                 -10.077
REMARK INTRA:                  -2.654
REMARK UNBOUND:                -3.175
REMARK SMILES CCCCCCCCCCCCCCCCCCCCCC(=O)[O-]
REMARK SMILES IDX 12 1 11 2 10 3 9 4 8 5 7 6 6 7 5 8 4 9 3 10 2 11 1 12 13 13
REMARK SMILES IDX 14 14 15 15 16 16 17 17 18 18 19 19 20 20 21 21 22 22 23 23
REMARK SMILES IDX 24 24
REMARK H PARENT
REMARK Flexibility Score: inf
ROOT
ATOM      1  C   UNL     1      19.734  30.966  69.629  1.00  0.00     0.000 C 
ENDROOT
BRANCH   1   2
ATOM      2  C   UNL     1      18.958  30.838  70.954  1.00  0.00     0.000 C 
BRANCH   2   3
ATOM      3  C   UNL     1      17.581  30.157  70.847  1.00  0.00     0.000 C 
BRANCH   3   4
ATOM      4  C   UNL     1      16.370  31.097  71.001  1.00  0.00    -0.000 C 
BRANCH   4   5
ATOM      5  C   UNL     1      15.292  30.866  69.929  1.00  0.00    -0.000 C 
BRANCH   5   6
ATOM      6  C   UNL     1      15.708  31.399  68.545  1.00  0.00    -0.000 C 
BRANCH   6   7
ATOM      7  C   UNL     1      14.539  31.782  67.617  1.00  0.00    -0.000 C 
BRANCH   7   8
ATOM      8  C   UNL     1      13.528  32.777  68.219  1.00  0.00    -0.000 C 
BRANCH   8   9
ATOM      9  C   UNL     1      13.890  34.256  67.967  1.00  0.00    -0.000 C 
BRANCH   9  10
ATOM     10  C   UNL     1      14.623  34.458  66.629  1.00  0.00    -0.000 C 
BRANCH  10  11
ATOM     11  C   UNL     1      14.941  35.934  66.347  1.00  0.00    -0.003 C 
ATOM     12  C   UNL     1      14.125  36.894  67.212  1.00  0.00     0.004 C 
ENDBRANCH  10  11
ENDBRANCH   9  10
ENDBRANCH   8   9
ENDBRANCH   7   8
ENDBRANCH   6   7
ENDBRANCH   5   6
ENDBRANCH   4   5
ENDBRANCH   3   4
ENDBRANCH   2   3
ENDBRANCH   1   2
BRANCH   1  13
ATOM     13  C   UNL     1      20.401  29.651  69.167  1.00  0.00     0.000 C 
BRANCH  13  14
ATOM     14  C   UNL     1      20.056  29.299  67.710  1.00  0.00     0.000 C 
BRANCH  14  15
ATOM     15  C   UNL     1      18.983  30.225  67.115  1.00  0.00     0.000 C 
BRANCH  15  16
ATOM     16  C   UNL     1      19.268  30.599  65.652  1.00  0.00     0.000 C 
BRANCH  16  17
ATOM     17  C   UNL     1      19.176  32.116  65.446  1.00  0.00     0.000 C 
BRANCH  17  18
ATOM     18  C   UNL     1      18.385  32.779  66.581  1.00  0.00     0.000 C 
BRANCH  18  19
ATOM     19  C   UNL     1      18.211  34.283  66.322  1.00  0.00     0.000 C 
BRANCH  19  20
ATOM     20  C   UNL     1      19.239  34.835  65.323  1.00  0.00     0.006 C 
BRANCH  20  21
ATOM     21  C   UNL     1      20.167  35.887  65.947  1.00  0.00     0.053 C 
BRANCH  21  22
ATOM     22  C   UNL     1      21.428  35.247  66.434  1.00  0.00     0.041 C 
ATOM     23  O   UNL     1      22.454  35.234  65.704  1.00  0.00    -0.550 OA
ATOM     24  O   UNL     1      21.457  34.621  67.674  1.00  0.00    -0.550 OA
ENDBRANCH  21  22
ENDBRANCH  20  21
ENDBRANCH  19  20
ENDBRANCH  18  19
ENDBRANCH  17  18
ENDBRANCH  16  17
ENDBRANCH  15  16
ENDBRANCH  14  15
ENDBRANCH  13  14
ENDBRANCH   1  13
TORSDOF 20
ENDMDL
MODEL 5
REMARK VINA RESULT:    -4.373      2.198      4.036
REMARK INTER + INTRA:         -12.660
REMARK INTER:                  -9.514
REMARK INTRA:                  -3.146
REMARK UNBOUND:                -3.175
REMARK SMILES CCCCCCCCCCCCCCCCCCCCCC(=O)[O-]
REMARK SMILES IDX 12 1 11 2 10 3 9 4 8 5 7 6 6 7 5 8 4 9 3 10 2 11 1 12 13 13
REMARK SMILES IDX 14 14 15 15 16 16 17 17 18 18 19 19 20 20 21 21 22 22 23 23
REMARK SMILES IDX 24 24
REMARK H PARENT
REMARK Flexibility Score: inf
ROOT
ATOM      1  C   UNL     1      16.367  29.339  71.630  1.00  0.00     0.000 C 
ENDROOT
BRANCH   1   2
ATOM      2  C   UNL     1      16.913  30.775  71.507  1.00  0.00     0.000 C 
BRANCH   2   3
ATOM      3  C   UNL     1      18.246  30.908  70.746  1.00  0.00     0.000 C 
BRANCH   3   4
ATOM      4  C   UNL     1      18.139  30.808  69.212  1.00  0.00    -0.000 C 
BRANCH   4   5
ATOM      5  C   UNL     1      19.477  31.071  68.501  1.00  0.00    -0.000 C 
BRANCH   5   6
ATOM      6  C   UNL     1      19.495  32.415  67.748  1.00  0.00    -0.000 C 
BRANCH   6   7
ATOM      7  C   UNL     1      19.675  32.304  66.221  1.00  0.00    -0.000 C 
BRANCH   7   8
ATOM      8  C   UNL     1      18.416  32.623  65.392  1.00  0.00    -0.000 C 
BRANCH   8   9
ATOM      9  C   UNL     1      17.840  31.400  64.647  1.00  0.00    -0.000 C 
BRANCH   9  10
ATOM     10  C   UNL     1      16.925  30.548  65.544  1.00  0.00    -0.000 C 
BRANCH  10  11
ATOM     11  C   UNL     1      15.520  30.364  64.950  1.00  0.00    -0.003 C 
ATOM     12  C   UNL     1      15.546  29.822  63.522  1.00  0.00     0.004 C 
ENDBRANCH  10  11
ENDBRANCH   9  10
ENDBRANCH   8   9
ENDBRANCH   7   8
ENDBRANCH   6   7
ENDBRANCH   5   6
ENDBRANCH   4   5
ENDBRANCH   3   4
ENDBRANCH   2   3
ENDBRANCH   1   2
BRANCH   1  13
ATOM     13  C   UNL     1      14.897  29.189  71.182  1.00  0.00     0.000 C 
BRANCH  13  14
ATOM     14  C   UNL     1      14.770  28.540  69.792  1.00  0.00     0.000 C 
BRANCH  14  15
ATOM     15  C   UNL     1      14.989  29.544  68.649  1.00  0.00     0.000 C 
BRANCH  15  16
ATOM     16  C   UNL     1      13.671  30.024  68.021  1.00  0.00     0.000 C 
BRANCH  16  17
ATOM     17  C   UNL     1      13.415  31.501  68.346  1.00  0.00     0.000 C 
BRANCH  17  18
ATOM     18  C   UNL     1      14.699  32.191  68.822  1.00  0.00     0.000 C 
BRANCH  18  19
ATOM     19  C   UNL     1      15.366  32.962  67.674  1.00  0.00     0.000 C 
BRANCH  19  20
ATOM     20  C   UNL     1      14.400  33.927  66.968  1.00  0.00     0.006 C 
BRANCH  20  21
ATOM     21  C   UNL     1      13.905  35.049  67.891  1.00  0.00     0.053 C 
BRANCH  21  22
ATOM     22  C   UNL     1      14.493  36.361  67.478  1.00  0.00     0.041 C 
ATOM     23  O   UNL     1      13.741  37.311  67.135  1.00  0.00    -0.550 OA
ATOM     24  O   UNL     1      15.871  36.520  67.425  1.00  0.00    -0.550 OA
ENDBRANCH  21  22
ENDBRANCH  20  21
ENDBRANCH  19  20
ENDBRANCH  18  19
ENDBRANCH  17  18
ENDBRANCH  16  17
ENDBRANCH  15  16
ENDBRANCH  14  15
ENDBRANCH  13  14
ENDBRANCH   1  13
TORSDOF 20
ENDMDL
MODEL 6
REMARK VINA RESULT:    -4.353      1.688      6.075
REMARK INTER + INTRA:         -12.617
REMARK INTER:                  -9.564
REMARK INTRA:                  -3.053
REMARK UNBOUND:                -3.175
REMARK SMILES CCCCCCCCCCCCCCCCCCCCCC(=O)[O-]
REMARK SMILES IDX 12 1 11 2 10 3 9 4 8 5 7 6 6 7 5 8 4 9 3 10 2 11 1 12 13 13
REMARK SMILES IDX 14 14 15 15 16 16 17 17 18 18 19 19 20 20 21 21 22 22 23 23
REMARK SMILES IDX 24 24
REMARK H PARENT
REMARK Flexibility Score: inf
ROOT
ATOM      1  C   UNL     1      16.871  31.472  66.183  1.00  0.00     0.000 C 
ENDROOT
BRANCH   1   2
ATOM      2  C   UNL     1      16.006  30.798  67.265  1.00  0.00     0.000 C 
BRANCH   2   3
ATOM      3  C   UNL     1      15.489  31.737  68.372  1.00  0.00     0.000 C 
BRANCH   3   4
ATOM      4  C   UNL     1      14.364  31.159  69.251  1.00  0.00    -0.000 C 
BRANCH   4   5
ATOM      5  C   UNL     1      14.122  29.660  69.004  1.00  0.00    -0.000 C 
BRANCH   5   6
ATOM      6  C   UNL     1      14.876  28.764  70.005  1.00  0.00    -0.000 C 
BRANCH   6   7
ATOM      7  C   UNL     1      15.341  29.472  71.292  1.00  0.00    -0.000 C 
BRANCH   7   8
ATOM      8  C   UNL     1      16.866  29.491  71.511  1.00  0.00    -0.000 C 
BRANCH   8   9
ATOM      9  C   UNL     1      17.501  30.886  71.327  1.00  0.00    -0.000 C 
BRANCH   9  10
ATOM     10  C   UNL     1      18.505  30.920  70.161  1.00  0.00    -0.000 C 
BRANCH  10  11
ATOM     11  C   UNL     1      19.471  29.726  70.179  1.00  0.00    -0.003 C 
ATOM     12  C   UNL     1      20.306  29.618  68.904  1.00  0.00     0.004 C 
ENDBRANCH  10  11
ENDBRANCH   9  10
ENDBRANCH   8   9
ENDBRANCH   7   8
ENDBRANCH   6   7
ENDBRANCH   5   6
ENDBRANCH   4   5
ENDBRANCH   3   4
ENDBRANCH   2   3
ENDBRANCH   1   2
BRANCH   1  13
ATOM     13  C   UNL     1      18.189  30.724  65.881  1.00  0.00     0.000 C 
BRANCH  13  14
ATOM     14  C   UNL     1      19.417  31.647  65.953  1.00  0.00     0.000 C 
BRANCH  14  15
ATOM     15  C   UNL     1      19.239  32.791  66.964  1.00  0.00     0.000 C 
BRANCH  15  16
ATOM     16  C   UNL     1      20.104  34.017  66.631  1.00  0.00     0.000 C 
BRANCH  16  17
ATOM     17  C   UNL     1      19.381  34.949  65.651  1.00  0.00     0.000 C 
BRANCH  17  18
ATOM     18  C   UNL     1      17.859  34.802  65.773  1.00  0.00     0.000 C 
BRANCH  18  19
ATOM     19  C   UNL     1      17.195  36.165  66.019  1.00  0.00     0.000 C 
BRANCH  19  20
ATOM     20  C   UNL     1      15.667  36.116  65.864  1.00  0.00     0.006 C 
BRANCH  20  21
ATOM     21  C   UNL     1      15.034  34.930  66.605  1.00  0.00     0.053 C 
BRANCH  21  22
ATOM     22  C   UNL     1      13.997  35.410  67.569  1.00  0.00     0.041 C 
ATOM     23  O   UNL     1      13.745  36.640  67.668  1.00  0.00    -0.550 OA
ATOM     24  O   UNL     1      13.342  34.505  68.395  1.00  0.00    -0.550 OA
ENDBRANCH  21  22
ENDBRANCH  20  21
ENDBRANCH  19  20
ENDBRANCH  18  19
ENDBRANCH  17  18
ENDBRANCH  16  17
ENDBRANCH  15  16
ENDBRANCH  14  15
ENDBRANCH  13  14
ENDBRANCH   1  13
TORSDOF 20
ENDMDL
MODEL 7
REMARK VINA RESULT:    -4.339      1.669      3.429
REMARK INTER + INTRA:         -12.587
REMARK INTER:                  -9.520
REMARK INTRA:                  -3.067
REMARK UNBOUND:                -3.175
REMARK SMILES CCCCCCCCCCCCCCCCCCCCCC(=O)[O-]
REMARK SMILES IDX 12 1 11 2 10 3 9 4 8 5 7 6 6 7 5 8 4 9 3 10 2 11 1 12 13 13
REMARK SMILES IDX 14 14 15 15 16 16 17 17 18 18 19 19 20 20 21 21 22 22 23 23
REMARK SMILES IDX 24 24
REMARK H PARENT
REMARK Flexibility Score: inf
ROOT
ATOM      1  C   UNL     1      19.082  31.950  68.121  1.00  0.00     0.000 C 
ENDROOT
BRANCH   1   2
ATOM      2  C   UNL     1      19.680  33.105  67.295  1.00  0.00     0.000 C 
BRANCH   2   3
ATOM      3  C   UNL     1      19.564  32.949  65.767  1.00  0.00     0.000 C 
BRANCH   3   4
ATOM      4  C   UNL     1      18.702  34.014  65.062  1.00  0.00    -0.000 C 
BRANCH   4   5
ATOM      5  C   UNL     1      18.560  35.308  65.882  1.00  0.00    -0.000 C 
BRANCH   5   6
ATOM      6  C   UNL     1      17.143  35.907  65.805  1.00  0.00    -0.000 C 
BRANCH   6   7
ATOM      7  C   UNL     1      16.145  35.353  66.839  1.00  0.00    -0.000 C 
BRANCH   7   8
ATOM      8  C   UNL     1      15.107  36.369  67.353  1.00  0.00    -0.000 C 
BRANCH   8   9
ATOM      9  C   UNL     1      13.758  35.731  67.748  1.00  0.00    -0.000 C 
BRANCH   9  10
ATOM     10  C   UNL     1      13.871  34.211  67.958  1.00  0.00    -0.000 C 
BRANCH  10  11
ATOM     11  C   UNL     1      12.544  33.480  67.703  1.00  0.00    -0.003 C 
ATOM     12  C   UNL     1      12.136  32.569  68.859  1.00  0.00     0.004 C 
ENDBRANCH  10  11
ENDBRANCH   9  10
ENDBRANCH   8   9
ENDBRANCH   7   8
ENDBRANCH   6   7
ENDBRANCH   5   6
ENDBRANCH   4   5
ENDBRANCH   3   4
ENDBRANCH   2   3
ENDBRANCH   1   2
BRANCH   1  13
ATOM     13  C   UNL     1      19.244  30.562  67.462  1.00  0.00     0.000 C 
BRANCH  13  14
ATOM     14  C   UNL     1      19.451  29.442  68.496  1.00  0.00     0.000 C 
BRANCH  14  15
ATOM     15  C   UNL     1      19.297  29.938  69.943  1.00  0.00     0.000 C 
BRANCH  15  16
ATOM     16  C   UNL     1      17.968  29.503  70.580  1.00  0.00     0.000 C 
BRANCH  16  17
ATOM     17  C   UNL     1      17.148  30.721  71.023  1.00  0.00     0.000 C 
BRANCH  17  18
ATOM     18  C   UNL     1      15.716  30.648  70.481  1.00  0.00     0.000 C 
BRANCH  18  19
ATOM     19  C   UNL     1      15.579  31.454  69.181  1.00  0.00     0.000 C 
BRANCH  19  20
ATOM     20  C   UNL     1      15.651  30.570  67.926  1.00  0.00     0.006 C 
BRANCH  20  21
ATOM     21  C   UNL     1      15.799  31.387  66.635  1.00  0.00     0.053 C 
BRANCH  21  22
ATOM     22  C   UNL     1      14.912  30.836  65.564  1.00  0.00     0.041 C 
ATOM     23  O   UNL     1      15.384  30.068  64.684  1.00  0.00    -0.550 OA
ATOM     24  O   UNL     1      13.575  31.208  65.507  1.00  0.00    -0.550 OA
ENDBRANCH  21  22
ENDBRANCH  20  21
ENDBRANCH  19  20
ENDBRANCH  18  19
ENDBRANCH  17  18
ENDBRANCH  16  17
ENDBRANCH  15  16
ENDBRANCH  14  15
ENDBRANCH  13  14
ENDBRANCH   1  13
TORSDOF 20
ENDMDL
MODEL 8
REMARK VINA RESULT:    -4.337      1.924      4.046
REMARK INTER + INTRA:         -12.582
REMARK INTER:                  -9.199
REMARK INTRA:                  -3.383
REMARK UNBOUND:                -3.175
REMARK SMILES CCCCCCCCCCCCCCCCCCCCCC(=O)[O-]
REMARK SMILES IDX 12 1 11 2 10 3 9 4 8 5 7 6 6 7 5 8 4 9 3 10 2 11 1 12 13 13
REMARK SMILES IDX 14 14 15 15 16 16 17 17 18 18 19 19 20 20 21 21 22 22 23 23
REMARK SMILES IDX 24 24
REMARK H PARENT
REMARK Flexibility Score: inf
ROOT
ATOM      1  C   UNL     1      16.007  31.200  70.169  1.00  0.00     0.000 C 
ENDROOT
BRANCH   1   2
ATOM      2  C   UNL     1      17.168  30.868  71.127  1.00  0.00     0.000 C 
BRANCH   2   3
ATOM      3  C   UNL     1      18.232  29.909  70.562  1.00  0.00     0.000 C 
BRANCH   3   4
ATOM      4  C   UNL     1      19.613  30.540  70.300  1.00  0.00    -0.000 C 
BRANCH   4   5
ATOM      5  C   UNL     1      19.717  31.196  68.913  1.00  0.00    -0.000 C 
BRANCH   5   6
ATOM      6  C   UNL     1      19.431  30.209  67.766  1.00  0.00    -0.000 C 
BRANCH   6   7
ATOM      7  C   UNL     1      18.299  30.631  66.810  1.00  0.00    -0.000 C 
BRANCH   7   8
ATOM      8  C   UNL     1      18.720  30.807  65.338  1.00  0.00    -0.000 C 
BRANCH   8   9
ATOM      9  C   UNL     1      18.945  32.279  64.930  1.00  0.00    -0.000 C 
BRANCH   9  10
ATOM     10  C   UNL     1      18.162  33.258  65.823  1.00  0.00    -0.000 C 
BRANCH  10  11
ATOM     11  C   UNL     1      19.083  34.178  66.638  1.00  0.00    -0.003 C 
ATOM     12  C   UNL     1      20.530  34.157  66.148  1.00  0.00     0.004 C 
ENDBRANCH  10  11
ENDBRANCH   9  10
ENDBRANCH   8   9
ENDBRANCH   7   8
ENDBRANCH   6   7
ENDBRANCH   5   6
ENDBRANCH   4   5
ENDBRANCH   3   4
ENDBRANCH   2   3
ENDBRANCH   1   2
BRANCH   1  13
ATOM     13  C   UNL     1      14.714  30.406  70.455  1.00  0.00     0.000 C 
BRANCH  13  14
ATOM     14  C   UNL     1      14.509  29.243  69.469  1.00  0.00     0.000 C 
BRANCH  14  15
ATOM     15  C   UNL     1      15.093  29.537  68.078  1.00  0.00     0.000 C 
BRANCH  15  16
ATOM     16  C   UNL     1      14.016  29.922  67.053  1.00  0.00     0.000 C 
BRANCH  16  17
ATOM     17  C   UNL     1      14.575  30.899  66.010  1.00  0.00     0.000 C 
BRANCH  17  18
ATOM     18  C   UNL     1      13.750  32.191  65.967  1.00  0.00     0.000 C 
BRANCH  18  19
ATOM     19  C   UNL     1      13.048  32.439  67.311  1.00  0.00     0.000 C 
BRANCH  19  20
ATOM     20  C   UNL     1      13.817  33.421  68.208  1.00  0.00     0.006 C 
BRANCH  20  21
ATOM     21  C   UNL     1      14.974  34.113  67.474  1.00  0.00     0.053 C 
BRANCH  21  22
ATOM     22  C   UNL     1      14.798  35.598  67.505  1.00  0.00     0.041 C 
ATOM     23  O   UNL     1      13.644  36.097  67.574  1.00  0.00    -0.550 OA
ATOM     24  O   UNL     1      15.904  36.432  67.408  1.00  0.00    -0.550 OA
ENDBRANCH  21  22
ENDBRANCH  20  21
ENDBRANCH  19  20
ENDBRANCH  18  19
ENDBRANCH  17  18
ENDBRANCH  16  17
ENDBRANCH  15  16
ENDBRANCH  14  15
ENDBRANCH  13  14
ENDBRANCH   1  13
TORSDOF 20
ENDMDL
MODEL 9
REMARK VINA RESULT:    -4.288      3.743      6.480
REMARK INTER + INTRA:         -12.477
REMARK INTER:                  -9.651
REMARK INTRA:                  -2.826
REMARK UNBOUND:                -3.175
REMARK SMILES CCCCCCCCCCCCCCCCCCCCCC(=O)[O-]
REMARK SMILES IDX 12 1 11 2 10 3 9 4 8 5 7 6 6 7 5 8 4 9 3 10 2 11 1 12 13 13
REMARK SMILES IDX 14 14 15 15 16 16 17 17 18 18 19 19 20 20 21 21 22 22 23 23
REMARK SMILES IDX 24 24
REMARK H PARENT
REMARK Flexibility Score: inf
ROOT
ATOM      1  C   UNL     1      19.382  31.251  68.910  1.00  0.00     0.000 C 
ENDROOT
BRANCH   1   2
ATOM      2  C   UNL     1      18.996  31.138  70.397  1.00  0.00     0.000 C 
BRANCH   2   3
ATOM      3  C   UNL     1      17.826  30.183  70.701  1.00  0.00     0.000 C 
BRANCH   3   4
ATOM      4  C   UNL     1      16.506  30.869  71.103  1.00  0.00    -0.000 C 
BRANCH   4   5
ATOM      5  C   UNL     1      15.285  30.296  70.365  1.00  0.00    -0.000 C 
BRANCH   5   6
ATOM      6  C   UNL     1      15.229  30.726  68.886  1.00  0.00    -0.000 C 
BRANCH   6   7
ATOM      7  C   UNL     1      15.669  32.177  68.613  1.00  0.00    -0.000 C 
BRANCH   7   8
ATOM      8  C   UNL     1      15.530  32.635  67.148  1.00  0.00    -0.000 C 
BRANCH   8   9
ATOM      9  C   UNL     1      14.607  33.859  66.967  1.00  0.00    -0.000 C 
BRANCH   9  10
ATOM     10  C   UNL     1      13.493  33.912  68.027  1.00  0.00    -0.000 C 
BRANCH  10  11
ATOM     11  C   UNL     1      12.258  33.089  67.627  1.00  0.00    -0.003 C 
ATOM     12  C   UNL     1      11.848  32.077  68.695  1.00  0.00     0.004 C 
ENDBRANCH  10  11
ENDBRANCH   9  10
ENDBRANCH   8   9
ENDBRANCH   7   8
ENDBRANCH   6   7
ENDBRANCH   5   6
ENDBRANCH   4   5
ENDBRANCH   3   4
ENDBRANCH   2   3
ENDBRANCH   1   2
BRANCH   1  13
ATOM     13  C   UNL     1      18.915  30.056  68.050  1.00  0.00     0.000 C 
BRANCH  13  14
ATOM     14  C   UNL     1      18.396  30.493  66.670  1.00  0.00     0.000 C 
BRANCH  14  15
ATOM     15  C   UNL     1      19.434  31.305  65.878  1.00  0.00     0.000 C 
BRANCH  15  16
ATOM     16  C   UNL     1      18.823  32.533  65.186  1.00  0.00     0.000 C 
BRANCH  16  17
ATOM     17  C   UNL     1      19.254  33.828  65.885  1.00  0.00     0.000 C 
BRANCH  17  18
ATOM     18  C   UNL     1      18.154  34.893  65.800  1.00  0.00     0.000 C 
BRANCH  18  19
ATOM     19  C   UNL     1      18.758  36.304  65.748  1.00  0.00     0.000 C 
BRANCH  19  20
ATOM     20  C   UNL     1      20.288  36.288  65.605  1.00  0.00     0.006 C 
BRANCH  20  21
ATOM     21  C   UNL     1      20.925  37.652  65.905  1.00  0.00     0.053 C 
BRANCH  21  22
ATOM     22  C   UNL     1      21.963  37.519  66.973  1.00  0.00     0.041 C 
ATOM     23  O   UNL     1      23.038  36.906  66.739  1.00  0.00    -0.550 OA
ATOM     24  O   UNL     1      21.724  38.029  68.243  1.00  0.00    -0.550 OA
ENDBRANCH  21  22
ENDBRANCH  20  21
ENDBRANCH  19  20
ENDBRANCH  18  19
ENDBRANCH  17  18
ENDBRANCH  16  17
ENDBRANCH  15  16
ENDBRANCH  14  15
ENDBRANCH  13  14
ENDBRANCH   1  13
TORSDOF 20
ENDMDL
