MODEL 1
REMARK VINA RESULT:    -3.772      0.000      0.000
REMARK INTER + INTRA:          -5.774
REMARK INTER:                  -5.756
REMARK INTRA:                  -0.018
REMARK UNBOUND:                -0.018
REMARK SMILES CC1=CCC[C@H](C)C(=O)C[C@H](C(C)C)C(=O)C1
REMARK SMILES IDX 8 1 9 2 6 3 7 4 5 5 4 6 3 7 2 8 1 9 10 11 11 12 15 13 16 14
REMARK SMILES IDX 17 15 12 17 13 18 14 19
REMARK H PARENT
REMARK Flexibility Score: 70.00
ROOT
ATOM      1  C   UNL     1     -13.391  10.878  30.336  1.00  0.00     0.136 C 
ATOM      2  O   UNL     1     -13.443  12.059  30.648  1.00  0.00    -0.299 OA
ENDROOT
BRANCH   1   3
ATOM      3  C   UNL     1     -14.672  10.090  30.149  1.00  0.00     0.053 C 
ATOM      4  C   UNL     1     -14.526   9.164  28.938  1.00  0.00     0.016 C 
BRANCH   3   5
ATOM      5  C   UNL     1     -15.048   9.270  31.406  1.00  0.00     0.015 C 
BRANCH   5   6
ATOM      6  C   UNL     1     -14.344   7.908  31.493  1.00  0.00     0.028 C 
BRANCH   6   7
ATOM      7  C   UNL     1     -13.739   7.687  32.859  1.00  0.00    -0.028 C 
ATOM      8  C   UNL     1     -12.420   7.773  33.146  1.00  0.00    -0.070 CG0
ATOM      9  C   UNL     1     -11.985   7.519  34.566  1.00  0.00     0.039 C 
ATOM     10  G   UNL     1     -11.369   8.103  32.101  1.00  0.00     0.000 G0
ENDBRANCH   6   7
ENDBRANCH   5   6
ENDBRANCH   3   5
ENDBRANCH   1   3
BRANCH   1  11
ATOM     11  C   UNL     1     -12.044  10.211  30.201  1.00  0.00     0.087 C 
BRANCH  11  12
ATOM     12  C   UNL     1     -11.021  10.633  31.290  1.00  0.00     0.066 C 
BRANCH  12  13
ATOM     13  C   UNL     1     -10.709   9.456  32.210  1.00  0.00     0.140 C 
ATOM     14  O   UNL     1      -9.944   9.629  33.147  1.00  0.00    -0.299 OA
BRANCH  13  15
ATOM     15  C   UNL     1     -11.376   8.101  32.078  1.00  0.00     0.106 CG0
ATOM     16  G   UNL     1     -12.394   7.796  33.162  1.00  0.00     0.000 G0
ENDBRANCH  13  15
ENDBRANCH  12  13
BRANCH  12  17
ATOM     17  C   UNL     1      -9.705  11.186  30.652  1.00  0.00    -0.006 C 
ATOM     18  C   UNL     1      -9.985  12.393  29.738  1.00  0.00     0.008 C 
ATOM     19  C   UNL     1      -8.957  10.112  29.838  1.00  0.00     0.008 C 
ENDBRANCH  12  17
ENDBRANCH  11  12
ENDBRANCH   1  11
TORSDOF 1
ENDMDL
MODEL 2
REMARK VINA RESULT:    -3.751      2.132      4.836
REMARK INTER + INTRA:          -5.742
REMARK INTER:                  -5.261
REMARK INTRA:                  -0.481
REMARK UNBOUND:                -0.018
REMARK SMILES CC1=CCC[C@H](C)C(=O)C[C@H](C(C)C)C(=O)C1
REMARK SMILES IDX 8 1 9 2 6 3 7 4 5 5 4 6 3 7 2 8 1 9 10 11 11 12 15 13 16 14
REMARK SMILES IDX 17 15 12 17 13 18 14 19
REMARK H PARENT
REMARK Flexibility Score: 70.00
ROOT
ATOM      1  C   UNL     1     -11.947   6.889  32.838  1.00  0.00     0.136 C 
ATOM      2  O   UNL     1     -11.506   5.766  33.035  1.00  0.00    -0.299 OA
ENDROOT
BRANCH   1   3
ATOM      3  C   UNL     1     -11.865   7.934  33.932  1.00  0.00     0.053 C 
ATOM      4  C   UNL     1     -12.613   7.431  35.171  1.00  0.00     0.016 C 
BRANCH   3   5
ATOM      5  C   UNL     1     -10.405   8.291  34.298  1.00  0.00     0.015 C 
BRANCH   5   6
ATOM      6  C   UNL     1      -9.866   9.530  33.569  1.00  0.00     0.028 C 
BRANCH   6   7
ATOM      7  C   UNL     1      -8.926   9.146  32.450  1.00  0.00    -0.028 C 
ATOM      8  C   UNL     1      -9.155   9.367  31.136  1.00  0.00    -0.070 CG0
ATOM      9  C   UNL     1      -8.109   8.915  30.149  1.00  0.00     0.039 C 
ATOM     10  G   UNL     1     -10.416  10.035  30.619  1.00  0.00     0.000 G0
ENDBRANCH   6   7
ENDBRANCH   5   6
ENDBRANCH   3   5
ENDBRANCH   1   3
BRANCH   1  11
ATOM     11  C   UNL     1     -12.621   7.195  31.522  1.00  0.00     0.087 C 
BRANCH  11  12
ATOM     12  C   UNL     1     -12.670   8.708  31.178  1.00  0.00     0.066 C 
BRANCH  12  13
ATOM     13  C   UNL     1     -11.530   9.074  30.232  1.00  0.00     0.140 C 
ATOM     14  O   UNL     1     -11.545   8.629  29.094  1.00  0.00    -0.299 OA
BRANCH  13  15
ATOM     15  C   UNL     1     -10.425  10.044  30.601  1.00  0.00     0.106 CG0
ATOM     16  G   UNL     1      -9.163   9.385  31.127  1.00  0.00     0.000 G0
ENDBRANCH  13  15
ENDBRANCH  12  13
BRANCH  12  17
ATOM     17  C   UNL     1     -14.045   9.105  30.549  1.00  0.00    -0.006 C 
ATOM     18  C   UNL     1     -14.187  10.633  30.420  1.00  0.00     0.008 C 
ATOM     19  C   UNL     1     -15.236   8.566  31.365  1.00  0.00     0.008 C 
ENDBRANCH  12  17
ENDBRANCH  11  12
ENDBRANCH   1  11
TORSDOF 1
ENDMDL
MODEL 3
REMARK VINA RESULT:    -3.739      1.737      2.689
REMARK INTER + INTRA:          -5.724
REMARK INTER:                  -5.918
REMARK INTRA:                   0.195
REMARK UNBOUND:                -0.018
REMARK SMILES CC1=CCC[C@H](C)C(=O)C[C@H](C(C)C)C(=O)C1
REMARK SMILES IDX 8 1 9 2 6 3 7 4 5 5 4 6 3 7 2 8 1 9 10 11 11 12 15 13 16 14
REMARK SMILES IDX 17 15 12 17 13 18 14 19
REMARK H PARENT
REMARK Flexibility Score: 70.00
ROOT
ATOM      1  C   UNL     1     -11.905  10.898  30.852  1.00  0.00     0.136 C 
ATOM      2  O   UNL     1     -11.270  11.888  31.183  1.00  0.00    -0.299 OA
ENDROOT
BRANCH   1   3
ATOM      3  C   UNL     1     -13.395  11.008  30.598  1.00  0.00     0.053 C 
ATOM      4  C   UNL     1     -13.724  12.422  30.108  1.00  0.00     0.016 C 
BRANCH   3   5
ATOM      5  C   UNL     1     -13.898   9.959  29.577  1.00  0.00     0.015 C 
BRANCH   5   6
ATOM      6  C   UNL     1     -15.231   9.304  29.964  1.00  0.00     0.028 C 
BRANCH   6   7
ATOM      7  C   UNL     1     -15.261   8.939  31.429  1.00  0.00    -0.028 C 
ATOM      8  C   UNL     1     -14.410   8.078  32.031  1.00  0.00    -0.070 CG0
ATOM      9  C   UNL     1     -14.583   7.823  33.507  1.00  0.00     0.039 C 
ATOM     10  G   UNL     1     -13.303   7.355  31.284  1.00  0.00     0.000 G0
ENDBRANCH   6   7
ENDBRANCH   5   6
ENDBRANCH   3   5
ENDBRANCH   1   3
BRANCH   1  11
ATOM     11  C   UNL     1     -11.200   9.566  30.762  1.00  0.00     0.087 C 
BRANCH  11  12
ATOM     12  C   UNL     1     -11.164   8.781  32.101  1.00  0.00     0.066 C 
BRANCH  12  13
ATOM     13  C   UNL     1     -11.928   7.467  31.966  1.00  0.00     0.140 C 
ATOM     14  O   UNL     1     -11.469   6.463  32.491  1.00  0.00    -0.299 OA
BRANCH  13  15
ATOM     15  C   UNL     1     -13.282   7.360  31.293  1.00  0.00     0.106 CG0
ATOM     16  G   UNL     1     -14.407   8.058  32.035  1.00  0.00     0.000 G0
ENDBRANCH  13  15
ENDBRANCH  12  13
BRANCH  12  17
ATOM     17  C   UNL     1      -9.696   8.509  32.562  1.00  0.00    -0.006 C 
ATOM     18  C   UNL     1      -9.489   8.887  34.041  1.00  0.00     0.008 C 
ATOM     19  C   UNL     1      -8.666   9.273  31.708  1.00  0.00     0.008 C 
ENDBRANCH  12  17
ENDBRANCH  11  12
ENDBRANCH   1  11
TORSDOF 1
ENDMDL
MODEL 4
REMARK VINA RESULT:    -3.649      7.484      9.010
REMARK INTER + INTRA:          -5.586
REMARK INTER:                  -5.150
REMARK INTRA:                  -0.437
REMARK UNBOUND:                -0.018
REMARK SMILES CC1=CCC[C@H](C)C(=O)C[C@H](C(C)C)C(=O)C1
REMARK SMILES IDX 8 1 9 2 6 3 7 4 5 5 4 6 3 7 2 8 1 9 10 11 11 12 15 13 16 14
REMARK SMILES IDX 17 15 12 17 13 18 14 19
REMARK H PARENT
REMARK Flexibility Score: 70.00
ROOT
ATOM      1  C   UNL     1     -14.788   3.927  27.984  1.00  0.00     0.136 C 
ATOM      2  O   UNL     1     -14.736   5.144  28.089  1.00  0.00    -0.299 OA
ENDROOT
BRANCH   1   3
ATOM      3  C   UNL     1     -15.912   3.285  27.195  1.00  0.00     0.053 C 
ATOM      4  C   UNL     1     -17.228   3.451  27.960  1.00  0.00     0.016 C 
BRANCH   3   5
ATOM      5  C   UNL     1     -16.044   3.876  25.771  1.00  0.00     0.015 C 
BRANCH   5   6
ATOM      6  C   UNL     1     -15.030   3.310  24.767  1.00  0.00     0.028 C 
BRANCH   6   7
ATOM      7  C   UNL     1     -13.897   4.279  24.521  1.00  0.00    -0.028 C 
ATOM      8  C   UNL     1     -12.596   4.033  24.790  1.00  0.00    -0.070 CG0
ATOM      9  C   UNL     1     -11.592   5.116  24.485  1.00  0.00     0.039 C 
ATOM     10  G   UNL     1     -12.110   2.727  25.392  1.00  0.00     0.000 G0
ENDBRANCH   6   7
ENDBRANCH   5   6
ENDBRANCH   3   5
ENDBRANCH   1   3
BRANCH   1  11
ATOM     11  C   UNL     1     -13.760   3.081  28.696  1.00  0.00     0.087 C 
BRANCH  11  12
ATOM     12  C   UNL     1     -13.073   2.027  27.786  1.00  0.00     0.066 C 
BRANCH  12  13
ATOM     13  C   UNL     1     -12.017   2.693  26.908  1.00  0.00     0.140 C 
ATOM     14  O   UNL     1     -11.025   3.169  27.441  1.00  0.00    -0.299 OA
BRANCH  13  15
ATOM     15  C   UNL     1     -12.086   2.709  25.394  1.00  0.00     0.106 CG0
ATOM     16  G   UNL     1     -12.576   4.018  24.803  1.00  0.00     0.000 G0
ENDBRANCH  13  15
ENDBRANCH  12  13
BRANCH  12  17
ATOM     17  C   UNL     1     -12.432   0.878  28.628  1.00  0.00    -0.006 C 
ATOM     18  C   UNL     1     -12.159  -0.369  27.767  1.00  0.00     0.008 C 
ATOM     19  C   UNL     1     -13.315   0.470  29.824  1.00  0.00     0.008 C 
ENDBRANCH  12  17
ENDBRANCH  11  12
ENDBRANCH   1  11
TORSDOF 1
ENDMDL
MODEL 5
REMARK VINA RESULT:    -3.639      2.005      3.570
REMARK INTER + INTRA:          -5.571
REMARK INTER:                  -5.394
REMARK INTRA:                  -0.177
REMARK UNBOUND:                -0.018
REMARK SMILES CC1=CCC[C@H](C)C(=O)C[C@H](C(C)C)C(=O)C1
REMARK SMILES IDX 8 1 9 2 6 3 7 4 5 5 4 6 3 7 2 8 1 9 10 11 11 12 15 13 16 14
REMARK SMILES IDX 17 15 12 17 13 18 14 19
REMARK H PARENT
REMARK Flexibility Score: 70.00
ROOT
ATOM      1  C   UNL     1     -11.747  10.608  30.580  1.00  0.00     0.136 C 
ATOM      2  O   UNL     1     -11.191  10.844  29.517  1.00  0.00    -0.299 OA
ENDROOT
BRANCH   1   3
ATOM      3  C   UNL     1     -13.216  10.939  30.752  1.00  0.00     0.053 C 
ATOM      4  C   UNL     1     -13.400  12.459  30.725  1.00  0.00     0.016 C 
BRANCH   3   5
ATOM      5  C   UNL     1     -14.100  10.275  29.669  1.00  0.00     0.015 C 
BRANCH   5   6
ATOM      6  C   UNL     1     -14.737   8.950  30.114  1.00  0.00     0.028 C 
BRANCH   6   7
ATOM      7  C   UNL     1     -14.273   7.800  29.252  1.00  0.00    -0.028 C 
ATOM      8  C   UNL     1     -13.420   6.829  29.648  1.00  0.00    -0.070 CG0
ATOM      9  C   UNL     1     -13.059   5.753  28.656  1.00  0.00     0.039 C 
ATOM     10  G   UNL     1     -12.807   6.787  31.037  1.00  0.00     0.000 G0
ENDBRANCH   6   7
ENDBRANCH   5   6
ENDBRANCH   3   5
ENDBRANCH   1   3
BRANCH   1  11
ATOM     11  C   UNL     1     -10.941  10.044  31.724  1.00  0.00     0.087 C 
BRANCH  11  12
ATOM     12  C   UNL     1     -11.520   8.730  32.315  1.00  0.00     0.066 C 
BRANCH  12  13
ATOM     13  C   UNL     1     -11.586   7.649  31.239  1.00  0.00     0.140 C 
ATOM     14  O   UNL     1     -10.594   7.437  30.558  1.00  0.00    -0.299 OA
BRANCH  13  15
ATOM     15  C   UNL     1     -12.792   6.754  31.035  1.00  0.00     0.106 CG0
ATOM     16  G   UNL     1     -13.421   6.855  29.657  1.00  0.00     0.000 G0
ENDBRANCH  13  15
ENDBRANCH  12  13
BRANCH  12  17
ATOM     17  C   UNL     1     -10.677   8.232  33.533  1.00  0.00    -0.006 C 
ATOM     18  C   UNL     1     -11.549   7.476  34.552  1.00  0.00     0.008 C 
ATOM     19  C   UNL     1      -9.961   9.388  34.257  1.00  0.00     0.008 C 
ENDBRANCH  12  17
ENDBRANCH  11  12
ENDBRANCH   1  11
TORSDOF 1
ENDMDL
MODEL 6
REMARK VINA RESULT:    -3.586      2.166      4.169
REMARK INTER + INTRA:          -5.491
REMARK INTER:                  -5.176
REMARK INTRA:                  -0.315
REMARK UNBOUND:                -0.018
REMARK SMILES CC1=CCC[C@H](C)C(=O)C[C@H](C(C)C)C(=O)C1
REMARK SMILES IDX 8 1 9 2 6 3 7 4 5 5 4 6 3 7 2 8 1 9 10 11 11 12 15 13 16 14
REMARK SMILES IDX 17 15 12 17 13 18 14 19
REMARK H PARENT
REMARK Flexibility Score: 70.00
ROOT
ATOM      1  C   UNL     1     -14.392   7.845  32.554  1.00  0.00     0.136 C 
ATOM      2  O   UNL     1     -15.096   7.820  33.553  1.00  0.00    -0.299 OA
ENDROOT
BRANCH   1   3
ATOM      3  C   UNL     1     -15.012   8.136  31.202  1.00  0.00     0.053 C 
ATOM      4  C   UNL     1     -16.402   7.498  31.132  1.00  0.00     0.016 C 
BRANCH   3   5
ATOM      5  C   UNL     1     -15.106   9.654  30.912  1.00  0.00     0.015 C 
BRANCH   5   6
ATOM      6  C   UNL     1     -14.262  10.110  29.713  1.00  0.00     0.028 C 
BRANCH   6   7
ATOM      7  C   UNL     1     -13.203  11.103  30.130  1.00  0.00    -0.028 C 
ATOM      8  C   UNL     1     -11.880  10.835  30.214  1.00  0.00    -0.070 CG0
ATOM      9  C   UNL     1     -10.959  11.945  30.652  1.00  0.00     0.039 C 
ATOM     10  G   UNL     1     -11.293   9.472  29.898  1.00  0.00     0.000 G0
ENDBRANCH   6   7
ENDBRANCH   5   6
ENDBRANCH   3   5
ENDBRANCH   1   3
BRANCH   1  11
ATOM     11  C   UNL     1     -12.923   7.525  32.680  1.00  0.00     0.087 C 
BRANCH  11  12
ATOM     12  C   UNL     1     -12.192   7.373  31.318  1.00  0.00     0.066 C 
BRANCH  12  13
ATOM     13  C   UNL     1     -11.217   8.528  31.108  1.00  0.00     0.140 C 
ATOM     14  O   UNL     1     -10.292   8.667  31.895  1.00  0.00    -0.299 OA
BRANCH  13  15
ATOM     15  C   UNL     1     -11.279   9.460  29.915  1.00  0.00     0.106 CG0
ATOM     16  G   UNL     1     -11.867  10.827  30.217  1.00  0.00     0.000 G0
ENDBRANCH  13  15
ENDBRANCH  12  13
BRANCH  12  17
ATOM     17  C   UNL     1     -11.442   6.006  31.223  1.00  0.00    -0.006 C 
ATOM     18  C   UNL     1     -12.284   4.950  30.483  1.00  0.00     0.008 C 
ATOM     19  C   UNL     1     -11.061   5.453  32.609  1.00  0.00     0.008 C 
ENDBRANCH  12  17
ENDBRANCH  11  12
ENDBRANCH   1  11
TORSDOF 1
ENDMDL
MODEL 7
REMARK VINA RESULT:    -3.583      1.631      3.606
REMARK INTER + INTRA:          -5.485
REMARK INTER:                  -5.186
REMARK INTRA:                  -0.300
REMARK UNBOUND:                -0.018
REMARK SMILES CC1=CCC[C@H](C)C(=O)C[C@H](C(C)C)C(=O)C1
REMARK SMILES IDX 8 1 9 2 6 3 7 4 5 5 4 6 3 7 2 8 1 9 10 11 11 12 15 13 16 14
REMARK SMILES IDX 17 15 12 17 13 18 14 19
REMARK H PARENT
REMARK Flexibility Score: 70.00
ROOT
ATOM      1  C   UNL     1     -12.563  11.055  30.666  1.00  0.00     0.136 C 
ATOM      2  O   UNL     1     -12.908  12.191  30.958  1.00  0.00    -0.299 OA
ENDROOT
BRANCH   1   3
ATOM      3  C   UNL     1     -11.092  10.732  30.499  1.00  0.00     0.053 C 
ATOM      4  C   UNL     1     -10.414  11.850  29.701  1.00  0.00     0.016 C 
BRANCH   3   5
ATOM      5  C   UNL     1     -10.374  10.536  31.856  1.00  0.00     0.015 C 
BRANCH   5   6
ATOM      6  C   UNL     1     -10.108   9.066  32.211  1.00  0.00     0.028 C 
BRANCH   6   7
ATOM      7  C   UNL     1     -10.803   8.674  33.493  1.00  0.00    -0.028 C 
ATOM      8  C   UNL     1     -11.795   7.760  33.589  1.00  0.00    -0.070 CG0
ATOM      9  C   UNL     1     -12.382   7.490  34.951  1.00  0.00     0.039 C 
ATOM     10  G   UNL     1     -12.342   7.008  32.389  1.00  0.00     0.000 G0
ENDBRANCH   6   7
ENDBRANCH   5   6
ENDBRANCH   3   5
ENDBRANCH   1   3
BRANCH   1  11
ATOM     11  C   UNL     1     -13.619  10.006  30.418  1.00  0.00     0.087 C 
BRANCH  11  12
ATOM     12  C   UNL     1     -13.061   8.559  30.330  1.00  0.00     0.066 C 
BRANCH  12  13
ATOM     13  C   UNL     1     -13.396   7.783  31.600  1.00  0.00     0.140 C 
ATOM     14  O   UNL     1     -14.563   7.718  31.959  1.00  0.00    -0.299 OA
BRANCH  13  15
ATOM     15  C   UNL     1     -12.366   7.004  32.392  1.00  0.00     0.106 CG0
ATOM     16  G   UNL     1     -11.779   7.759  33.571  1.00  0.00     0.000 G0
ENDBRANCH  13  15
ENDBRANCH  12  13
BRANCH  12  17
ATOM     17  C   UNL     1     -13.615   7.810  29.075  1.00  0.00    -0.006 C 
ATOM     18  C   UNL     1     -12.625   6.743  28.572  1.00  0.00     0.008 C 
ATOM     19  C   UNL     1     -13.934   8.773  27.916  1.00  0.00     0.008 C 
ENDBRANCH  12  17
ENDBRANCH  11  12
ENDBRANCH   1  11
TORSDOF 1
ENDMDL
MODEL 8
REMARK VINA RESULT:    -3.553     10.999     13.061
REMARK INTER + INTRA:          -5.439
REMARK INTER:                  -5.540
REMARK INTRA:                   0.101
REMARK UNBOUND:                -0.018
REMARK SMILES CC1=CCC[C@H](C)C(=O)C[C@H](C(C)C)C(=O)C1
REMARK SMILES IDX 8 1 9 2 6 3 7 4 5 5 4 6 3 7 2 8 1 9 10 11 11 12 15 13 16 14
REMARK SMILES IDX 17 15 12 17 13 18 14 19
REMARK H PARENT
REMARK Flexibility Score: 70.00
ROOT
ATOM      1  C   UNL     1      -3.376   0.384  27.780  1.00  0.00     0.136 C 
ATOM      2  O   UNL     1      -3.676   1.111  26.844  1.00  0.00    -0.299 OA
ENDROOT
BRANCH   1   3
ATOM      3  C   UNL     1      -2.068  -0.381  27.752  1.00  0.00     0.053 C 
ATOM      4  C   UNL     1      -1.422  -0.232  26.372  1.00  0.00     0.016 C 
BRANCH   3   5
ATOM      5  C   UNL     1      -1.088   0.089  28.854  1.00  0.00     0.015 C 
BRANCH   5   6
ATOM      6  C   UNL     1      -0.649   1.553  28.712  1.00  0.00     0.028 C 
BRANCH   6   7
ATOM      7  C   UNL     1      -0.690   2.272  30.040  1.00  0.00    -0.028 C 
ATOM      8  C   UNL     1      -1.673   3.111  30.437  1.00  0.00    -0.070 CG0
ATOM      9  C   UNL     1      -1.554   3.749  31.798  1.00  0.00     0.039 C 
ATOM     10  G   UNL     1      -2.874   3.443  29.570  1.00  0.00     0.000 G0
ENDBRANCH   6   7
ENDBRANCH   5   6
ENDBRANCH   3   5
ENDBRANCH   1   3
BRANCH   1  11
ATOM     11  C   UNL     1      -4.348   0.214  28.922  1.00  0.00     0.087 C 
BRANCH  11  12
ATOM     12  C   UNL     1      -4.016   1.084  30.165  1.00  0.00     0.066 C 
BRANCH  12  13
ATOM     13  C   UNL     1      -4.111   2.567  29.816  1.00  0.00     0.140 C 
ATOM     14  O   UNL     1      -5.210   3.101  29.814  1.00  0.00    -0.299 OA
BRANCH  13  15
ATOM     15  C   UNL     1      -2.896   3.438  29.564  1.00  0.00     0.106 CG0
ATOM     16  G   UNL     1      -1.691   3.095  30.420  1.00  0.00     0.000 G0
ENDBRANCH  13  15
ENDBRANCH  12  13
BRANCH  12  17
ATOM     17  C   UNL     1      -4.961   0.748  31.364  1.00  0.00    -0.006 C 
ATOM     18  C   UNL     1      -4.419   1.320  32.687  1.00  0.00     0.008 C 
ATOM     19  C   UNL     1      -5.173  -0.768  31.532  1.00  0.00     0.008 C 
ENDBRANCH  12  17
ENDBRANCH  11  12
ENDBRANCH   1  11
TORSDOF 1
ENDMDL
MODEL 9
REMARK VINA RESULT:    -3.357     10.423     12.049
REMARK INTER + INTRA:          -5.140
REMARK INTER:                  -4.679
REMARK INTRA:                  -0.461
REMARK UNBOUND:                -0.018
REMARK SMILES CC1=CCC[C@H](C)C(=O)C[C@H](C(C)C)C(=O)C1
REMARK SMILES IDX 8 1 9 2 6 3 7 4 5 5 4 6 3 7 2 8 1 9 10 11 11 12 15 13 16 14
REMARK SMILES IDX 17 15 12 17 13 18 14 19
REMARK H PARENT
REMARK Flexibility Score: 70.00
ROOT
ATOM      1  C   UNL     1      -4.815   2.942  32.027  1.00  0.00     0.136 C 
ATOM      2  O   UNL     1      -5.744   3.689  32.303  1.00  0.00    -0.299 OA
ENDROOT
BRANCH   1   3
ATOM      3  C   UNL     1      -4.643   1.641  32.784  1.00  0.00     0.053 C 
ATOM      4  C   UNL     1      -4.926   1.877  34.270  1.00  0.00     0.016 C 
BRANCH   3   5
ATOM      5  C   UNL     1      -5.555   0.516  32.238  1.00  0.00     0.015 C 
BRANCH   5   6
ATOM      6  C   UNL     1      -4.798  -0.589  31.489  1.00  0.00     0.028 C 
BRANCH   6   7
ATOM      7  C   UNL     1      -4.803  -0.347  29.998  1.00  0.00    -0.028 C 
ATOM      8  C   UNL     1      -3.738   0.070  29.277  1.00  0.00    -0.070 CG0
ATOM      9  C   UNL     1      -3.918   0.265  27.793  1.00  0.00     0.039 C 
ATOM     10  G   UNL     1      -2.384   0.359  29.898  1.00  0.00     0.000 G0
ENDBRANCH   6   7
ENDBRANCH   5   6
ENDBRANCH   3   5
ENDBRANCH   1   3
BRANCH   1  11
ATOM     11  C   UNL     1      -3.821   3.363  30.973  1.00  0.00     0.087 C 
BRANCH  11  12
ATOM     12  C   UNL     1      -2.408   2.746  31.158  1.00  0.00     0.066 C 
BRANCH  12  13
ATOM     13  C   UNL     1      -2.053   1.865  29.964  1.00  0.00     0.140 C 
ATOM     14  O   UNL     1      -1.403   2.349  29.048  1.00  0.00    -0.299 OA
BRANCH  13  15
ATOM     15  C   UNL     1      -2.384   0.387  29.896  1.00  0.00     0.106 CG0
ATOM     16  G   UNL     1      -3.732   0.075  29.274  1.00  0.00     0.000 G0
ENDBRANCH  13  15
ENDBRANCH  12  13
BRANCH  12  17
ATOM     17  C   UNL     1      -1.323   3.854  31.355  1.00  0.00    -0.006 C 
ATOM     18  C   UNL     1      -0.830   3.909  32.812  1.00  0.00     0.008 C 
ATOM     19  C   UNL     1      -1.838   5.250  30.955  1.00  0.00     0.008 C 
ENDBRANCH  12  17
ENDBRANCH  11  12
ENDBRANCH   1  11
TORSDOF 1
ENDMDL
