MODEL 1
REMARK VINA RESULT:    -4.473      0.000      0.000
REMARK INTER + INTRA:          -9.232
REMARK INTER:                  -6.826
REMARK INTRA:                  -2.406
REMARK UNBOUND:                -2.406
REMARK SMILES CC(=O)CCC=C(C)CCC=C(C)CCC=C(C)C
REMARK SMILES IDX 10 1 11 2 12 3 13 4 14 5 15 6 16 7 18 8 17 9 19 10 9 11 7 12
REMARK SMILES IDX 6 13 8 14 5 15 4 16 2 17 3 18 1 19
REMARK H PARENT
REMARK Flexibility Score: inf
ROOT
ATOM      1  C   UNL     1      43.251  57.125  28.654  1.00  0.00     0.032 C 
ENDROOT
BRANCH   1   2
ATOM      2  C   UNL     1      44.743  57.348  28.629  1.00  0.00    -0.028 C 
ATOM      3  C   UNL     1      45.379  58.171  27.764  1.00  0.00    -0.077 C 
ATOM      4  C   UNL     1      44.636  58.917  26.681  1.00  0.00     0.039 C 
BRANCH   3   5
ATOM      5  C   UNL     1      46.879  58.334  27.873  1.00  0.00     0.034 C 
BRANCH   5   6
ATOM      6  C   UNL     1      47.591  57.611  26.724  1.00  0.00     0.032 C 
BRANCH   6   7
ATOM      7  C   UNL     1      47.470  56.116  26.876  1.00  0.00    -0.028 C 
ATOM      8  C   UNL     1      45.918  55.881  24.925  1.00  0.00     0.039 C 
ATOM      9  C   UNL     1      46.742  55.322  26.060  1.00  0.00    -0.080 C 
ATOM     10  C   UNL     1      46.747  53.836  26.311  1.00  0.00     0.039 C 
ENDBRANCH   6   7
ENDBRANCH   5   6
ENDBRANCH   3   5
ENDBRANCH   1   2
BRANCH   1  11
ATOM     11  C   UNL     1      42.920  55.647  28.420  1.00  0.00     0.034 C 
BRANCH  11  12
ATOM     12  C   UNL     1      42.688  55.377  26.949  1.00  0.00    -0.077 C 
ATOM     13  C   UNL     1      42.215  56.372  26.165  1.00  0.00    -0.028 C 
ATOM     14  C   UNL     1      43.007  54.009  26.394  1.00  0.00     0.039 C 
BRANCH  13  15
ATOM     15  C   UNL     1      41.894  56.223  24.699  1.00  0.00     0.035 C 
BRANCH  15  16
ATOM     16  C   UNL     1      40.391  56.393  24.455  1.00  0.00     0.079 C 
BRANCH  16  17
ATOM     17  C   UNL     1      39.634  55.184  24.933  1.00  0.00     0.130 C 
ATOM     18  O   UNL     1      39.845  54.094  24.423  1.00  0.00    -0.300 OA
ATOM     19  C   UNL     1      38.607  55.312  26.016  1.00  0.00     0.087 C 
ENDBRANCH  16  17
ENDBRANCH  15  16
ENDBRANCH  13  15
ENDBRANCH  11  12
ENDBRANCH   1  11
TORSDOF 9
ENDMDL
MODEL 2
REMARK VINA RESULT:    -4.454      2.130      4.450
REMARK INTER + INTRA:          -9.203
REMARK INTER:                  -7.612
REMARK INTRA:                  -1.592
REMARK UNBOUND:                -2.406
REMARK SMILES CC(=O)CCC=C(C)CCC=C(C)CCC=C(C)C
REMARK SMILES IDX 10 1 11 2 12 3 13 4 14 5 15 6 16 7 18 8 17 9 19 10 9 11 7 12
REMARK SMILES IDX 6 13 8 14 5 15 4 16 2 17 3 18 1 19
REMARK H PARENT
REMARK Flexibility Score: inf
ROOT
ATOM      1  C   UNL     1      41.248  56.442  24.586  1.00  0.00     0.032 C 
ENDROOT
BRANCH   1   2
ATOM      2  C   UNL     1      42.263  56.233  25.682  1.00  0.00    -0.028 C 
ATOM      3  C   UNL     1      41.952  56.022  26.982  1.00  0.00    -0.077 C 
ATOM      4  C   UNL     1      40.523  56.032  27.472  1.00  0.00     0.039 C 
BRANCH   3   5
ATOM      5  C   UNL     1      43.069  55.789  27.975  1.00  0.00     0.034 C 
BRANCH   5   6
ATOM      6  C   UNL     1      43.408  57.079  28.728  1.00  0.00     0.032 C 
BRANCH   6   7
ATOM      7  C   UNL     1      44.881  57.389  28.624  1.00  0.00    -0.028 C 
ATOM      8  C   UNL     1      44.587  58.907  26.654  1.00  0.00     0.039 C 
ATOM      9  C   UNL     1      45.423  58.227  27.713  1.00  0.00    -0.080 C 
ATOM     10  C   UNL     1      46.909  58.471  27.755  1.00  0.00     0.039 C 
ENDBRANCH   6   7
ENDBRANCH   5   6
ENDBRANCH   3   5
ENDBRANCH   1   2
BRANCH   1  11
ATOM     11  C   UNL     1      40.870  55.107  23.935  1.00  0.00     0.034 C 
BRANCH  11  12
ATOM     12  C   UNL     1      39.394  54.823  24.111  1.00  0.00    -0.077 C 
ATOM     13  C   UNL     1      38.985  53.544  24.266  1.00  0.00    -0.028 C 
ATOM     14  C   UNL     1      38.420  55.978  24.127  1.00  0.00     0.039 C 
BRANCH  13  15
ATOM     15  C   UNL     1      37.544  53.119  24.401  1.00  0.00     0.035 C 
BRANCH  15  16
ATOM     16  C   UNL     1      37.252  52.649  25.830  1.00  0.00     0.079 C 
BRANCH  16  17
ATOM     17  C   UNL     1      36.711  53.780  26.663  1.00  0.00     0.130 C 
ATOM     18  O   UNL     1      37.243  54.060  27.726  1.00  0.00    -0.300 OA
ATOM     19  C   UNL     1      35.509  54.550  26.206  1.00  0.00     0.087 C 
ENDBRANCH  16  17
ENDBRANCH  15  16
ENDBRANCH  13  15
ENDBRANCH  11  12
ENDBRANCH   1  11
TORSDOF 9
ENDMDL
MODEL 3
REMARK VINA RESULT:    -4.389      1.499      2.088
REMARK INTER + INTRA:          -9.104
REMARK INTER:                  -7.275
REMARK INTRA:                  -1.828
REMARK UNBOUND:                -2.406
REMARK SMILES CC(=O)CCC=C(C)CCC=C(C)CCC=C(C)C
REMARK SMILES IDX 10 1 11 2 12 3 13 4 14 5 15 6 16 7 18 8 17 9 19 10 9 11 7 12
REMARK SMILES IDX 6 13 8 14 5 15 4 16 2 17 3 18 1 19
REMARK H PARENT
REMARK Flexibility Score: inf
ROOT
ATOM      1  C   UNL     1      43.236  57.089  28.680  1.00  0.00     0.032 C 
ENDROOT
BRANCH   1   2
ATOM      2  C   UNL     1      44.734  57.178  28.528  1.00  0.00    -0.028 C 
ATOM      3  C   UNL     1      45.369  58.014  27.674  1.00  0.00    -0.077 C 
ATOM      4  C   UNL     1      44.609  58.917  26.731  1.00  0.00     0.039 C 
BRANCH   3   5
ATOM      5  C   UNL     1      46.881  58.029  27.649  1.00  0.00     0.034 C 
BRANCH   5   6
ATOM      6  C   UNL     1      47.431  56.703  27.116  1.00  0.00     0.032 C 
BRANCH   6   7
ATOM      7  C   UNL     1      47.023  56.493  25.679  1.00  0.00    -0.028 C 
ATOM      8  C   UNL     1      45.635  54.475  26.200  1.00  0.00     0.039 C 
ATOM      9  C   UNL     1      46.197  55.511  25.256  1.00  0.00    -0.080 C 
ATOM     10  C   UNL     1      45.845  55.449  23.792  1.00  0.00     0.039 C 
ENDBRANCH   6   7
ENDBRANCH   5   6
ENDBRANCH   3   5
ENDBRANCH   1   2
BRANCH   1  11
ATOM     11  C   UNL     1      42.728  55.707  28.252  1.00  0.00     0.034 C 
BRANCH  11  12
ATOM     12  C   UNL     1      41.767  55.826  27.089  1.00  0.00    -0.077 C 
ATOM     13  C   UNL     1      40.453  55.583  27.296  1.00  0.00    -0.028 C 
ATOM     14  C   UNL     1      42.300  56.229  25.734  1.00  0.00     0.039 C 
BRANCH  13  15
ATOM     15  C   UNL     1      39.400  55.618  26.217  1.00  0.00     0.035 C 
BRANCH  15  16
ATOM     16  C   UNL     1      38.752  54.239  26.051  1.00  0.00     0.079 C 
BRANCH  16  17
ATOM     17  C   UNL     1      37.420  54.189  26.747  1.00  0.00     0.130 C 
ATOM     18  O   UNL     1      37.370  53.981  27.950  1.00  0.00    -0.300 OA
ATOM     19  C   UNL     1      36.151  54.370  25.970  1.00  0.00     0.087 C 
ENDBRANCH  16  17
ENDBRANCH  15  16
ENDBRANCH  13  15
ENDBRANCH  11  12
ENDBRANCH   1  11
TORSDOF 9
ENDMDL
MODEL 4
REMARK VINA RESULT:    -4.344      2.662      7.687
REMARK INTER + INTRA:          -9.036
REMARK INTER:                  -7.191
REMARK INTRA:                  -1.845
REMARK UNBOUND:                -2.406
REMARK SMILES CC(=O)CCC=C(C)CCC=C(C)CCC=C(C)C
REMARK SMILES IDX 10 1 11 2 12 3 13 4 14 5 15 6 16 7 18 8 17 9 19 10 9 11 7 12
REMARK SMILES IDX 6 13 8 14 5 15 4 16 2 17 3 18 1 19
REMARK H PARENT
REMARK Flexibility Score: inf
ROOT
ATOM      1  C   UNL     1      41.532  53.470  25.600  1.00  0.00     0.032 C 
ENDROOT
BRANCH   1   2
ATOM      2  C   UNL     1      40.312  53.147  26.427  1.00  0.00    -0.028 C 
ATOM      3  C   UNL     1      39.322  54.026  26.705  1.00  0.00    -0.077 C 
ATOM      4  C   UNL     1      39.380  55.464  26.246  1.00  0.00     0.039 C 
BRANCH   3   5
ATOM      5  C   UNL     1      38.133  53.559  27.516  1.00  0.00     0.034 C 
BRANCH   5   6
ATOM      6  C   UNL     1      37.110  52.848  26.623  1.00  0.00     0.032 C 
BRANCH   6   7
ATOM      7  C   UNL     1      36.091  53.826  26.093  1.00  0.00    -0.028 C 
ATOM      8  C   UNL     1      37.033  53.796  23.773  1.00  0.00     0.039 C 
ATOM      9  C   UNL     1      36.028  54.242  24.809  1.00  0.00    -0.080 C 
ATOM     10  C   UNL     1      34.928  55.193  24.415  1.00  0.00     0.039 C 
ENDBRANCH   6   7
ENDBRANCH   5   6
ENDBRANCH   3   5
ENDBRANCH   1   2
BRANCH   1  11
ATOM     11  C   UNL     1      42.748  53.714  26.500  1.00  0.00     0.034 C 
BRANCH  11  12
ATOM     12  C   UNL     1      42.874  55.182  26.844  1.00  0.00    -0.077 C 
ATOM     13  C   UNL     1      42.884  55.553  28.144  1.00  0.00    -0.028 C 
ATOM     14  C   UNL     1      43.001  56.191  25.727  1.00  0.00     0.039 C 
BRANCH  13  15
ATOM     15  C   UNL     1      42.954  56.982  28.623  1.00  0.00     0.035 C 
BRANCH  15  16
ATOM     16  C   UNL     1      44.359  57.310  29.139  1.00  0.00     0.079 C 
BRANCH  16  17
ATOM     17  C   UNL     1      45.232  57.816  28.023  1.00  0.00     0.130 C 
ATOM     18  O   UNL     1      45.002  58.905  27.519  1.00  0.00    -0.300 OA
ATOM     19  C   UNL     1      46.368  56.983  27.512  1.00  0.00     0.087 C 
ENDBRANCH  16  17
ENDBRANCH  15  16
ENDBRANCH  13  15
ENDBRANCH  11  12
ENDBRANCH   1  11
TORSDOF 9
ENDMDL
MODEL 5
REMARK VINA RESULT:    -4.301      2.532      5.554
REMARK INTER + INTRA:          -8.970
REMARK INTER:                  -6.349
REMARK INTRA:                  -2.621
REMARK UNBOUND:                -2.406
REMARK SMILES CC(=O)CCC=C(C)CCC=C(C)CCC=C(C)C
REMARK SMILES IDX 10 1 11 2 12 3 13 4 14 5 15 6 16 7 18 8 17 9 19 10 9 11 7 12
REMARK SMILES IDX 6 13 8 14 5 15 4 16 2 17 3 18 1 19
REMARK H PARENT
REMARK Flexibility Score: inf
ROOT
ATOM      1  C   UNL     1      43.145  57.088  28.614  1.00  0.00     0.032 C 
ENDROOT
BRANCH   1   2
ATOM      2  C   UNL     1      43.036  55.631  28.240  1.00  0.00    -0.028 C 
ATOM      3  C   UNL     1      42.466  55.174  27.101  1.00  0.00    -0.077 C 
ATOM      4  C   UNL     1      41.823  56.107  26.102  1.00  0.00     0.039 C 
BRANCH   3   5
ATOM      5  C   UNL     1      42.456  53.686  26.831  1.00  0.00     0.034 C 
BRANCH   5   6
ATOM      6  C   UNL     1      43.467  53.323  25.738  1.00  0.00     0.032 C 
BRANCH   6   7
ATOM      7  C   UNL     1      44.879  53.444  26.254  1.00  0.00    -0.028 C 
ATOM      8  C   UNL     1      45.342  55.542  24.967  1.00  0.00     0.039 C 
ATOM      9  C   UNL     1      45.726  54.448  25.936  1.00  0.00    -0.080 C 
ATOM     10  C   UNL     1      47.097  54.458  26.561  1.00  0.00     0.039 C 
ENDBRANCH   6   7
ENDBRANCH   5   6
ENDBRANCH   3   5
ENDBRANCH   1   2
BRANCH   1  11
ATOM     11  C   UNL     1      44.580  57.436  29.027  1.00  0.00     0.034 C 
BRANCH  11  12
ATOM     12  C   UNL     1      45.325  58.084  27.881  1.00  0.00    -0.077 C 
ATOM     13  C   UNL     1      46.677  58.108  27.906  1.00  0.00    -0.028 C 
ATOM     14  C   UNL     1      44.540  58.671  26.731  1.00  0.00     0.039 C 
BRANCH  13  15
ATOM     15  C   UNL     1      47.538  58.763  26.856  1.00  0.00     0.035 C 
BRANCH  15  16
ATOM     16  C   UNL     1      48.548  57.762  26.285  1.00  0.00     0.079 C 
BRANCH  16  17
ATOM     17  C   UNL     1      48.352  57.594  24.803  1.00  0.00     0.130 C 
ATOM     18  O   UNL     1      48.931  56.696  24.211  1.00  0.00    -0.300 OA
ATOM     19  C   UNL     1      47.467  58.535  24.045  1.00  0.00     0.087 C 
ENDBRANCH  16  17
ENDBRANCH  15  16
ENDBRANCH  13  15
ENDBRANCH  11  12
ENDBRANCH   1  11
TORSDOF 9
ENDMDL
MODEL 6
REMARK VINA RESULT:    -4.247      2.461      5.453
REMARK INTER + INTRA:          -8.888
REMARK INTER:                  -6.155
REMARK INTRA:                  -2.733
REMARK UNBOUND:                -2.406
REMARK SMILES CC(=O)CCC=C(C)CCC=C(C)CCC=C(C)C
REMARK SMILES IDX 10 1 11 2 12 3 13 4 14 5 15 6 16 7 18 8 17 9 19 10 9 11 7 12
REMARK SMILES IDX 6 13 8 14 5 15 4 16 2 17 3 18 1 19
REMARK H PARENT
REMARK Flexibility Score: inf
ROOT
ATOM      1  C   UNL     1      45.195  59.505  25.610  1.00  0.00     0.032 C 
ENDROOT
BRANCH   1   2
ATOM      2  C   UNL     1      44.600  58.683  26.726  1.00  0.00    -0.028 C 
ATOM      3  C   UNL     1      45.292  58.235  27.799  1.00  0.00    -0.077 C 
ATOM      4  C   UNL     1      46.775  58.481  27.950  1.00  0.00     0.039 C 
BRANCH   3   5
ATOM      5  C   UNL     1      44.563  57.451  28.867  1.00  0.00     0.034 C 
BRANCH   5   6
ATOM      6  C   UNL     1      43.182  57.009  28.373  1.00  0.00     0.032 C 
BRANCH   6   7
ATOM      7  C   UNL     1      43.220  55.584  27.882  1.00  0.00    -0.028 C 
ATOM      8  C   UNL     1      42.167  56.144  25.680  1.00  0.00     0.039 C 
ATOM      9  C   UNL     1      42.790  55.183  26.665  1.00  0.00    -0.080 C 
ATOM     10  C   UNL     1      42.928  53.729  26.297  1.00  0.00     0.039 C 
ENDBRANCH   6   7
ENDBRANCH   5   6
ENDBRANCH   3   5
ENDBRANCH   1   2
BRANCH   1  11
ATOM     11  C   UNL     1      45.262  58.692  24.312  1.00  0.00     0.034 C 
BRANCH  11  12
ATOM     12  C   UNL     1      46.230  57.538  24.453  1.00  0.00    -0.077 C 
ATOM     13  C   UNL     1      45.742  56.290  24.637  1.00  0.00    -0.028 C 
ATOM     14  C   UNL     1      47.714  57.808  24.365  1.00  0.00     0.039 C 
BRANCH  13  15
ATOM     15  C   UNL     1      46.594  55.063  24.840  1.00  0.00     0.035 C 
BRANCH  15  16
ATOM     16  C   UNL     1      46.586  54.638  26.313  1.00  0.00     0.079 C 
BRANCH  16  17
ATOM     17  C   UNL     1      47.986  54.379  26.800  1.00  0.00     0.130 C 
ATOM     18  O   UNL     1      48.355  53.234  27.009  1.00  0.00    -0.300 OA
ATOM     19  C   UNL     1      48.923  55.521  27.052  1.00  0.00     0.087 C 
ENDBRANCH  16  17
ENDBRANCH  15  16
ENDBRANCH  13  15
ENDBRANCH  11  12
ENDBRANCH   1  11
TORSDOF 9
ENDMDL
MODEL 7
REMARK VINA RESULT:    -4.237      2.520      5.106
REMARK INTER + INTRA:          -8.872
REMARK INTER:                  -6.435
REMARK INTRA:                  -2.437
REMARK UNBOUND:                -2.406
REMARK SMILES CC(=O)CCC=C(C)CCC=C(C)CCC=C(C)C
REMARK SMILES IDX 10 1 11 2 12 3 13 4 14 5 15 6 16 7 18 8 17 9 19 10 9 11 7 12
REMARK SMILES IDX 6 13 8 14 5 15 4 16 2 17 3 18 1 19
REMARK H PARENT
REMARK Flexibility Score: inf
ROOT
ATOM      1  C   UNL     1      43.180  57.085  28.571  1.00  0.00     0.032 C 
ENDROOT
BRANCH   1   2
ATOM      2  C   UNL     1      42.989  55.632  28.213  1.00  0.00    -0.028 C 
ATOM      3  C   UNL     1      42.579  55.190  27.001  1.00  0.00    -0.077 C 
ATOM      4  C   UNL     1      42.215  56.143  25.887  1.00  0.00     0.039 C 
BRANCH   3   5
ATOM      5  C   UNL     1      42.465  53.701  26.762  1.00  0.00     0.034 C 
BRANCH   5   6
ATOM      6  C   UNL     1      43.608  53.202  25.871  1.00  0.00     0.032 C 
BRANCH   6   7
ATOM      7  C   UNL     1      44.941  53.668  26.399  1.00  0.00    -0.028 C 
ATOM      8  C   UNL     1      45.466  55.009  24.350  1.00  0.00     0.039 C 
ATOM      9  C   UNL     1      45.776  54.500  25.738  1.00  0.00    -0.080 C 
ATOM     10  C   UNL     1      47.061  54.912  26.409  1.00  0.00     0.039 C 
ENDBRANCH   6   7
ENDBRANCH   5   6
ENDBRANCH   3   5
ENDBRANCH   1   2
BRANCH   1  11
ATOM     11  C   UNL     1      44.646  57.371  28.914  1.00  0.00     0.034 C 
BRANCH  11  12
ATOM     12  C   UNL     1      45.306  58.175  27.815  1.00  0.00    -0.077 C 
ATOM     13  C   UNL     1      44.536  58.714  26.843  1.00  0.00    -0.028 C 
ATOM     14  C   UNL     1      46.804  58.368  27.844  1.00  0.00     0.039 C 
BRANCH  13  15
ATOM     15  C   UNL     1      45.069  59.493  25.666  1.00  0.00     0.035 C 
BRANCH  15  16
ATOM     16  C   UNL     1      45.347  58.561  24.483  1.00  0.00     0.079 C 
BRANCH  16  17
ATOM     17  C   UNL     1      46.716  58.816  23.914  1.00  0.00     0.130 C 
ATOM     18  O   UNL     1      46.893  59.756  23.154  1.00  0.00    -0.300 OA
ATOM     19  C   UNL     1      47.859  57.909  24.256  1.00  0.00     0.087 C 
ENDBRANCH  16  17
ENDBRANCH  15  16
ENDBRANCH  13  15
ENDBRANCH  11  12
ENDBRANCH   1  11
TORSDOF 9
ENDMDL
MODEL 8
REMARK VINA RESULT:    -4.175      1.524      2.380
REMARK INTER + INTRA:          -8.778
REMARK INTER:                  -6.344
REMARK INTRA:                  -2.434
REMARK UNBOUND:                -2.406
REMARK SMILES CC(=O)CCC=C(C)CCC=C(C)CCC=C(C)C
REMARK SMILES IDX 10 1 11 2 12 3 13 4 14 5 15 6 16 7 18 8 17 9 19 10 9 11 7 12
REMARK SMILES IDX 6 13 8 14 5 15 4 16 2 17 3 18 1 19
REMARK H PARENT
REMARK Flexibility Score: inf
ROOT
ATOM      1  C   UNL     1      43.262  57.184  28.642  1.00  0.00     0.032 C 
ENDROOT
BRANCH   1   2
ATOM      2  C   UNL     1      44.754  57.387  28.559  1.00  0.00    -0.028 C 
ATOM      3  C   UNL     1      45.371  58.159  27.635  1.00  0.00    -0.077 C 
ATOM      4  C   UNL     1      44.602  58.861  26.541  1.00  0.00     0.039 C 
BRANCH   3   5
ATOM      5  C   UNL     1      46.876  58.307  27.688  1.00  0.00     0.034 C 
BRANCH   5   6
ATOM      6  C   UNL     1      47.533  57.627  26.483  1.00  0.00     0.032 C 
BRANCH   6   7
ATOM      7  C   UNL     1      48.281  56.388  26.908  1.00  0.00    -0.028 C 
ATOM      8  C   UNL     1      46.394  54.852  26.316  1.00  0.00     0.039 C 
ATOM      9  C   UNL     1      47.791  55.132  26.816  1.00  0.00    -0.080 C 
ATOM     10  C   UNL     1      48.670  53.985  27.244  1.00  0.00     0.039 C 
ENDBRANCH   6   7
ENDBRANCH   5   6
ENDBRANCH   3   5
ENDBRANCH   1   2
BRANCH   1  11
ATOM     11  C   UNL     1      42.914  55.692  28.613  1.00  0.00     0.034 C 
BRANCH  11  12
ATOM     12  C   UNL     1      42.635  55.234  27.198  1.00  0.00    -0.077 C 
ATOM     13  C   UNL     1      42.141  56.122  26.306  1.00  0.00    -0.028 C 
ATOM     14  C   UNL     1      42.932  53.803  26.817  1.00  0.00     0.039 C 
BRANCH  13  15
ATOM     15  C   UNL     1      41.774  55.786  24.882  1.00  0.00     0.035 C 
BRANCH  15  16
ATOM     16  C   UNL     1      42.594  56.629  23.900  1.00  0.00     0.079 C 
BRANCH  16  17
ATOM     17  C   UNL     1      43.943  56.006  23.661  1.00  0.00     0.130 C 
ATOM     18  O   UNL     1      44.049  54.790  23.609  1.00  0.00    -0.300 OA
ATOM     19  C   UNL     1      45.159  56.867  23.507  1.00  0.00     0.087 C 
ENDBRANCH  16  17
ENDBRANCH  15  16
ENDBRANCH  13  15
ENDBRANCH  11  12
ENDBRANCH   1  11
TORSDOF 9
ENDMDL
MODEL 9
REMARK VINA RESULT:    -4.157      2.771      6.029
REMARK INTER + INTRA:          -8.751
REMARK INTER:                  -6.319
REMARK INTRA:                  -2.431
REMARK UNBOUND:                -2.406
REMARK SMILES CC(=O)CCC=C(C)CCC=C(C)CCC=C(C)C
REMARK SMILES IDX 10 1 11 2 12 3 13 4 14 5 15 6 16 7 18 8 17 9 19 10 9 11 7 12
REMARK SMILES IDX 6 13 8 14 5 15 4 16 2 17 3 18 1 19
REMARK H PARENT
REMARK Flexibility Score: inf
ROOT
ATOM      1  C   UNL     1      43.680  56.738  29.067  1.00  0.00     0.032 C 
ENDROOT
BRANCH   1   2
ATOM      2  C   UNL     1      42.428  56.823  28.229  1.00  0.00    -0.028 C 
ATOM      3  C   UNL     1      41.813  55.758  27.664  1.00  0.00    -0.077 C 
ATOM      4  C   UNL     1      42.373  54.360  27.780  1.00  0.00     0.039 C 
BRANCH   3   5
ATOM      5  C   UNL     1      40.540  55.978  26.877  1.00  0.00     0.034 C 
BRANCH   5   6
ATOM      6  C   UNL     1      40.701  55.494  25.433  1.00  0.00     0.032 C 
BRANCH   6   7
ATOM      7  C   UNL     1      41.661  56.377  24.676  1.00  0.00    -0.028 C 
ATOM      8  C   UNL     1      43.309  54.531  24.293  1.00  0.00     0.039 C 
ATOM      9  C   UNL     1      42.825  55.953  24.137  1.00  0.00    -0.080 C 
ATOM     10  C   UNL     1      43.666  56.942  23.372  1.00  0.00     0.039 C 
ENDBRANCH   6   7
ENDBRANCH   5   6
ENDBRANCH   3   5
ENDBRANCH   1   2
BRANCH   1  11
ATOM     11  C   UNL     1      44.634  57.890  28.735  1.00  0.00     0.034 C 
BRANCH  11  12
ATOM     12  C   UNL     1      45.150  57.766  27.318  1.00  0.00    -0.077 C 
ATOM     13  C   UNL     1      45.899  56.692  26.983  1.00  0.00    -0.028 C 
ATOM     14  C   UNL     1      44.799  58.838  26.312  1.00  0.00     0.039 C 
BRANCH  13  15
ATOM     15  C   UNL     1      46.514  56.471  25.623  1.00  0.00     0.035 C 
BRANCH  15  16
ATOM     16  C   UNL     1      48.037  56.630  25.688  1.00  0.00     0.079 C 
BRANCH  16  17
ATOM     17  C   UNL     1      48.422  58.084  25.666  1.00  0.00     0.130 C 
ATOM     18  O   UNL     1      49.001  58.573  26.624  1.00  0.00    -0.300 OA
ATOM     19  C   UNL     1      48.080  58.941  24.486  1.00  0.00     0.087 C 
ENDBRANCH  16  17
ENDBRANCH  15  16
ENDBRANCH  13  15
ENDBRANCH  11  12
ENDBRANCH   1  11
TORSDOF 9
ENDMDL
