MODEL 1
REMARK VINA RESULT:    -3.853      0.000      0.000
REMARK INTER + INTRA:          -4.774
REMARK INTER:                  -5.429
REMARK INTRA:                   0.655
REMARK UNBOUND:                 0.655
REMARK SMILES CC1=CCC(=C(C)C)C(=O)CC(C)=CCC1
REMARK SMILES IDX 12 1 14 2 13 3 15 4 16 5 2 6 1 7 3 8 11 10 9 11 10 12 5 13
REMARK SMILES IDX 6 14 7 15 8 16 4 17
REMARK H PARENT
REMARK Flexibility Score: 60.00
ROOT
ATOM      1  C   UNL     1      30.283  20.249   5.969  1.00  0.00    -0.070 C 
ATOM      2  C   UNL     1      29.605  20.196   4.798  1.00  0.00    -0.027 C 
ATOM      3  C   UNL     1      31.760  20.546   5.919  1.00  0.00     0.039 C 
ENDROOT
BRANCH   2   4
ATOM      4  C   UNL     1      28.116  19.971   4.663  1.00  0.00     0.032 C 
BRANCH   4   5
ATOM      5  C   UNL     1      27.376  21.271   4.314  1.00  0.00     0.034 C 
BRANCH   5   6
ATOM      6  C   UNL     1      26.672  21.908   5.504  1.00  0.00    -0.077 C 
ATOM      7  C   UNL     1      25.218  21.588   5.746  1.00  0.00     0.039 C 
ATOM      8  C   UNL     1      27.289  22.738   6.377  1.00  0.00    -0.023 CG0
ATOM      9  G   UNL     1      28.713  23.228   6.261  1.00  0.00     0.000 G0
ENDBRANCH   5   6
ENDBRANCH   4   5
ENDBRANCH   2   4
BRANCH   1  10
ATOM     10  C   UNL     1      29.624  20.020   7.315  1.00  0.00     0.111 C 
BRANCH  10  11
ATOM     11  C   UNL     1      29.300  21.324   7.988  1.00  0.00     0.163 C 
ATOM     12  O   UNL     1      28.741  21.314   9.118  1.00  0.00    -0.294 OA
BRANCH  11  13
ATOM     13  C   UNL     1      29.649  22.625   7.361  1.00  0.00    -0.002 C 
ATOM     14  C   UNL     1      30.777  23.286   7.735  1.00  0.00    -0.069 C 
ATOM     15  C   UNL     1      31.750  22.679   8.722  1.00  0.00     0.039 C 
ATOM     16  C   UNL     1      31.122  24.635   7.147  1.00  0.00     0.039 C 
BRANCH  13  17
ATOM     17  C   UNL     1      28.727  23.204   6.294  1.00  0.00     0.066 CG0
ATOM     18  G   UNL     1      27.298  22.727   6.398  1.00  0.00     0.000 G0
ENDBRANCH  13  17
ENDBRANCH  11  13
ENDBRANCH  10  11
ENDBRANCH   1  10
TORSDOF 0
ENDMDL
MODEL 2
REMARK VINA RESULT:    -3.741      2.910      5.525
REMARK INTER + INTRA:          -4.617
REMARK INTER:                  -5.110
REMARK INTRA:                   0.493
REMARK UNBOUND:                 0.655
REMARK SMILES CC1=CCC(=C(C)C)C(=O)CC(C)=CCC1
REMARK SMILES IDX 12 1 14 2 13 3 15 4 16 5 2 6 1 7 3 8 11 10 9 11 10 12 5 13
REMARK SMILES IDX 6 14 7 15 8 16 4 17
REMARK H PARENT
REMARK Flexibility Score: 60.00
ROOT
ATOM      1  C   UNL     1      24.349  20.699   5.865  1.00  0.00    -0.070 C 
ATOM      2  C   UNL     1      25.368  19.935   5.404  1.00  0.00    -0.027 C 
ATOM      3  C   UNL     1      23.921  20.519   7.299  1.00  0.00     0.039 C 
ENDROOT
BRANCH   2   4
ATOM      4  C   UNL     1      25.966  20.023   4.018  1.00  0.00     0.032 C 
BRANCH   4   5
ATOM      5  C   UNL     1      27.443  20.441   4.065  1.00  0.00     0.034 C 
BRANCH   5   6
ATOM      6  C   UNL     1      27.706  21.648   4.954  1.00  0.00    -0.077 C 
ATOM      7  C   UNL     1      28.577  21.477   6.173  1.00  0.00     0.039 C 
ATOM      8  C   UNL     1      27.212  22.882   4.700  1.00  0.00    -0.023 CG0
ATOM      9  G   UNL     1      26.269  23.232   3.573  1.00  0.00     0.000 G0
ENDBRANCH   5   6
ENDBRANCH   4   5
ENDBRANCH   2   4
BRANCH   1  10
ATOM     10  C   UNL     1      23.626  21.716   5.004  1.00  0.00     0.111 C 
BRANCH  10  11
ATOM     11  C   UNL     1      24.224  23.085   5.166  1.00  0.00     0.163 C 
ATOM     12  O   UNL     1      24.162  23.658   6.287  1.00  0.00    -0.294 OA
BRANCH  11  13
ATOM     13  C   UNL     1      24.908  23.768   4.037  1.00  0.00    -0.002 C 
ATOM     14  C   UNL     1      24.335  24.848   3.441  1.00  0.00    -0.069 C 
ATOM     15  C   UNL     1      23.043  25.438   3.963  1.00  0.00     0.039 C 
ATOM     16  C   UNL     1      24.989  25.524   2.258  1.00  0.00     0.039 C 
BRANCH  13  17
ATOM     17  C   UNL     1      26.257  23.243   3.561  1.00  0.00     0.066 CG0
ATOM     18  G   UNL     1      27.205  22.891   4.683  1.00  0.00     0.000 G0
ENDBRANCH  13  17
ENDBRANCH  11  13
ENDBRANCH  10  11
ENDBRANCH   1  10
TORSDOF 0
ENDMDL
MODEL 3
REMARK VINA RESULT:    -3.681      1.518      4.126
REMARK INTER + INTRA:          -4.532
REMARK INTER:                  -7.356
REMARK INTRA:                   2.823
REMARK UNBOUND:                 0.655
REMARK SMILES CC1=CCC(=C(C)C)C(=O)CC(C)=CCC1
REMARK SMILES IDX 12 1 14 2 13 3 15 4 16 5 2 6 1 7 3 8 11 10 9 11 10 12 5 13
REMARK SMILES IDX 6 14 7 15 8 16 4 17
REMARK H PARENT
REMARK Flexibility Score: 60.00
ROOT
ATOM      1  C   UNL     1      31.408  20.471   6.265  1.00  0.00    -0.070 C 
ATOM      2  C   UNL     1      32.358  21.145   6.954  1.00  0.00    -0.027 C 
ATOM      3  C   UNL     1      31.786  19.875   4.933  1.00  0.00     0.039 C 
ENDROOT
BRANCH   2   4
ATOM      4  C   UNL     1      32.174  21.753   8.326  1.00  0.00     0.032 C 
BRANCH   4   5
ATOM      5  C   UNL     1      30.717  22.178   8.565  1.00  0.00     0.034 C 
BRANCH   5   6
ATOM      6  C   UNL     1      30.317  23.434   7.804  1.00  0.00    -0.077 C 
ATOM      7  C   UNL     1      31.280  24.593   7.755  1.00  0.00     0.039 C 
ATOM      8  C   UNL     1      29.142  23.561   7.145  1.00  0.00    -0.023 CG0
ATOM      9  G   UNL     1      28.027  22.542   7.137  1.00  0.00     0.000 G0
ENDBRANCH   5   6
ENDBRANCH   4   5
ENDBRANCH   2   4
BRANCH   1  10
ATOM     10  C   UNL     1      29.990  20.295   6.772  1.00  0.00     0.111 C 
BRANCH  10  11
ATOM     11  C   UNL     1      28.987  20.605   5.697  1.00  0.00     0.163 C 
ATOM     12  O   UNL     1      29.005  19.942   4.625  1.00  0.00    -0.294 OA
BRANCH  11  13
ATOM     13  C   UNL     1      27.959  21.662   5.882  1.00  0.00    -0.002 C 
ATOM     14  C   UNL     1      26.987  21.844   4.947  1.00  0.00    -0.069 C 
ATOM     15  C   UNL     1      26.869  20.925   3.750  1.00  0.00     0.039 C 
ATOM     16  C   UNL     1      25.963  22.946   5.090  1.00  0.00     0.039 C 
BRANCH  13  17
ATOM     17  C   UNL     1      28.007  22.534   7.131  1.00  0.00     0.066 CG0
ATOM     18  G   UNL     1      29.137  23.537   7.130  1.00  0.00     0.000 G0
ENDBRANCH  13  17
ENDBRANCH  11  13
ENDBRANCH  10  11
ENDBRANCH   1  10
TORSDOF 0
ENDMDL
MODEL 4
REMARK VINA RESULT:    -3.527      3.242      5.379
REMARK INTER + INTRA:          -4.315
REMARK INTER:                  -5.199
REMARK INTRA:                   0.884
REMARK UNBOUND:                 0.655
REMARK SMILES CC1=CCC(=C(C)C)C(=O)CC(C)=CCC1
REMARK SMILES IDX 12 1 14 2 13 3 15 4 16 5 2 6 1 7 3 8 11 10 9 11 10 12 5 13
REMARK SMILES IDX 6 14 7 15 8 16 4 17
REMARK H PARENT
REMARK Flexibility Score: 60.00
ROOT
ATOM      1  C   UNL     1      26.985  21.249   5.225  1.00  0.00    -0.070 C 
ATOM      2  C   UNL     1      26.505  20.500   6.246  1.00  0.00    -0.027 C 
ATOM      3  C   UNL     1      28.407  21.740   5.314  1.00  0.00     0.039 C 
ENDROOT
BRANCH   2   4
ATOM      4  C   UNL     1      25.129  19.876   6.297  1.00  0.00     0.032 C 
BRANCH   4   5
ATOM      5  C   UNL     1      24.172  20.687   7.183  1.00  0.00     0.034 C 
BRANCH   5   6
ATOM      6  C   UNL     1      23.072  21.393   6.402  1.00  0.00    -0.077 C 
ATOM      7  C   UNL     1      21.747  20.696   6.219  1.00  0.00     0.039 C 
ATOM      8  C   UNL     1      23.212  22.632   5.875  1.00  0.00    -0.023 CG0
ATOM      9  G   UNL     1      24.479  23.454   5.895  1.00  0.00     0.000 G0
ENDBRANCH   5   6
ENDBRANCH   4   5
ENDBRANCH   2   4
BRANCH   1  10
ATOM     10  C   UNL     1      26.156  21.614   4.009  1.00  0.00     0.111 C 
BRANCH  10  11
ATOM     11  C   UNL     1      26.055  23.105   3.850  1.00  0.00     0.163 C 
ATOM     12  O   UNL     1      26.905  23.710   3.142  1.00  0.00    -0.294 OA
BRANCH  11  13
ATOM     13  C   UNL     1      24.959  23.877   4.489  1.00  0.00    -0.002 C 
ATOM     14  C   UNL     1      24.393  24.930   3.840  1.00  0.00    -0.069 C 
ATOM     15  C   UNL     1      24.794  25.285   2.425  1.00  0.00     0.039 C 
ATOM     16  C   UNL     1      23.312  25.761   4.494  1.00  0.00     0.039 C 
BRANCH  13  17
ATOM     17  C   UNL     1      24.477  23.472   5.877  1.00  0.00     0.066 CG0
ATOM     18  G   UNL     1      23.216  22.641   5.866  1.00  0.00     0.000 G0
ENDBRANCH  13  17
ENDBRANCH  11  13
ENDBRANCH  10  11
ENDBRANCH   1  10
TORSDOF 0
ENDMDL
MODEL 5
REMARK VINA RESULT:    -3.487      2.858      5.172
REMARK INTER + INTRA:          -4.258
REMARK INTER:                  -6.582
REMARK INTRA:                   2.324
REMARK UNBOUND:                 0.655
REMARK SMILES CC1=CCC(=C(C)C)C(=O)CC(C)=CCC1
REMARK SMILES IDX 12 1 14 2 13 3 15 4 16 5 2 6 1 7 3 8 11 10 9 11 10 12 5 13
REMARK SMILES IDX 6 14 7 15 8 16 4 17
REMARK H PARENT
REMARK Flexibility Score: 60.00
ROOT
ATOM      1  C   UNL     1      27.539  21.654   5.240  1.00  0.00    -0.070 C 
ATOM      2  C   UNL     1      27.192  21.790   3.939  1.00  0.00    -0.027 C 
ATOM      3  C   UNL     1      28.905  21.098   5.556  1.00  0.00     0.039 C 
ENDROOT
BRANCH   2   4
ATOM      4  C   UNL     1      25.894  22.382   3.440  1.00  0.00     0.032 C 
BRANCH   4   5
ATOM      5  C   UNL     1      25.854  23.905   3.637  1.00  0.00     0.034 C 
BRANCH   5   6
ATOM      6  C   UNL     1      24.824  24.359   4.663  1.00  0.00    -0.077 C 
ATOM      7  C   UNL     1      24.792  25.811   5.068  1.00  0.00     0.039 C 
ATOM      8  C   UNL     1      23.915  23.527   5.222  1.00  0.00    -0.023 CG0
ATOM      9  G   UNL     1      23.836  22.036   4.996  1.00  0.00     0.000 G0
ENDBRANCH   5   6
ENDBRANCH   4   5
ENDBRANCH   2   4
BRANCH   1  10
ATOM     10  C   UNL     1      26.617  22.030   6.383  1.00  0.00     0.111 C 
BRANCH  10  11
ATOM     11  C   UNL     1      25.570  20.975   6.605  1.00  0.00     0.163 C 
ATOM     12  O   UNL     1      25.900  19.876   7.125  1.00  0.00    -0.294 OA
BRANCH  11  13
ATOM     13  C   UNL     1      24.148  21.212   6.246  1.00  0.00    -0.002 C 
ATOM     14  C   UNL     1      23.152  20.698   7.017  1.00  0.00    -0.069 C 
ATOM     15  C   UNL     1      23.457  19.957   8.301  1.00  0.00     0.039 C 
ATOM     16  C   UNL     1      21.700  20.882   6.641  1.00  0.00     0.039 C 
BRANCH  13  17
ATOM     17  C   UNL     1      23.822  22.037   5.007  1.00  0.00     0.066 CG0
ATOM     18  G   UNL     1      23.898  23.529   5.232  1.00  0.00     0.000 G0
ENDBRANCH  13  17
ENDBRANCH  11  13
ENDBRANCH  10  11
ENDBRANCH   1  10
TORSDOF 0
ENDMDL
MODEL 6
REMARK VINA RESULT:    -3.316      1.685      2.744
REMARK INTER + INTRA:          -4.018
REMARK INTER:                  -5.444
REMARK INTRA:                   1.426
REMARK UNBOUND:                 0.655
REMARK SMILES CC1=CCC(=C(C)C)C(=O)CC(C)=CCC1
REMARK SMILES IDX 12 1 14 2 13 3 15 4 16 5 2 6 1 7 3 8 11 10 9 11 10 12 5 13
REMARK SMILES IDX 6 14 7 15 8 16 4 17
REMARK H PARENT
REMARK Flexibility Score: 60.00
ROOT
ATOM      1  C   UNL     1      27.091  20.068   4.203  1.00  0.00    -0.070 C 
ATOM      2  C   UNL     1      25.788  20.404   4.055  1.00  0.00    -0.027 C 
ATOM      3  C   UNL     1      27.919  19.876   2.958  1.00  0.00     0.039 C 
ENDROOT
BRANCH   2   4
ATOM      4  C   UNL     1      24.829  20.693   5.188  1.00  0.00     0.032 C 
BRANCH   4   5
ATOM      5  C   UNL     1      24.564  22.199   5.334  1.00  0.00     0.034 C 
BRANCH   5   6
ATOM      6  C   UNL     1      25.656  23.070   4.729  1.00  0.00    -0.077 C 
ATOM      7  C   UNL     1      25.414  23.710   3.384  1.00  0.00     0.039 C 
ATOM      8  C   UNL     1      26.834  23.321   5.344  1.00  0.00    -0.023 CG0
ATOM      9  G   UNL     1      27.283  22.719   6.655  1.00  0.00     0.000 G0
ENDBRANCH   5   6
ENDBRANCH   4   5
ENDBRANCH   2   4
BRANCH   1  10
ATOM     10  C   UNL     1      27.745  19.875   5.557  1.00  0.00     0.111 C 
BRANCH  10  11
ATOM     11  C   UNL     1      28.866  20.855   5.762  1.00  0.00     0.163 C 
ATOM     12  O   UNL     1      29.976  20.651   5.200  1.00  0.00    -0.294 OA
BRANCH  11  13
ATOM     13  C   UNL     1      28.685  22.072   6.593  1.00  0.00    -0.002 C 
ATOM     14  C   UNL     1      29.736  22.596   7.280  1.00  0.00    -0.069 C 
ATOM     15  C   UNL     1      31.127  22.016   7.145  1.00  0.00     0.039 C 
ATOM     16  C   UNL     1      29.562  23.803   8.173  1.00  0.00     0.039 C 
BRANCH  13  17
ATOM     17  C   UNL     1      27.309  22.725   6.664  1.00  0.00     0.066 CG0
ATOM     18  G   UNL     1      26.844  23.310   5.352  1.00  0.00     0.000 G0
ENDBRANCH  13  17
ENDBRANCH  11  13
ENDBRANCH  10  11
ENDBRANCH   1  10
TORSDOF 0
ENDMDL
MODEL 7
REMARK VINA RESULT:    -3.230      1.614      4.300
REMARK INTER + INTRA:          -3.897
REMARK INTER:                  -5.837
REMARK INTRA:                   1.940
REMARK UNBOUND:                 0.655
REMARK SMILES CC1=CCC(=C(C)C)C(=O)CC(C)=CCC1
REMARK SMILES IDX 12 1 14 2 13 3 15 4 16 5 2 6 1 7 3 8 11 10 9 11 10 12 5 13
REMARK SMILES IDX 6 14 7 15 8 16 4 17
REMARK H PARENT
REMARK Flexibility Score: 60.00
ROOT
ATOM      1  C   UNL     1      31.433  23.621   7.379  1.00  0.00    -0.070 C 
ATOM      2  C   UNL     1      32.524  23.110   6.761  1.00  0.00    -0.027 C 
ATOM      3  C   UNL     1      31.007  25.022   7.023  1.00  0.00     0.039 C 
ENDROOT
BRANCH   2   4
ATOM      4  C   UNL     1      33.056  21.708   6.950  1.00  0.00     0.032 C 
BRANCH   4   5
ATOM      5  C   UNL     1      31.943  20.730   7.354  1.00  0.00     0.034 C 
BRANCH   5   6
ATOM      6  C   UNL     1      31.094  20.257   6.182  1.00  0.00    -0.077 C 
ATOM      7  C   UNL     1      31.779  19.875   4.894  1.00  0.00     0.039 C 
ATOM      8  C   UNL     1      29.747  20.141   6.239  1.00  0.00    -0.023 CG0
ATOM      9  G   UNL     1      28.882  20.539   7.412  1.00  0.00     0.000 G0
ENDBRANCH   5   6
ENDBRANCH   4   5
ENDBRANCH   2   4
BRANCH   1  10
ATOM     10  C   UNL     1      30.631  22.849   8.408  1.00  0.00     0.111 C 
BRANCH  10  11
ATOM     11  C   UNL     1      29.155  22.998   8.169  1.00  0.00     0.163 C 
ATOM     12  O   UNL     1      28.558  24.017   8.610  1.00  0.00    -0.294 OA
BRANCH  11  13
ATOM     13  C   UNL     1      28.390  21.982   7.402  1.00  0.00    -0.002 C 
ATOM     14  C   UNL     1      27.285  22.344   6.696  1.00  0.00    -0.069 C 
ATOM     15  C   UNL     1      26.860  23.793   6.596  1.00  0.00     0.039 C 
ATOM     16  C   UNL     1      26.463  21.318   5.952  1.00  0.00     0.039 C 
BRANCH  13  17
ATOM     17  C   UNL     1      28.861  20.532   7.415  1.00  0.00     0.066 CG0
ATOM     18  G   UNL     1      29.738  20.166   6.241  1.00  0.00     0.000 G0
ENDBRANCH  13  17
ENDBRANCH  11  13
ENDBRANCH  10  11
ENDBRANCH   1  10
TORSDOF 0
ENDMDL
MODEL 8
REMARK VINA RESULT:    -3.210      1.674      3.448
REMARK INTER + INTRA:          -3.868
REMARK INTER:                  -4.196
REMARK INTRA:                   0.328
REMARK UNBOUND:                 0.655
REMARK SMILES CC1=CCC(=C(C)C)C(=O)CC(C)=CCC1
REMARK SMILES IDX 12 1 14 2 13 3 15 4 16 5 2 6 1 7 3 8 11 10 9 11 10 12 5 13
REMARK SMILES IDX 6 14 7 15 8 16 4 17
REMARK H PARENT
REMARK Flexibility Score: 60.00
ROOT
ATOM      1  C   UNL     1      28.007  23.986   7.702  1.00  0.00    -0.070 C 
ATOM      2  C   UNL     1      26.842  23.759   7.050  1.00  0.00    -0.027 C 
ATOM      3  C   UNL     1      27.957  24.751   9.000  1.00  0.00     0.039 C 
ENDROOT
BRANCH   2   4
ATOM      4  C   UNL     1      26.698  22.962   5.774  1.00  0.00     0.032 C 
BRANCH   4   5
ATOM      5  C   UNL     1      26.626  21.454   6.054  1.00  0.00     0.034 C 
BRANCH   5   6
ATOM      6  C   UNL     1      27.392  20.610   5.044  1.00  0.00    -0.077 C 
ATOM      7  C   UNL     1      26.860  20.498   3.637  1.00  0.00     0.039 C 
ATOM      8  C   UNL     1      28.545  19.965   5.336  1.00  0.00    -0.023 CG0
ATOM      9  G   UNL     1      29.193  19.902   6.699  1.00  0.00     0.000 G0
ENDBRANCH   5   6
ENDBRANCH   4   5
ENDBRANCH   2   4
BRANCH   1  10
ATOM     10  C   UNL     1      29.349  23.508   7.183  1.00  0.00     0.111 C 
BRANCH  10  11
ATOM     11  C   UNL     1      29.739  22.200   7.811  1.00  0.00     0.163 C 
ATOM     12  O   UNL     1      29.668  22.070   9.063  1.00  0.00    -0.294 OA
BRANCH  11  13
ATOM     13  C   UNL     1      30.183  21.048   6.985  1.00  0.00    -0.002 C 
ATOM     14  C   UNL     1      31.447  21.012   6.482  1.00  0.00    -0.069 C 
ATOM     15  C   UNL     1      32.457  22.085   6.824  1.00  0.00     0.039 C 
ATOM     16  C   UNL     1      31.902  19.875   5.596  1.00  0.00     0.039 C 
BRANCH  13  17
ATOM     17  C   UNL     1      29.206  19.911   6.710  1.00  0.00     0.066 CG0
ATOM     18  G   UNL     1      28.560  19.979   5.347  1.00  0.00     0.000 G0
ENDBRANCH  13  17
ENDBRANCH  11  13
ENDBRANCH  10  11
ENDBRANCH   1  10
TORSDOF 0
ENDMDL
MODEL 9
REMARK VINA RESULT:    -3.038      2.473      5.222
REMARK INTER + INTRA:          -3.625
REMARK INTER:                  -4.292
REMARK INTRA:                   0.666
REMARK UNBOUND:                 0.655
REMARK SMILES CC1=CCC(=C(C)C)C(=O)CC(C)=CCC1
REMARK SMILES IDX 12 1 14 2 13 3 15 4 16 5 2 6 1 7 3 8 11 10 9 11 10 12 5 13
REMARK SMILES IDX 6 14 7 15 8 16 4 17
REMARK H PARENT
REMARK Flexibility Score: 60.00
ROOT
ATOM      1  C   UNL     1      24.153  20.940   5.868  1.00  0.00    -0.070 C 
ATOM      2  C   UNL     1      24.958  20.375   6.799  1.00  0.00    -0.027 C 
ATOM      3  C   UNL     1      22.801  21.441   6.310  1.00  0.00     0.039 C 
ENDROOT
BRANCH   2   4
ATOM      4  C   UNL     1      26.363  19.875   6.548  1.00  0.00     0.032 C 
BRANCH   4   5
ATOM      5  C   UNL     1      27.379  20.552   7.479  1.00  0.00     0.034 C 
BRANCH   5   6
ATOM      6  C   UNL     1      28.323  21.505   6.759  1.00  0.00    -0.077 C 
ATOM      7  C   UNL     1      29.770  21.110   6.595  1.00  0.00     0.039 C 
ATOM      8  C   UNL     1      27.929  22.689   6.235  1.00  0.00    -0.023 CG0
ATOM      9  G   UNL     1      26.546  23.283   6.358  1.00  0.00     0.000 G0
ENDBRANCH   5   6
ENDBRANCH   4   5
ENDBRANCH   2   4
BRANCH   1  10
ATOM     10  C   UNL     1      24.549  21.084   4.412  1.00  0.00     0.111 C 
BRANCH  10  11
ATOM     11  C   UNL     1      25.671  22.071   4.251  1.00  0.00     0.163 C 
ATOM     12  O   UNL     1      26.564  21.856   3.387  1.00  0.00    -0.294 OA
BRANCH  11  13
ATOM     13  C   UNL     1      25.736  23.307   5.072  1.00  0.00    -0.002 C 
ATOM     14  C   UNL     1      25.080  24.430   4.673  1.00  0.00    -0.069 C 
ATOM     15  C   UNL     1      24.198  24.427   3.444  1.00  0.00     0.039 C 
ATOM     16  C   UNL     1      25.176  25.713   5.466  1.00  0.00     0.039 C 
BRANCH  13  17
ATOM     17  C   UNL     1      26.544  23.298   6.364  1.00  0.00     0.066 CG0
ATOM     18  G   UNL     1      27.913  22.675   6.223  1.00  0.00     0.000 G0
ENDBRANCH  13  17
ENDBRANCH  11  13
ENDBRANCH  10  11
ENDBRANCH   1  10
TORSDOF 0
ENDMDL
