MODEL 1
REMARK VINA RESULT:    -3.752      0.000      0.000
REMARK INTER + INTRA:          -4.402
REMARK INTER:                  -4.300
REMARK INTRA:                  -0.102
REMARK UNBOUND:                -0.102
REMARK SMILES COc1cc(C(=O)[O-])ccc1O
REMARK SMILES IDX 5 1 9 2 4 3 10 4 3 5 11 6 6 7 7 8 8 9 2 10 1 11 12 12
REMARK H PARENT 12 13
REMARK Flexibility Score: inf
ROOT
ATOM      1  C   UNL     1      -3.044  10.222  35.655  1.00  0.00     0.001 A 
ATOM      2  C   UNL     1      -2.101  10.312  36.692  1.00  0.00     0.014 A 
ATOM      3  C   UNL     1      -3.751  11.377  35.270  1.00  0.00     0.060 A 
ATOM      4  C   UNL     1      -1.867  11.531  37.331  1.00  0.00     0.051 A 
ATOM      5  C   UNL     1      -3.517  12.610  35.914  1.00  0.00     0.161 A 
ATOM      6  C   UNL     1      -2.571  12.678  36.945  1.00  0.00     0.157 A 
ENDROOT
BRANCH   1   7
ATOM      7  C   UNL     1      -3.289   8.928  34.981  1.00  0.00     0.072 C 
ATOM      8  O   UNL     1      -4.102   8.848  34.022  1.00  0.00    -0.545 OA
ATOM      9  O   UNL     1      -2.622   7.780  35.396  1.00  0.00    -0.545 OA
ENDBRANCH   1   7
BRANCH   5  10
ATOM     10  O   UNL     1      -4.202  13.782  35.557  1.00  0.00    -0.493 OA
ATOM     11  C   UNL     1      -3.857  14.615  34.453  1.00  0.00     0.278 C 
ENDBRANCH   5  10
BRANCH   6  12
ATOM     12  O   UNL     1      -2.336  13.894  37.585  1.00  0.00    -0.504 OA
ATOM     13  H   UNL     1      -1.530  14.031  38.184  1.00  0.00     0.293 HD
ENDBRANCH   6  12
TORSDOF 3
ENDMDL
MODEL 2
REMARK VINA RESULT:    -3.698      1.347      4.359
REMARK INTER + INTRA:          -4.340
REMARK INTER:                  -4.239
REMARK INTRA:                  -0.100
REMARK UNBOUND:                -0.102
REMARK SMILES COc1cc(C(=O)[O-])ccc1O
REMARK SMILES IDX 5 1 9 2 4 3 10 4 3 5 11 6 6 7 7 8 8 9 2 10 1 11 12 12
REMARK H PARENT 12 13
REMARK Flexibility Score: inf
ROOT
ATOM      1  C   UNL     1      -3.107  12.868  36.509  1.00  0.00     0.001 A 
ATOM      2  C   UNL     1      -2.235  12.136  37.331  1.00  0.00     0.014 A 
ATOM      3  C   UNL     1      -3.609  12.270  35.339  1.00  0.00     0.060 A 
ATOM      4  C   UNL     1      -1.872  10.832  36.992  1.00  0.00     0.051 A 
ATOM      5  C   UNL     1      -3.245  10.952  34.993  1.00  0.00     0.161 A 
ATOM      6  C   UNL     1      -2.374  10.239  35.826  1.00  0.00     0.157 A 
ENDROOT
BRANCH   1   7
ATOM      7  C   UNL     1      -3.488  14.251  36.873  1.00  0.00     0.072 C 
ATOM      8  O   UNL     1      -2.963  14.822  37.866  1.00  0.00    -0.545 OA
ATOM      9  O   UNL     1      -4.434  14.942  36.123  1.00  0.00    -0.545 OA
ENDBRANCH   1   7
BRANCH   5  10
ATOM     10  O   UNL     1      -3.727  10.323  33.834  1.00  0.00    -0.493 OA
ATOM     11  C   UNL     1      -3.173  10.493  32.533  1.00  0.00     0.278 C 
ENDBRANCH   5  10
BRANCH   6  12
ATOM     12  O   UNL     1      -2.011   8.935  35.490  1.00  0.00    -0.504 OA
ATOM     13  H   UNL     1      -1.803   8.242  36.199  1.00  0.00     0.293 HD
ENDBRANCH   6  12
TORSDOF 3
ENDMDL
MODEL 3
REMARK VINA RESULT:    -3.672     12.317     12.640
REMARK INTER + INTRA:          -4.311
REMARK INTER:                  -4.212
REMARK INTRA:                  -0.098
REMARK UNBOUND:                -0.102
REMARK SMILES COc1cc(C(=O)[O-])ccc1O
REMARK SMILES IDX 5 1 9 2 4 3 10 4 3 5 11 6 6 7 7 8 8 9 2 10 1 11 12 12
REMARK H PARENT 12 13
REMARK Flexibility Score: inf
ROOT
ATOM      1  C   UNL     1       6.348  12.168  27.721  1.00  0.00     0.001 A 
ATOM      2  C   UNL     1       5.676  11.111  28.355  1.00  0.00     0.014 A 
ATOM      3  C   UNL     1       7.341  12.871  28.430  1.00  0.00     0.060 A 
ATOM      4  C   UNL     1       5.989  10.762  29.670  1.00  0.00     0.051 A 
ATOM      5  C   UNL     1       7.659  12.521  29.758  1.00  0.00     0.161 A 
ATOM      6  C   UNL     1       6.977  11.463  30.372  1.00  0.00     0.157 A 
ENDROOT
BRANCH   1   7
ATOM      7  C   UNL     1       6.013  12.535  26.327  1.00  0.00     0.072 C 
ATOM      8  O   UNL     1       5.046  11.987  25.734  1.00  0.00    -0.545 OA
ATOM      9  O   UNL     1       6.763  13.492  25.651  1.00  0.00    -0.545 OA
ENDBRANCH   1   7
BRANCH   5  10
ATOM     10  O   UNL     1       8.643  13.199  30.495  1.00  0.00    -0.493 OA
ATOM     11  C   UNL     1       8.425  14.414  31.206  1.00  0.00     0.278 C 
ENDBRANCH   5  10
BRANCH   6  12
ATOM     12  O   UNL     1       7.287  11.112  31.685  1.00  0.00    -0.504 OA
ATOM     13  H   UNL     1       7.470  10.150  31.948  1.00  0.00     0.293 HD
ENDBRANCH   6  12
TORSDOF 3
ENDMDL
MODEL 4
REMARK VINA RESULT:    -3.602     12.060     13.132
REMARK INTER + INTRA:          -4.230
REMARK INTER:                  -4.130
REMARK INTRA:                  -0.100
REMARK UNBOUND:                -0.102
REMARK SMILES COc1cc(C(=O)[O-])ccc1O
REMARK SMILES IDX 5 1 9 2 4 3 10 4 3 5 11 6 6 7 7 8 8 9 2 10 1 11 12 12
REMARK H PARENT 12 13
REMARK Flexibility Score: inf
ROOT
ATOM      1  C   UNL     1       2.552  14.455  25.378  1.00  0.00     0.001 A 
ATOM      2  C   UNL     1       1.572  13.672  24.747  1.00  0.00     0.014 A 
ATOM      3  C   UNL     1       3.752  13.846  25.792  1.00  0.00     0.060 A 
ATOM      4  C   UNL     1       1.784  12.310  24.533  1.00  0.00     0.051 A 
ATOM      5  C   UNL     1       3.970  12.470  25.577  1.00  0.00     0.161 A 
ATOM      6  C   UNL     1       2.979  11.707  24.946  1.00  0.00     0.157 A 
ENDROOT
BRANCH   1   7
ATOM      7  C   UNL     1       2.322  15.899  25.603  1.00  0.00     0.072 C 
ATOM      8  O   UNL     1       2.786  16.471  26.625  1.00  0.00    -0.545 OA
ATOM      9  O   UNL     1       1.589  16.646  24.687  1.00  0.00    -0.545 OA
ENDBRANCH   1   7
BRANCH   5  10
ATOM     10  O   UNL     1       5.154  11.829  25.976  1.00  0.00    -0.493 OA
ATOM     11  C   UNL     1       5.498  11.536  27.327  1.00  0.00     0.278 C 
ENDBRANCH   5  10
BRANCH   6  12
ATOM     12  O   UNL     1       3.189  10.345  24.730  1.00  0.00    -0.504 OA
ATOM     13  H   UNL     1       2.729   9.641  25.296  1.00  0.00     0.293 HD
ENDBRANCH   6  12
TORSDOF 3
ENDMDL
MODEL 5
REMARK VINA RESULT:    -3.527     11.393     13.224
REMARK INTER + INTRA:          -4.144
REMARK INTER:                  -4.061
REMARK INTRA:                  -0.083
REMARK UNBOUND:                -0.102
REMARK SMILES COc1cc(C(=O)[O-])ccc1O
REMARK SMILES IDX 5 1 9 2 4 3 10 4 3 5 11 6 6 7 7 8 8 9 2 10 1 11 12 12
REMARK H PARENT 12 13
REMARK Flexibility Score: inf
ROOT
ATOM      1  C   UNL     1       8.060   7.722  35.184  1.00  0.00     0.001 A 
ATOM      2  C   UNL     1       8.972   8.063  34.173  1.00  0.00     0.014 A 
ATOM      3  C   UNL     1       7.764   6.364  35.409  1.00  0.00     0.060 A 
ATOM      4  C   UNL     1       9.578   7.070  33.402  1.00  0.00     0.051 A 
ATOM      5  C   UNL     1       8.374   5.358  34.633  1.00  0.00     0.161 A 
ATOM      6  C   UNL     1       9.282   5.720  33.629  1.00  0.00     0.157 A 
ENDROOT
BRANCH   1   7
ATOM      7  C   UNL     1       7.421   8.778  35.999  1.00  0.00     0.072 C 
ATOM      8  O   UNL     1       6.319   8.568  36.573  1.00  0.00    -0.545 OA
ATOM      9  O   UNL     1       8.029  10.021  36.144  1.00  0.00    -0.545 OA
ENDBRANCH   1   7
BRANCH   5  10
ATOM     10  O   UNL     1       8.104   3.994  34.829  1.00  0.00    -0.493 OA
ATOM     11  C   UNL     1       7.702   3.420  36.069  1.00  0.00     0.278 C 
ENDBRANCH   5  10
BRANCH   6  12
ATOM     12  O   UNL     1       9.888   4.729  32.857  1.00  0.00    -0.504 OA
ATOM     13  H   UNL     1       9.349   3.985  32.429  1.00  0.00     0.293 HD
ENDBRANCH   6  12
TORSDOF 3
ENDMDL
MODEL 6
REMARK VINA RESULT:    -3.526     11.510     12.881
REMARK INTER + INTRA:          -4.143
REMARK INTER:                  -4.068
REMARK INTRA:                  -0.075
REMARK UNBOUND:                -0.102
REMARK SMILES COc1cc(C(=O)[O-])ccc1O
REMARK SMILES IDX 5 1 9 2 4 3 10 4 3 5 11 6 6 7 7 8 8 9 2 10 1 11 12 12
REMARK H PARENT 12 13
REMARK Flexibility Score: inf
ROOT
ATOM      1  C   UNL     1       8.344   4.731  35.420  1.00  0.00     0.001 A 
ATOM      2  C   UNL     1       8.926   4.579  34.152  1.00  0.00     0.014 A 
ATOM      3  C   UNL     1       7.916   6.009  35.829  1.00  0.00     0.060 A 
ATOM      4  C   UNL     1       9.077   5.680  33.307  1.00  0.00     0.051 A 
ATOM      5  C   UNL     1       8.068   7.123  34.978  1.00  0.00     0.161 A 
ATOM      6  C   UNL     1       8.650   6.949  33.716  1.00  0.00     0.157 A 
ENDROOT
BRANCH   1   7
ATOM      7  C   UNL     1       8.185   3.561  36.312  1.00  0.00     0.072 C 
ATOM      8  O   UNL     1       9.129   3.193  37.061  1.00  0.00    -0.545 OA
ATOM      9  O   UNL     1       6.990   2.852  36.338  1.00  0.00    -0.545 OA
ENDBRANCH   1   7
BRANCH   5  10
ATOM     10  O   UNL     1       7.653   8.411  35.351  1.00  0.00    -0.493 OA
ATOM     11  C   UNL     1       6.884   8.707  36.513  1.00  0.00     0.278 C 
ENDBRANCH   5  10
BRANCH   6  12
ATOM     12  O   UNL     1       8.803   8.047  32.870  1.00  0.00    -0.504 OA
ATOM     13  H   UNL     1       8.241   8.884  32.980  1.00  0.00     0.293 HD
ENDBRANCH   6  12
TORSDOF 3
ENDMDL
MODEL 7
REMARK VINA RESULT:    -3.499      2.032      5.143
REMARK INTER + INTRA:          -4.112
REMARK INTER:                  -4.013
REMARK INTRA:                  -0.099
REMARK UNBOUND:                -0.102
REMARK SMILES COc1cc(C(=O)[O-])ccc1O
REMARK SMILES IDX 5 1 9 2 4 3 10 4 3 5 11 6 6 7 7 8 8 9 2 10 1 11 12 12
REMARK H PARENT 12 13
REMARK Flexibility Score: inf
ROOT
ATOM      1  C   UNL     1      -3.158  10.479  36.691  1.00  0.00     0.001 A 
ATOM      2  C   UNL     1      -2.161  10.097  35.778  1.00  0.00     0.014 A 
ATOM      3  C   UNL     1      -3.958   9.486  37.286  1.00  0.00     0.060 A 
ATOM      4  C   UNL     1      -1.965   8.750  35.468  1.00  0.00     0.051 A 
ATOM      5  C   UNL     1      -3.763   8.125  36.975  1.00  0.00     0.161 A 
ATOM      6  C   UNL     1      -2.763   7.764  36.063  1.00  0.00     0.157 A 
ENDROOT
BRANCH   1   7
ATOM      7  C   UNL     1      -3.361  11.908  37.016  1.00  0.00     0.072 C 
ATOM      8  O   UNL     1      -2.377  12.662  37.238  1.00  0.00    -0.545 OA
ATOM      9  O   UNL     1      -4.645  12.440  37.081  1.00  0.00    -0.545 OA
ENDBRANCH   1   7
BRANCH   5  10
ATOM     10  O   UNL     1      -4.541   7.107  37.550  1.00  0.00    -0.493 OA
ATOM     11  C   UNL     1      -5.860   6.766  37.134  1.00  0.00     0.278 C 
ENDBRANCH   5  10
BRANCH   6  12
ATOM     12  O   UNL     1      -2.566   6.420  35.752  1.00  0.00    -0.504 OA
ATOM     13  H   UNL     1      -2.714   6.065  34.814  1.00  0.00     0.293 HD
ENDBRANCH   6  12
TORSDOF 3
ENDMDL
MODEL 8
REMARK VINA RESULT:    -3.473     11.514     12.849
REMARK INTER + INTRA:          -4.082
REMARK INTER:                  -3.984
REMARK INTRA:                  -0.099
REMARK UNBOUND:                -0.102
REMARK SMILES COc1cc(C(=O)[O-])ccc1O
REMARK SMILES IDX 5 1 9 2 4 3 10 4 3 5 11 6 6 7 7 8 8 9 2 10 1 11 12 12
REMARK H PARENT 12 13
REMARK Flexibility Score: inf
ROOT
ATOM      1  C   UNL     1       2.521  14.321  25.356  1.00  0.00     0.001 A 
ATOM      2  C   UNL     1       3.790  13.739  25.512  1.00  0.00     0.014 A 
ATOM      3  C   UNL     1       1.439  13.509  24.966  1.00  0.00     0.060 A 
ATOM      4  C   UNL     1       3.975  12.375  25.284  1.00  0.00     0.051 A 
ATOM      5  C   UNL     1       1.622  12.131  24.735  1.00  0.00     0.161 A 
ATOM      6  C   UNL     1       2.896  11.570  24.896  1.00  0.00     0.157 A 
ENDROOT
BRANCH   1   7
ATOM      7  C   UNL     1       2.330  15.768  25.600  1.00  0.00     0.072 C 
ATOM      8  O   UNL     1       2.837  16.321  26.612  1.00  0.00    -0.545 OA
ATOM      9  O   UNL     1       1.587  16.539  24.712  1.00  0.00    -0.545 OA
ENDBRANCH   1   7
BRANCH   5  10
ATOM     10  O   UNL     1       0.567  11.291  24.345  1.00  0.00    -0.493 OA
ATOM     11  C   UNL     1      -0.397  10.738  25.236  1.00  0.00     0.278 C 
ENDBRANCH   5  10
BRANCH   6  12
ATOM     12  O   UNL     1       3.083  10.207  24.669  1.00  0.00    -0.504 OA
ATOM     13  H   UNL     1       3.665   9.643  25.277  1.00  0.00     0.293 HD
ENDBRANCH   6  12
TORSDOF 3
ENDMDL
MODEL 9
REMARK VINA RESULT:    -3.430      2.651      3.410
REMARK INTER + INTRA:          -4.032
REMARK INTER:                  -3.936
REMARK INTRA:                  -0.096
REMARK UNBOUND:                -0.102
REMARK SMILES COc1cc(C(=O)[O-])ccc1O
REMARK SMILES IDX 5 1 9 2 4 3 10 4 3 5 11 6 6 7 7 8 8 9 2 10 1 11 12 12
REMARK H PARENT 12 13
REMARK Flexibility Score: inf
ROOT
ATOM      1  C   UNL     1      -3.595   7.277  35.127  1.00  0.00     0.001 A 
ATOM      2  C   UNL     1      -2.401   7.679  35.747  1.00  0.00     0.014 A 
ATOM      3  C   UNL     1      -4.422   8.251  34.537  1.00  0.00     0.060 A 
ATOM      4  C   UNL     1      -2.039   9.027  35.777  1.00  0.00     0.051 A 
ATOM      5  C   UNL     1      -4.060   9.613  34.565  1.00  0.00     0.161 A 
ATOM      6  C   UNL     1      -2.864   9.994  35.188  1.00  0.00     0.157 A 
ENDROOT
BRANCH   1   7
ATOM      7  C   UNL     1      -3.974   5.847  35.098  1.00  0.00     0.072 C 
ATOM      8  O   UNL     1      -3.182   4.982  34.637  1.00  0.00    -0.545 OA
ATOM      9  O   UNL     1      -5.211   5.436  35.582  1.00  0.00    -0.545 OA
ENDBRANCH   1   7
BRANCH   5  10
ATOM     10  O   UNL     1      -4.859  10.612  33.987  1.00  0.00    -0.493 OA
ATOM     11  C   UNL     1      -4.865  10.940  32.601  1.00  0.00     0.278 C 
ENDBRANCH   5  10
BRANCH   6  12
ATOM     12  O   UNL     1      -2.500  11.339  35.219  1.00  0.00    -0.504 OA
ATOM     13  H   UNL     1      -3.097  12.059  34.828  1.00  0.00     0.293 HD
ENDBRANCH   6  12
TORSDOF 3
ENDMDL
