MODEL 1
REMARK VINA RESULT:    -1.445      0.000      0.000
REMARK INTER + INTRA:          -1.971
REMARK INTER:                  -1.741
REMARK INTRA:                  -0.230
REMARK UNBOUND:                -0.230
REMARK SMILES O=c1c(O)c(-c2ccc(O)c(O)c2)oc2cc(O)cc(O)c12
REMARK SMILES IDX 5 1 3 2 2 3 1 4 22 5 20 6 19 7 17 8 16 9 15 10 14 11 6 12
REMARK SMILES IDX 7 13 8 14 9 15 13 16 11 17 10 18 12 20 4 22 21 24 18 26
REMARK H PARENT 10 19 12 21 4 23 21 25 18 27
REMARK Flexibility Score: inf
ROOT
ATOM      1  C   UNL     1      26.625  19.298  36.208  1.00  0.00     0.180 A 
ATOM      2  C   UNL     1      26.925  19.741  34.909  1.00  0.00     0.208 A 
ATOM      3  C   UNL     1      28.266  19.779  34.495  1.00  0.00     0.238 A 
ATOM      4  O   UNL     1      28.524  20.125  33.313  1.00  0.00    -0.285 OA
ATOM      5  C   UNL     1      29.292  19.389  35.390  1.00  0.00     0.111 A 
ATOM      6  C   UNL     1      30.686  19.425  35.089  1.00  0.00     0.134 A 
ATOM      7  C   UNL     1      31.603  18.891  36.004  1.00  0.00     0.093 A 
ATOM      8  C   UNL     1      31.183  18.384  37.232  1.00  0.00     0.123 A 
ATOM      9  C   UNL     1      29.826  18.398  37.561  1.00  0.00     0.094 A 
ATOM     10  C   UNL     1      28.884  18.890  36.655  1.00  0.00     0.146 A 
ATOM     11  O   UNL     1      27.604  18.876  37.002  1.00  0.00    -0.452 OA
ENDROOT
BRANCH   1  12
ATOM     12  C   UNL     1      25.238  19.254  36.726  1.00  0.00     0.025 A 
ATOM     13  C   UNL     1      24.557  18.035  36.891  1.00  0.00     0.016 A 
ATOM     14  C   UNL     1      23.241  18.018  37.358  1.00  0.00     0.051 A 
ATOM     15  C   UNL     1      22.581  19.218  37.655  1.00  0.00     0.157 A 
ATOM     16  C   UNL     1      24.566  20.455  37.004  1.00  0.00     0.062 A 
ATOM     17  C   UNL     1      23.247  20.442  37.474  1.00  0.00     0.158 A 
BRANCH  15  18
ATOM     18  O   UNL     1      21.268  19.198  38.123  1.00  0.00    -0.504 OA
ATOM     19  H   UNL     1      21.010  19.643  38.996  1.00  0.00     0.293 HD
ENDBRANCH  15  18
BRANCH  17  20
ATOM     20  O   UNL     1      22.616  21.654  37.752  1.00  0.00    -0.504 OA
ATOM     21  H   UNL     1      21.753  21.702  38.283  1.00  0.00     0.293 HD
ENDBRANCH  17  20
ENDBRANCH   1  12
BRANCH   2  22
ATOM     22  O   UNL     1      25.896  20.102  34.034  1.00  0.00    -0.502 OA
ATOM     23  H   UNL     1      25.616  21.065  33.891  1.00  0.00     0.293 HD
ENDBRANCH   2  22
BRANCH   6  24
ATOM     24  O   UNL     1      31.221  19.993  33.929  1.00  0.00    -0.507 OA
ATOM     25  H   UNL     1      30.742  20.046  33.042  1.00  0.00     0.293 HD
ENDBRANCH   6  24
BRANCH   8  26
ATOM     26  O   UNL     1      32.125  17.876  38.125  1.00  0.00    -0.508 OA
ATOM     27  H   UNL     1      32.726  17.100  37.876  1.00  0.00     0.293 HD
ENDBRANCH   8  26
TORSDOF 6
ENDMDL
MODEL 2
REMARK VINA RESULT:    -1.009      1.815      7.395
REMARK INTER + INTRA:          -1.446
REMARK INTER:                  -1.237
REMARK INTRA:                  -0.209
REMARK UNBOUND:                -0.230
REMARK SMILES O=c1c(O)c(-c2ccc(O)c(O)c2)oc2cc(O)cc(O)c12
REMARK SMILES IDX 5 1 3 2 2 3 1 4 22 5 20 6 19 7 17 8 16 9 15 10 14 11 6 12
REMARK SMILES IDX 7 13 8 14 9 15 13 16 11 17 10 18 12 20 4 22 21 24 18 26
REMARK H PARENT 10 19 12 21 4 23 21 25 18 27
REMARK Flexibility Score: inf
ROOT
ATOM      1  C   UNL     1      25.875  19.883  36.198  1.00  0.00     0.180 A 
ATOM      2  C   UNL     1      25.243  18.976  37.065  1.00  0.00     0.208 A 
ATOM      3  C   UNL     1      23.891  19.174  37.391  1.00  0.00     0.238 A 
ATOM      4  O   UNL     1      23.317  18.328  38.125  1.00  0.00    -0.285 OA
ATOM      5  C   UNL     1      23.193  20.284  36.858  1.00  0.00     0.111 A 
ATOM      6  C   UNL     1      21.833  20.603  37.152  1.00  0.00     0.134 A 
ATOM      7  C   UNL     1      21.207  21.651  36.466  1.00  0.00     0.093 A 
ATOM      8  C   UNL     1      21.906  22.431  35.547  1.00  0.00     0.123 A 
ATOM      9  C   UNL     1      23.253  22.164  35.295  1.00  0.00     0.094 A 
ATOM     10  C   UNL     1      23.896  21.103  35.937  1.00  0.00     0.146 A 
ATOM     11  O   UNL     1      25.175  20.878  35.662  1.00  0.00    -0.452 OA
ENDROOT
BRANCH   1  12
ATOM     12  C   UNL     1      27.303  19.756  35.828  1.00  0.00     0.025 A 
ATOM     13  C   UNL     1      27.692  19.370  34.533  1.00  0.00     0.016 A 
ATOM     14  C   UNL     1      29.044  19.233  34.213  1.00  0.00     0.051 A 
ATOM     15  C   UNL     1      30.028  19.467  35.183  1.00  0.00     0.157 A 
ATOM     16  C   UNL     1      28.291  19.969  36.803  1.00  0.00     0.062 A 
ATOM     17  C   UNL     1      29.647  19.834  36.485  1.00  0.00     0.158 A 
BRANCH  15  18
ATOM     18  O   UNL     1      31.377  19.332  34.860  1.00  0.00    -0.504 OA
ATOM     19  H   UNL     1      31.818  18.422  34.791  1.00  0.00     0.293 HD
ENDBRANCH  15  18
BRANCH  17  20
ATOM     20  O   UNL     1      30.601  20.066  37.476  1.00  0.00    -0.504 OA
ATOM     21  H   UNL     1      30.545  20.862  38.101  1.00  0.00     0.293 HD
ENDBRANCH  17  20
ENDBRANCH   1  12
BRANCH   2  22
ATOM     22  O   UNL     1      25.945  17.875  37.564  1.00  0.00    -0.502 OA
ATOM     23  H   UNL     1      25.617  17.332  38.354  1.00  0.00     0.293 HD
ENDBRANCH   2  22
BRANCH   6  24
ATOM     24  O   UNL     1      21.068  19.946  38.120  1.00  0.00    -0.507 OA
ATOM     25  H   UNL     1      21.446  19.357  38.848  1.00  0.00     0.293 HD
ENDBRANCH   6  24
BRANCH   8  26
ATOM     26  O   UNL     1      21.255  23.476  34.894  1.00  0.00    -0.508 OA
ATOM     27  H   UNL     1      21.765  24.160  34.349  1.00  0.00     0.293 HD
ENDBRANCH   8  26
TORSDOF 6
ENDMDL
MODEL 3
REMARK VINA RESULT:     0.099      2.054      2.130
REMARK INTER + INTRA:          -0.111
REMARK INTER:                   0.182
REMARK INTRA:                  -0.293
REMARK UNBOUND:                -0.230
REMARK SMILES O=c1c(O)c(-c2ccc(O)c(O)c2)oc2cc(O)cc(O)c12
REMARK SMILES IDX 5 1 3 2 2 3 1 4 22 5 20 6 19 7 17 8 16 9 15 10 14 11 6 12
REMARK SMILES IDX 7 13 8 14 9 15 13 16 11 17 10 18 12 20 4 22 21 24 18 26
REMARK H PARENT 10 19 12 21 4 23 21 25 18 27
REMARK Flexibility Score: inf
ROOT
ATOM      1  C   UNL     1      27.346  19.464  36.244  1.00  0.00     0.180 A 
ATOM      2  C   UNL     1      27.941  18.879  35.114  1.00  0.00     0.208 A 
ATOM      3  C   UNL     1      29.241  19.266  34.751  1.00  0.00     0.238 A 
ATOM      4  O   UNL     1      29.789  18.699  33.771  1.00  0.00    -0.285 OA
ATOM      5  C   UNL     1      29.923  20.245  35.513  1.00  0.00     0.111 A 
ATOM      6  C   UNL     1      31.227  20.741  35.214  1.00  0.00     0.134 A 
ATOM      7  C   UNL     1      31.857  21.613  36.111  1.00  0.00     0.093 A 
ATOM      8  C   UNL     1      31.206  22.057  37.260  1.00  0.00     0.123 A 
ATOM      9  C   UNL     1      29.908  21.624  37.533  1.00  0.00     0.094 A 
ATOM     10  C   UNL     1      29.267  20.726  36.676  1.00  0.00     0.146 A 
ATOM     11  O   UNL     1      28.036  20.331  36.977  1.00  0.00    -0.452 OA
ENDROOT
BRANCH   1  12
ATOM     12  C   UNL     1      25.970  19.126  36.675  1.00  0.00     0.025 A 
ATOM     13  C   UNL     1      25.732  18.197  37.703  1.00  0.00     0.016 A 
ATOM     14  C   UNL     1      24.425  17.875  38.077  1.00  0.00     0.051 A 
ATOM     15  C   UNL     1      23.336  18.466  37.422  1.00  0.00     0.157 A 
ATOM     16  C   UNL     1      24.876  19.700  36.007  1.00  0.00     0.062 A 
ATOM     17  C   UNL     1      23.565  19.381  36.380  1.00  0.00     0.158 A 
BRANCH  15  18
ATOM     18  O   UNL     1      22.034  18.145  37.798  1.00  0.00    -0.504 OA
ATOM     19  H   UNL     1      21.303  18.000  37.111  1.00  0.00     0.293 HD
ENDBRANCH  15  18
BRANCH  17  20
ATOM     20  O   UNL     1      22.503  19.980  35.702  1.00  0.00    -0.504 OA
ATOM     21  H   UNL     1      22.617  20.840  35.178  1.00  0.00     0.293 HD
ENDBRANCH  17  20
ENDBRANCH   1  12
BRANCH   2  22
ATOM     22  O   UNL     1      27.258  17.899  34.388  1.00  0.00    -0.502 OA
ATOM     23  H   UNL     1      27.638  16.973  34.232  1.00  0.00     0.293 HD
ENDBRANCH   2  22
BRANCH   6  24
ATOM     24  O   UNL     1      31.931  20.433  34.045  1.00  0.00    -0.507 OA
ATOM     25  H   UNL     1      31.916  19.534  33.586  1.00  0.00     0.293 HD
ENDBRANCH   6  24
BRANCH   8  26
ATOM     26  O   UNL     1      31.857  22.937  38.123  1.00  0.00    -0.508 OA
ATOM     27  H   UNL     1      32.425  22.602  38.892  1.00  0.00     0.293 HD
ENDBRANCH   8  26
TORSDOF 6
ENDMDL
MODEL 4
REMARK VINA RESULT:     0.338      2.158      7.220
REMARK INTER + INTRA:           0.177
REMARK INTER:                   0.510
REMARK INTRA:                  -0.333
REMARK UNBOUND:                -0.230
REMARK SMILES O=c1c(O)c(-c2ccc(O)c(O)c2)oc2cc(O)cc(O)c12
REMARK SMILES IDX 5 1 3 2 2 3 1 4 22 5 20 6 19 7 17 8 16 9 15 10 14 11 6 12
REMARK SMILES IDX 7 13 8 14 9 15 13 16 11 17 10 18 12 20 4 22 21 24 18 26
REMARK H PARENT 10 19 12 21 4 23 21 25 18 27
REMARK Flexibility Score: inf
ROOT
ATOM      1  C   UNL     1      25.111  19.931  36.867  1.00  0.00     0.180 A 
ATOM      2  C   UNL     1      24.031  19.197  36.349  1.00  0.00     0.208 A 
ATOM      3  C   UNL     1      22.755  19.783  36.328  1.00  0.00     0.238 A 
ATOM      4  O   UNL     1      21.803  19.141  35.813  1.00  0.00    -0.285 OA
ATOM      5  C   UNL     1      22.572  21.090  36.840  1.00  0.00     0.111 A 
ATOM      6  C   UNL     1      21.317  21.767  36.905  1.00  0.00     0.134 A 
ATOM      7  C   UNL     1      21.276  23.107  37.309  1.00  0.00     0.093 A 
ATOM      8  C   UNL     1      22.431  23.774  37.713  1.00  0.00     0.123 A 
ATOM      9  C   UNL     1      23.656  23.104  37.709  1.00  0.00     0.094 A 
ATOM     10  C   UNL     1      23.735  21.778  37.276  1.00  0.00     0.146 A 
ATOM     11  O   UNL     1      24.919  21.180  37.279  1.00  0.00    -0.452 OA
ENDROOT
BRANCH   1  12
ATOM     12  C   UNL     1      26.479  19.372  36.946  1.00  0.00     0.025 A 
ATOM     13  C   UNL     1      26.900  18.620  38.057  1.00  0.00     0.016 A 
ATOM     14  C   UNL     1      28.203  18.122  38.122  1.00  0.00     0.051 A 
ATOM     15  C   UNL     1      29.110  18.378  37.084  1.00  0.00     0.157 A 
ATOM     16  C   UNL     1      27.398  19.644  35.919  1.00  0.00     0.062 A 
ATOM     17  C   UNL     1      28.704  19.146  35.979  1.00  0.00     0.158 A 
BRANCH  15  18
ATOM     18  O   UNL     1      30.410  17.878  37.150  1.00  0.00    -0.504 OA
ATOM     19  H   UNL     1      30.765  17.233  36.455  1.00  0.00     0.293 HD
ENDBRANCH  15  18
BRANCH  17  20
ATOM     20  O   UNL     1      29.585  19.425  34.934  1.00  0.00    -0.504 OA
ATOM     21  H   UNL     1      29.361  19.209  33.970  1.00  0.00     0.293 HD
ENDBRANCH  17  20
ENDBRANCH   1  12
BRANCH   2  22
ATOM     22  O   UNL     1      24.237  17.915  35.829  1.00  0.00    -0.502 OA
ATOM     23  H   UNL     1      25.016  17.332  36.111  1.00  0.00     0.293 HD
ENDBRANCH   2  22
BRANCH   6  24
ATOM     24  O   UNL     1      20.090  21.166  36.611  1.00  0.00    -0.507 OA
ATOM     25  H   UNL     1      19.499  21.416  35.832  1.00  0.00     0.293 HD
ENDBRANCH   6  24
BRANCH   8  26
ATOM     26  O   UNL     1      22.350  25.103  38.125  1.00  0.00    -0.508 OA
ATOM     27  H   UNL     1      22.217  25.348  39.099  1.00  0.00     0.293 HD
ENDBRANCH   8  26
TORSDOF 6
ENDMDL
MODEL 5
REMARK VINA RESULT:     0.549      5.205      7.660
REMARK INTER + INTRA:           0.432
REMARK INTER:                  -0.018
REMARK INTRA:                   0.450
REMARK UNBOUND:                -0.230
REMARK SMILES O=c1c(O)c(-c2ccc(O)c(O)c2)oc2cc(O)cc(O)c12
REMARK SMILES IDX 5 1 3 2 2 3 1 4 22 5 20 6 19 7 17 8 16 9 15 10 14 11 6 12
REMARK SMILES IDX 7 13 8 14 9 15 13 16 11 17 10 18 12 20 4 22 21 24 18 26
REMARK H PARENT 10 19 12 21 4 23 21 25 18 27
REMARK Flexibility Score: inf
ROOT
ATOM      1  C   UNL     1      31.589  23.718  35.159  1.00  0.00     0.180 A 
ATOM      2  C   UNL     1      31.887  23.203  33.886  1.00  0.00     0.208 A 
ATOM      3  C   UNL     1      31.906  21.811  33.702  1.00  0.00     0.238 A 
ATOM      4  O   UNL     1      32.120  21.357  32.548  1.00  0.00    -0.285 OA
ATOM      5  C   UNL     1      31.641  20.951  34.795  1.00  0.00     0.111 A 
ATOM      6  C   UNL     1      31.672  19.526  34.732  1.00  0.00     0.134 A 
ATOM      7  C   UNL     1      31.266  18.777  35.843  1.00  0.00     0.093 A 
ATOM      8  C   UNL     1      30.894  19.398  37.034  1.00  0.00     0.123 A 
ATOM      9  C   UNL     1      30.916  20.791  37.126  1.00  0.00     0.094 A 
ATOM     10  C   UNL     1      31.282  21.566  36.023  1.00  0.00     0.146 A 
ATOM     11  O   UNL     1      31.280  22.887  36.149  1.00  0.00    -0.452 OA
ENDROOT
BRANCH   1  12
ATOM     12  C   UNL     1      31.575  25.172  35.438  1.00  0.00     0.025 A 
ATOM     13  C   UNL     1      31.638  25.666  36.753  1.00  0.00     0.016 A 
ATOM     14  C   UNL     1      31.599  27.041  36.994  1.00  0.00     0.051 A 
ATOM     15  C   UNL     1      31.483  27.943  35.928  1.00  0.00     0.157 A 
ATOM     16  C   UNL     1      31.438  26.079  34.374  1.00  0.00     0.062 A 
ATOM     17  C   UNL     1      31.400  27.457  34.612  1.00  0.00     0.158 A 
BRANCH  15  18
ATOM     18  O   UNL     1      31.447  29.315  36.171  1.00  0.00    -0.504 OA
ATOM     19  H   UNL     1      31.868  29.718  37.000  1.00  0.00     0.293 HD
ENDBRANCH  15  18
BRANCH  17  20
ATOM     20  O   UNL     1      31.276  28.328  33.530  1.00  0.00    -0.504 OA
ATOM     21  H   UNL     1      31.252  29.334  33.649  1.00  0.00     0.293 HD
ENDBRANCH  17  20
ENDBRANCH   1  12
BRANCH   2  22
ATOM     22  O   UNL     1      32.124  24.069  32.815  1.00  0.00    -0.502 OA
ATOM     23  H   UNL     1      31.384  24.594  32.366  1.00  0.00     0.293 HD
ENDBRANCH   2  22
BRANCH   6  24
ATOM     24  O   UNL     1      32.116  18.803  33.620  1.00  0.00    -0.507 OA
ATOM     25  H   UNL     1      31.788  17.883  33.365  1.00  0.00     0.293 HD
ENDBRANCH   6  24
BRANCH   8  26
ATOM     26  O   UNL     1      30.510  18.620  38.125  1.00  0.00    -0.508 OA
ATOM     27  H   UNL     1      29.642  18.098  38.124  1.00  0.00     0.293 HD
ENDBRANCH   8  26
TORSDOF 6
ENDMDL
