MODEL 1
REMARK VINA RESULT:    -3.018      0.000      0.000
REMARK INTER + INTRA:          -3.018
REMARK INTER:                  -3.018
REMARK INTRA:                   0.000
REMARK UNBOUND:                 0.000
REMARK SMILES C=C1CCC[C@@]2(C)CC(=O)C(=C(C)C)C[C@@H]12
REMARK SMILES IDX 13 1 12 2 11 3 15 4 16 5 2 6 1 7 3 8 4 9 5 10 6 11 8 12 9 13
REMARK SMILES IDX 10 14 7 15 14 16
REMARK H PARENT
REMARK Flexibility Score: inf
ROOT
ATOM      1  C   UNL     1     101.422  32.875  64.460  1.00  0.00     0.039 C 
ATOM      2  C   UNL     1     100.542  33.314  63.313  1.00  0.00    -0.070 C 
ATOM      3  C   UNL     1      99.268  33.750  63.525  1.00  0.00    -0.006 C 
ATOM      4  C   UNL     1      98.661  33.828  64.911  1.00  0.00     0.047 C 
ATOM      5  C   UNL     1      97.142  33.519  64.937  1.00  0.00     0.025 C 
ATOM      6  C   UNL     1      96.599  33.859  66.315  1.00  0.00    -0.073 C 
ATOM      7  C   UNL     1      96.429  32.899  67.237  1.00  0.00     0.008 C 
ATOM      8  C   UNL     1      96.405  35.316  66.682  1.00  0.00     0.031 C 
ATOM      9  C   UNL     1      95.686  36.089  65.568  1.00  0.00     0.005 C 
ATOM     10  C   UNL     1      96.268  35.799  64.172  1.00  0.00     0.008 C 
ATOM     11  C   UNL     1      96.323  34.277  63.843  1.00  0.00    -0.018 C 
ATOM     12  C   UNL     1      96.959  34.056  62.445  1.00  0.00     0.088 C 
ATOM     13  C   UNL     1      98.432  34.309  62.436  1.00  0.00     0.159 C 
ATOM     14  O   UNL     1      98.938  34.992  61.506  1.00  0.00    -0.295 OA
ATOM     15  C   UNL     1      94.882  33.702  63.777  1.00  0.00     0.012 C 
ATOM     16  C   UNL     1     101.119  33.211  61.920  1.00  0.00     0.039 C 
ENDROOT
TORSDOF 0
ENDMDL
MODEL 2
REMARK VINA RESULT:    -0.971     15.289     19.359
REMARK INTER + INTRA:          -0.971
REMARK INTER:                  -0.971
REMARK INTRA:                   0.000
REMARK UNBOUND:                 0.000
REMARK SMILES C=C1CCC[C@@]2(C)CC(=O)C(=C(C)C)C[C@@H]12
REMARK SMILES IDX 13 1 12 2 11 3 15 4 16 5 2 6 1 7 3 8 4 9 5 10 6 11 8 12 9 13
REMARK SMILES IDX 10 14 7 15 14 16
REMARK H PARENT
REMARK Flexibility Score: inf
ROOT
ATOM      1  C   UNL     1     111.554  37.293  55.191  1.00  0.00     0.039 C 
ATOM      2  C   UNL     1     111.278  35.812  55.082  1.00  0.00    -0.070 C 
ATOM      3  C   UNL     1     111.828  35.060  54.086  1.00  0.00    -0.006 C 
ATOM      4  C   UNL     1     112.747  35.657  53.038  1.00  0.00     0.047 C 
ATOM      5  C   UNL     1     112.602  34.996  51.643  1.00  0.00     0.025 C 
ATOM      6  C   UNL     1     113.723  35.497  50.748  1.00  0.00    -0.073 C 
ATOM      7  C   UNL     1     113.507  36.499  49.881  1.00  0.00     0.008 C 
ATOM      8  C   UNL     1     115.122  34.959  50.963  1.00  0.00     0.031 C 
ATOM      9  C   UNL     1     115.125  33.430  51.095  1.00  0.00     0.005 C 
ATOM     10  C   UNL     1     114.032  32.913  52.049  1.00  0.00     0.008 C 
ATOM     11  C   UNL     1     112.610  33.434  51.679  1.00  0.00    -0.018 C 
ATOM     12  C   UNL     1     111.568  32.913  52.703  1.00  0.00     0.088 C 
ATOM     13  C   UNL     1     111.681  33.587  54.033  1.00  0.00     0.159 C 
ATOM     14  O   UNL     1     111.650  32.893  55.084  1.00  0.00    -0.295 OA
ATOM     15  C   UNL     1     112.192  32.878  50.291  1.00  0.00     0.012 C 
ATOM     16  C   UNL     1     110.336  35.206  56.098  1.00  0.00     0.039 C 
ENDROOT
TORSDOF 0
ENDMDL
