MODEL 1
REMARK VINA RESULT:    -5.867      0.000      0.000
REMARK INTER + INTRA:         -10.285
REMARK INTER:                  -8.954
REMARK INTRA:                  -1.331
REMARK UNBOUND:                -1.331
REMARK SMILES CC(=O)CCC=C(C)CCC=C(C)CCC=C(C)C
REMARK SMILES IDX 10 1 11 2 12 3 13 4 14 5 15 6 16 7 18 8 17 9 19 10 9 11 7 12
REMARK SMILES IDX 6 13 8 14 5 15 4 16 2 17 3 18 1 19
REMARK H PARENT
REMARK Flexibility Score: inf
ROOT
ATOM      1  C   UNL     1      -5.635 -15.267  31.837  1.00  0.00     0.032 C 
ENDROOT
BRANCH   1   2
ATOM      2  C   UNL     1      -5.623 -14.598  30.485  1.00  0.00    -0.028 C 
ATOM      3  C   UNL     1      -6.315 -15.037  29.409  1.00  0.00    -0.077 C 
ATOM      4  C   UNL     1      -7.264 -16.209  29.494  1.00  0.00     0.039 C 
BRANCH   3   5
ATOM      5  C   UNL     1      -6.185 -14.299  28.096  1.00  0.00     0.034 C 
BRANCH   5   6
ATOM      6  C   UNL     1      -4.815 -13.622  27.989  1.00  0.00     0.032 C 
BRANCH   6   7
ATOM      7  C   UNL     1      -4.822 -12.292  28.697  1.00  0.00    -0.028 C 
ATOM      8  C   UNL     1      -3.007 -11.333  27.261  1.00  0.00     0.039 C 
ATOM      9  C   UNL     1      -3.998 -11.263  28.400  1.00  0.00    -0.080 C 
ATOM     10  C   UNL     1      -4.087 -10.008  29.229  1.00  0.00     0.039 C 
ENDBRANCH   6   7
ENDBRANCH   5   6
ENDBRANCH   3   5
ENDBRANCH   1   2
BRANCH   1  11
ATOM     11  C   UNL     1      -5.205 -14.285  32.932  1.00  0.00     0.034 C 
BRANCH  11  12
ATOM     12  C   UNL     1      -4.227 -13.267  32.390  1.00  0.00    -0.077 C 
ATOM     13  C   UNL     1      -3.104 -13.700  31.772  1.00  0.00    -0.028 C 
ATOM     14  C   UNL     1      -4.545 -11.797  32.532  1.00  0.00     0.039 C 
BRANCH  13  15
ATOM     15  C   UNL     1      -2.025 -12.794  31.231  1.00  0.00     0.035 C 
BRANCH  15  16
ATOM     16  C   UNL     1      -0.763 -13.599  30.890  1.00  0.00     0.079 C 
BRANCH  16  17
ATOM     17  C   UNL     1      -0.439 -13.662  29.413  1.00  0.00     0.130 C 
ATOM     18  O   UNL     1       0.564 -13.092  29.014  1.00  0.00    -0.300 OA
ATOM     19  C   UNL     1      -1.303 -14.385  28.415  1.00  0.00     0.087 C 
ENDBRANCH  16  17
ENDBRANCH  15  16
ENDBRANCH  13  15
ENDBRANCH  11  12
ENDBRANCH   1  11
TORSDOF 9
ENDMDL
MODEL 2
REMARK VINA RESULT:    -5.827      1.426      4.475
REMARK INTER + INTRA:         -10.225
REMARK INTER:                  -9.201
REMARK INTRA:                  -1.024
REMARK UNBOUND:                -1.331
REMARK SMILES CC(=O)CCC=C(C)CCC=C(C)CCC=C(C)C
REMARK SMILES IDX 10 1 11 2 12 3 13 4 14 5 15 6 16 7 18 8 17 9 19 10 9 11 7 12
REMARK SMILES IDX 6 13 8 14 5 15 4 16 2 17 3 18 1 19
REMARK H PARENT
REMARK Flexibility Score: inf
ROOT
ATOM      1  C   UNL     1      -6.302 -14.863  29.769  1.00  0.00     0.032 C 
ENDROOT
BRANCH   1   2
ATOM      2  C   UNL     1      -5.056 -14.336  30.435  1.00  0.00    -0.028 C 
ATOM      3  C   UNL     1      -4.832 -14.364  31.770  1.00  0.00    -0.077 C 
ATOM      4  C   UNL     1      -5.792 -15.031  32.726  1.00  0.00     0.039 C 
BRANCH   3   5
ATOM      5  C   UNL     1      -3.557 -13.764  32.317  1.00  0.00     0.034 C 
BRANCH   5   6
ATOM      6  C   UNL     1      -2.506 -13.626  31.211  1.00  0.00     0.032 C 
BRANCH   6   7
ATOM      7  C   UNL     1      -1.217 -13.076  31.767  1.00  0.00    -0.028 C 
ATOM      8  C   UNL     1      -0.055 -13.109  29.548  1.00  0.00     0.039 C 
ATOM      9  C   UNL     1      -0.099 -12.864  31.039  1.00  0.00    -0.080 C 
ATOM     10  C   UNL     1       1.132 -12.355  31.744  1.00  0.00     0.039 C 
ENDBRANCH   6   7
ENDBRANCH   5   6
ENDBRANCH   3   5
ENDBRANCH   1   2
BRANCH   1  11
ATOM     11  C   UNL     1      -6.326 -14.482  28.284  1.00  0.00     0.034 C 
BRANCH  11  12
ATOM     12  C   UNL     1      -5.112 -13.657  27.920  1.00  0.00    -0.077 C 
ATOM     13  C   UNL     1      -4.891 -12.491  28.569  1.00  0.00    -0.028 C 
ATOM     14  C   UNL     1      -4.168 -14.173  26.859  1.00  0.00     0.039 C 
BRANCH  13  15
ATOM     15  C   UNL     1      -3.749 -11.551  28.270  1.00  0.00     0.035 C 
BRANCH  15  16
ATOM     16  C   UNL     1      -3.939 -10.217  29.005  1.00  0.00     0.079 C 
BRANCH  16  17
ATOM     17  C   UNL     1      -3.176 -10.105  30.308  1.00  0.00     0.130 C 
ATOM     18  O   UNL     1      -1.966  -9.951  30.259  1.00  0.00    -0.300 OA
ATOM     19  C   UNL     1      -3.840 -10.186  31.656  1.00  0.00     0.087 C 
ENDBRANCH  16  17
ENDBRANCH  15  16
ENDBRANCH  13  15
ENDBRANCH  11  12
ENDBRANCH   1  11
TORSDOF 9
ENDMDL
MODEL 3
REMARK VINA RESULT:    -5.785      2.161      5.455
REMARK INTER + INTRA:         -10.161
REMARK INTER:                  -8.751
REMARK INTRA:                  -1.410
REMARK UNBOUND:                -1.331
REMARK SMILES CC(=O)CCC=C(C)CCC=C(C)CCC=C(C)C
REMARK SMILES IDX 10 1 11 2 12 3 13 4 14 5 15 6 16 7 18 8 17 9 19 10 9 11 7 12
REMARK SMILES IDX 6 13 8 14 5 15 4 16 2 17 3 18 1 19
REMARK H PARENT
REMARK Flexibility Score: inf
ROOT
ATOM      1  C   UNL     1      -1.318 -12.766  31.742  1.00  0.00     0.032 C 
ENDROOT
BRANCH   1   2
ATOM      2  C   UNL     1      -2.551 -13.622  31.876  1.00  0.00    -0.028 C 
ATOM      3  C   UNL     1      -3.817 -13.145  31.878  1.00  0.00    -0.077 C 
ATOM      4  C   UNL     1      -4.119 -11.684  31.640  1.00  0.00     0.039 C 
BRANCH   3   5
ATOM      5  C   UNL     1      -4.969 -14.107  32.062  1.00  0.00     0.034 C 
BRANCH   5   6
ATOM      6  C   UNL     1      -5.308 -14.266  33.547  1.00  0.00     0.032 C 
BRANCH   6   7
ATOM      7  C   UNL     1      -5.400 -12.920  34.220  1.00  0.00    -0.028 C 
ATOM      8  C   UNL     1      -7.428 -13.541  35.552  1.00  0.00     0.039 C 
ATOM      9  C   UNL     1      -6.361 -12.570  35.102  1.00  0.00    -0.080 C 
ATOM     10  C   UNL     1      -6.352 -11.168  35.656  1.00  0.00     0.039 C 
ENDBRANCH   6   7
ENDBRANCH   5   6
ENDBRANCH   3   5
ENDBRANCH   1   2
BRANCH   1  11
ATOM     11  C   UNL     1      -0.404 -13.299  30.632  1.00  0.00     0.034 C 
BRANCH  11  12
ATOM     12  C   UNL     1      -1.091 -13.226  29.287  1.00  0.00    -0.077 C 
ATOM     13  C   UNL     1      -1.772 -12.105  28.957  1.00  0.00    -0.028 C 
ATOM     14  C   UNL     1      -0.976 -14.399  28.342  1.00  0.00     0.039 C 
BRANCH  13  15
ATOM     15  C   UNL     1      -2.541 -11.921  27.671  1.00  0.00     0.035 C 
BRANCH  15  16
ATOM     16  C   UNL     1      -4.053 -11.981  27.932  1.00  0.00     0.079 C 
BRANCH  16  17
ATOM     17  C   UNL     1      -4.664 -13.355  27.758  1.00  0.00     0.130 C 
ATOM     18  O   UNL     1      -5.470 -13.741  28.590  1.00  0.00    -0.300 OA
ATOM     19  C   UNL     1      -4.315 -14.268  26.613  1.00  0.00     0.087 C 
ENDBRANCH  16  17
ENDBRANCH  15  16
ENDBRANCH  13  15
ENDBRANCH  11  12
ENDBRANCH   1  11
TORSDOF 9
ENDMDL
MODEL 4
REMARK VINA RESULT:    -5.755      1.864      4.751
REMARK INTER + INTRA:         -10.114
REMARK INTER:                  -8.911
REMARK INTRA:                  -1.203
REMARK UNBOUND:                -1.331
REMARK SMILES CC(=O)CCC=C(C)CCC=C(C)CCC=C(C)C
REMARK SMILES IDX 10 1 11 2 12 3 13 4 14 5 15 6 16 7 18 8 17 9 19 10 9 11 7 12
REMARK SMILES IDX 6 13 8 14 5 15 4 16 2 17 3 18 1 19
REMARK H PARENT
REMARK Flexibility Score: inf
ROOT
ATOM      1  C   UNL     1      -5.303 -13.579  28.710  1.00  0.00     0.032 C 
ENDROOT
BRANCH   1   2
ATOM      2  C   UNL     1      -4.579 -13.469  30.028  1.00  0.00    -0.028 C 
ATOM      3  C   UNL     1      -4.927 -14.143  31.149  1.00  0.00    -0.077 C 
ATOM      4  C   UNL     1      -6.038 -15.166  31.153  1.00  0.00     0.039 C 
BRANCH   3   5
ATOM      5  C   UNL     1      -4.143 -13.913  32.421  1.00  0.00     0.034 C 
BRANCH   5   6
ATOM      6  C   UNL     1      -4.693 -12.704  33.184  1.00  0.00     0.032 C 
BRANCH   6   7
ATOM      7  C   UNL     1      -5.640 -13.146  34.271  1.00  0.00    -0.028 C 
ATOM      8  C   UNL     1      -6.130 -10.807  35.021  1.00  0.00     0.039 C 
ATOM      9  C   UNL     1      -6.272 -12.308  35.122  1.00  0.00    -0.080 C 
ATOM     10  C   UNL     1      -7.152 -12.900  36.192  1.00  0.00     0.039 C 
ENDBRANCH   6   7
ENDBRANCH   5   6
ENDBRANCH   3   5
ENDBRANCH   1   2
BRANCH   1  11
ATOM     11  C   UNL     1      -4.306 -13.662  27.548  1.00  0.00     0.034 C 
BRANCH  11  12
ATOM     12  C   UNL     1      -2.993 -13.010  27.919  1.00  0.00    -0.077 C 
ATOM     13  C   UNL     1      -1.992 -13.779  28.405  1.00  0.00    -0.028 C 
ATOM     14  C   UNL     1      -2.829 -11.523  27.712  1.00  0.00     0.039 C 
BRANCH  13  15
ATOM     15  C   UNL     1      -0.653 -13.251  28.858  1.00  0.00     0.035 C 
BRANCH  15  16
ATOM     16  C   UNL     1      -0.422 -13.562  30.344  1.00  0.00     0.079 C 
BRANCH  16  17
ATOM     17  C   UNL     1      -0.445 -12.349  31.249  1.00  0.00     0.130 C 
ATOM     18  O   UNL     1       0.443 -12.228  32.078  1.00  0.00    -0.300 OA
ATOM     19  C   UNL     1      -1.517 -11.296  31.180  1.00  0.00     0.087 C 
ENDBRANCH  16  17
ENDBRANCH  15  16
ENDBRANCH  13  15
ENDBRANCH  11  12
ENDBRANCH   1  11
TORSDOF 9
ENDMDL
MODEL 5
REMARK VINA RESULT:    -5.747      1.386      3.675
REMARK INTER + INTRA:         -10.102
REMARK INTER:                  -8.577
REMARK INTRA:                  -1.525
REMARK UNBOUND:                -1.331
REMARK SMILES CC(=O)CCC=C(C)CCC=C(C)CCC=C(C)C
REMARK SMILES IDX 10 1 11 2 12 3 13 4 14 5 15 6 16 7 18 8 17 9 19 10 9 11 7 12
REMARK SMILES IDX 6 13 8 14 5 15 4 16 2 17 3 18 1 19
REMARK H PARENT
REMARK Flexibility Score: inf
ROOT
ATOM      1  C   UNL     1      -5.597 -13.958  27.585  1.00  0.00     0.032 C 
ENDROOT
BRANCH   1   2
ATOM      2  C   UNL     1      -5.304 -14.047  29.062  1.00  0.00    -0.028 C 
ATOM      3  C   UNL     1      -6.001 -14.810  29.935  1.00  0.00    -0.077 C 
ATOM      4  C   UNL     1      -7.100 -15.741  29.481  1.00  0.00     0.039 C 
BRANCH   3   5
ATOM      5  C   UNL     1      -5.631 -14.779  31.401  1.00  0.00     0.034 C 
BRANCH   5   6
ATOM      6  C   UNL     1      -4.309 -14.033  31.609  1.00  0.00     0.032 C 
BRANCH   6   7
ATOM      7  C   UNL     1      -4.529 -12.775  32.410  1.00  0.00    -0.028 C 
ATOM      8  C   UNL     1      -3.808 -11.266  30.545  1.00  0.00     0.039 C 
ATOM      9  C   UNL     1      -4.283 -11.526  31.956  1.00  0.00    -0.080 C 
ATOM     10  C   UNL     1      -4.504 -10.365  32.891  1.00  0.00     0.039 C 
ENDBRANCH   6   7
ENDBRANCH   5   6
ENDBRANCH   3   5
ENDBRANCH   1   2
BRANCH   1  11
ATOM     11  C   UNL     1      -4.309 -14.101  26.766  1.00  0.00     0.034 C 
BRANCH  11  12
ATOM     12  C   UNL     1      -3.230 -13.183  27.295  1.00  0.00    -0.077 C 
ATOM     13  C   UNL     1      -2.285 -13.687  28.121  1.00  0.00    -0.028 C 
ATOM     14  C   UNL     1      -3.226 -11.735  26.864  1.00  0.00     0.039 C 
BRANCH  13  15
ATOM     15  C   UNL     1      -1.185 -12.872  28.756  1.00  0.00     0.035 C 
BRANCH  15  16
ATOM     16  C   UNL     1      -0.391 -13.723  29.758  1.00  0.00     0.079 C 
BRANCH  16  17
ATOM     17  C   UNL     1      -0.552 -13.302  31.203  1.00  0.00     0.130 C 
ATOM     18  O   UNL     1      -1.286 -13.964  31.921  1.00  0.00    -0.300 OA
ATOM     19  C   UNL     1       0.141 -12.102  31.788  1.00  0.00     0.087 C 
ENDBRANCH  16  17
ENDBRANCH  15  16
ENDBRANCH  13  15
ENDBRANCH  11  12
ENDBRANCH   1  11
TORSDOF 9
ENDMDL
MODEL 6
REMARK VINA RESULT:    -5.689      1.705      5.223
REMARK INTER + INTRA:         -10.013
REMARK INTER:                  -8.538
REMARK INTRA:                  -1.475
REMARK UNBOUND:                -1.331
REMARK SMILES CC(=O)CCC=C(C)CCC=C(C)CCC=C(C)C
REMARK SMILES IDX 10 1 11 2 12 3 13 4 14 5 15 6 16 7 18 8 17 9 19 10 9 11 7 12
REMARK SMILES IDX 6 13 8 14 5 15 4 16 2 17 3 18 1 19
REMARK H PARENT
REMARK Flexibility Score: inf
ROOT
ATOM      1  C   UNL     1      -3.236 -10.262  27.631  1.00  0.00     0.032 C 
ENDROOT
BRANCH   1   2
ATOM      2  C   UNL     1      -4.065 -10.505  28.867  1.00  0.00    -0.028 C 
ATOM      3  C   UNL     1      -3.602 -10.389  30.133  1.00  0.00    -0.077 C 
ATOM      4  C   UNL     1      -2.204  -9.898  30.430  1.00  0.00     0.039 C 
BRANCH   3   5
ATOM      5  C   UNL     1      -4.525 -10.701  31.288  1.00  0.00     0.034 C 
BRANCH   5   6
ATOM      6  C   UNL     1      -3.902 -11.755  32.209  1.00  0.00     0.032 C 
BRANCH   6   7
ATOM      7  C   UNL     1      -4.392 -13.134  31.847  1.00  0.00    -0.028 C 
ATOM      8  C   UNL     1      -5.406 -13.545  34.100  1.00  0.00     0.039 C 
ATOM      9  C   UNL     1      -5.044 -13.961  32.693  1.00  0.00    -0.080 C 
ATOM     10  C   UNL     1      -5.429 -15.333  32.203  1.00  0.00     0.039 C 
ENDBRANCH   6   7
ENDBRANCH   5   6
ENDBRANCH   3   5
ENDBRANCH   1   2
BRANCH   1  11
ATOM     11  C   UNL     1      -3.343 -11.447  26.664  1.00  0.00     0.034 C 
BRANCH  11  12
ATOM     12  C   UNL     1      -2.986 -12.742  27.359  1.00  0.00    -0.077 C 
ATOM     13  C   UNL     1      -1.880 -12.788  28.137  1.00  0.00    -0.028 C 
ATOM     14  C   UNL     1      -3.889 -13.940  27.182  1.00  0.00     0.039 C 
BRANCH  13  15
ATOM     15  C   UNL     1      -1.386 -14.026  28.844  1.00  0.00     0.035 C 
BRANCH  15  16
ATOM     16  C   UNL     1      -0.143 -13.707  29.688  1.00  0.00     0.079 C 
BRANCH  16  17
ATOM     17  C   UNL     1      -0.441 -13.323  31.122  1.00  0.00     0.130 C 
ATOM     18  O   UNL     1      -1.307 -13.942  31.720  1.00  0.00    -0.300 OA
ATOM     19  C   UNL     1       0.273 -12.208  31.836  1.00  0.00     0.087 C 
ENDBRANCH  16  17
ENDBRANCH  15  16
ENDBRANCH  13  15
ENDBRANCH  11  12
ENDBRANCH   1  11
TORSDOF 9
ENDMDL
MODEL 7
REMARK VINA RESULT:    -5.676      2.134      4.937
REMARK INTER + INTRA:          -9.994
REMARK INTER:                  -9.075
REMARK INTRA:                  -0.920
REMARK UNBOUND:                -1.331
REMARK SMILES CC(=O)CCC=C(C)CCC=C(C)CCC=C(C)C
REMARK SMILES IDX 10 1 11 2 12 3 13 4 14 5 15 6 16 7 18 8 17 9 19 10 9 11 7 12
REMARK SMILES IDX 6 13 8 14 5 15 4 16 2 17 3 18 1 19
REMARK H PARENT
REMARK Flexibility Score: inf
ROOT
ATOM      1  C   UNL     1      -1.880 -10.273  31.269  1.00  0.00     0.032 C 
ENDROOT
BRANCH   1   2
ATOM      2  C   UNL     1      -1.529 -11.342  30.265  1.00  0.00    -0.028 C 
ATOM      3  C   UNL     1      -0.597 -12.302  30.466  1.00  0.00    -0.077 C 
ATOM      4  C   UNL     1       0.123 -12.452  31.785  1.00  0.00     0.039 C 
BRANCH   3   5
ATOM      5  C   UNL     1      -0.308 -13.293  29.361  1.00  0.00     0.034 C 
BRANCH   5   6
ATOM      6  C   UNL     1      -1.600 -13.686  28.637  1.00  0.00     0.032 C 
BRANCH   6   7
ATOM      7  C   UNL     1      -2.043 -12.587  27.705  1.00  0.00    -0.028 C 
ATOM      8  C   UNL     1      -3.939 -13.926  26.764  1.00  0.00     0.039 C 
ATOM      9  C   UNL     1      -3.074 -12.689  26.838  1.00  0.00    -0.080 C 
ATOM     10  C   UNL     1      -3.369 -11.522  25.932  1.00  0.00     0.039 C 
ENDBRANCH   6   7
ENDBRANCH   5   6
ENDBRANCH   3   5
ENDBRANCH   1   2
BRANCH   1  11
ATOM     11  C   UNL     1      -3.382 -10.290  31.577  1.00  0.00     0.034 C 
BRANCH  11  12
ATOM     12  C   UNL     1      -4.094 -11.319  30.728  1.00  0.00    -0.077 C 
ATOM     13  C   UNL     1      -4.133 -12.604  31.147  1.00  0.00    -0.028 C 
ATOM     14  C   UNL     1      -4.763 -10.875  29.448  1.00  0.00     0.039 C 
BRANCH  13  15
ATOM     15  C   UNL     1      -4.766 -13.735  30.374  1.00  0.00     0.035 C 
BRANCH  15  16
ATOM     16  C   UNL     1      -5.566 -14.651  31.312  1.00  0.00     0.079 C 
BRANCH  16  17
ATOM     17  C   UNL     1      -5.003 -14.759  32.713  1.00  0.00     0.130 C 
ATOM     18  O   UNL     1      -4.044 -15.492  32.898  1.00  0.00    -0.300 OA
ATOM     19  C   UNL     1      -5.578 -14.012  33.886  1.00  0.00     0.087 C 
ENDBRANCH  16  17
ENDBRANCH  15  16
ENDBRANCH  13  15
ENDBRANCH  11  12
ENDBRANCH   1  11
TORSDOF 9
ENDMDL
MODEL 8
REMARK VINA RESULT:    -5.608      1.022      3.463
REMARK INTER + INTRA:          -9.891
REMARK INTER:                  -8.355
REMARK INTRA:                  -1.536
REMARK UNBOUND:                -1.331
REMARK SMILES CC(=O)CCC=C(C)CCC=C(C)CCC=C(C)C
REMARK SMILES IDX 10 1 11 2 12 3 13 4 14 5 15 6 16 7 18 8 17 9 19 10 9 11 7 12
REMARK SMILES IDX 6 13 8 14 5 15 4 16 2 17 3 18 1 19
REMARK H PARENT
REMARK Flexibility Score: inf
ROOT
ATOM      1  C   UNL     1      -4.327 -10.595  32.389  1.00  0.00     0.032 C 
ENDROOT
BRANCH   1   2
ATOM      2  C   UNL     1      -4.430 -10.527  30.886  1.00  0.00    -0.028 C 
ATOM      3  C   UNL     1      -3.408 -10.192  30.064  1.00  0.00    -0.077 C 
ATOM      4  C   UNL     1      -2.012  -9.946  30.587  1.00  0.00     0.039 C 
BRANCH   3   5
ATOM      5  C   UNL     1      -3.652 -10.120  28.574  1.00  0.00     0.034 C 
BRANCH   5   6
ATOM      6  C   UNL     1      -3.494 -11.503  27.933  1.00  0.00     0.032 C 
BRANCH   6   7
ATOM      7  C   UNL     1      -4.562 -12.445  28.430  1.00  0.00    -0.028 C 
ATOM      8  C   UNL     1      -4.226 -14.075  26.558  1.00  0.00     0.039 C 
ATOM      9  C   UNL     1      -4.921 -13.590  27.810  1.00  0.00    -0.080 C 
ATOM     10  C   UNL     1      -6.042 -14.406  28.399  1.00  0.00     0.039 C 
ENDBRANCH   6   7
ENDBRANCH   5   6
ENDBRANCH   3   5
ENDBRANCH   1   2
BRANCH   1  11
ATOM     11  C   UNL     1      -4.832 -11.947  32.907  1.00  0.00     0.034 C 
BRANCH  11  12
ATOM     12  C   UNL     1      -4.113 -13.088  32.223  1.00  0.00    -0.077 C 
ATOM     13  C   UNL     1      -2.799 -12.955  31.928  1.00  0.00    -0.028 C 
ATOM     14  C   UNL     1      -4.878 -14.352  31.910  1.00  0.00     0.039 C 
BRANCH  13  15
ATOM     15  C   UNL     1      -1.977 -13.994  31.205  1.00  0.00     0.035 C 
BRANCH  15  16
ATOM     16  C   UNL     1      -0.631 -13.405  30.760  1.00  0.00     0.079 C 
BRANCH  16  17
ATOM     17  C   UNL     1      -0.301 -13.629  29.300  1.00  0.00     0.130 C 
ATOM     18  O   UNL     1       0.740 -13.164  28.863  1.00  0.00    -0.300 OA
ATOM     19  C   UNL     1      -1.201 -14.389  28.364  1.00  0.00     0.087 C 
ENDBRANCH  16  17
ENDBRANCH  15  16
ENDBRANCH  13  15
ENDBRANCH  11  12
ENDBRANCH   1  11
TORSDOF 9
ENDMDL
MODEL 9
REMARK VINA RESULT:    -5.576      1.726      4.438
REMARK INTER + INTRA:          -9.841
REMARK INTER:                  -8.675
REMARK INTRA:                  -1.166
REMARK UNBOUND:                -1.331
REMARK SMILES CC(=O)CCC=C(C)CCC=C(C)CCC=C(C)C
REMARK SMILES IDX 10 1 11 2 12 3 13 4 14 5 15 6 16 7 18 8 17 9 19 10 9 11 7 12
REMARK SMILES IDX 6 13 8 14 5 15 4 16 2 17 3 18 1 19
REMARK H PARENT
REMARK Flexibility Score: inf
ROOT
ATOM      1  C   UNL     1      -4.792 -12.925  33.063  1.00  0.00     0.032 C 
ENDROOT
BRANCH   1   2
ATOM      2  C   UNL     1      -3.969 -12.073  32.131  1.00  0.00    -0.028 C 
ATOM      3  C   UNL     1      -4.090 -10.730  32.016  1.00  0.00    -0.077 C 
ATOM      4  C   UNL     1      -5.015  -9.932  32.905  1.00  0.00     0.039 C 
BRANCH   3   5
ATOM      5  C   UNL     1      -3.231  -9.994  31.012  1.00  0.00     0.034 C 
BRANCH   5   6
ATOM      6  C   UNL     1      -1.779 -10.478  31.085  1.00  0.00     0.032 C 
BRANCH   6   7
ATOM      7  C   UNL     1      -1.469 -11.407  29.939  1.00  0.00    -0.028 C 
ATOM      8  C   UNL     1      -0.723 -13.271  31.437  1.00  0.00     0.039 C 
ATOM      9  C   UNL     1      -0.969 -12.654  30.079  1.00  0.00    -0.080 C 
ATOM     10  C   UNL     1      -0.662 -13.449  28.836  1.00  0.00     0.039 C 
ENDBRANCH   6   7
ENDBRANCH   5   6
ENDBRANCH   3   5
ENDBRANCH   1   2
BRANCH   1  11
ATOM     11  C   UNL     1      -4.848 -14.374  32.567  1.00  0.00     0.034 C 
BRANCH  11  12
ATOM     12  C   UNL     1      -5.246 -14.429  31.109  1.00  0.00    -0.077 C 
ATOM     13  C   UNL     1      -4.544 -13.705  30.208  1.00  0.00    -0.028 C 
ATOM     14  C   UNL     1      -6.403 -15.310  30.699  1.00  0.00     0.039 C 
BRANCH  13  15
ATOM     15  C   UNL     1      -4.865 -13.632  28.735  1.00  0.00     0.035 C 
BRANCH  15  16
ATOM     16  C   UNL     1      -4.349 -12.317  28.133  1.00  0.00     0.079 C 
BRANCH  16  17
ATOM     17  C   UNL     1      -3.643 -12.471  26.803  1.00  0.00     0.130 C 
ATOM     18  O   UNL     1      -3.660 -13.565  26.261  1.00  0.00    -0.300 OA
ATOM     19  C   UNL     1      -2.913 -11.342  26.128  1.00  0.00     0.087 C 
ENDBRANCH  16  17
ENDBRANCH  15  16
ENDBRANCH  13  15
ENDBRANCH  11  12
ENDBRANCH   1  11
TORSDOF 9
ENDMDL
