MODEL 1
REMARK VINA RESULT:    -5.657      0.000      0.000
REMARK INTER + INTRA:          -8.808
REMARK INTER:                  -7.641
REMARK INTRA:                  -1.166
REMARK UNBOUND:                -1.166
REMARK SMILES O=c1c(-c2ccc(O)cc2)coc2c([C@H]3O[C@H](CO)[C@H](O)[C@@H](O)[C@H]3O)c(O)ccc12
REMARK SMILES IDX 3 1 11 2 12 3 13 4 30 5 2 6 1 7 29 8 28 9 26 10 14 11 4 12
REMARK SMILES IDX 5 13 6 14 7 15 10 16 9 17 8 18 15 20 24 21 16 22 22 23 17 24
REMARK SMILES IDX 20 25 25 26 23 28 18 30 19 31 21 33 27 35
REMARK H PARENT 8 19 25 27 23 29 19 32 21 34 27 36
REMARK Flexibility Score: inf
ROOT
ATOM      1  C   UNL     1      -1.217 -13.025 -35.435  1.00  0.00     0.065 A 
ATOM      2  C   UNL     1      -1.594 -13.210 -36.773  1.00  0.00     0.208 A 
ATOM      3  O   UNL     1      -1.593 -12.195 -37.629  1.00  0.00    -0.463 OA
ATOM      4  C   UNL     1      -1.242 -10.956 -37.289  1.00  0.00     0.147 A 
ATOM      5  C   UNL     1      -0.836 -10.683 -35.962  1.00  0.00     0.066 A 
ATOM      6  C   UNL     1      -0.824 -11.735 -35.030  1.00  0.00     0.200 A 
ATOM      7  O   UNL     1      -0.443 -11.533 -33.843  1.00  0.00    -0.288 OA
ATOM      8  C   UNL     1      -0.446  -9.381 -35.610  1.00  0.00     0.020 A 
ATOM      9  C   UNL     1      -0.447  -8.368 -36.566  1.00  0.00     0.047 A 
ATOM     10  C   UNL     1      -0.846  -8.628 -37.883  1.00  0.00     0.125 A 
ATOM     11  C   UNL     1      -1.271  -9.924 -38.255  1.00  0.00     0.069 A 
ENDROOT
BRANCH   1  12
ATOM     12  C   UNL     1      -1.229 -14.175 -34.497  1.00  0.00    -0.011 A 
ATOM     13  C   UNL     1      -2.376 -14.471 -33.739  1.00  0.00     0.013 A 
ATOM     14  C   UNL     1      -2.386 -15.564 -32.867  1.00  0.00     0.047 A 
ATOM     15  C   UNL     1      -1.251 -16.376 -32.744  1.00  0.00     0.115 A 
ATOM     16  C   UNL     1      -0.096 -14.999 -34.372  1.00  0.00     0.013 A 
ATOM     17  C   UNL     1      -0.108 -16.090 -33.497  1.00  0.00     0.047 A 
BRANCH  15  18
ATOM     18  O   UNL     1      -1.250 -17.469 -31.881  1.00  0.00    -0.508 OA
ATOM     19  H   UNL     1      -1.649 -17.409 -30.951  1.00  0.00     0.293 HD
ENDBRANCH  15  18
ENDBRANCH   1  12
BRANCH  11  20
ATOM     20  C   UNL     1      -1.684 -10.235 -39.688  1.00  0.00     0.188 C 
ATOM     21  C   UNL     1      -0.438 -10.555 -40.556  1.00  0.00     0.179 C 
ATOM     22  O   UNL     1      -2.556  -9.218 -40.183  1.00  0.00    -0.362 OA
ATOM     23  C   UNL     1      -0.882 -10.875 -42.001  1.00  0.00     0.177 C 
ATOM     24  C   UNL     1      -2.276  -8.776 -41.504  1.00  0.00     0.176 C 
ATOM     25  C   UNL     1      -2.039  -9.956 -42.487  1.00  0.00     0.177 C 
BRANCH  21  26
ATOM     26  O   UNL     1       0.466  -9.476 -40.523  1.00  0.00    -0.387 OA
ATOM     27  H   UNL     1       1.306  -9.812 -40.112  1.00  0.00     0.211 HD
ENDBRANCH  21  26
BRANCH  23  28
ATOM     28  O   UNL     1       0.213 -10.842 -42.886  1.00  0.00    -0.387 OA
ATOM     29  H   UNL     1       0.511 -11.778 -43.037  1.00  0.00     0.211 HD
ENDBRANCH  23  28
BRANCH  24  30
ATOM     30  C   UNL     1      -3.432  -7.876 -41.969  1.00  0.00     0.191 C 
BRANCH  30  31
ATOM     31  O   UNL     1      -4.673  -8.418 -41.602  1.00  0.00    -0.394 OA
ATOM     32  H   UNL     1      -4.950  -7.957 -40.768  1.00  0.00     0.210 HD
ENDBRANCH  30  31
ENDBRANCH  24  30
BRANCH  25  33
ATOM     33  O   UNL     1      -3.219 -10.699 -42.682  1.00  0.00    -0.388 OA
ATOM     34  H   UNL     1      -3.980 -10.156 -42.346  1.00  0.00     0.211 HD
ENDBRANCH  25  33
ENDBRANCH  11  20
BRANCH  10  35
ATOM     35  O   UNL     1      -0.814  -7.595 -38.821  1.00  0.00    -0.507 OA
ATOM     36  H   UNL     1      -1.206  -7.704 -39.750  1.00  0.00     0.293 HD
ENDBRANCH  10  35
TORSDOF 9
ENDMDL
MODEL 2
REMARK VINA RESULT:    -5.469      2.498      8.127
REMARK INTER + INTRA:          -8.553
REMARK INTER:                  -7.574
REMARK INTRA:                  -0.979
REMARK UNBOUND:                -1.166
REMARK SMILES O=c1c(-c2ccc(O)cc2)coc2c([C@H]3O[C@H](CO)[C@H](O)[C@@H](O)[C@H]3O)c(O)ccc12
REMARK SMILES IDX 3 1 11 2 12 3 13 4 30 5 2 6 1 7 29 8 28 9 26 10 14 11 4 12
REMARK SMILES IDX 5 13 6 14 7 15 10 16 9 17 8 18 15 20 24 21 16 22 22 23 17 24
REMARK SMILES IDX 20 25 25 26 23 28 18 30 19 31 21 33 27 35
REMARK H PARENT 8 19 25 27 23 29 19 32 21 34 27 36
REMARK Flexibility Score: inf
ROOT
ATOM      1  C   UNL     1      -3.728 -11.117 -39.986  1.00  0.00     0.065 A 
ATOM      2  C   UNL     1      -3.703 -12.147 -39.035  1.00  0.00     0.208 A 
ATOM      3  O   UNL     1      -2.914 -12.073 -37.970  1.00  0.00    -0.463 OA
ATOM      4  C   UNL     1      -2.107 -11.041 -37.732  1.00  0.00     0.147 A 
ATOM      5  C   UNL     1      -2.077  -9.953 -38.635  1.00  0.00     0.066 A 
ATOM      6  C   UNL     1      -2.902  -9.998 -39.772  1.00  0.00     0.200 A 
ATOM      7  O   UNL     1      -2.920  -9.032 -40.586  1.00  0.00    -0.288 OA
ATOM      8  C   UNL     1      -1.242  -8.856 -38.371  1.00  0.00     0.020 A 
ATOM      9  C   UNL     1      -0.457  -8.834 -37.222  1.00  0.00     0.047 A 
ATOM     10  C   UNL     1      -0.479  -9.906 -36.320  1.00  0.00     0.125 A 
ATOM     11  C   UNL     1      -1.290 -11.035 -36.577  1.00  0.00     0.069 A 
ENDROOT
BRANCH   1  12
ATOM     12  C   UNL     1      -4.617 -11.225 -41.170  1.00  0.00    -0.011 A 
ATOM     13  C   UNL     1      -5.964 -10.827 -41.094  1.00  0.00     0.013 A 
ATOM     14  C   UNL     1      -6.794 -10.918 -42.216  1.00  0.00     0.047 A 
ATOM     15  C   UNL     1      -6.287 -11.404 -43.428  1.00  0.00     0.115 A 
ATOM     16  C   UNL     1      -4.115 -11.706 -42.393  1.00  0.00     0.013 A 
ATOM     17  C   UNL     1      -4.948 -11.798 -43.512  1.00  0.00     0.047 A 
BRANCH  15  18
ATOM     18  O   UNL     1      -7.103 -11.497 -44.553  1.00  0.00    -0.508 OA
ATOM     19  H   UNL     1      -8.091 -11.276 -44.509  1.00  0.00     0.293 HD
ENDBRANCH  15  18
ENDBRANCH   1  12
BRANCH  11  20
ATOM     20  C   UNL     1      -1.350 -12.200 -35.598  1.00  0.00     0.188 C 
ATOM     21  C   UNL     1      -2.428 -11.943 -34.513  1.00  0.00     0.179 C 
ATOM     22  O   UNL     1      -0.039 -12.517 -35.126  1.00  0.00    -0.362 OA
ATOM     23  C   UNL     1      -2.476 -13.140 -33.537  1.00  0.00     0.177 C 
ATOM     24  C   UNL     1       0.056 -12.755 -33.728  1.00  0.00     0.176 C 
ATOM     25  C   UNL     1      -1.062 -13.701 -33.210  1.00  0.00     0.177 C 
BRANCH  21  26
ATOM     26  O   UNL     1      -2.158 -10.739 -33.836  1.00  0.00    -0.387 OA
ATOM     27  H   UNL     1      -1.179 -10.582 -33.900  1.00  0.00     0.211 HD
ENDBRANCH  21  26
BRANCH  23  28
ATOM     28  O   UNL     1      -3.187 -12.812 -32.366  1.00  0.00    -0.387 OA
ATOM     29  H   UNL     1      -3.100 -13.573 -31.733  1.00  0.00     0.211 HD
ENDBRANCH  23  28
BRANCH  24  30
ATOM     30  C   UNL     1       1.455 -13.313 -33.426  1.00  0.00     0.191 C 
BRANCH  30  31
ATOM     31  O   UNL     1       2.442 -12.609 -34.132  1.00  0.00    -0.394 OA
ATOM     32  H   UNL     1       2.485 -13.012 -35.039  1.00  0.00     0.210 HD
ENDBRANCH  30  31
ENDBRANCH  24  30
BRANCH  25  33
ATOM     33  O   UNL     1      -0.907 -15.001 -33.727  1.00  0.00    -0.388 OA
ATOM     34  H   UNL     1      -1.764 -15.486 -33.592  1.00  0.00     0.211 HD
ENDBRANCH  25  33
ENDBRANCH  11  20
BRANCH  10  35
ATOM     35  O   UNL     1       0.304  -9.843 -35.166  1.00  0.00    -0.507 OA
ATOM     36  H   UNL     1      -0.083 -10.027 -34.248  1.00  0.00     0.293 HD
ENDBRANCH  10  35
TORSDOF 9
ENDMDL
MODEL 3
REMARK VINA RESULT:    -5.305      2.636      8.544
REMARK INTER + INTRA:          -8.332
REMARK INTER:                  -7.150
REMARK INTRA:                  -1.182
REMARK UNBOUND:                -1.166
REMARK SMILES O=c1c(-c2ccc(O)cc2)coc2c([C@H]3O[C@H](CO)[C@H](O)[C@@H](O)[C@H]3O)c(O)ccc12
REMARK SMILES IDX 3 1 11 2 12 3 13 4 30 5 2 6 1 7 29 8 28 9 26 10 14 11 4 12
REMARK SMILES IDX 5 13 6 14 7 15 10 16 9 17 8 18 15 20 24 21 16 22 22 23 17 24
REMARK SMILES IDX 20 25 25 26 23 28 18 30 19 31 21 33 27 35
REMARK H PARENT 8 19 25 27 23 29 19 32 21 34 27 36
REMARK Flexibility Score: inf
ROOT
ATOM      1  C   UNL     1      -1.724 -10.891 -38.051  1.00  0.00     0.065 A 
ATOM      2  C   UNL     1      -2.644 -11.940 -37.912  1.00  0.00     0.208 A 
ATOM      3  O   UNL     1      -2.901 -12.470 -36.723  1.00  0.00    -0.463 OA
ATOM      4  C   UNL     1      -2.318 -12.055 -35.600  1.00  0.00     0.147 A 
ATOM      5  C   UNL     1      -1.386 -10.993 -35.646  1.00  0.00     0.066 A 
ATOM      6  C   UNL     1      -1.092 -10.407 -36.890  1.00  0.00     0.200 A 
ATOM      7  O   UNL     1      -0.284  -9.440 -36.965  1.00  0.00    -0.288 OA
ATOM      8  C   UNL     1      -0.789 -10.542 -34.459  1.00  0.00     0.020 A 
ATOM      9  C   UNL     1      -1.122 -11.129 -33.240  1.00  0.00     0.047 A 
ATOM     10  C   UNL     1      -2.045 -12.181 -33.182  1.00  0.00     0.125 A 
ATOM     11  C   UNL     1      -2.639 -12.672 -34.368  1.00  0.00     0.069 A 
ENDROOT
BRANCH   1  12
ATOM     12  C   UNL     1      -1.453 -10.317 -39.393  1.00  0.00    -0.011 A 
ATOM     13  C   UNL     1      -0.419 -10.829 -40.196  1.00  0.00     0.013 A 
ATOM     14  C   UNL     1      -0.176 -10.293 -41.465  1.00  0.00     0.047 A 
ATOM     15  C   UNL     1      -0.966  -9.241 -41.947  1.00  0.00     0.115 A 
ATOM     16  C   UNL     1      -2.245  -9.264 -39.887  1.00  0.00     0.013 A 
ATOM     17  C   UNL     1      -1.998  -8.729 -41.154  1.00  0.00     0.047 A 
BRANCH  15  18
ATOM     18  O   UNL     1      -0.736  -8.701 -43.209  1.00  0.00    -0.508 OA
ATOM     19  H   UNL     1      -0.594  -7.706 -43.341  1.00  0.00     0.293 HD
ENDBRANCH  15  18
ENDBRANCH   1  12
BRANCH  11  20
ATOM     20  C   UNL     1      -3.664 -13.797 -34.326  1.00  0.00     0.188 C 
ATOM     21  C   UNL     1      -5.085 -13.229 -34.067  1.00  0.00     0.179 C 
ATOM     22  O   UNL     1      -3.227 -14.833 -33.444  1.00  0.00    -0.362 OA
ATOM     23  C   UNL     1      -6.108 -14.386 -34.037  1.00  0.00     0.177 C 
ATOM     24  C   UNL     1      -4.227 -15.346 -32.575  1.00  0.00     0.176 C 
ATOM     25  C   UNL     1      -5.558 -15.651 -33.316  1.00  0.00     0.177 C 
BRANCH  21  26
ATOM     26  O   UNL     1      -5.103 -12.495 -32.866  1.00  0.00    -0.387 OA
ATOM     27  H   UNL     1      -6.056 -12.350 -32.627  1.00  0.00     0.211 HD
ENDBRANCH  21  26
BRANCH  23  28
ATOM     28  O   UNL     1      -7.333 -13.965 -33.483  1.00  0.00    -0.387 OA
ATOM     29  H   UNL     1      -7.949 -14.745 -33.477  1.00  0.00     0.211 HD
ENDBRANCH  23  28
BRANCH  24  30
ATOM     30  C   UNL     1      -3.668 -16.596 -31.878  1.00  0.00     0.191 C 
BRANCH  30  31
ATOM     31  O   UNL     1      -2.880 -17.354 -32.757  1.00  0.00    -0.394 OA
ATOM     32  H   UNL     1      -1.944 -17.286 -32.431  1.00  0.00     0.210 HD
ENDBRANCH  30  31
ENDBRANCH  24  30
BRANCH  25  33
ATOM     33  O   UNL     1      -5.402 -16.715 -34.225  1.00  0.00    -0.388 OA
ATOM     34  H   UNL     1      -4.664 -17.292 -33.893  1.00  0.00     0.211 HD
ENDBRANCH  25  33
ENDBRANCH  11  20
BRANCH  10  35
ATOM     35  O   UNL     1      -2.373 -12.732 -31.943  1.00  0.00    -0.507 OA
ATOM     36  H   UNL     1      -2.864 -12.200 -31.235  1.00  0.00     0.293 HD
ENDBRANCH  10  35
TORSDOF 9
ENDMDL
MODEL 4
REMARK VINA RESULT:    -5.275     11.963     14.042
REMARK INTER + INTRA:          -8.292
REMARK INTER:                  -7.332
REMARK INTRA:                  -0.960
REMARK UNBOUND:                -1.166
REMARK SMILES O=c1c(-c2ccc(O)cc2)coc2c([C@H]3O[C@H](CO)[C@H](O)[C@@H](O)[C@H]3O)c(O)ccc12
REMARK SMILES IDX 3 1 11 2 12 3 13 4 30 5 2 6 1 7 29 8 28 9 26 10 14 11 4 12
REMARK SMILES IDX 5 13 6 14 7 15 10 16 9 17 8 18 15 20 24 21 16 22 22 23 17 24
REMARK SMILES IDX 20 25 25 26 23 28 18 30 19 31 21 33 27 35
REMARK H PARENT 8 19 25 27 23 29 19 32 21 34 27 36
REMARK Flexibility Score: inf
ROOT
ATOM      1  C   UNL     1       1.226 -20.005 -41.961  1.00  0.00     0.065 A 
ATOM      2  C   UNL     1       0.394 -20.344 -43.038  1.00  0.00     0.208 A 
ATOM      3  O   UNL     1       0.368 -21.582 -43.516  1.00  0.00    -0.463 OA
ATOM      4  C   UNL     1       1.111 -22.570 -43.020  1.00  0.00     0.147 A 
ATOM      5  C   UNL     1       1.969 -22.319 -41.925  1.00  0.00     0.066 A 
ATOM      6  C   UNL     1       2.020 -21.018 -41.393  1.00  0.00     0.200 A 
ATOM      7  O   UNL     1       2.756 -20.764 -40.399  1.00  0.00    -0.288 OA
ATOM      8  C   UNL     1       2.736 -23.366 -41.390  1.00  0.00     0.020 A 
ATOM      9  C   UNL     1       2.642 -24.647 -41.927  1.00  0.00     0.047 A 
ATOM     10  C   UNL     1       1.794 -24.908 -43.011  1.00  0.00     0.125 A 
ATOM     11  C   UNL     1       1.033 -23.864 -43.586  1.00  0.00     0.069 A 
ENDROOT
BRANCH   1  12
ATOM     12  C   UNL     1       1.239 -18.613 -41.446  1.00  0.00    -0.011 A 
ATOM     13  C   UNL     1       0.236 -18.163 -40.569  1.00  0.00     0.013 A 
ATOM     14  C   UNL     1       0.260 -16.854 -40.077  1.00  0.00     0.047 A 
ATOM     15  C   UNL     1       1.289 -15.981 -40.452  1.00  0.00     0.115 A 
ATOM     16  C   UNL     1       2.271 -17.731 -41.814  1.00  0.00     0.013 A 
ATOM     17  C   UNL     1       2.292 -16.422 -41.321  1.00  0.00     0.047 A 
BRANCH  15  18
ATOM     18  O   UNL     1       1.326 -14.676 -39.966  1.00  0.00    -0.508 OA
ATOM     19  H   UNL     1       1.877 -14.431 -39.152  1.00  0.00     0.293 HD
ENDBRANCH  15  18
ENDBRANCH   1  12
BRANCH  11  20
ATOM     20  C   UNL     1       0.085 -24.130 -44.748  1.00  0.00     0.188 C 
ATOM     21  C   UNL     1      -1.315 -24.545 -44.223  1.00  0.00     0.179 C 
ATOM     22  O   UNL     1       0.694 -25.013 -45.692  1.00  0.00    -0.362 OA
ATOM     23  C   UNL     1      -2.261 -24.801 -45.419  1.00  0.00     0.177 C 
ATOM     24  C   UNL     1      -0.148 -26.048 -46.178  1.00  0.00     0.176 C 
ATOM     25  C   UNL     1      -1.549 -25.525 -46.598  1.00  0.00     0.177 C 
BRANCH  21  26
ATOM     26  O   UNL     1      -1.208 -25.681 -43.400  1.00  0.00    -0.387 OA
ATOM     27  H   UNL     1      -0.491 -25.495 -42.738  1.00  0.00     0.211 HD
ENDBRANCH  21  26
BRANCH  23  28
ATOM     28  O   UNL     1      -3.419 -25.490 -45.010  1.00  0.00    -0.387 OA
ATOM     29  H   UNL     1      -4.177 -24.849 -45.027  1.00  0.00     0.211 HD
ENDBRANCH  23  28
BRANCH  24  30
ATOM     30  C   UNL     1       0.568 -26.747 -47.345  1.00  0.00     0.191 C 
BRANCH  30  31
ATOM     31  O   UNL     1       1.925 -26.394 -47.388  1.00  0.00    -0.394 OA
ATOM     32  H   UNL     1       2.438 -27.203 -47.129  1.00  0.00     0.210 HD
ENDBRANCH  30  31
ENDBRANCH  24  30
BRANCH  25  33
ATOM     33  O   UNL     1      -1.462 -24.682 -47.722  1.00  0.00    -0.388 OA
ATOM     34  H   UNL     1      -2.087 -25.029 -48.412  1.00  0.00     0.211 HD
ENDBRANCH  25  33
ENDBRANCH  11  20
BRANCH  10  35
ATOM     35  O   UNL     1       1.706 -26.208 -43.511  1.00  0.00    -0.507 OA
ATOM     36  H   UNL     1       1.482 -26.393 -44.482  1.00  0.00     0.293 HD
ENDBRANCH  10  35
TORSDOF 9
ENDMDL
MODEL 5
REMARK VINA RESULT:    -5.235      1.933      8.465
REMARK INTER + INTRA:          -8.238
REMARK INTER:                  -7.271
REMARK INTRA:                  -0.967
REMARK UNBOUND:                -1.166
REMARK SMILES O=c1c(-c2ccc(O)cc2)coc2c([C@H]3O[C@H](CO)[C@H](O)[C@@H](O)[C@H]3O)c(O)ccc12
REMARK SMILES IDX 3 1 11 2 12 3 13 4 30 5 2 6 1 7 29 8 28 9 26 10 14 11 4 12
REMARK SMILES IDX 5 13 6 14 7 15 10 16 9 17 8 18 15 20 24 21 16 22 22 23 17 24
REMARK SMILES IDX 20 25 25 26 23 28 18 30 19 31 21 33 27 35
REMARK H PARENT 8 19 25 27 23 29 19 32 21 34 27 36
REMARK Flexibility Score: inf
ROOT
ATOM      1  C   UNL     1      -2.360  -9.528 -39.765  1.00  0.00     0.065 A 
ATOM      2  C   UNL     1      -2.732 -10.827 -39.390  1.00  0.00     0.208 A 
ATOM      3  O   UNL     1      -2.345 -11.339 -38.228  1.00  0.00    -0.463 OA
ATOM      4  C   UNL     1      -1.595 -10.673 -37.353  1.00  0.00     0.147 A 
ATOM      5  C   UNL     1      -1.184  -9.351 -37.645  1.00  0.00     0.066 A 
ATOM      6  C   UNL     1      -1.578  -8.778 -38.867  1.00  0.00     0.200 A 
ATOM      7  O   UNL     1      -1.251  -7.591 -39.150  1.00  0.00    -0.288 OA
ATOM      8  C   UNL     1      -0.411  -8.643 -36.713  1.00  0.00     0.020 A 
ATOM      9  C   UNL     1      -0.061  -9.234 -35.501  1.00  0.00     0.047 A 
ATOM     10  C   UNL     1      -0.463 -10.541 -35.200  1.00  0.00     0.125 A 
ATOM     11  C   UNL     1      -1.217 -11.286 -36.135  1.00  0.00     0.069 A 
ENDROOT
BRANCH   1  12
ATOM     12  C   UNL     1      -2.803  -8.979 -41.072  1.00  0.00    -0.011 A 
ATOM     13  C   UNL     1      -2.042  -9.194 -42.235  1.00  0.00     0.013 A 
ATOM     14  C   UNL     1      -2.471  -8.686 -43.465  1.00  0.00     0.047 A 
ATOM     15  C   UNL     1      -3.666  -7.961 -43.549  1.00  0.00     0.115 A 
ATOM     16  C   UNL     1      -4.005  -8.254 -41.165  1.00  0.00     0.013 A 
ATOM     17  C   UNL     1      -4.430  -7.746 -42.396  1.00  0.00     0.047 A 
BRANCH  15  18
ATOM     18  O   UNL     1      -4.105  -7.452 -44.768  1.00  0.00    -0.508 OA
ATOM     19  H   UNL     1      -5.075  -7.527 -45.054  1.00  0.00     0.293 HD
ENDBRANCH  15  18
ENDBRANCH   1  12
BRANCH  11  20
ATOM     20  C   UNL     1      -1.687 -12.700 -35.819  1.00  0.00     0.188 C 
ATOM     21  C   UNL     1      -3.042 -12.666 -35.063  1.00  0.00     0.179 C 
ATOM     22  O   UNL     1      -0.636 -13.444 -35.201  1.00  0.00    -0.362 OA
ATOM     23  C   UNL     1      -3.502 -14.110 -34.760  1.00  0.00     0.177 C 
ATOM     24  C   UNL     1      -1.029 -14.222 -34.079  1.00  0.00     0.176 C 
ATOM     25  C   UNL     1      -2.324 -15.037 -34.346  1.00  0.00     0.177 C 
BRANCH  21  26
ATOM     26  O   UNL     1      -2.921 -11.907 -33.883  1.00  0.00    -0.387 OA
ATOM     27  H   UNL     1      -1.954 -11.869 -33.660  1.00  0.00     0.211 HD
ENDBRANCH  21  26
BRANCH  23  28
ATOM     28  O   UNL     1      -4.534 -14.123 -33.802  1.00  0.00    -0.387 OA
ATOM     29  H   UNL     1      -4.136 -13.895 -32.921  1.00  0.00     0.211 HD
ENDBRANCH  23  28
BRANCH  24  30
ATOM     30  C   UNL     1       0.144 -15.135 -33.689  1.00  0.00     0.191 C 
BRANCH  30  31
ATOM     31  O   UNL     1       1.118 -14.426 -32.970  1.00  0.00    -0.394 OA
ATOM     32  H   UNL     1       0.829 -13.476 -32.960  1.00  0.00     0.210 HD
ENDBRANCH  30  31
ENDBRANCH  24  30
BRANCH  25  33
ATOM     33  O   UNL     1      -2.107 -16.033 -35.317  1.00  0.00    -0.388 OA
ATOM     34  H   UNL     1      -1.184 -15.919 -35.668  1.00  0.00     0.211 HD
ENDBRANCH  25  33
ENDBRANCH  11  20
BRANCH  10  35
ATOM     35  O   UNL     1      -0.113 -11.096 -33.968  1.00  0.00    -0.507 OA
ATOM     36  H   UNL     1      -0.810 -11.459 -33.329  1.00  0.00     0.293 HD
ENDBRANCH  10  35
TORSDOF 9
ENDMDL
MODEL 6
REMARK VINA RESULT:    -5.223     10.463     12.473
REMARK INTER + INTRA:          -8.222
REMARK INTER:                  -7.183
REMARK INTRA:                  -1.039
REMARK UNBOUND:                -1.166
REMARK SMILES O=c1c(-c2ccc(O)cc2)coc2c([C@H]3O[C@H](CO)[C@H](O)[C@@H](O)[C@H]3O)c(O)ccc12
REMARK SMILES IDX 3 1 11 2 12 3 13 4 30 5 2 6 1 7 29 8 28 9 26 10 14 11 4 12
REMARK SMILES IDX 5 13 6 14 7 15 10 16 9 17 8 18 15 20 24 21 16 22 22 23 17 24
REMARK SMILES IDX 20 25 25 26 23 28 18 30 19 31 21 33 27 35
REMARK H PARENT 8 19 25 27 23 29 19 32 21 34 27 36
REMARK Flexibility Score: inf
ROOT
ATOM      1  C   UNL     1      -0.397 -23.011 -44.009  1.00  0.00     0.065 A 
ATOM      2  C   UNL     1       0.360 -21.832 -44.064  1.00  0.00     0.208 A 
ATOM      3  O   UNL     1       0.354 -20.970 -43.054  1.00  0.00    -0.463 OA
ATOM      4  C   UNL     1      -0.353 -21.157 -41.942  1.00  0.00     0.147 A 
ATOM      5  C   UNL     1      -1.136 -22.326 -41.797  1.00  0.00     0.066 A 
ATOM      6  C   UNL     1      -1.151 -23.261 -42.847  1.00  0.00     0.200 A 
ATOM      7  O   UNL     1      -1.819 -24.328 -42.742  1.00  0.00    -0.288 OA
ATOM      8  C   UNL     1      -1.864 -22.531 -40.615  1.00  0.00     0.020 A 
ATOM      9  C   UNL     1      -1.806 -21.596 -39.586  1.00  0.00     0.047 A 
ATOM     10  C   UNL     1      -1.034 -20.435 -39.717  1.00  0.00     0.125 A 
ATOM     11  C   UNL     1      -0.314 -20.191 -40.909  1.00  0.00     0.069 A 
ENDROOT
BRANCH   1  12
ATOM     12  C   UNL     1      -0.376 -23.958 -45.152  1.00  0.00    -0.011 A 
ATOM     13  C   UNL     1       0.755 -24.756 -45.402  1.00  0.00     0.013 A 
ATOM     14  C   UNL     1       0.765 -25.655 -46.473  1.00  0.00     0.047 A 
ATOM     15  C   UNL     1      -0.356 -25.771 -47.304  1.00  0.00     0.115 A 
ATOM     16  C   UNL     1      -1.500 -24.085 -45.989  1.00  0.00     0.013 A 
ATOM     17  C   UNL     1      -1.486 -24.984 -47.059  1.00  0.00     0.047 A 
BRANCH  15  18
ATOM     18  O   UNL     1      -0.360 -26.665 -48.372  1.00  0.00    -0.508 OA
ATOM     19  H   UNL     1       0.413 -26.712 -49.025  1.00  0.00     0.293 HD
ENDBRANCH  15  18
ENDBRANCH   1  12
BRANCH  11  20
ATOM     20  C   UNL     1       0.554 -18.949 -41.063  1.00  0.00     0.188 C 
ATOM     21  C   UNL     1       1.984 -19.214 -40.523  1.00  0.00     0.179 C 
ATOM     22  O   UNL     1      -0.120 -17.806 -40.535  1.00  0.00    -0.362 OA
ATOM     23  C   UNL     1       2.847 -17.944 -40.698  1.00  0.00     0.177 C 
ATOM     24  C   UNL     1       0.684 -16.948 -39.737  1.00  0.00     0.176 C 
ATOM     25  C   UNL     1       2.056 -16.639 -40.396  1.00  0.00     0.177 C 
BRANCH  21  26
ATOM     26  O   UNL     1       1.927 -19.615 -39.175  1.00  0.00    -0.387 OA
ATOM     27  H   UNL     1       2.776 -20.093 -38.978  1.00  0.00     0.211 HD
ENDBRANCH  21  26
BRANCH  23  28
ATOM     28  O   UNL     1       4.027 -18.024 -39.934  1.00  0.00    -0.387 OA
ATOM     29  H   UNL     1       3.768 -18.139 -38.982  1.00  0.00     0.211 HD
ENDBRANCH  23  28
BRANCH  24  30
ATOM     30  C   UNL     1      -0.111 -15.663 -39.454  1.00  0.00     0.191 C 
BRANCH  30  31
ATOM     31  O   UNL     1      -1.076 -15.438 -40.447  1.00  0.00    -0.394 OA
ATOM     32  H   UNL     1      -1.466 -14.543 -40.268  1.00  0.00     0.210 HD
ENDBRANCH  30  31
ENDBRANCH  24  30
BRANCH  25  33
ATOM     33  O   UNL     1       1.897 -15.869 -41.564  1.00  0.00    -0.388 OA
ATOM     34  H   UNL     1       2.550 -16.198 -42.236  1.00  0.00     0.211 HD
ENDBRANCH  25  33
ENDBRANCH  11  20
BRANCH  10  35
ATOM     35  O   UNL     1      -0.980 -19.528 -38.657  1.00  0.00    -0.507 OA
ATOM     36  H   UNL     1      -1.818 -19.198 -38.193  1.00  0.00     0.293 HD
ENDBRANCH  10  35
TORSDOF 9
ENDMDL
MODEL 7
REMARK VINA RESULT:    -5.094      3.718      9.555
REMARK INTER + INTRA:          -8.047
REMARK INTER:                  -6.862
REMARK INTRA:                  -1.185
REMARK UNBOUND:                -1.166
REMARK SMILES O=c1c(-c2ccc(O)cc2)coc2c([C@H]3O[C@H](CO)[C@H](O)[C@@H](O)[C@H]3O)c(O)ccc12
REMARK SMILES IDX 3 1 11 2 12 3 13 4 30 5 2 6 1 7 29 8 28 9 26 10 14 11 4 12
REMARK SMILES IDX 5 13 6 14 7 15 10 16 9 17 8 18 15 20 24 21 16 22 22 23 17 24
REMARK SMILES IDX 20 25 25 26 23 28 18 30 19 31 21 33 27 35
REMARK H PARENT 8 19 25 27 23 29 19 32 21 34 27 36
REMARK Flexibility Score: inf
ROOT
ATOM      1  C   UNL     1      -5.064  -9.936 -43.888  1.00  0.00     0.065 A 
ATOM      2  C   UNL     1      -5.199 -11.123 -43.154  1.00  0.00     0.208 A 
ATOM      3  O   UNL     1      -4.274 -11.492 -42.276  1.00  0.00    -0.463 OA
ATOM      4  C   UNL     1      -3.177 -10.778 -42.032  1.00  0.00     0.147 A 
ATOM      5  C   UNL     1      -2.966  -9.560 -42.719  1.00  0.00     0.066 A 
ATOM      6  C   UNL     1      -3.927  -9.140 -43.656  1.00  0.00     0.200 A 
ATOM      7  O   UNL     1      -3.784  -8.045 -44.269  1.00  0.00    -0.288 OA
ATOM      8  C   UNL     1      -1.819  -8.799 -42.445  1.00  0.00     0.020 A 
ATOM      9  C   UNL     1      -0.901  -9.234 -41.493  1.00  0.00     0.047 A 
ATOM     10  C   UNL     1      -1.100 -10.438 -40.805  1.00  0.00     0.125 A 
ATOM     11  C   UNL     1      -2.232 -11.237 -41.084  1.00  0.00     0.069 A 
ENDROOT
BRANCH   1  12
ATOM     12  C   UNL     1      -6.111  -9.548 -44.866  1.00  0.00    -0.011 A 
ATOM     13  C   UNL     1      -5.988  -9.895 -46.224  1.00  0.00     0.013 A 
ATOM     14  C   UNL     1      -6.984  -9.537 -47.138  1.00  0.00     0.047 A 
ATOM     15  C   UNL     1      -8.115  -8.833 -46.707  1.00  0.00     0.115 A 
ATOM     16  C   UNL     1      -7.252  -8.845 -44.441  1.00  0.00     0.013 A 
ATOM     17  C   UNL     1      -8.245  -8.488 -45.358  1.00  0.00     0.047 A 
BRANCH  15  18
ATOM     18  O   UNL     1      -9.114  -8.474 -47.608  1.00  0.00    -0.508 OA
ATOM     19  H   UNL     1      -8.950  -7.787 -48.335  1.00  0.00     0.293 HD
ENDBRANCH  15  18
ENDBRANCH   1  12
BRANCH  11  20
ATOM     20  C   UNL     1      -2.482 -12.537 -40.330  1.00  0.00     0.188 C 
ATOM     21  C   UNL     1      -3.256 -12.261 -39.013  1.00  0.00     0.179 C 
ATOM     22  O   UNL     1      -1.268 -13.279 -40.206  1.00  0.00    -0.362 OA
ATOM     23  C   UNL     1      -3.505 -13.593 -38.270  1.00  0.00     0.177 C 
ATOM     24  C   UNL     1      -1.033 -13.841 -38.923  1.00  0.00     0.176 C 
ATOM     25  C   UNL     1      -2.287 -14.558 -38.351  1.00  0.00     0.177 C 
BRANCH  21  26
ATOM     26  O   UNL     1      -2.541 -11.351 -38.211  1.00  0.00    -0.387 OA
ATOM     27  H   UNL     1      -3.160 -11.043 -37.498  1.00  0.00     0.211 HD
ENDBRANCH  21  26
BRANCH  23  28
ATOM     28  O   UNL     1      -3.898 -13.364 -36.937  1.00  0.00    -0.387 OA
ATOM     29  H   UNL     1      -3.235 -12.751 -36.524  1.00  0.00     0.211 HD
ENDBRANCH  23  28
BRANCH  24  30
ATOM     30  C   UNL     1       0.168 -14.794 -39.023  1.00  0.00     0.191 C 
BRANCH  30  31
ATOM     31  O   UNL     1       0.080 -15.596 -40.171  1.00  0.00    -0.394 OA
ATOM     32  H   UNL     1       0.603 -16.419 -39.984  1.00  0.00     0.210 HD
ENDBRANCH  30  31
ENDBRANCH  24  30
BRANCH  25  33
ATOM     33  O   UNL     1      -2.606 -15.703 -39.105  1.00  0.00    -0.388 OA
ATOM     34  H   UNL     1      -2.120 -16.473 -38.709  1.00  0.00     0.211 HD
ENDBRANCH  25  33
ENDBRANCH  11  20
BRANCH  10  35
ATOM     35  O   UNL     1      -0.171 -10.834 -39.842  1.00  0.00    -0.507 OA
ATOM     36  H   UNL     1      -0.308 -11.665 -39.278  1.00  0.00     0.293 HD
ENDBRANCH  10  35
TORSDOF 9
ENDMDL
MODEL 8
REMARK VINA RESULT:    -5.087      1.552      2.801
REMARK INTER + INTRA:          -8.037
REMARK INTER:                  -7.470
REMARK INTRA:                  -0.568
REMARK UNBOUND:                -1.166
REMARK SMILES O=c1c(-c2ccc(O)cc2)coc2c([C@H]3O[C@H](CO)[C@H](O)[C@@H](O)[C@H]3O)c(O)ccc12
REMARK SMILES IDX 3 1 11 2 12 3 13 4 30 5 2 6 1 7 29 8 28 9 26 10 14 11 4 12
REMARK SMILES IDX 5 13 6 14 7 15 10 16 9 17 8 18 15 20 24 21 16 22 22 23 17 24
REMARK SMILES IDX 20 25 25 26 23 28 18 30 19 31 21 33 27 35
REMARK H PARENT 8 19 25 27 23 29 19 32 21 34 27 36
REMARK Flexibility Score: inf
ROOT
ATOM      1  C   UNL     1      -1.927 -12.852 -36.558  1.00  0.00     0.065 A 
ATOM      2  C   UNL     1      -1.734 -12.678 -37.936  1.00  0.00     0.208 A 
ATOM      3  O   UNL     1      -1.371 -11.501 -38.431  1.00  0.00    -0.463 OA
ATOM      4  C   UNL     1      -1.168 -10.425 -37.675  1.00  0.00     0.147 A 
ATOM      5  C   UNL     1      -1.329 -10.513 -36.273  1.00  0.00     0.066 A 
ATOM      6  C   UNL     1      -1.711 -11.746 -35.715  1.00  0.00     0.200 A 
ATOM      7  O   UNL     1      -1.839 -11.867 -34.464  1.00  0.00    -0.288 OA
ATOM      8  C   UNL     1      -1.095  -9.383 -35.475  1.00  0.00     0.020 A 
ATOM      9  C   UNL     1      -0.693  -8.184 -36.060  1.00  0.00     0.047 A 
ATOM     10  C   UNL     1      -0.530  -8.085 -37.447  1.00  0.00     0.125 A 
ATOM     11  C   UNL     1      -0.788  -9.201 -38.275  1.00  0.00     0.069 A 
ENDROOT
BRANCH   1  12
ATOM     12  C   UNL     1      -2.335 -14.177 -36.029  1.00  0.00    -0.011 A 
ATOM     13  C   UNL     1      -1.371 -15.102 -35.589  1.00  0.00     0.013 A 
ATOM     14  C   UNL     1      -1.762 -16.344 -35.080  1.00  0.00     0.047 A 
ATOM     15  C   UNL     1      -3.120 -16.676 -35.000  1.00  0.00     0.115 A 
ATOM     16  C   UNL     1      -3.697 -14.516 -35.940  1.00  0.00     0.013 A 
ATOM     17  C   UNL     1      -4.085 -15.760 -35.432  1.00  0.00     0.047 A 
BRANCH  15  18
ATOM     18  O   UNL     1      -3.522 -17.908 -34.491  1.00  0.00    -0.508 OA
ATOM     19  H   UNL     1      -4.490 -18.093 -34.256  1.00  0.00     0.293 HD
ENDBRANCH  15  18
ENDBRANCH   1  12
BRANCH  11  20
ATOM     20  C   UNL     1      -0.591  -9.124 -39.784  1.00  0.00     0.188 C 
ATOM     21  C   UNL     1      -1.957  -8.955 -40.502  1.00  0.00     0.179 C 
ATOM     22  O   UNL     1       0.231 -10.203 -40.232  1.00  0.00    -0.362 OA
ATOM     23  C   UNL     1      -1.731  -8.871 -42.029  1.00  0.00     0.177 C 
ATOM     24  C   UNL     1      -0.221 -10.854 -41.411  1.00  0.00     0.176 C 
ATOM     25  C   UNL     1      -0.628  -9.851 -42.524  1.00  0.00     0.177 C 
BRANCH  21  26
ATOM     26  O   UNL     1      -2.815 -10.019 -40.168  1.00  0.00    -0.387 OA
ATOM     27  H   UNL     1      -3.605  -9.624 -39.711  1.00  0.00     0.211 HD
ENDBRANCH  21  26
BRANCH  23  28
ATOM     28  O   UNL     1      -2.939  -9.052 -42.730  1.00  0.00    -0.387 OA
ATOM     29  H   UNL     1      -2.879  -8.539 -43.578  1.00  0.00     0.211 HD
ENDBRANCH  23  28
BRANCH  24  30
ATOM     30  C   UNL     1       0.883 -11.811 -41.888  1.00  0.00     0.191 C 
BRANCH  30  31
ATOM     31  O   UNL     1       0.820 -12.001 -43.276  1.00  0.00    -0.394 OA
ATOM     32  H   UNL     1       1.733 -11.832 -43.628  1.00  0.00     0.210 HD
ENDBRANCH  30  31
ENDBRANCH  24  30
BRANCH  25  33
ATOM     33  O   UNL     1       0.490  -9.142 -43.004  1.00  0.00    -0.388 OA
ATOM     34  H   UNL     1       0.161  -8.436 -43.620  1.00  0.00     0.211 HD
ENDBRANCH  25  33
ENDBRANCH  11  20
BRANCH  10  35
ATOM     35  O   UNL     1      -0.105  -6.875 -37.999  1.00  0.00    -0.507 OA
ATOM     36  H   UNL     1      -0.424  -5.983 -37.640  1.00  0.00     0.293 HD
ENDBRANCH  10  35
TORSDOF 9
ENDMDL
MODEL 9
REMARK VINA RESULT:    -4.871      4.918      8.765
REMARK INTER + INTRA:          -7.745
REMARK INTER:                  -6.635
REMARK INTRA:                  -1.110
REMARK UNBOUND:                -1.166
REMARK SMILES O=c1c(-c2ccc(O)cc2)coc2c([C@H]3O[C@H](CO)[C@H](O)[C@@H](O)[C@H]3O)c(O)ccc12
REMARK SMILES IDX 3 1 11 2 12 3 13 4 30 5 2 6 1 7 29 8 28 9 26 10 14 11 4 12
REMARK SMILES IDX 5 13 6 14 7 15 10 16 9 17 8 18 15 20 24 21 16 22 22 23 17 24
REMARK SMILES IDX 20 25 25 26 23 28 18 30 19 31 21 33 27 35
REMARK H PARENT 8 19 25 27 23 29 19 32 21 34 27 36
REMARK Flexibility Score: inf
ROOT
ATOM      1  C   UNL     1       4.626 -17.508 -33.783  1.00  0.00     0.065 A 
ATOM      2  C   UNL     1       3.893 -16.643 -32.958  1.00  0.00     0.208 A 
ATOM      3  O   UNL     1       2.782 -16.062 -33.395  1.00  0.00    -0.463 OA
ATOM      4  C   UNL     1       2.292 -16.255 -34.617  1.00  0.00     0.147 A 
ATOM      5  C   UNL     1       2.961 -17.123 -35.512  1.00  0.00     0.066 A 
ATOM      6  C   UNL     1       4.141 -17.755 -35.081  1.00  0.00     0.200 A 
ATOM      7  O   UNL     1       4.750 -18.556 -35.844  1.00  0.00    -0.288 OA
ATOM      8  C   UNL     1       2.432 -17.342 -36.793  1.00  0.00     0.020 A 
ATOM      9  C   UNL     1       1.247 -16.718 -37.177  1.00  0.00     0.047 A 
ATOM     10  C   UNL     1       0.575 -15.857 -36.299  1.00  0.00     0.125 A 
ATOM     11  C   UNL     1       1.103 -15.598 -35.014  1.00  0.00     0.069 A 
ENDROOT
BRANCH   1  12
ATOM     12  C   UNL     1       5.867 -18.143 -33.273  1.00  0.00    -0.011 A 
ATOM     13  C   UNL     1       5.830 -19.416 -32.677  1.00  0.00     0.013 A 
ATOM     14  C   UNL     1       7.004 -20.014 -32.210  1.00  0.00     0.047 A 
ATOM     15  C   UNL     1       8.230 -19.349 -32.335  1.00  0.00     0.115 A 
ATOM     16  C   UNL     1       7.104 -17.484 -33.400  1.00  0.00     0.013 A 
ATOM     17  C   UNL     1       8.276 -18.084 -32.930  1.00  0.00     0.047 A 
BRANCH  15  18
ATOM     18  O   UNL     1       9.407 -19.936 -31.877  1.00  0.00    -0.508 OA
ATOM     19  H   UNL     1       9.397 -20.804 -31.356  1.00  0.00     0.293 HD
ENDBRANCH  15  18
ENDBRANCH   1  12
BRANCH  11  20
ATOM     20  C   UNL     1       0.376 -14.687 -34.034  1.00  0.00     0.188 C 
ATOM     21  C   UNL     1      -0.750 -15.464 -33.302  1.00  0.00     0.179 C 
ATOM     22  O   UNL     1      -0.010 -13.473 -34.680  1.00  0.00    -0.362 OA
ATOM     23  C   UNL     1      -1.468 -14.522 -32.309  1.00  0.00     0.177 C 
ATOM     24  C   UNL     1      -1.331 -13.033 -34.397  1.00  0.00     0.176 C 
ATOM     25  C   UNL     1      -1.662 -13.088 -32.880  1.00  0.00     0.177 C 
BRANCH  21  26
ATOM     26  O   UNL     1      -1.651 -16.008 -34.237  1.00  0.00    -0.387 OA
ATOM     27  H   UNL     1      -1.162 -16.092 -35.097  1.00  0.00     0.211 HD
ENDBRANCH  21  26
BRANCH  23  28
ATOM     28  O   UNL     1      -2.688 -15.077 -31.875  1.00  0.00    -0.387 OA
ATOM     29  H   UNL     1      -3.137 -14.410 -31.293  1.00  0.00     0.211 HD
ENDBRANCH  23  28
BRANCH  24  30
ATOM     30  C   UNL     1      -1.501 -11.614 -34.962  1.00  0.00     0.191 C 
BRANCH  30  31
ATOM     31  O   UNL     1      -0.414 -10.799 -34.615  1.00  0.00    -0.394 OA
ATOM     32  H   UNL     1      -0.382 -10.775 -33.622  1.00  0.00     0.210 HD
ENDBRANCH  30  31
ENDBRANCH  24  30
BRANCH  25  33
ATOM     33  O   UNL     1      -0.893 -12.155 -32.158  1.00  0.00    -0.388 OA
ATOM     34  H   UNL     1      -1.495 -11.700 -31.512  1.00  0.00     0.211 HD
ENDBRANCH  25  33
ENDBRANCH  11  20
BRANCH  10  35
ATOM     35  O   UNL     1      -0.621 -15.265 -36.708  1.00  0.00    -0.507 OA
ATOM     36  H   UNL     1      -0.708 -14.262 -36.825  1.00  0.00     0.293 HD
ENDBRANCH  10  35
TORSDOF 9
ENDMDL
