MODEL 1
REMARK VINA RESULT:    24.566      0.000      0.000
REMARK INTER + INTRA:          39.616
REMARK INTER:                  37.491
REMARK INTRA:                   2.126
REMARK UNBOUND:                 2.126
REMARK SMILES CC1=CCC[C@@H](C)C(=O)C[C@H](C(C)C)C(=O)C1
REMARK SMILES IDX 8 1 9 2 6 3 7 4 5 5 4 6 3 7 2 8 1 9 10 11 11 12 15 13 16 14
REMARK SMILES IDX 17 15 12 17 13 18 14 19
REMARK H PARENT
REMARK Flexibility Score: 70.00
ROOT
ATOM      1  C   UNL     1       4.560  73.344  19.541  1.00  0.00     0.136 C 
ATOM      2  O   UNL     1       4.998  72.767  20.527  1.00  0.00    -0.299 OA
ENDROOT
BRANCH   1   3
ATOM      3  C   UNL     1       4.073  72.538  18.359  1.00  0.00     0.053 C 
ATOM      4  C   UNL     1       5.010  71.359  18.066  1.00  0.00     0.016 C 
BRANCH   3   5
ATOM      5  C   UNL     1       3.936  73.473  17.133  1.00  0.00     0.015 C 
BRANCH   5   6
ATOM      6  C   UNL     1       2.510  73.646  16.573  1.00  0.00     0.028 C 
BRANCH   6   7
ATOM      7  C   UNL     1       1.378  73.032  17.367  1.00  0.00    -0.028 C 
ATOM      8  C   UNL     1       0.554  73.667  18.236  1.00  0.00    -0.070 CG0
ATOM      9  C   UNL     1      -0.585  72.872  18.827  1.00  0.00     0.039 C 
ATOM     10  G   UNL     1       0.752  75.095  18.713  1.00  0.00     0.000 G0
ENDBRANCH   6   7
ENDBRANCH   5   6
ENDBRANCH   3   5
ENDBRANCH   1   3
BRANCH   1  11
ATOM     11  C   UNL     1       4.585  74.854  19.498  1.00  0.00     0.087 C 
BRANCH  11  12
ATOM     12  C   UNL     1       3.391  75.448  18.692  1.00  0.00     0.066 C 
BRANCH  12  13
ATOM     13  C   UNL     1       2.077  75.252  19.436  1.00  0.00     0.140 C 
ATOM     14  O   UNL     1       2.078  75.252  20.660  1.00  0.00    -0.299 OA
BRANCH  13  15
ATOM     15  C   UNL     1       0.755  75.093  18.711  1.00  0.00     0.106 CG0
ATOM     16  G   UNL     1       0.571  73.664  18.231  1.00  0.00     0.000 G0
ENDBRANCH  13  15
ENDBRANCH  12  13
BRANCH  12  17
ATOM     17  C   UNL     1       3.584  76.951  18.310  1.00  0.00    -0.006 C 
ATOM     18  C   UNL     1       5.035  77.247  17.892  1.00  0.00     0.008 C 
ATOM     19  C   UNL     1       3.139  77.941  19.403  1.00  0.00     0.008 C 
ENDBRANCH  12  17
ENDBRANCH  11  12
ENDBRANCH   1  11
TORSDOF 1
ENDMDL
MODEL 2
REMARK VINA RESULT:    25.213      1.747      4.175
REMARK INTER + INTRA:          40.605
REMARK INTER:                  39.809
REMARK INTRA:                   0.796
REMARK UNBOUND:                 2.126
REMARK SMILES CC1=CCC[C@@H](C)C(=O)C[C@H](C(C)C)C(=O)C1
REMARK SMILES IDX 8 1 9 2 6 3 7 4 5 5 4 6 3 7 2 8 1 9 10 11 11 12 15 13 16 14
REMARK SMILES IDX 17 15 12 17 13 18 14 19
REMARK H PARENT
REMARK Flexibility Score: 70.00
ROOT
ATOM      1  C   UNL     1       3.180  73.648  16.987  1.00  0.00     0.136 C 
ATOM      2  O   UNL     1       3.432  74.408  16.063  1.00  0.00    -0.299 OA
ENDROOT
BRANCH   1   3
ATOM      3  C   UNL     1       4.308  73.110  17.839  1.00  0.00     0.053 C 
ATOM      4  C   UNL     1       4.222  71.585  17.976  1.00  0.00     0.016 C 
BRANCH   3   5
ATOM      5  C   UNL     1       4.275  73.808  19.220  1.00  0.00     0.015 C 
BRANCH   5   6
ATOM      6  C   UNL     1       5.031  75.147  19.318  1.00  0.00     0.028 C 
BRANCH   6   7
ATOM      7  C   UNL     1       4.240  76.408  19.041  1.00  0.00    -0.028 C 
ATOM      8  C   UNL     1       2.962  76.666  19.412  1.00  0.00    -0.070 CG0
ATOM      9  C   UNL     1       2.417  78.044  19.127  1.00  0.00     0.039 C 
ATOM     10  G   UNL     1       2.023  75.636  20.015  1.00  0.00     0.000 G0
ENDBRANCH   6   7
ENDBRANCH   5   6
ENDBRANCH   3   5
ENDBRANCH   1   3
BRANCH   1  11
ATOM     11  C   UNL     1       1.753  73.206  17.212  1.00  0.00     0.087 C 
BRANCH  11  12
ATOM     12  C   UNL     1       1.273  73.458  18.673  1.00  0.00     0.066 C 
BRANCH  12  13
ATOM     13  C   UNL     1       1.156  74.949  18.961  1.00  0.00     0.140 C 
ATOM     14  O   UNL     1       0.333  75.613  18.344  1.00  0.00    -0.299 OA
BRANCH  13  15
ATOM     15  C   UNL     1       2.000  75.637  20.015  1.00  0.00     0.106 CG0
ATOM     16  G   UNL     1       2.943  76.643  19.379  1.00  0.00     0.000 G0
ENDBRANCH  13  15
ENDBRANCH  12  13
BRANCH  12  17
ATOM     17  C   UNL     1      -0.062  72.726  19.025  1.00  0.00    -0.006 C 
ATOM     18  C   UNL     1      -0.287  72.661  20.545  1.00  0.00     0.008 C 
ATOM     19  C   UNL     1      -0.189  71.319  18.414  1.00  0.00     0.008 C 
ENDBRANCH  12  17
ENDBRANCH  11  12
ENDBRANCH   1  11
TORSDOF 1
ENDMDL
MODEL 3
REMARK VINA RESULT:    25.217      1.669      3.932
REMARK INTER + INTRA:          40.610
REMARK INTER:                  39.080
REMARK INTRA:                   1.530
REMARK UNBOUND:                 2.126
REMARK SMILES CC1=CCC[C@@H](C)C(=O)C[C@H](C(C)C)C(=O)C1
REMARK SMILES IDX 8 1 9 2 6 3 7 4 5 5 4 6 3 7 2 8 1 9 10 11 11 12 15 13 16 14
REMARK SMILES IDX 17 15 12 17 13 18 14 19
REMARK H PARENT
REMARK Flexibility Score: 70.00
ROOT
ATOM      1  C   UNL     1       4.114  75.922  18.726  1.00  0.00     0.136 C 
ATOM      2  O   UNL     1       5.012  76.355  18.017  1.00  0.00    -0.299 OA
ENDROOT
BRANCH   1   3
ATOM      3  C   UNL     1       2.837  76.716  18.881  1.00  0.00     0.053 C 
ATOM      4  C   UNL     1       3.119  78.125  19.417  1.00  0.00     0.016 C 
BRANCH   3   5
ATOM      5  C   UNL     1       1.869  75.938  19.807  1.00  0.00     0.015 C 
BRANCH   5   6
ATOM      6  C   UNL     1       0.547  75.474  19.165  1.00  0.00     0.028 C 
BRANCH   6   7
ATOM      7  C   UNL     1       0.387  73.990  18.912  1.00  0.00    -0.028 C 
ATOM      8  C   UNL     1       1.045  73.245  17.991  1.00  0.00    -0.070 CG0
ATOM      9  C   UNL     1       0.806  71.755  17.999  1.00  0.00     0.039 C 
ATOM     10  G   UNL     1       1.936  73.821  16.905  1.00  0.00     0.000 G0
ENDBRANCH   6   7
ENDBRANCH   5   6
ENDBRANCH   3   5
ENDBRANCH   1   3
BRANCH   1  11
ATOM     11  C   UNL     1       4.331  74.636  19.489  1.00  0.00     0.087 C 
BRANCH  11  12
ATOM     12  C   UNL     1       3.848  73.384  18.698  1.00  0.00     0.066 C 
BRANCH  12  13
ATOM     13  C   UNL     1       3.400  73.763  17.292  1.00  0.00     0.140 C 
ATOM     14  O   UNL     1       4.245  74.025  16.447  1.00  0.00    -0.299 OA
BRANCH  13  15
ATOM     15  C   UNL     1       1.939  73.792  16.891  1.00  0.00     0.106 CG0
ATOM     16  G   UNL     1       1.063  73.245  18.005  1.00  0.00     0.000 G0
ENDBRANCH  13  15
ENDBRANCH  12  13
BRANCH  12  17
ATOM     17  C   UNL     1       4.906  72.235  18.643  1.00  0.00    -0.006 C 
ATOM     18  C   UNL     1       4.601  71.239  17.512  1.00  0.00     0.008 C 
ATOM     19  C   UNL     1       5.087  71.481  19.974  1.00  0.00     0.008 C 
ENDBRANCH  12  17
ENDBRANCH  11  12
ENDBRANCH   1  11
TORSDOF 1
ENDMDL
MODEL 4
REMARK VINA RESULT:    25.551      1.877      4.350
REMARK INTER + INTRA:          41.120
REMARK INTER:                  37.598
REMARK INTRA:                   3.522
REMARK UNBOUND:                 2.126
REMARK SMILES CC1=CCC[C@@H](C)C(=O)C[C@H](C(C)C)C(=O)C1
REMARK SMILES IDX 8 1 9 2 6 3 7 4 5 5 4 6 3 7 2 8 1 9 10 11 11 12 15 13 16 14
REMARK SMILES IDX 17 15 12 17 13 18 14 19
REMARK H PARENT
REMARK Flexibility Score: 70.00
ROOT
ATOM      1  C   UNL     1       1.988  73.281  17.025  1.00  0.00     0.136 C 
ATOM      2  O   UNL     1       1.556  72.588  16.114  1.00  0.00    -0.299 OA
ENDROOT
BRANCH   1   3
ATOM      3  C   UNL     1       1.276  73.288  18.359  1.00  0.00     0.053 C 
ATOM      4  C   UNL     1       0.021  72.408  18.325  1.00  0.00     0.016 C 
BRANCH   3   5
ATOM      5  C   UNL     1       0.936  74.750  18.740  1.00  0.00     0.015 C 
BRANCH   5   6
ATOM      6  C   UNL     1       1.644  75.303  19.993  1.00  0.00     0.028 C 
BRANCH   6   7
ATOM      7  C   UNL     1       2.012  76.771  19.986  1.00  0.00    -0.028 C 
ATOM      8  C   UNL     1       2.975  77.366  19.242  1.00  0.00    -0.070 CG0
ATOM      9  C   UNL     1       3.085  78.870  19.314  1.00  0.00     0.039 C 
ATOM     10  G   UNL     1       4.000  76.614  18.411  1.00  0.00     0.000 G0
ENDBRANCH   6   7
ENDBRANCH   5   6
ENDBRANCH   3   5
ENDBRANCH   1   3
BRANCH   1  11
ATOM     11  C   UNL     1       3.182  74.171  16.773  1.00  0.00     0.087 C 
BRANCH  11  12
ATOM     12  C   UNL     1       4.279  74.023  17.870  1.00  0.00     0.066 C 
BRANCH  12  13
ATOM     13  C   UNL     1       4.258  75.207  18.828  1.00  0.00     0.140 C 
ATOM     14  O   UNL     1       4.484  75.017  20.016  1.00  0.00    -0.299 OA
BRANCH  13  15
ATOM     15  C   UNL     1       4.002  76.623  18.355  1.00  0.00     0.106 CG0
ATOM     16  G   UNL     1       3.002  77.322  19.260  1.00  0.00     0.000 G0
ENDBRANCH  13  15
ENDBRANCH  12  13
BRANCH  12  17
ATOM     17  C   UNL     1       4.192  72.678  18.661  1.00  0.00    -0.006 C 
ATOM     18  C   UNL     1       4.673  72.843  20.112  1.00  0.00     0.008 C 
ATOM     19  C   UNL     1       4.931  71.504  17.991  1.00  0.00     0.008 C 
ENDBRANCH  12  17
ENDBRANCH  11  12
ENDBRANCH   1  11
TORSDOF 1
ENDMDL
MODEL 5
REMARK VINA RESULT:    25.933      2.129      4.003
REMARK INTER + INTRA:          41.703
REMARK INTER:                  40.071
REMARK INTRA:                   1.631
REMARK UNBOUND:                 2.126
REMARK SMILES CC1=CCC[C@@H](C)C(=O)C[C@H](C(C)C)C(=O)C1
REMARK SMILES IDX 8 1 9 2 6 3 7 4 5 5 4 6 3 7 2 8 1 9 10 11 11 12 15 13 16 14
REMARK SMILES IDX 17 15 12 17 13 18 14 19
REMARK H PARENT
REMARK Flexibility Score: 70.00
ROOT
ATOM      1  C   UNL     1       1.326  73.843  17.615  1.00  0.00     0.136 C 
ATOM      2  O   UNL     1       1.048  72.653  17.663  1.00  0.00    -0.299 OA
ENDROOT
BRANCH   1   3
ATOM      3  C   UNL     1       2.193  74.362  16.491  1.00  0.00     0.053 C 
ATOM      4  C   UNL     1       1.622  73.973  15.122  1.00  0.00     0.016 C 
BRANCH   3   5
ATOM      5  C   UNL     1       3.635  73.829  16.678  1.00  0.00     0.015 C 
BRANCH   5   6
ATOM      6  C   UNL     1       3.816  72.736  17.750  1.00  0.00     0.028 C 
BRANCH   6   7
ATOM      7  C   UNL     1       4.648  73.091  18.964  1.00  0.00    -0.028 C 
ATOM      8  C   UNL     1       4.815  74.322  19.505  1.00  0.00    -0.070 CG0
ATOM      9  C   UNL     1       5.599  74.419  20.792  1.00  0.00     0.039 C 
ATOM     10  G   UNL     1       4.338  75.612  18.860  1.00  0.00     0.000 G0
ENDBRANCH   6   7
ENDBRANCH   5   6
ENDBRANCH   3   5
ENDBRANCH   1   3
BRANCH   1  11
ATOM     11  C   UNL     1       0.858  74.756  18.725  1.00  0.00     0.087 C 
BRANCH  11  12
ATOM     12  C   UNL     1       1.920  74.916  19.854  1.00  0.00     0.066 C 
BRANCH  12  13
ATOM     13  C   UNL     1       2.949  75.979  19.490  1.00  0.00     0.140 C 
ATOM     14  O   UNL     1       2.700  77.154  19.722  1.00  0.00    -0.299 OA
BRANCH  13  15
ATOM     15  C   UNL     1       4.293  75.627  18.883  1.00  0.00     0.106 CG0
ATOM     16  G   UNL     1       4.847  74.355  19.500  1.00  0.00     0.000 G0
ENDBRANCH  13  15
ENDBRANCH  12  13
BRANCH  12  17
ATOM     17  C   UNL     1       1.298  75.215  21.256  1.00  0.00    -0.006 C 
ATOM     18  C   UNL     1       2.353  75.127  22.372  1.00  0.00     0.008 C 
ATOM     19  C   UNL     1       0.085  74.334  21.608  1.00  0.00     0.008 C 
ENDBRANCH  12  17
ENDBRANCH  11  12
ENDBRANCH   1  11
TORSDOF 1
ENDMDL
MODEL 6
REMARK VINA RESULT:    26.253      1.906      4.550
REMARK INTER + INTRA:          42.192
REMARK INTER:                  40.464
REMARK INTRA:                   1.729
REMARK UNBOUND:                 2.126
REMARK SMILES CC1=CCC[C@@H](C)C(=O)C[C@H](C(C)C)C(=O)C1
REMARK SMILES IDX 8 1 9 2 6 3 7 4 5 5 4 6 3 7 2 8 1 9 10 11 11 12 15 13 16 14
REMARK SMILES IDX 17 15 12 17 13 18 14 19
REMARK H PARENT
REMARK Flexibility Score: 70.00
ROOT
ATOM      1  C   UNL     1       0.541  73.266  18.431  1.00  0.00     0.136 C 
ATOM      2  O   UNL     1      -0.002  72.382  19.078  1.00  0.00    -0.299 OA
ENDROOT
BRANCH   1   3
ATOM      3  C   UNL     1       0.331  74.712  18.820  1.00  0.00     0.053 C 
ATOM      4  C   UNL     1       0.343  75.627  17.589  1.00  0.00     0.016 C 
BRANCH   3   5
ATOM      5  C   UNL     1       1.418  75.122  19.844  1.00  0.00     0.015 C 
BRANCH   5   6
ATOM      6  C   UNL     1       1.913  76.579  19.755  1.00  0.00     0.028 C 
BRANCH   6   7
ATOM      7  C   UNL     1       3.270  76.810  19.125  1.00  0.00    -0.028 C 
ATOM      8  C   UNL     1       4.165  75.865  18.749  1.00  0.00    -0.070 CG0
ATOM      9  C   UNL     1       5.409  76.328  18.030  1.00  0.00     0.039 C 
ATOM     10  G   UNL     1       4.037  74.388  19.078  1.00  0.00     0.000 G0
ENDBRANCH   6   7
ENDBRANCH   5   6
ENDBRANCH   3   5
ENDBRANCH   1   3
BRANCH   1  11
ATOM     11  C   UNL     1       1.352  72.897  17.211  1.00  0.00     0.087 C 
BRANCH  11  12
ATOM     12  C   UNL     1       2.533  73.881  16.958  1.00  0.00     0.066 C 
BRANCH  12  13
ATOM     13  C   UNL     1       3.720  73.554  17.855  1.00  0.00     0.140 C 
ATOM     14  O   UNL     1       4.449  72.616  17.561  1.00  0.00    -0.299 OA
BRANCH  13  15
ATOM     15  C   UNL     1       4.053  74.375  19.084  1.00  0.00     0.106 CG0
ATOM     16  G   UNL     1       4.173  75.848  18.733  1.00  0.00     0.000 G0
ENDBRANCH  13  15
ENDBRANCH  12  13
BRANCH  12  17
ATOM     17  C   UNL     1       2.980  73.946  15.462  1.00  0.00    -0.006 C 
ATOM     18  C   UNL     1       4.188  74.880  15.273  1.00  0.00     0.008 C 
ATOM     19  C   UNL     1       1.856  74.336  14.485  1.00  0.00     0.008 C 
ENDBRANCH  12  17
ENDBRANCH  11  12
ENDBRANCH   1  11
TORSDOF 1
ENDMDL
MODEL 7
REMARK VINA RESULT:    26.337      1.650      3.262
REMARK INTER + INTRA:          42.320
REMARK INTER:                  40.107
REMARK INTRA:                   2.213
REMARK UNBOUND:                 2.126
REMARK SMILES CC1=CCC[C@@H](C)C(=O)C[C@H](C(C)C)C(=O)C1
REMARK SMILES IDX 8 1 9 2 6 3 7 4 5 5 4 6 3 7 2 8 1 9 10 11 11 12 15 13 16 14
REMARK SMILES IDX 17 15 12 17 13 18 14 19
REMARK H PARENT
REMARK Flexibility Score: 70.00
ROOT
ATOM      1  C   UNL     1       4.255  73.630  18.168  1.00  0.00     0.136 C 
ATOM      2  O   UNL     1       4.145  72.422  18.323  1.00  0.00    -0.299 OA
ENDROOT
BRANCH   1   3
ATOM      3  C   UNL     1       5.076  74.437  19.148  1.00  0.00     0.053 C 
ATOM      4  C   UNL     1       4.738  74.064  20.597  1.00  0.00     0.016 C 
BRANCH   3   5
ATOM      5  C   UNL     1       4.844  75.944  18.880  1.00  0.00     0.015 C 
BRANCH   5   6
ATOM      6  C   UNL     1       3.373  76.394  18.787  1.00  0.00     0.028 C 
BRANCH   6   7
ATOM      7  C   UNL     1       2.431  75.902  19.865  1.00  0.00    -0.028 C 
ATOM      8  C   UNL     1       1.306  75.166  19.690  1.00  0.00    -0.070 CG0
ATOM      9  C   UNL     1       0.586  74.688  20.927  1.00  0.00     0.039 C 
ATOM     10  G   UNL     1       0.683  74.866  18.338  1.00  0.00     0.000 G0
ENDBRANCH   6   7
ENDBRANCH   5   6
ENDBRANCH   3   5
ENDBRANCH   1   3
BRANCH   1  11
ATOM     11  C   UNL     1       3.504  74.301  17.042  1.00  0.00     0.087 C 
BRANCH  11  12
ATOM     12  C   UNL     1       2.218  73.522  16.634  1.00  0.00     0.066 C 
BRANCH  12  13
ATOM     13  C   UNL     1       1.173  73.571  17.741  1.00  0.00     0.140 C 
ATOM     14  O   UNL     1       0.734  72.523  18.194  1.00  0.00    -0.299 OA
BRANCH  13  15
ATOM     15  C   UNL     1       0.683  74.879  18.329  1.00  0.00     0.106 CG0
ATOM     16  G   UNL     1       1.308  75.126  19.691  1.00  0.00     0.000 G0
ENDBRANCH  13  15
ENDBRANCH  12  13
BRANCH  12  17
ATOM     17  C   UNL     1       1.603  74.001  15.279  1.00  0.00    -0.006 C 
ATOM     18  C   UNL     1       2.694  74.424  14.281  1.00  0.00     0.008 C 
ATOM     19  C   UNL     1       0.558  75.123  15.424  1.00  0.00     0.008 C 
ENDBRANCH  12  17
ENDBRANCH  11  12
ENDBRANCH   1  11
TORSDOF 1
ENDMDL
MODEL 8
REMARK VINA RESULT:    26.564      1.651      3.695
REMARK INTER + INTRA:          42.666
REMARK INTER:                  40.170
REMARK INTRA:                   2.496
REMARK UNBOUND:                 2.126
REMARK SMILES CC1=CCC[C@@H](C)C(=O)C[C@H](C(C)C)C(=O)C1
REMARK SMILES IDX 8 1 9 2 6 3 7 4 5 5 4 6 3 7 2 8 1 9 10 11 11 12 15 13 16 14
REMARK SMILES IDX 17 15 12 17 13 18 14 19
REMARK H PARENT
REMARK Flexibility Score: 70.00
ROOT
ATOM      1  C   UNL     1       2.987  76.970  19.174  1.00  0.00     0.136 C 
ATOM      2  O   UNL     1       3.107  78.187  19.131  1.00  0.00    -0.299 OA
ENDROOT
BRANCH   1   3
ATOM      3  C   UNL     1       1.810  76.362  19.901  1.00  0.00     0.053 C 
ATOM      4  C   UNL     1       2.272  75.461  21.053  1.00  0.00     0.016 C 
BRANCH   3   5
ATOM      5  C   UNL     1       0.938  75.584  18.885  1.00  0.00     0.015 C 
BRANCH   5   6
ATOM      6  C   UNL     1       0.165  74.374  19.446  1.00  0.00     0.028 C 
BRANCH   6   7
ATOM      7  C   UNL     1       0.367  73.044  18.750  1.00  0.00    -0.028 C 
ATOM      8  C   UNL     1       1.183  72.790  17.699  1.00  0.00    -0.070 CG0
ATOM      9  C   UNL     1       1.312  71.356  17.244  1.00  0.00     0.039 C 
ATOM     10  G   UNL     1       1.906  73.861  16.900  1.00  0.00     0.000 G0
ENDBRANCH   6   7
ENDBRANCH   5   6
ENDBRANCH   3   5
ENDBRANCH   1   3
BRANCH   1  11
ATOM     11  C   UNL     1       4.061  76.101  18.563  1.00  0.00     0.087 C 
BRANCH  11  12
ATOM     12  C   UNL     1       3.736  74.581  18.678  1.00  0.00     0.066 C 
BRANCH  12  13
ATOM     13  C   UNL     1       3.337  74.003  17.327  1.00  0.00     0.140 C 
ATOM     14  O   UNL     1       4.210  73.595  16.572  1.00  0.00    -0.299 OA
BRANCH  13  15
ATOM     15  C   UNL     1       1.889  73.879  16.897  1.00  0.00     0.106 CG0
ATOM     16  G   UNL     1       1.187  72.780  17.676  1.00  0.00     0.000 G0
ENDBRANCH  13  15
ENDBRANCH  12  13
BRANCH  12  17
ATOM     17  C   UNL     1       4.892  73.743  19.312  1.00  0.00    -0.006 C 
ATOM     18  C   UNL     1       4.668  72.234  19.119  1.00  0.00     0.008 C 
ATOM     19  C   UNL     1       5.151  74.050  20.799  1.00  0.00     0.008 C 
ENDBRANCH  12  17
ENDBRANCH  11  12
ENDBRANCH   1  11
TORSDOF 1
ENDMDL
MODEL 9
REMARK VINA RESULT:    26.692      1.856      4.219
REMARK INTER + INTRA:          42.861
REMARK INTER:                  42.330
REMARK INTRA:                   0.531
REMARK UNBOUND:                 2.126
REMARK SMILES CC1=CCC[C@@H](C)C(=O)C[C@H](C(C)C)C(=O)C1
REMARK SMILES IDX 8 1 9 2 6 3 7 4 5 5 4 6 3 7 2 8 1 9 10 11 11 12 15 13 16 14
REMARK SMILES IDX 17 15 12 17 13 18 14 19
REMARK H PARENT
REMARK Flexibility Score: 70.00
ROOT
ATOM      1  C   UNL     1       1.910  75.855  20.240  1.00  0.00     0.136 C 
ATOM      2  O   UNL     1       2.133  75.254  21.282  1.00  0.00    -0.299 OA
ENDROOT
BRANCH   1   3
ATOM      3  C   UNL     1       2.803  77.006  19.836  1.00  0.00     0.053 C 
ATOM      4  C   UNL     1       2.050  78.341  19.894  1.00  0.00     0.016 C 
BRANCH   3   5
ATOM      5  C   UNL     1       3.368  76.733  18.421  1.00  0.00     0.015 C 
BRANCH   5   6
ATOM      6  C   UNL     1       4.723  76.000  18.365  1.00  0.00     0.028 C 
BRANCH   6   7
ATOM      7  C   UNL     1       4.745  74.555  18.816  1.00  0.00    -0.028 C 
ATOM      8  C   UNL     1       4.085  73.515  18.251  1.00  0.00    -0.070 CG0
ATOM      9  C   UNL     1       4.352  72.136  18.804  1.00  0.00     0.039 C 
ATOM     10  G   UNL     1       3.038  73.659  17.161  1.00  0.00     0.000 G0
ENDBRANCH   6   7
ENDBRANCH   5   6
ENDBRANCH   3   5
ENDBRANCH   1   3
BRANCH   1  11
ATOM     11  C   UNL     1       0.701  75.479  19.415  1.00  0.00     0.087 C 
BRANCH  11  12
ATOM     12  C   UNL     1       1.055  75.219  17.920  1.00  0.00     0.066 C 
BRANCH  12  13
ATOM     13  C   UNL     1       1.657  73.832  17.734  1.00  0.00     0.140 C 
ATOM     14  O   UNL     1       0.992  72.848  18.029  1.00  0.00    -0.299 OA
BRANCH  13  15
ATOM     15  C   UNL     1       3.044  73.625  17.158  1.00  0.00     0.106 CG0
ATOM     16  G   UNL     1       4.076  73.509  18.266  1.00  0.00     0.000 G0
ENDBRANCH  13  15
ENDBRANCH  12  13
BRANCH  12  17
ATOM     17  C   UNL     1      -0.151  75.426  16.949  1.00  0.00    -0.006 C 
ATOM     18  C   UNL     1       0.302  75.440  15.479  1.00  0.00     0.008 C 
ATOM     19  C   UNL     1      -0.995  76.678  17.251  1.00  0.00     0.008 C 
ENDBRANCH  12  17
ENDBRANCH  11  12
ENDBRANCH   1  11
TORSDOF 1
ENDMDL
