MODEL 1
REMARK VINA RESULT:    -2.529      0.000      0.000
REMARK INTER + INTRA:          -3.689
REMARK INTER:                  -3.120
REMARK INTRA:                  -0.569
REMARK UNBOUND:                -0.569
REMARK SMILES CC(C)=CCC[C@@H](C)c1ccc(C)cc1
REMARK SMILES IDX 6 1 7 2 8 3 9 4 13 5 12 6 11 7 14 8 10 9 15 10 5 11 4 12
REMARK SMILES IDX 2 13 1 14 3 15
REMARK H PARENT
REMARK Flexibility Score: inf
ROOT
ATOM      1  C   UNL     1      10.069  23.061  14.818  1.00  0.00     0.012 C 
ENDROOT
BRANCH   1   2
ATOM      2  C   UNL     1      10.247  22.523  16.256  1.00  0.00     0.016 C 
ATOM      3  C   UNL     1       9.322  21.332  16.554  1.00  0.00     0.013 C 
BRANCH   2   4
ATOM      4  C   UNL     1      11.695  22.138  16.502  1.00  0.00    -0.045 A 
ATOM      5  C   UNL     1      15.821  21.077  17.218  1.00  0.00     0.044 C 
ATOM      6  C   UNL     1      14.392  21.440  16.939  1.00  0.00    -0.051 A 
ATOM      7  C   UNL     1      13.397  20.454  16.950  1.00  0.00     0.004 A 
ATOM      8  C   UNL     1      14.032  22.780  16.733  1.00  0.00     0.004 A 
ATOM      9  C   UNL     1      12.060  20.797  16.727  1.00  0.00     0.004 A 
ATOM     10  C   UNL     1      12.696  23.125  16.509  1.00  0.00     0.004 A 
ENDBRANCH   2   4
ENDBRANCH   1   2
BRANCH   1  11
ATOM     11  C   UNL     1      10.726  22.159  13.762  1.00  0.00     0.028 C 
BRANCH  11  12
ATOM     12  C   UNL     1      10.886  22.885  12.447  1.00  0.00    -0.028 C 
ATOM     13  C   UNL     1      11.408  22.307  11.345  1.00  0.00    -0.080 C 
ATOM     14  C   UNL     1      11.875  20.871  11.352  1.00  0.00     0.039 C 
ATOM     15  C   UNL     1      11.523  23.125  10.085  1.00  0.00     0.039 C 
ENDBRANCH  11  12
ENDBRANCH   1  11
TORSDOF 4
ENDMDL
MODEL 2
REMARK VINA RESULT:    -2.241      0.234      1.255
REMARK INTER + INTRA:          -3.334
REMARK INTER:                  -2.855
REMARK INTRA:                  -0.479
REMARK UNBOUND:                -0.569
REMARK SMILES CC(C)=CCC[C@@H](C)c1ccc(C)cc1
REMARK SMILES IDX 6 1 7 2 8 3 9 4 13 5 12 6 11 7 14 8 10 9 15 10 5 11 4 12
REMARK SMILES IDX 2 13 1 14 3 15
REMARK H PARENT
REMARK Flexibility Score: inf
ROOT
ATOM      1  C   UNL     1       9.965  23.068  14.944  1.00  0.00     0.012 C 
ENDROOT
BRANCH   1   2
ATOM      2  C   UNL     1      10.173  22.608  16.405  1.00  0.00     0.016 C 
ATOM      3  C   UNL     1       9.244  21.446  16.791  1.00  0.00     0.013 C 
BRANCH   2   4
ATOM      4  C   UNL     1      11.623  22.222  16.637  1.00  0.00    -0.045 A 
ATOM      5  C   UNL     1      15.739  21.086  17.290  1.00  0.00     0.044 C 
ATOM      6  C   UNL     1      14.308  21.492  17.092  1.00  0.00    -0.051 A 
ATOM      7  C   UNL     1      13.998  22.759  16.581  1.00  0.00     0.004 A 
ATOM      8  C   UNL     1      13.274  20.581  17.352  1.00  0.00     0.004 A 
ATOM      9  C   UNL     1      12.667  23.125  16.361  1.00  0.00     0.004 A 
ATOM     10  C   UNL     1      11.942  20.946  17.133  1.00  0.00     0.004 A 
ENDBRANCH   2   4
ENDBRANCH   1   2
BRANCH   1  11
ATOM     11  C   UNL     1      10.713  22.185  13.933  1.00  0.00     0.028 C 
BRANCH  11  12
ATOM     12  C   UNL     1      10.920  22.910  12.624  1.00  0.00    -0.028 C 
ATOM     13  C   UNL     1      11.389  22.304  11.513  1.00  0.00    -0.080 C 
ATOM     14  C   UNL     1      11.744  20.836  11.503  1.00  0.00     0.039 C 
ATOM     15  C   UNL     1      11.559  23.124  10.259  1.00  0.00     0.039 C 
ENDBRANCH  11  12
ENDBRANCH   1  11
TORSDOF 4
ENDMDL
MODEL 3
REMARK VINA RESULT:    -1.721      1.109      5.187
REMARK INTER + INTRA:          -2.692
REMARK INTER:                  -2.468
REMARK INTRA:                  -0.224
REMARK UNBOUND:                -0.569
REMARK SMILES CC(C)=CCC[C@@H](C)c1ccc(C)cc1
REMARK SMILES IDX 6 1 7 2 8 3 9 4 13 5 12 6 11 7 14 8 10 9 15 10 5 11 4 12
REMARK SMILES IDX 2 13 1 14 3 15
REMARK H PARENT
REMARK Flexibility Score: inf
ROOT
ATOM      1  C   UNL     1      11.432  21.954  17.280  1.00  0.00     0.012 C 
ENDROOT
BRANCH   1   2
ATOM      2  C   UNL     1      10.459  21.157  16.381  1.00  0.00     0.016 C 
ATOM      3  C   UNL     1       8.989  21.372  16.775  1.00  0.00     0.013 C 
BRANCH   2   4
ATOM      4  C   UNL     1      10.671  21.518  14.921  1.00  0.00    -0.045 A 
ATOM      5  C   UNL     1      11.277  22.581  10.778  1.00  0.00     0.044 C 
ATOM      6  C   UNL     1      11.039  22.200  12.210  1.00  0.00    -0.051 A 
ATOM      7  C   UNL     1      11.439  20.943  12.682  1.00  0.00     0.004 A 
ATOM      8  C   UNL     1      10.477  23.124  13.102  1.00  0.00     0.004 A 
ATOM      9  C   UNL     1      11.251  20.601  14.025  1.00  0.00     0.004 A 
ATOM     10  C   UNL     1      10.288  22.784  14.445  1.00  0.00     0.004 A 
ENDBRANCH   2   4
ENDBRANCH   1   2
BRANCH   1  11
ATOM     11  C   UNL     1      12.522  22.678  16.475  1.00  0.00     0.028 C 
BRANCH  11  12
ATOM     12  C   UNL     1      13.655  23.124  17.371  1.00  0.00    -0.028 C 
ATOM     13  C   UNL     1      14.754  22.374  17.597  1.00  0.00    -0.080 C 
ATOM     14  C   UNL     1      14.929  21.016  16.960  1.00  0.00     0.039 C 
ATOM     15  C   UNL     1      15.824  22.915  18.511  1.00  0.00     0.039 C 
ENDBRANCH  11  12
ENDBRANCH   1  11
TORSDOF 4
ENDMDL
MODEL 4
REMARK VINA RESULT:    -1.328      0.938      5.008
REMARK INTER + INTRA:          -2.208
REMARK INTER:                  -3.086
REMARK INTRA:                   0.878
REMARK UNBOUND:                -0.569
REMARK SMILES CC(C)=CCC[C@@H](C)c1ccc(C)cc1
REMARK SMILES IDX 6 1 7 2 8 3 9 4 13 5 12 6 11 7 14 8 10 9 15 10 5 11 4 12
REMARK SMILES IDX 2 13 1 14 3 15
REMARK H PARENT
REMARK Flexibility Score: inf
ROOT
ATOM      1  C   UNL     1      11.296  21.837  17.280  1.00  0.00     0.012 C 
ENDROOT
BRANCH   1   2
ATOM      2  C   UNL     1      10.314  21.123  16.323  1.00  0.00     0.016 C 
ATOM      3  C   UNL     1       8.845  21.408  16.673  1.00  0.00     0.013 C 
BRANCH   2   4
ATOM      4  C   UNL     1      10.598  21.515  14.883  1.00  0.00    -0.045 A 
ATOM      5  C   UNL     1      11.400  22.594  10.778  1.00  0.00     0.044 C 
ATOM      6  C   UNL     1      11.149  22.232  12.212  1.00  0.00    -0.051 A 
ATOM      7  C   UNL     1      10.479  23.125  13.060  1.00  0.00     0.004 A 
ATOM      8  C   UNL     1      11.520  20.969  12.698  1.00  0.00     0.004 A 
ATOM      9  C   UNL     1      10.211  22.774  14.386  1.00  0.00     0.004 A 
ATOM     10  C   UNL     1      11.253  20.617  14.024  1.00  0.00     0.004 A 
ENDBRANCH   2   4
ENDBRANCH   1   2
BRANCH   1  11
ATOM     11  C   UNL     1      11.935  23.084  16.650  1.00  0.00     0.028 C 
BRANCH  11  12
ATOM     12  C   UNL     1      13.423  23.125  16.910  1.00  0.00    -0.028 C 
ATOM     13  C   UNL     1      14.185  22.015  17.008  1.00  0.00    -0.080 C 
ATOM     14  C   UNL     1      13.592  20.634  16.860  1.00  0.00     0.039 C 
ATOM     15  C   UNL     1      15.660  22.171  17.272  1.00  0.00     0.039 C 
ENDBRANCH  11  12
ENDBRANCH   1  11
TORSDOF 4
ENDMDL
