MODEL 1
REMARK VINA RESULT:    -3.836      0.000      0.000
REMARK INTER + INTRA:          -9.570
REMARK INTER:                  -6.976
REMARK INTRA:                  -2.594
REMARK UNBOUND:                -2.594
REMARK SMILES CCCCCCCCCCCCCCCC(=O)[O-]
REMARK SMILES IDX 9 1 10 2 11 3 12 4 13 5 14 6 15 7 16 8 17 9 18 10 8 11 7 12
REMARK SMILES IDX 6 13 5 14 4 15 3 16 2 17 1 18
REMARK H PARENT
REMARK Flexibility Score: inf
ROOT
ATOM      1  C   UNL     1     115.049 119.861 132.267  1.00  0.00     0.000 C 
ENDROOT
BRANCH   1   2
ATOM      2  C   UNL     1     115.109 120.918 131.154  1.00  0.00     0.000 C 
BRANCH   2   3
ATOM      3  C   UNL     1     115.047 122.335 131.738  1.00  0.00     0.000 C 
BRANCH   3   4
ATOM      4  C   UNL     1     116.229 123.185 131.248  1.00  0.00     0.000 C 
BRANCH   4   5
ATOM      5  C   UNL     1     116.780 122.709 129.894  1.00  0.00     0.000 C 
BRANCH   5   6
ATOM      6  C   UNL     1     116.208 123.506 128.708  1.00  0.00     0.006 C 
BRANCH   6   7
ATOM      7  C   UNL     1     115.735 122.590 127.571  1.00  0.00     0.053 C 
BRANCH   7   8
ATOM      8  C   UNL     1     114.362 122.046 127.827  1.00  0.00     0.041 C 
ATOM      9  O   UNL     1     113.456 122.797 128.275  1.00  0.00    -0.550 OA
ATOM     10  O   UNL     1     114.076 120.717 127.542  1.00  0.00    -0.550 OA
ENDBRANCH   7   8
ENDBRANCH   6   7
ENDBRANCH   5   6
ENDBRANCH   4   5
ENDBRANCH   3   4
ENDBRANCH   2   3
ENDBRANCH   1   2
BRANCH   1  11
ATOM     11  C   UNL     1     114.863 120.479 133.663  1.00  0.00     0.000 C 
BRANCH  11  12
ATOM     12  C   UNL     1     115.966 120.056 134.647  1.00  0.00    -0.000 C 
BRANCH  12  13
ATOM     13  C   UNL     1     117.124 121.068 134.725  1.00  0.00    -0.000 C 
BRANCH  13  14
ATOM     14  C   UNL     1     118.457 120.591 134.120  1.00  0.00    -0.000 C 
BRANCH  14  15
ATOM     15  C   UNL     1     119.036 121.579 133.092  1.00  0.00    -0.000 C 
BRANCH  15  16
ATOM     16  C   UNL     1     119.424 120.896 131.771  1.00  0.00    -0.000 C 
BRANCH  16  17
ATOM     17  C   UNL     1     118.600 119.629 131.496  1.00  0.00    -0.003 C 
ATOM     18  C   UNL     1     118.376 119.435 129.999  1.00  0.00     0.004 C 
ENDBRANCH  16  17
ENDBRANCH  15  16
ENDBRANCH  14  15
ENDBRANCH  13  14
ENDBRANCH  12  13
ENDBRANCH  11  12
ENDBRANCH   1  11
TORSDOF 14
ENDMDL
MODEL 2
REMARK VINA RESULT:    -3.764      3.460      6.495
REMARK INTER + INTRA:          -9.439
REMARK INTER:                  -8.000
REMARK INTRA:                  -1.439
REMARK UNBOUND:                -2.594
REMARK SMILES CCCCCCCCCCCCCCCC(=O)[O-]
REMARK SMILES IDX 9 1 10 2 11 3 12 4 13 5 14 6 15 7 16 8 17 9 18 10 8 11 7 12
REMARK SMILES IDX 6 13 5 14 4 15 3 16 2 17 1 18
REMARK H PARENT
REMARK Flexibility Score: inf
ROOT
ATOM      1  C   UNL     1     115.679 123.384 128.194  1.00  0.00     0.000 C 
ENDROOT
BRANCH   1   2
ATOM      2  C   UNL     1     114.748 122.196 128.480  1.00  0.00     0.000 C 
BRANCH   2   3
ATOM      3  C   UNL     1     115.377 120.879 128.006  1.00  0.00     0.000 C 
BRANCH   3   4
ATOM      4  C   UNL     1     115.139 119.757 129.027  1.00  0.00     0.000 C 
BRANCH   4   5
ATOM      5  C   UNL     1     116.086 119.842 130.235  1.00  0.00     0.000 C 
BRANCH   5   6
ATOM      6  C   UNL     1     115.335 120.030 131.564  1.00  0.00     0.006 C 
BRANCH   6   7
ATOM      7  C   UNL     1     116.231 120.633 132.654  1.00  0.00     0.053 C 
BRANCH   7   8
ATOM      8  C   UNL     1     115.720 120.327 134.029  1.00  0.00     0.041 C 
ATOM      9  O   UNL     1     114.604 120.774 134.405  1.00  0.00    -0.550 OA
ATOM     10  O   UNL     1     116.463 119.523 134.885  1.00  0.00    -0.550 OA
ENDBRANCH   7   8
ENDBRANCH   6   7
ENDBRANCH   5   6
ENDBRANCH   4   5
ENDBRANCH   3   4
ENDBRANCH   2   3
ENDBRANCH   1   2
BRANCH   1  11
ATOM     11  C   UNL     1     117.100 122.944 127.803  1.00  0.00     0.000 C 
BRANCH  11  12
ATOM     12  C   UNL     1     117.605 123.644 126.530  1.00  0.00    -0.000 C 
BRANCH  12  13
ATOM     13  C   UNL     1     119.140 123.636 126.409  1.00  0.00    -0.000 C 
BRANCH  13  14
ATOM     14  C   UNL     1     119.848 124.897 126.937  1.00  0.00    -0.000 C 
BRANCH  14  15
ATOM     15  C   UNL     1     118.901 126.100 127.082  1.00  0.00    -0.000 C 
BRANCH  15  16
ATOM     16  C   UNL     1     118.916 126.695 128.499  1.00  0.00    -0.000 C 
BRANCH  16  17
ATOM     17  C   UNL     1     117.513 126.792 129.115  1.00  0.00    -0.003 C 
ATOM     18  C   UNL     1     117.354 125.812 130.275  1.00  0.00     0.004 C 
ENDBRANCH  16  17
ENDBRANCH  15  16
ENDBRANCH  14  15
ENDBRANCH  13  14
ENDBRANCH  12  13
ENDBRANCH  11  12
ENDBRANCH   1  11
TORSDOF 14
ENDMDL
MODEL 3
REMARK VINA RESULT:    -3.764      3.261      5.849
REMARK INTER + INTRA:          -9.438
REMARK INTER:                  -7.197
REMARK INTRA:                  -2.241
REMARK UNBOUND:                -2.594
REMARK SMILES CCCCCCCCCCCCCCCC(=O)[O-]
REMARK SMILES IDX 9 1 10 2 11 3 12 4 13 5 14 6 15 7 16 8 17 9 18 10 8 11 7 12
REMARK SMILES IDX 6 13 5 14 4 15 3 16 2 17 1 18
REMARK H PARENT
REMARK Flexibility Score: inf
ROOT
ATOM      1  C   UNL     1     117.431 123.304 130.541  1.00  0.00     0.000 C 
ENDROOT
BRANCH   1   2
ATOM      2  C   UNL     1     117.861 122.436 129.348  1.00  0.00     0.000 C 
BRANCH   2   3
ATOM      3  C   UNL     1     116.705 122.253 128.358  1.00  0.00     0.000 C 
BRANCH   3   4
ATOM      4  C   UNL     1     115.421 121.823 129.084  1.00  0.00     0.000 C 
BRANCH   4   5
ATOM      5  C   UNL     1     115.269 120.296 129.166  1.00  0.00     0.000 C 
BRANCH   5   6
ATOM      6  C   UNL     1     115.537 119.750 130.579  1.00  0.00     0.006 C 
BRANCH   6   7
ATOM      7  C   UNL     1     115.006 120.686 131.672  1.00  0.00     0.053 C 
BRANCH   7   8
ATOM      8  C   UNL     1     115.724 120.490 132.973  1.00  0.00     0.041 C 
ATOM      9  O   UNL     1     115.097 120.084 133.988  1.00  0.00    -0.550 OA
ATOM     10  O   UNL     1     117.090 120.727 133.057  1.00  0.00    -0.550 OA
ENDBRANCH   7   8
ENDBRANCH   6   7
ENDBRANCH   5   6
ENDBRANCH   4   5
ENDBRANCH   3   4
ENDBRANCH   2   3
ENDBRANCH   1   2
BRANCH   1  11
ATOM     11  C   UNL     1     118.294 124.567 130.697  1.00  0.00     0.000 C 
BRANCH  11  12
ATOM     12  C   UNL     1     117.450 125.845 130.839  1.00  0.00    -0.000 C 
BRANCH  12  13
ATOM     13  C   UNL     1     117.514 126.749 129.594  1.00  0.00    -0.000 C 
BRANCH  13  14
ATOM     14  C   UNL     1     116.620 126.313 128.418  1.00  0.00    -0.000 C 
BRANCH  14  15
ATOM     15  C   UNL     1     117.422 125.757 127.229  1.00  0.00    -0.000 C 
BRANCH  15  16
ATOM     16  C   UNL     1     118.919 126.096 127.317  1.00  0.00    -0.000 C 
BRANCH  16  17
ATOM     17  C   UNL     1     119.816 124.865 127.120  1.00  0.00    -0.003 C 
ATOM     18  C   UNL     1     119.205 123.895 126.113  1.00  0.00     0.004 C 
ENDBRANCH  16  17
ENDBRANCH  15  16
ENDBRANCH  14  15
ENDBRANCH  13  14
ENDBRANCH  12  13
ENDBRANCH  11  12
ENDBRANCH   1  11
TORSDOF 14
ENDMDL
MODEL 4
REMARK VINA RESULT:    -3.730      2.574      4.008
REMARK INTER + INTRA:          -9.376
REMARK INTER:                  -6.827
REMARK INTRA:                  -2.549
REMARK UNBOUND:                -2.594
REMARK SMILES CCCCCCCCCCCCCCCC(=O)[O-]
REMARK SMILES IDX 9 1 10 2 11 3 12 4 13 5 14 6 15 7 16 8 17 9 18 10 8 11 7 12
REMARK SMILES IDX 6 13 5 14 4 15 3 16 2 17 1 18
REMARK H PARENT
REMARK Flexibility Score: inf
ROOT
ATOM      1  C   UNL     1     117.906 120.183 134.885  1.00  0.00     0.000 C 
ENDROOT
BRANCH   1   2
ATOM      2  C   UNL     1     118.270 121.111 133.716  1.00  0.00     0.000 C 
BRANCH   2   3
ATOM      3  C   UNL     1     118.694 120.301 132.484  1.00  0.00     0.000 C 
BRANCH   3   4
ATOM      4  C   UNL     1     118.986 121.225 131.292  1.00  0.00     0.000 C 
BRANCH   4   5
ATOM      5  C   UNL     1     118.451 122.650 131.501  1.00  0.00     0.000 C 
BRANCH   5   6
ATOM      6  C   UNL     1     118.103 123.352 130.177  1.00  0.00     0.006 C 
BRANCH   6   7
ATOM      7  C   UNL     1     116.906 124.302 130.323  1.00  0.00     0.053 C 
BRANCH   7   8
ATOM      8  C   UNL     1     117.339 125.731 130.448  1.00  0.00     0.041 C 
ATOM      9  O   UNL     1     117.144 126.361 131.521  1.00  0.00    -0.550 OA
ATOM     10  O   UNL     1     117.986 126.357 129.390  1.00  0.00    -0.550 OA
ENDBRANCH   7   8
ENDBRANCH   6   7
ENDBRANCH   5   6
ENDBRANCH   4   5
ENDBRANCH   3   4
ENDBRANCH   2   3
ENDBRANCH   1   2
BRANCH   1  11
ATOM     11  C   UNL     1     116.466 119.650 134.793  1.00  0.00     0.000 C 
BRANCH  11  12
ATOM     12  C   UNL     1     115.457 120.742 134.403  1.00  0.00    -0.000 C 
BRANCH  12  13
ATOM     13  C   UNL     1     114.740 120.450 133.072  1.00  0.00    -0.000 C 
BRANCH  13  14
ATOM     14  C   UNL     1     114.816 121.575 132.023  1.00  0.00    -0.000 C 
BRANCH  14  15
ATOM     15  C   UNL     1     115.139 121.056 130.611  1.00  0.00    -0.000 C 
BRANCH  15  16
ATOM     16  C   UNL     1     115.568 119.580 130.608  1.00  0.00    -0.000 C 
BRANCH  16  17
ATOM     17  C   UNL     1     116.495 119.236 129.433  1.00  0.00    -0.003 C 
ATOM     18  C   UNL     1     116.455 120.325 128.365  1.00  0.00     0.004 C 
ENDBRANCH  16  17
ENDBRANCH  15  16
ENDBRANCH  14  15
ENDBRANCH  13  14
ENDBRANCH  12  13
ENDBRANCH  11  12
ENDBRANCH   1  11
TORSDOF 14
ENDMDL
MODEL 5
REMARK VINA RESULT:    -3.687      2.020      2.568
REMARK INTER + INTRA:          -9.298
REMARK INTER:                  -7.185
REMARK INTRA:                  -2.113
REMARK UNBOUND:                -2.594
REMARK SMILES CCCCCCCCCCCCCCCC(=O)[O-]
REMARK SMILES IDX 9 1 10 2 11 3 12 4 13 5 14 6 15 7 16 8 17 9 18 10 8 11 7 12
REMARK SMILES IDX 6 13 5 14 4 15 3 16 2 17 1 18
REMARK H PARENT
REMARK Flexibility Score: inf
ROOT
ATOM      1  C   UNL     1     115.098 120.471 132.018  1.00  0.00     0.000 C 
ENDROOT
BRANCH   1   2
ATOM      2  C   UNL     1     114.814 121.949 131.711  1.00  0.00     0.000 C 
BRANCH   2   3
ATOM      3  C   UNL     1     115.089 122.265 130.236  1.00  0.00     0.000 C 
BRANCH   3   4
ATOM      4  C   UNL     1     115.436 120.989 129.454  1.00  0.00     0.000 C 
BRANCH   4   5
ATOM      5  C   UNL     1     115.982 121.283 128.048  1.00  0.00     0.000 C 
BRANCH   5   6
ATOM      6  C   UNL     1     115.849 122.767 127.660  1.00  0.00     0.006 C 
BRANCH   6   7
ATOM      7  C   UNL     1     117.188 123.368 127.210  1.00  0.00     0.053 C 
BRANCH   7   8
ATOM      8  C   UNL     1     117.215 124.857 127.380  1.00  0.00     0.041 C 
ATOM      9  O   UNL     1     116.261 125.447 127.952  1.00  0.00    -0.550 OA
ATOM     10  O   UNL     1     118.309 125.588 126.933  1.00  0.00    -0.550 OA
ENDBRANCH   7   8
ENDBRANCH   6   7
ENDBRANCH   5   6
ENDBRANCH   4   5
ENDBRANCH   3   4
ENDBRANCH   2   3
ENDBRANCH   1   2
BRANCH   1  11
ATOM     11  C   UNL     1     114.923 120.130 133.508  1.00  0.00     0.000 C 
BRANCH  11  12
ATOM     12  C   UNL     1     115.917 120.886 134.406  1.00  0.00    -0.000 C 
BRANCH  12  13
ATOM     13  C   UNL     1     116.912 119.952 135.120  1.00  0.00    -0.000 C 
BRANCH  13  14
ATOM     14  C   UNL     1     118.266 119.768 134.411  1.00  0.00    -0.000 C 
BRANCH  14  15
ATOM     15  C   UNL     1     118.555 120.869 133.376  1.00  0.00    -0.000 C 
BRANCH  15  16
ATOM     16  C   UNL     1     118.735 120.310 131.955  1.00  0.00    -0.000 C 
BRANCH  16  17
ATOM     17  C   UNL     1     118.745 121.411 130.884  1.00  0.00    -0.003 C 
ATOM     18  C   UNL     1     118.520 122.786 131.508  1.00  0.00     0.004 C 
ENDBRANCH  16  17
ENDBRANCH  15  16
ENDBRANCH  14  15
ENDBRANCH  13  14
ENDBRANCH  12  13
ENDBRANCH  11  12
ENDBRANCH   1  11
TORSDOF 14
ENDMDL
MODEL 6
REMARK VINA RESULT:    -3.680      2.444      3.460
REMARK INTER + INTRA:          -9.286
REMARK INTER:                  -7.593
REMARK INTRA:                  -1.693
REMARK UNBOUND:                -2.594
REMARK SMILES CCCCCCCCCCCCCCCC(=O)[O-]
REMARK SMILES IDX 9 1 10 2 11 3 12 4 13 5 14 6 15 7 16 8 17 9 18 10 8 11 7 12
REMARK SMILES IDX 6 13 5 14 4 15 3 16 2 17 1 18
REMARK H PARENT
REMARK Flexibility Score: inf
ROOT
ATOM      1  C   UNL     1     115.348 122.029 130.413  1.00  0.00     0.000 C 
ENDROOT
BRANCH   1   2
ATOM      2  C   UNL     1     115.547 120.676 129.713  1.00  0.00     0.000 C 
BRANCH   2   3
ATOM      3  C   UNL     1     116.438 120.825 128.473  1.00  0.00     0.000 C 
BRANCH   3   4
ATOM      4  C   UNL     1     116.348 122.247 127.899  1.00  0.00     0.000 C 
BRANCH   4   5
ATOM      5  C   UNL     1     117.729 122.869 127.637  1.00  0.00     0.000 C 
BRANCH   5   6
ATOM      6  C   UNL     1     117.714 123.877 126.475  1.00  0.00     0.006 C 
BRANCH   6   7
ATOM      7  C   UNL     1     118.533 125.136 126.790  1.00  0.00     0.053 C 
BRANCH   7   8
ATOM      8  C   UNL     1     117.783 126.083 127.676  1.00  0.00     0.041 C 
ATOM      9  O   UNL     1     118.407 126.860 128.446  1.00  0.00    -0.550 OA
ATOM     10  O   UNL     1     116.395 126.128 127.631  1.00  0.00    -0.550 OA
ENDBRANCH   7   8
ENDBRANCH   6   7
ENDBRANCH   5   6
ENDBRANCH   4   5
ENDBRANCH   3   4
ENDBRANCH   2   3
ENDBRANCH   1   2
BRANCH   1  11
ATOM     11  C   UNL     1     114.650 121.896 131.776  1.00  0.00     0.000 C 
BRANCH  11  12
ATOM     12  C   UNL     1     114.839 120.504 132.402  1.00  0.00    -0.000 C 
BRANCH  12  13
ATOM     13  C   UNL     1     114.770 120.523 133.941  1.00  0.00    -0.000 C 
BRANCH  13  14
ATOM     14  C   UNL     1     116.074 120.140 134.663  1.00  0.00    -0.000 C 
BRANCH  14  15
ATOM     15  C   UNL     1     117.279 120.985 134.214  1.00  0.00    -0.000 C 
BRANCH  15  16
ATOM     16  C   UNL     1     118.355 120.148 133.505  1.00  0.00    -0.000 C 
BRANCH  16  17
ATOM     17  C   UNL     1     118.545 120.550 132.035  1.00  0.00    -0.003 C 
ATOM     18  C   UNL     1     118.665 122.065 131.891  1.00  0.00     0.004 C 
ENDBRANCH  16  17
ENDBRANCH  15  16
ENDBRANCH  14  15
ENDBRANCH  13  14
ENDBRANCH  12  13
ENDBRANCH  11  12
ENDBRANCH   1  11
TORSDOF 14
ENDMDL
MODEL 7
REMARK VINA RESULT:    -3.669      2.251      5.252
REMARK INTER + INTRA:          -9.266
REMARK INTER:                  -7.035
REMARK INTRA:                  -2.231
REMARK UNBOUND:                -2.594
REMARK SMILES CCCCCCCCCCCCCCCC(=O)[O-]
REMARK SMILES IDX 9 1 10 2 11 3 12 4 13 5 14 6 15 7 16 8 17 9 18 10 8 11 7 12
REMARK SMILES IDX 6 13 5 14 4 15 3 16 2 17 1 18
REMARK H PARENT
REMARK Flexibility Score: inf
ROOT
ATOM      1  C   UNL     1     116.618 123.492 130.403  1.00  0.00     0.000 C 
ENDROOT
BRANCH   1   2
ATOM      2  C   UNL     1     116.162 122.794 131.694  1.00  0.00     0.000 C 
BRANCH   2   3
ATOM      3  C   UNL     1     114.872 121.998 131.461  1.00  0.00     0.000 C 
BRANCH   3   4
ATOM      4  C   UNL     1     115.110 120.493 131.660  1.00  0.00     0.000 C 
BRANCH   4   5
ATOM      5  C   UNL     1     116.021 119.888 130.580  1.00  0.00     0.000 C 
BRANCH   5   6
ATOM      6  C   UNL     1     115.247 119.476 129.315  1.00  0.00     0.006 C 
BRANCH   6   7
ATOM      7  C   UNL     1     115.512 120.426 128.140  1.00  0.00     0.053 C 
BRANCH   7   8
ATOM      8  C   UNL     1     114.255 121.090 127.665  1.00  0.00     0.041 C 
ATOM      9  O   UNL     1     113.919 122.213 128.126  1.00  0.00    -0.550 OA
ATOM     10  O   UNL     1     113.472 120.483 126.691  1.00  0.00    -0.550 OA
ENDBRANCH   7   8
ENDBRANCH   6   7
ENDBRANCH   5   6
ENDBRANCH   4   5
ENDBRANCH   3   4
ENDBRANCH   2   3
ENDBRANCH   1   2
BRANCH   1  11
ATOM     11  C   UNL     1     118.018 123.045 129.949  1.00  0.00     0.000 C 
BRANCH  11  12
ATOM     12  C   UNL     1     118.152 122.988 128.419  1.00  0.00    -0.000 C 
BRANCH  12  13
ATOM     13  C   UNL     1     117.054 123.785 127.689  1.00  0.00    -0.000 C 
BRANCH  13  14
ATOM     14  C   UNL     1     117.453 125.205 127.250  1.00  0.00    -0.000 C 
BRANCH  14  15
ATOM     15  C   UNL     1     116.503 126.289 127.790  1.00  0.00    -0.000 C 
BRANCH  15  16
ATOM     16  C   UNL     1     116.980 126.879 129.126  1.00  0.00    -0.000 C 
BRANCH  16  17
ATOM     17  C   UNL     1     118.468 127.259 129.107  1.00  0.00    -0.003 C 
ATOM     18  C   UNL     1     119.236 126.525 130.203  1.00  0.00     0.004 C 
ENDBRANCH  16  17
ENDBRANCH  15  16
ENDBRANCH  14  15
ENDBRANCH  13  14
ENDBRANCH  12  13
ENDBRANCH  11  12
ENDBRANCH   1  11
TORSDOF 14
ENDMDL
MODEL 8
REMARK VINA RESULT:    -3.656      2.593      4.603
REMARK INTER + INTRA:          -9.241
REMARK INTER:                  -7.134
REMARK INTRA:                  -2.107
REMARK UNBOUND:                -2.594
REMARK SMILES CCCCCCCCCCCCCCCC(=O)[O-]
REMARK SMILES IDX 9 1 10 2 11 3 12 4 13 5 14 6 15 7 16 8 17 9 18 10 8 11 7 12
REMARK SMILES IDX 6 13 5 14 4 15 3 16 2 17 1 18
REMARK H PARENT
REMARK Flexibility Score: inf
ROOT
ATOM      1  C   UNL     1     116.485 121.006 134.123  1.00  0.00     0.000 C 
ENDROOT
BRANCH   1   2
ATOM      2  C   UNL     1     117.550 120.560 133.110  1.00  0.00     0.000 C 
BRANCH   2   3
ATOM      3  C   UNL     1     118.918 121.164 133.449  1.00  0.00     0.000 C 
BRANCH   3   4
ATOM      4  C   UNL     1     119.414 122.077 132.318  1.00  0.00     0.000 C 
BRANCH   4   5
ATOM      5  C   UNL     1     118.274 122.576 131.416  1.00  0.00     0.000 C 
BRANCH   5   6
ATOM      6  C   UNL     1     118.448 124.047 131.000  1.00  0.00     0.006 C 
BRANCH   6   7
ATOM      7  C   UNL     1     117.114 124.806 130.986  1.00  0.00     0.053 C 
BRANCH   7   8
ATOM      8  C   UNL     1     117.317 126.290 130.948  1.00  0.00     0.041 C 
ATOM      9  O   UNL     1     117.868 126.880 131.915  1.00  0.00    -0.550 OA
ATOM     10  O   UNL     1     116.926 127.018 129.831  1.00  0.00    -0.550 OA
ENDBRANCH   7   8
ENDBRANCH   6   7
ENDBRANCH   5   6
ENDBRANCH   4   5
ENDBRANCH   3   4
ENDBRANCH   2   3
ENDBRANCH   1   2
BRANCH   1  11
ATOM     11  C   UNL     1     115.076 120.508 133.761  1.00  0.00     0.000 C 
BRANCH  11  12
ATOM     12  C   UNL     1     114.811 120.535 132.247  1.00  0.00    -0.000 C 
BRANCH  12  13
ATOM     13  C   UNL     1     114.565 121.956 131.705  1.00  0.00    -0.000 C 
BRANCH  13  14
ATOM     14  C   UNL     1     114.749 122.121 130.185  1.00  0.00    -0.000 C 
BRANCH  14  15
ATOM     15  C   UNL     1     115.578 120.990 129.555  1.00  0.00    -0.000 C 
BRANCH  15  16
ATOM     16  C   UNL     1     116.215 121.400 128.217  1.00  0.00    -0.000 C 
BRANCH  16  17
ATOM     17  C   UNL     1     115.880 122.846 127.822  1.00  0.00    -0.003 C 
ATOM     18  C   UNL     1     117.136 123.607 127.406  1.00  0.00     0.004 C 
ENDBRANCH  16  17
ENDBRANCH  15  16
ENDBRANCH  14  15
ENDBRANCH  13  14
ENDBRANCH  12  13
ENDBRANCH  11  12
ENDBRANCH   1  11
TORSDOF 14
ENDMDL
MODEL 9
REMARK VINA RESULT:    -3.642      3.127      4.736
REMARK INTER + INTRA:          -9.216
REMARK INTER:                  -7.256
REMARK INTRA:                  -1.960
REMARK UNBOUND:                -2.594
REMARK SMILES CCCCCCCCCCCCCCCC(=O)[O-]
REMARK SMILES IDX 9 1 10 2 11 3 12 4 13 5 14 6 15 7 16 8 17 9 18 10 8 11 7 12
REMARK SMILES IDX 6 13 5 14 4 15 3 16 2 17 1 18
REMARK H PARENT
REMARK Flexibility Score: inf
ROOT
ATOM      1  C   UNL     1     116.177 119.891 130.476  1.00  0.00     0.000 C 
ENDROOT
BRANCH   1   2
ATOM      2  C   UNL     1     115.514 119.514 129.143  1.00  0.00     0.000 C 
BRANCH   2   3
ATOM      3  C   UNL     1     115.828 120.553 128.060  1.00  0.00     0.000 C 
BRANCH   3   4
ATOM      4  C   UNL     1     114.969 121.814 128.241  1.00  0.00     0.000 C 
BRANCH   4   5
ATOM      5  C   UNL     1     115.689 123.093 127.786  1.00  0.00     0.000 C 
BRANCH   5   6
ATOM      6  C   UNL     1     117.185 122.863 127.506  1.00  0.00     0.006 C 
BRANCH   6   7
ATOM      7  C   UNL     1     117.754 123.895 126.523  1.00  0.00     0.053 C 
BRANCH   7   8
ATOM      8  C   UNL     1     118.842 124.717 127.144  1.00  0.00     0.041 C 
ATOM      9  O   UNL     1     119.683 124.178 127.912  1.00  0.00    -0.550 OA
ATOM     10  O   UNL     1     118.946 126.071 126.851  1.00  0.00    -0.550 OA
ENDBRANCH   7   8
ENDBRANCH   6   7
ENDBRANCH   5   6
ENDBRANCH   4   5
ENDBRANCH   3   4
ENDBRANCH   2   3
ENDBRANCH   1   2
BRANCH   1  11
ATOM     11  C   UNL     1     115.156 120.129 131.601  1.00  0.00     0.000 C 
BRANCH  11  12
ATOM     12  C   UNL     1     115.128 121.593 132.073  1.00  0.00    -0.000 C 
BRANCH  12  13
ATOM     13  C   UNL     1     116.449 122.337 131.801  1.00  0.00    -0.000 C 
BRANCH  13  14
ATOM     14  C   UNL     1     116.305 123.831 131.461  1.00  0.00    -0.000 C 
BRANCH  14  15
ATOM     15  C   UNL     1     117.567 124.422 130.809  1.00  0.00    -0.000 C 
BRANCH  15  16
ATOM     16  C   UNL     1     117.365 125.872 130.340  1.00  0.00    -0.000 C 
BRANCH  16  17
ATOM     17  C   UNL     1     117.257 126.861 131.510  1.00  0.00    -0.003 C 
ATOM     18  C   UNL     1     117.816 128.228 131.125  1.00  0.00     0.004 C 
ENDBRANCH  16  17
ENDBRANCH  15  16
ENDBRANCH  14  15
ENDBRANCH  13  14
ENDBRANCH  12  13
ENDBRANCH  11  12
ENDBRANCH   1  11
TORSDOF 14
ENDMDL
