MODEL 1
REMARK VINA RESULT:    -5.887      0.000      0.000
REMARK INTER + INTRA:          -6.059
REMARK INTER:                  -6.059
REMARK INTRA:                   0.000
REMARK UNBOUND:                 0.000
REMARK SMILES Nc1ncnc2nc[nH]c12
REMARK SMILES IDX 8 1 7 2 6 3 5 4 4 5 3 6 2 7 10 8 9 9 1 11
REMARK H PARENT 9 10 1 12 1 13
REMARK Flexibility Score: inf
ROOT
ATOM      1  C   UNL     1     -14.044 -15.474 -37.869  1.00  0.00     0.199 A 
ATOM      2  N   UNL     1     -13.411 -14.353 -37.428  1.00  0.00    -0.217 NA
ATOM      3  C   UNL     1     -12.280 -14.361 -38.153  1.00  0.00     0.182 A 
ATOM      4  N   UNL     1     -11.280 -13.448 -38.101  1.00  0.00    -0.215 NA
ATOM      5  C   UNL     1     -10.201 -13.625 -38.922  1.00  0.00     0.226 A 
ATOM      6  N   UNL     1     -10.142 -14.701 -39.771  1.00  0.00    -0.217 NA
ATOM      7  C   UNL     1     -11.149 -15.623 -39.825  1.00  0.00     0.152 A 
ATOM      8  C   UNL     1     -12.240 -15.429 -38.983  1.00  0.00     0.127 A 
ATOM      9  N   UNL     1     -13.355 -16.153 -38.820  1.00  0.00    -0.340 N 
ATOM     10  H   UNL     1     -13.637 -17.033 -39.304  1.00  0.00     0.168 HD
ENDROOT
BRANCH   7  11
ATOM     11  N   UNL     1     -11.065 -16.735 -40.717  1.00  0.00    -0.382 N 
ATOM     12  H   UNL     1     -10.410 -17.522 -40.512  1.00  0.00     0.158 HD
ATOM     13  H   UNL     1     -11.649 -16.784 -41.580  1.00  0.00     0.158 HD
ENDBRANCH   7  11
TORSDOF 1
ENDMDL
MODEL 2
REMARK VINA RESULT:    -5.697      1.317      2.977
REMARK INTER + INTRA:          -5.863
REMARK INTER:                  -5.863
REMARK INTRA:                   0.000
REMARK UNBOUND:                 0.000
REMARK SMILES Nc1ncnc2nc[nH]c12
REMARK SMILES IDX 8 1 7 2 6 3 5 4 4 5 3 6 2 7 10 8 9 9 1 11
REMARK H PARENT 9 10 1 12 1 13
REMARK Flexibility Score: inf
ROOT
ATOM      1  C   UNL     1     -11.234 -17.345 -40.037  1.00  0.00     0.199 A 
ATOM      2  N   UNL     1     -10.568 -16.183 -40.278  1.00  0.00    -0.217 NA
ATOM      3  C   UNL     1     -11.034 -15.380 -39.307  1.00  0.00     0.182 A 
ATOM      4  N   UNL     1     -10.688 -14.088 -39.090  1.00  0.00    -0.215 NA
ATOM      5  C   UNL     1     -11.274 -13.430 -38.046  1.00  0.00     0.226 A 
ATOM      6  N   UNL     1     -12.186 -14.068 -37.244  1.00  0.00    -0.217 NA
ATOM      7  C   UNL     1     -12.537 -15.371 -37.460  1.00  0.00     0.152 A 
ATOM      8  C   UNL     1     -11.932 -16.027 -38.528  1.00  0.00     0.127 A 
ATOM      9  N   UNL     1     -12.076 -17.282 -38.974  1.00  0.00    -0.340 N 
ATOM     10  H   UNL     1     -12.687 -18.041 -38.601  1.00  0.00     0.168 HD
ENDROOT
BRANCH   7  11
ATOM     11  N   UNL     1     -13.488 -16.015 -36.613  1.00  0.00    -0.382 N 
ATOM     12  H   UNL     1     -14.137 -16.733 -37.004  1.00  0.00     0.158 HD
ATOM     13  H   UNL     1     -13.554 -15.784 -35.596  1.00  0.00     0.158 HD
ENDBRANCH   7  11
TORSDOF 1
ENDMDL
MODEL 3
REMARK VINA RESULT:    -5.502      1.992      3.687
REMARK INTER + INTRA:          -5.663
REMARK INTER:                  -5.663
REMARK INTRA:                   0.000
REMARK UNBOUND:                 0.000
REMARK SMILES Nc1ncnc2nc[nH]c12
REMARK SMILES IDX 8 1 7 2 6 3 5 4 4 5 3 6 2 7 10 8 9 9 1 11
REMARK H PARENT 9 10 1 12 1 13
REMARK Flexibility Score: inf
ROOT
ATOM      1  C   UNL     1     -11.108 -19.439 -40.037  1.00  0.00     0.199 A 
ATOM      2  N   UNL     1     -10.234 -18.641 -40.708  1.00  0.00    -0.217 NA
ATOM      3  C   UNL     1     -10.606 -17.413 -40.310  1.00  0.00     0.182 A 
ATOM      4  N   UNL     1     -10.050 -16.236 -40.688  1.00  0.00    -0.215 NA
ATOM      5  C   UNL     1     -10.570 -15.082 -40.172  1.00  0.00     0.226 A 
ATOM      6  N   UNL     1     -11.624 -15.123 -39.296  1.00  0.00    -0.217 NA
ATOM      7  C   UNL     1     -12.187 -16.308 -38.912  1.00  0.00     0.152 A 
ATOM      8  C   UNL     1     -11.647 -17.475 -39.446  1.00  0.00     0.127 A 
ATOM      9  N   UNL     1     -11.984 -18.757 -39.257  1.00  0.00    -0.340 N 
ATOM     10  H   UNL     1     -12.740 -19.151 -38.655  1.00  0.00     0.168 HD
ENDROOT
BRANCH   7  11
ATOM     11  N   UNL     1     -13.283 -16.326 -37.999  1.00  0.00    -0.382 N 
ATOM     12  H   UNL     1     -13.606 -17.229 -37.585  1.00  0.00     0.158 HD
ATOM     13  H   UNL     1     -13.779 -15.448 -37.728  1.00  0.00     0.158 HD
ENDBRANCH   7  11
TORSDOF 1
ENDMDL
MODEL 4
REMARK VINA RESULT:    -5.309      0.967      2.952
REMARK INTER + INTRA:          -5.464
REMARK INTER:                  -5.464
REMARK INTRA:                   0.000
REMARK UNBOUND:                 0.000
REMARK SMILES Nc1ncnc2nc[nH]c12
REMARK SMILES IDX 8 1 7 2 6 3 5 4 4 5 3 6 2 7 10 8 9 9 1 11
REMARK H PARENT 9 10 1 12 1 13
REMARK Flexibility Score: inf
ROOT
ATOM      1  C   UNL     1     -10.155 -13.683 -38.887  1.00  0.00     0.199 A 
ATOM      2  N   UNL     1     -11.085 -13.057 -38.115  1.00  0.00    -0.217 NA
ATOM      3  C   UNL     1     -12.017 -14.012 -37.961  1.00  0.00     0.182 A 
ATOM      4  N   UNL     1     -13.175 -13.907 -37.265  1.00  0.00    -0.215 NA
ATOM      5  C   UNL     1     -14.002 -14.995 -37.222  1.00  0.00     0.226 A 
ATOM      6  N   UNL     1     -13.661 -16.156 -37.868  1.00  0.00    -0.217 NA
ATOM      7  C   UNL     1     -12.494 -16.264 -38.571  1.00  0.00     0.152 A 
ATOM      8  C   UNL     1     -11.662 -15.148 -38.605  1.00  0.00     0.127 A 
ATOM      9  N   UNL     1     -10.478 -14.963 -39.203  1.00  0.00    -0.340 N 
ATOM     10  H   UNL     1      -9.925 -15.635 -39.778  1.00  0.00     0.168 HD
ENDROOT
BRANCH   7  11
ATOM     11  N   UNL     1     -12.160 -17.483 -39.235  1.00  0.00    -0.382 N 
ATOM     12  H   UNL     1     -12.888 -18.001 -39.775  1.00  0.00     0.158 HD
ATOM     13  H   UNL     1     -11.194 -17.876 -39.196  1.00  0.00     0.158 HD
ENDBRANCH   7  11
TORSDOF 1
ENDMDL
MODEL 5
REMARK VINA RESULT:    -5.303      1.553      3.343
REMARK INTER + INTRA:          -5.458
REMARK INTER:                  -5.458
REMARK INTRA:                   0.000
REMARK UNBOUND:                 0.000
REMARK SMILES Nc1ncnc2nc[nH]c12
REMARK SMILES IDX 8 1 7 2 6 3 5 4 4 5 3 6 2 7 10 8 9 9 1 11
REMARK H PARENT 9 10 1 12 1 13
REMARK Flexibility Score: inf
ROOT
ATOM      1  C   UNL     1     -11.194 -15.856 -40.024  1.00  0.00     0.199 A 
ATOM      2  N   UNL     1     -10.692 -15.623 -38.781  1.00  0.00    -0.217 NA
ATOM      3  C   UNL     1     -11.807 -15.481 -38.045  1.00  0.00     0.182 A 
ATOM      4  N   UNL     1     -11.873 -15.230 -36.716  1.00  0.00    -0.215 NA
ATOM      5  C   UNL     1     -13.108 -15.118 -36.140  1.00  0.00     0.226 A 
ATOM      6  N   UNL     1     -14.244 -15.259 -36.896  1.00  0.00    -0.217 NA
ATOM      7  C   UNL     1     -14.181 -15.512 -38.238  1.00  0.00     0.152 A 
ATOM      8  C   UNL     1     -12.916 -15.623 -38.809  1.00  0.00     0.127 A 
ATOM      9  N   UNL     1     -12.550 -15.862 -40.075  1.00  0.00    -0.340 N 
ATOM     10  H   UNL     1     -13.154 -16.019 -40.910  1.00  0.00     0.168 HD
ENDROOT
BRANCH   7  11
ATOM     11  N   UNL     1     -15.376 -15.654 -39.004  1.00  0.00    -0.382 N 
ATOM     12  H   UNL     1     -16.238 -16.044 -38.562  1.00  0.00     0.158 HD
ATOM     13  H   UNL     1     -15.414 -15.374 -40.009  1.00  0.00     0.158 HD
ENDBRANCH   7  11
TORSDOF 1
ENDMDL
MODEL 6
REMARK VINA RESULT:    -5.218      6.126      8.283
REMARK INTER + INTRA:          -5.370
REMARK INTER:                  -5.370
REMARK INTRA:                   0.000
REMARK UNBOUND:                 0.000
REMARK SMILES Nc1ncnc2nc[nH]c12
REMARK SMILES IDX 8 1 7 2 6 3 5 4 4 5 3 6 2 7 10 8 9 9 1 11
REMARK H PARENT 9 10 1 12 1 13
REMARK Flexibility Score: inf
ROOT
ATOM      1  C   UNL     1     -15.308 -14.619 -34.365  1.00  0.00     0.199 A 
ATOM      2  N   UNL     1     -15.797 -13.867 -33.341  1.00  0.00    -0.217 NA
ATOM      3  C   UNL     1     -16.536 -14.759 -32.660  1.00  0.00     0.182 A 
ATOM      4  N   UNL     1     -17.251 -14.525 -31.533  1.00  0.00    -0.215 NA
ATOM      5  C   UNL     1     -17.944 -15.566 -30.982  1.00  0.00     0.226 A 
ATOM      6  N   UNL     1     -17.910 -16.810 -31.560  1.00  0.00    -0.217 NA
ATOM      7  C   UNL     1     -17.190 -17.049 -32.696  1.00  0.00     0.152 A 
ATOM      8  C   UNL     1     -16.490 -15.979 -33.246  1.00  0.00     0.127 A 
ATOM      9  N   UNL     1     -15.712 -15.914 -34.335  1.00  0.00    -0.340 N 
ATOM     10  H   UNL     1     -15.468 -16.672 -35.008  1.00  0.00     0.168 HD
ENDROOT
BRANCH   7  11
ATOM     11  N   UNL     1     -17.170 -18.351 -33.280  1.00  0.00    -0.382 N 
ATOM     12  H   UNL     1     -16.796 -19.162 -32.738  1.00  0.00     0.158 HD
ATOM     13  H   UNL     1     -17.524 -18.519 -34.247  1.00  0.00     0.158 HD
ENDBRANCH   7  11
TORSDOF 1
ENDMDL
MODEL 7
REMARK VINA RESULT:    -5.218      0.850      3.567
REMARK INTER + INTRA:          -5.370
REMARK INTER:                  -5.370
REMARK INTRA:                   0.000
REMARK UNBOUND:                 0.000
REMARK SMILES Nc1ncnc2nc[nH]c12
REMARK SMILES IDX 8 1 7 2 6 3 5 4 4 5 3 6 2 7 10 8 9 9 1 11
REMARK H PARENT 9 10 1 12 1 13
REMARK Flexibility Score: inf
ROOT
ATOM      1  C   UNL     1     -10.578 -15.974 -40.376  1.00  0.00     0.199 A 
ATOM      2  N   UNL     1     -11.629 -16.738 -39.971  1.00  0.00    -0.217 NA
ATOM      3  C   UNL     1     -12.199 -15.964 -39.033  1.00  0.00     0.182 A 
ATOM      4  N   UNL     1     -13.301 -16.259 -38.302  1.00  0.00    -0.215 NA
ATOM      5  C   UNL     1     -13.734 -15.339 -37.388  1.00  0.00     0.226 A 
ATOM      6  N   UNL     1     -13.066 -14.153 -37.224  1.00  0.00    -0.217 NA
ATOM      7  C   UNL     1     -11.954 -13.853 -37.960  1.00  0.00     0.152 A 
ATOM      8  C   UNL     1     -11.525 -14.800 -38.885  1.00  0.00     0.127 A 
ATOM      9  N   UNL     1     -10.487 -14.783 -39.732  1.00  0.00    -0.340 N 
ATOM     10  H   UNL     1      -9.772 -14.037 -39.872  1.00  0.00     0.168 HD
ENDROOT
BRANCH   7  11
ATOM     11  N   UNL     1     -11.275 -12.612 -37.771  1.00  0.00    -0.382 N 
ATOM     12  H   UNL     1     -11.806 -11.714 -37.802  1.00  0.00     0.158 HD
ATOM     13  H   UNL     1     -10.245 -12.576 -37.599  1.00  0.00     0.158 HD
ENDBRANCH   7  11
TORSDOF 1
ENDMDL
MODEL 8
REMARK VINA RESULT:    -5.217      6.879      9.353
REMARK INTER + INTRA:          -5.369
REMARK INTER:                  -5.369
REMARK INTRA:                   0.000
REMARK UNBOUND:                 0.000
REMARK SMILES Nc1ncnc2nc[nH]c12
REMARK SMILES IDX 8 1 7 2 6 3 5 4 4 5 3 6 2 7 10 8 9 9 1 11
REMARK H PARENT 9 10 1 12 1 13
REMARK Flexibility Score: inf
ROOT
ATOM      1  C   UNL     1     -15.362 -14.367 -33.636  1.00  0.00     0.199 A 
ATOM      2  N   UNL     1     -16.063 -15.523 -33.792  1.00  0.00    -0.217 NA
ATOM      3  C   UNL     1     -16.766 -15.587 -32.648  1.00  0.00     0.182 A 
ATOM      4  N   UNL     1     -17.639 -16.559 -32.288  1.00  0.00    -0.215 NA
ATOM      5  C   UNL     1     -18.262 -16.450 -31.077  1.00  0.00     0.226 A 
ATOM      6  N   UNL     1     -18.005 -15.382 -30.255  1.00  0.00    -0.217 NA
ATOM      7  C   UNL     1     -17.125 -14.400 -30.615  1.00  0.00     0.152 A 
ATOM      8  C   UNL     1     -16.498 -14.526 -31.852  1.00  0.00     0.127 A 
ATOM      9  N   UNL     1     -15.605 -13.734 -32.460  1.00  0.00    -0.340 N 
ATOM     10  H   UNL     1     -15.188 -12.840 -32.121  1.00  0.00     0.168 HD
ENDROOT
BRANCH   7  11
ATOM     11  N   UNL     1     -16.873 -13.299 -29.743  1.00  0.00    -0.382 N 
ATOM     12  H   UNL     1     -15.893 -13.049 -29.485  1.00  0.00     0.158 HD
ATOM     13  H   UNL     1     -17.653 -12.726 -29.351  1.00  0.00     0.158 HD
ENDBRANCH   7  11
TORSDOF 1
ENDMDL
MODEL 9
REMARK VINA RESULT:    -5.188      2.114      3.089
REMARK INTER + INTRA:          -5.340
REMARK INTER:                  -5.340
REMARK INTRA:                   0.000
REMARK UNBOUND:                 0.000
REMARK SMILES Nc1ncnc2nc[nH]c12
REMARK SMILES IDX 8 1 7 2 6 3 5 4 4 5 3 6 2 7 10 8 9 9 1 11
REMARK H PARENT 9 10 1 12 1 13
REMARK Flexibility Score: inf
ROOT
ATOM      1  C   UNL     1     -14.574 -14.919 -35.157  1.00  0.00     0.199 A 
ATOM      2  N   UNL     1     -14.969 -14.846 -36.457  1.00  0.00    -0.217 NA
ATOM      3  C   UNL     1     -13.828 -15.108 -37.117  1.00  0.00     0.182 A 
ATOM      4  N   UNL     1     -13.665 -15.160 -38.461  1.00  0.00    -0.215 NA
ATOM      5  C   UNL     1     -12.420 -15.443 -38.949  1.00  0.00     0.226 A 
ATOM      6  N   UNL     1     -11.371 -15.667 -38.093  1.00  0.00    -0.217 NA
ATOM      7  C   UNL     1     -11.533 -15.616 -36.737  1.00  0.00     0.152 A 
ATOM      8  C   UNL     1     -12.806 -15.326 -36.256  1.00  0.00     0.127 A 
ATOM      9  N   UNL     1     -13.258 -15.211 -35.001  1.00  0.00    -0.340 N 
ATOM     10  H   UNL     1     -12.732 -15.318 -34.106  1.00  0.00     0.168 HD
ENDROOT
BRANCH   7  11
ATOM     11  N   UNL     1     -10.427 -15.853 -35.867  1.00  0.00    -0.382 N 
ATOM     12  H   UNL     1     -10.405 -16.709 -35.270  1.00  0.00     0.158 HD
ATOM     13  H   UNL     1      -9.626 -15.185 -35.811  1.00  0.00     0.158 HD
ENDBRANCH   7  11
TORSDOF 1
ENDMDL
