MODEL 1
REMARK VINA RESULT:    -3.415      0.000      0.000
REMARK INTER + INTRA:          -5.489
REMARK INTER:                  -5.011
REMARK INTRA:                  -0.477
REMARK UNBOUND:                -0.477
REMARK SMILES C=C1C=C[C@@H](C(C)C)CCC(C)=CCC1
REMARK SMILES IDX 3 1 4 2 5 3 9 4 10 5 11 6 12 7 13 8 6 10 7 11 8 12 2 13 1 14
REMARK SMILES IDX 15 15 14 16
REMARK H PARENT
REMARK Flexibility Score: 70.00
ROOT
ATOM      1  C   UNL     1      29.867  28.087  12.447  1.00  0.00    -0.001 C 
ATOM      2  C   UNL     1      31.018  28.323  11.790  1.00  0.00    -0.023 C 
ENDROOT
BRANCH   2   3
ATOM      3  C   UNL     1      31.279  28.134  10.300  1.00  0.00     0.014 C 
BRANCH   3   4
ATOM      4  C   UNL     1      32.064  26.809  10.040  1.00  0.00     0.012 C 
BRANCH   4   5
ATOM      5  C   UNL     1      32.090  25.772  11.189  1.00  0.00     0.031 C 
BRANCH   5   6
ATOM      6  C   UNL     1      31.284  24.492  10.986  1.00  0.00    -0.077 C 
ATOM      7  C   UNL     1      31.884  23.373  10.171  1.00  0.00     0.039 C 
ATOM      8  C   UNL     1      30.089  24.254  11.575  1.00  0.00    -0.028 CG0
ATOM      9  G   UNL     1      29.329  25.223  12.440  1.00  0.00     0.000 G0
ENDBRANCH   5   6
ENDBRANCH   4   5
ENDBRANCH   3   4
BRANCH   3  10
ATOM     10  C   UNL     1      31.973  29.418   9.727  1.00  0.00    -0.010 C 
ATOM     11  C   UNL     1      31.897  29.550   8.194  1.00  0.00     0.008 C 
ATOM     12  C   UNL     1      31.488  30.711  10.393  1.00  0.00     0.008 C 
ENDBRANCH   3  10
ENDBRANCH   2   3
BRANCH   1  13
ATOM     13  C   UNL     1      28.598  27.572  11.877  1.00  0.00    -0.055 C 
ATOM     14  C   UNL     1      27.708  28.456  11.414  1.00  0.00     0.012 C 
BRANCH  13  15
ATOM     15  C   UNL     1      28.354  26.099  11.650  1.00  0.00     0.039 C 
BRANCH  15  16
ATOM     16  C   UNL     1      29.325  25.209  12.457  1.00  0.00     0.032 CG0
ATOM     17  G   UNL     1      30.066  24.253  11.561  1.00  0.00     0.000 G0
ENDBRANCH  15  16
ENDBRANCH  13  15
ENDBRANCH   1  13
TORSDOF 1
ENDMDL
MODEL 2
REMARK VINA RESULT:    -3.237      1.852      3.851
REMARK INTER + INTRA:          -5.228
REMARK INTER:                  -4.963
REMARK INTRA:                  -0.265
REMARK UNBOUND:                -0.477
REMARK SMILES C=C1C=C[C@@H](C(C)C)CCC(C)=CCC1
REMARK SMILES IDX 3 1 4 2 5 3 9 4 10 5 11 6 12 7 13 8 6 10 7 11 8 12 2 13 1 14
REMARK SMILES IDX 15 15 14 16
REMARK H PARENT
REMARK Flexibility Score: 70.00
ROOT
ATOM      1  C   UNL     1      31.323  25.785  10.973  1.00  0.00    -0.001 C 
ATOM      2  C   UNL     1      30.140  26.415  10.853  1.00  0.00    -0.023 C 
ENDROOT
BRANCH   2   3
ATOM      3  C   UNL     1      29.133  26.697  11.961  1.00  0.00     0.014 C 
BRANCH   3   4
ATOM      4  C   UNL     1      27.869  25.794  11.802  1.00  0.00     0.012 C 
BRANCH   4   5
ATOM      5  C   UNL     1      28.105  24.268  11.702  1.00  0.00     0.031 C 
BRANCH   5   6
ATOM      6  C   UNL     1      28.607  23.560  12.957  1.00  0.00    -0.077 C 
ATOM      7  C   UNL     1      27.687  23.450  14.149  1.00  0.00     0.039 C 
ATOM      8  C   UNL     1      29.803  22.934  13.042  1.00  0.00    -0.028 CG0
ATOM      9  G   UNL     1      30.856  22.905  11.966  1.00  0.00     0.000 G0
ENDBRANCH   5   6
ENDBRANCH   4   5
ENDBRANCH   3   4
BRANCH   3  10
ATOM     10  C   UNL     1      28.826  28.235  12.006  1.00  0.00    -0.010 C 
ATOM     11  C   UNL     1      29.918  29.119  11.374  1.00  0.00     0.008 C 
ATOM     12  C   UNL     1      27.455  28.591  11.422  1.00  0.00     0.008 C 
ENDBRANCH   3  10
ENDBRANCH   2   3
BRANCH   1  13
ATOM     13  C   UNL     1      31.908  25.204  12.207  1.00  0.00    -0.055 C 
ATOM     14  C   UNL     1      32.116  26.013  13.251  1.00  0.00     0.012 C 
BRANCH  13  15
ATOM     15  C   UNL     1      32.114  23.718  12.381  1.00  0.00     0.039 C 
BRANCH  15  16
ATOM     16  C   UNL     1      30.872  22.897  11.965  1.00  0.00     0.032 CG0
ATOM     17  G   UNL     1      29.816  22.917  13.038  1.00  0.00     0.000 G0
ENDBRANCH  15  16
ENDBRANCH  13  15
ENDBRANCH   1  13
TORSDOF 1
ENDMDL
MODEL 3
REMARK VINA RESULT:    -2.739      1.827      3.645
REMARK INTER + INTRA:          -4.498
REMARK INTER:                  -4.447
REMARK INTRA:                  -0.051
REMARK UNBOUND:                -0.477
REMARK SMILES C=C1C=C[C@@H](C(C)C)CCC(C)=CCC1
REMARK SMILES IDX 3 1 4 2 5 3 9 4 10 5 11 6 12 7 13 8 6 10 7 11 8 12 2 13 1 14
REMARK SMILES IDX 15 15 14 16
REMARK H PARENT
REMARK Flexibility Score: 70.00
ROOT
ATOM      1  C   UNL     1      31.452  24.595  11.014  1.00  0.00    -0.001 C 
ATOM      2  C   UNL     1      30.789  25.660  10.528  1.00  0.00    -0.023 C 
ENDROOT
BRANCH   2   3
ATOM      3  C   UNL     1      30.128  26.774  11.331  1.00  0.00     0.014 C 
BRANCH   3   4
ATOM      4  C   UNL     1      28.642  26.417  11.654  1.00  0.00     0.012 C 
BRANCH   4   5
ATOM      5  C   UNL     1      28.394  25.457  12.843  1.00  0.00     0.031 C 
BRANCH   5   6
ATOM      6  C   UNL     1      28.039  24.012  12.505  1.00  0.00    -0.077 C 
ATOM      7  C   UNL     1      26.884  23.745  11.571  1.00  0.00     0.039 C 
ATOM      8  C   UNL     1      28.759  22.943  12.916  1.00  0.00    -0.028 CG0
ATOM      9  G   UNL     1      29.955  22.990  13.829  1.00  0.00     0.000 G0
ENDBRANCH   5   6
ENDBRANCH   4   5
ENDBRANCH   3   4
BRANCH   3  10
ATOM     10  C   UNL     1      30.314  28.138  10.579  1.00  0.00    -0.010 C 
ATOM     11  C   UNL     1      29.979  29.381  11.426  1.00  0.00     0.008 C 
ATOM     12  C   UNL     1      31.701  28.290   9.945  1.00  0.00     0.008 C 
ENDBRANCH   3  10
ENDBRANCH   2   3
BRANCH   1  13
ATOM     13  C   UNL     1      31.675  24.251  12.441  1.00  0.00    -0.055 C 
ATOM     14  C   UNL     1      32.096  25.215  13.265  1.00  0.00     0.012 C 
BRANCH  13  15
ATOM     15  C   UNL     1      31.284  22.912  13.019  1.00  0.00     0.039 C 
BRANCH  15  16
ATOM     16  C   UNL     1      29.959  22.976  13.811  1.00  0.00     0.032 CG0
ATOM     17  G   UNL     1      28.767  22.953  12.892  1.00  0.00     0.000 G0
ENDBRANCH  15  16
ENDBRANCH  13  15
ENDBRANCH   1  13
TORSDOF 1
ENDMDL
MODEL 4
REMARK VINA RESULT:    -2.214      2.093      5.354
REMARK INTER + INTRA:          -3.727
REMARK INTER:                  -3.334
REMARK INTRA:                  -0.393
REMARK UNBOUND:                -0.477
REMARK SMILES C=C1C=C[C@@H](C(C)C)CCC(C)=CCC1
REMARK SMILES IDX 3 1 4 2 5 3 9 4 10 5 11 6 12 7 13 8 6 10 7 11 8 12 2 13 1 14
REMARK SMILES IDX 15 15 14 16
REMARK H PARENT
REMARK Flexibility Score: 70.00
ROOT
ATOM      1  C   UNL     1      30.496  23.348  13.956  1.00  0.00    -0.001 C 
ATOM      2  C   UNL     1      29.558  24.284  13.721  1.00  0.00    -0.023 C 
ENDROOT
BRANCH   2   3
ATOM      3  C   UNL     1      28.758  24.479  12.438  1.00  0.00     0.014 C 
BRANCH   3   4
ATOM      4  C   UNL     1      28.990  25.909  11.854  1.00  0.00     0.012 C 
BRANCH   4   5
ATOM      5  C   UNL     1      29.876  26.015  10.589  1.00  0.00     0.031 C 
BRANCH   5   6
ATOM      6  C   UNL     1      31.387  25.984  10.796  1.00  0.00    -0.077 C 
ATOM      7  C   UNL     1      32.125  27.288  10.976  1.00  0.00     0.039 C 
ATOM      8  C   UNL     1      32.107  24.846  10.926  1.00  0.00    -0.028 CG0
ATOM      9  G   UNL     1      31.565  23.447  10.803  1.00  0.00     0.000 G0
ENDBRANCH   5   6
ENDBRANCH   4   5
ENDBRANCH   3   4
BRANCH   3  10
ATOM     10  C   UNL     1      27.253  24.128  12.705  1.00  0.00    -0.010 C 
ATOM     11  C   UNL     1      26.515  23.535  11.490  1.00  0.00     0.008 C 
ATOM     12  C   UNL     1      27.054  23.231  13.932  1.00  0.00     0.008 C 
ENDBRANCH   3  10
ENDBRANCH   2   3
BRANCH   1  13
ATOM     13  C   UNL     1      30.980  22.307  13.016  1.00  0.00    -0.055 C 
ATOM     14  C   UNL     1      30.317  21.148  12.960  1.00  0.00     0.012 C 
BRANCH  13  15
ATOM     15  C   UNL     1      32.078  22.572  12.013  1.00  0.00     0.039 C 
BRANCH  15  16
ATOM     16  C   UNL     1      31.591  23.419  10.816  1.00  0.00     0.032 CG0
ATOM     17  G   UNL     1      32.086  24.838  10.908  1.00  0.00     0.000 G0
ENDBRANCH  15  16
ENDBRANCH  13  15
ENDBRANCH   1  13
TORSDOF 1
ENDMDL
MODEL 5
REMARK VINA RESULT:    -2.031      1.796      4.315
REMARK INTER + INTRA:          -3.459
REMARK INTER:                  -5.274
REMARK INTRA:                   1.815
REMARK UNBOUND:                -0.477
REMARK SMILES C=C1C=C[C@@H](C(C)C)CCC(C)=CCC1
REMARK SMILES IDX 3 1 4 2 5 3 9 4 10 5 11 6 12 7 13 8 6 10 7 11 8 12 2 13 1 14
REMARK SMILES IDX 15 15 14 16
REMARK H PARENT
REMARK Flexibility Score: 70.00
ROOT
ATOM      1  C   UNL     1      28.339  27.697  11.312  1.00  0.00    -0.001 C 
ATOM      2  C   UNL     1      28.093  26.477  11.823  1.00  0.00    -0.023 C 
ENDROOT
BRANCH   2   3
ATOM      3  C   UNL     1      29.026  25.640  12.691  1.00  0.00     0.014 C 
BRANCH   3   4
ATOM      4  C   UNL     1      30.513  26.067  12.476  1.00  0.00     0.012 C 
BRANCH   4   5
ATOM      5  C   UNL     1      31.448  25.035  11.800  1.00  0.00     0.031 C 
BRANCH   5   6
ATOM      6  C   UNL     1      31.928  25.357  10.387  1.00  0.00    -0.077 C 
ATOM      7  C   UNL     1      32.125  24.225   9.409  1.00  0.00     0.039 C 
ATOM      8  C   UNL     1      32.100  26.614   9.918  1.00  0.00    -0.028 CG0
ATOM      9  G   UNL     1      31.937  27.879  10.718  1.00  0.00     0.000 G0
ENDBRANCH   5   6
ENDBRANCH   4   5
ENDBRANCH   3   4
BRANCH   3  10
ATOM     10  C   UNL     1      28.748  24.118  12.435  1.00  0.00    -0.010 C 
ATOM     11  C   UNL     1      29.045  23.207  13.641  1.00  0.00     0.008 C 
ATOM     12  C   UNL     1      27.337  23.846  11.904  1.00  0.00     0.008 C 
ENDBRANCH   3  10
ENDBRANCH   2   3
BRANCH   1  13
ATOM     13  C   UNL     1      29.579  28.498  11.460  1.00  0.00    -0.055 C 
ATOM     14  C   UNL     1      29.864  29.007  12.663  1.00  0.00     0.012 C 
BRANCH  13  15
ATOM     15  C   UNL     1      30.602  28.613  10.355  1.00  0.00     0.039 C 
BRANCH  15  16
ATOM     16  C   UNL     1      31.932  27.909  10.707  1.00  0.00     0.032 CG0
ATOM     17  G   UNL     1      32.089  26.620   9.944  1.00  0.00     0.000 G0
ENDBRANCH  15  16
ENDBRANCH  13  15
ENDBRANCH   1  13
TORSDOF 1
ENDMDL
MODEL 6
REMARK VINA RESULT:    -1.759      1.896      5.588
REMARK INTER + INTRA:          -3.058
REMARK INTER:                  -2.690
REMARK INTRA:                  -0.368
REMARK UNBOUND:                -0.477
REMARK SMILES C=C1C=C[C@@H](C(C)C)CCC(C)=CCC1
REMARK SMILES IDX 3 1 4 2 5 3 9 4 10 5 11 6 12 7 13 8 6 10 7 11 8 12 2 13 1 14
REMARK SMILES IDX 15 15 14 16
REMARK H PARENT
REMARK Flexibility Score: 70.00
ROOT
ATOM      1  C   UNL     1      30.910  23.117  12.682  1.00  0.00    -0.001 C 
ATOM      2  C   UNL     1      29.626  23.355  13.004  1.00  0.00    -0.023 C 
ENDROOT
BRANCH   2   3
ATOM      3  C   UNL     1      28.598  24.120  12.179  1.00  0.00     0.014 C 
BRANCH   3   4
ATOM      4  C   UNL     1      28.527  25.614  12.630  1.00  0.00     0.012 C 
BRANCH   4   5
ATOM      5  C   UNL     1      28.510  26.684  11.512  1.00  0.00     0.031 C 
BRANCH   5   6
ATOM      6  C   UNL     1      29.734  27.588  11.399  1.00  0.00    -0.077 C 
ATOM      7  C   UNL     1      29.658  28.991  11.948  1.00  0.00     0.039 C 
ATOM      8  C   UNL     1      30.931  27.179  10.917  1.00  0.00    -0.028 CG0
ATOM      9  G   UNL     1      31.226  25.819  10.343  1.00  0.00     0.000 G0
ENDBRANCH   5   6
ENDBRANCH   4   5
ENDBRANCH   3   4
BRANCH   3  10
ATOM     10  C   UNL     1      27.224  23.365  12.229  1.00  0.00    -0.010 C 
ATOM     11  C   UNL     1      26.541  23.381  13.609  1.00  0.00     0.008 C 
ATOM     12  C   UNL     1      26.242  23.832  11.149  1.00  0.00     0.008 C 
ENDBRANCH   3  10
ENDBRANCH   2   3
BRANCH   1  13
ATOM     13  C   UNL     1      31.625  23.562  11.459  1.00  0.00    -0.055 C 
ATOM     14  C   UNL     1      31.691  22.719  10.423  1.00  0.00     0.012 C 
BRANCH  13  15
ATOM     15  C   UNL     1      32.124  24.976  11.286  1.00  0.00     0.039 C 
BRANCH  15  16
ATOM     16  C   UNL     1      31.227  25.808  10.341  1.00  0.00     0.032 CG0
ATOM     17  G   UNL     1      30.936  27.168  10.916  1.00  0.00     0.000 G0
ENDBRANCH  15  16
ENDBRANCH  13  15
ENDBRANCH   1  13
TORSDOF 1
ENDMDL
MODEL 7
REMARK VINA RESULT:    -1.619      1.911      3.098
REMARK INTER + INTRA:          -2.854
REMARK INTER:                  -4.951
REMARK INTRA:                   2.097
REMARK UNBOUND:                -0.477
REMARK SMILES C=C1C=C[C@@H](C(C)C)CCC(C)=CCC1
REMARK SMILES IDX 3 1 4 2 5 3 9 4 10 5 11 6 12 7 13 8 6 10 7 11 8 12 2 13 1 14
REMARK SMILES IDX 15 15 14 16
REMARK H PARENT
REMARK Flexibility Score: 70.00
ROOT
ATOM      1  C   UNL     1      28.156  25.829  12.250  1.00  0.00    -0.001 C 
ATOM      2  C   UNL     1      29.124  26.394  11.506  1.00  0.00    -0.023 C 
ENDROOT
BRANCH   2   3
ATOM      3  C   UNL     1      30.105  25.683  10.581  1.00  0.00     0.014 C 
BRANCH   3   4
ATOM      4  C   UNL     1      30.005  24.134  10.755  1.00  0.00     0.012 C 
BRANCH   4   5
ATOM      5  C   UNL     1      31.278  23.399  11.242  1.00  0.00     0.031 C 
BRANCH   5   6
ATOM      6  C   UNL     1      31.081  22.254  12.231  1.00  0.00    -0.077 C 
ATOM      7  C   UNL     1      31.744  20.927  11.952  1.00  0.00     0.039 C 
ATOM      8  C   UNL     1      30.420  22.377  13.405  1.00  0.00    -0.028 CG0
ATOM      9  G   UNL     1      29.707  23.613  13.885  1.00  0.00     0.000 G0
ENDBRANCH   5   6
ENDBRANCH   4   5
ENDBRANCH   3   4
BRANCH   3  10
ATOM     10  C   UNL     1      31.544  26.266  10.802  1.00  0.00    -0.010 C 
ATOM     11  C   UNL     1      31.871  27.496   9.935  1.00  0.00     0.008 C 
ATOM     12  C   UNL     1      31.854  26.561  12.274  1.00  0.00     0.008 C 
ENDBRANCH   3  10
ENDBRANCH   2   3
BRANCH   1  13
ATOM     13  C   UNL     1      27.834  24.384  12.355  1.00  0.00    -0.055 C 
ATOM     14  C   UNL     1      27.351  23.763  11.274  1.00  0.00     0.012 C 
BRANCH  13  15
ATOM     15  C   UNL     1      28.188  23.564  13.573  1.00  0.00     0.039 C 
BRANCH  15  16
ATOM     16  C   UNL     1      29.697  23.616  13.901  1.00  0.00     0.032 CG0
ATOM     17  G   UNL     1      30.410  22.388  13.403  1.00  0.00     0.000 G0
ENDBRANCH  15  16
ENDBRANCH  13  15
ENDBRANCH   1  13
TORSDOF 1
ENDMDL
MODEL 8
REMARK VINA RESULT:    -1.337      1.722      2.766
REMARK INTER + INTRA:          -2.440
REMARK INTER:                  -4.591
REMARK INTRA:                   2.151
REMARK UNBOUND:                -0.477
REMARK SMILES C=C1C=C[C@@H](C(C)C)CCC(C)=CCC1
REMARK SMILES IDX 3 1 4 2 5 3 9 4 10 5 11 6 12 7 13 8 6 10 7 11 8 12 2 13 1 14
REMARK SMILES IDX 15 15 14 16
REMARK H PARENT
REMARK Flexibility Score: 70.00
ROOT
ATOM      1  C   UNL     1      28.739  26.043  11.945  1.00  0.00    -0.001 C 
ATOM      2  C   UNL     1      29.838  26.818  11.892  1.00  0.00    -0.023 C 
ENDROOT
BRANCH   2   3
ATOM      3  C   UNL     1      31.271  26.363  11.638  1.00  0.00     0.014 C 
BRANCH   3   4
ATOM      4  C   UNL     1      31.918  25.814  12.950  1.00  0.00     0.012 C 
BRANCH   4   5
ATOM      5  C   UNL     1      31.200  24.632  13.645  1.00  0.00     0.031 C 
BRANCH   5   6
ATOM      6  C   UNL     1      31.483  23.234  13.103  1.00  0.00    -0.077 C 
ATOM      7  C   UNL     1      31.912  22.153  14.064  1.00  0.00     0.039 C 
ATOM      8  C   UNL     1      31.281  22.870  11.816  1.00  0.00    -0.028 CG0
ATOM      9  G   UNL     1      30.836  23.784  10.705  1.00  0.00     0.000 G0
ENDBRANCH   5   6
ENDBRANCH   4   5
ENDBRANCH   3   4
BRANCH   3  10
ATOM     10  C   UNL     1      32.074  27.528  10.961  1.00  0.00    -0.010 C 
ATOM     11  C   UNL     1      31.865  27.641   9.439  1.00  0.00     0.008 C 
ATOM     12  C   UNL     1      31.838  28.887  11.628  1.00  0.00     0.008 C 
ENDBRANCH   3  10
ENDBRANCH   2   3
BRANCH   1  13
ATOM     13  C   UNL     1      28.673  24.569  11.788  1.00  0.00    -0.055 C 
ATOM     14  C   UNL     1      27.918  23.874  12.646  1.00  0.00     0.012 C 
BRANCH  13  15
ATOM     15  C   UNL     1      29.285  23.854  10.607  1.00  0.00     0.039 C 
BRANCH  15  16
ATOM     16  C   UNL     1      30.825  23.773  10.699  1.00  0.00     0.032 CG0
ATOM     17  G   UNL     1      31.261  22.863  11.816  1.00  0.00     0.000 G0
ENDBRANCH  15  16
ENDBRANCH  13  15
ENDBRANCH   1  13
TORSDOF 1
ENDMDL
MODEL 9
REMARK VINA RESULT:    -1.337      2.279      4.626
REMARK INTER + INTRA:          -2.440
REMARK INTER:                  -3.353
REMARK INTRA:                   0.914
REMARK UNBOUND:                -0.477
REMARK SMILES C=C1C=C[C@@H](C(C)C)CCC(C)=CCC1
REMARK SMILES IDX 3 1 4 2 5 3 9 4 10 5 11 6 12 7 13 8 6 10 7 11 8 12 2 13 1 14
REMARK SMILES IDX 15 15 14 16
REMARK H PARENT
REMARK Flexibility Score: 70.00
ROOT
ATOM      1  C   UNL     1      31.310  23.690  10.061  1.00  0.00    -0.001 C 
ATOM      2  C   UNL     1      30.793  24.912  10.284  1.00  0.00    -0.023 C 
ENDROOT
BRANCH   2   3
ATOM      3  C   UNL     1      30.365  25.498  11.624  1.00  0.00     0.014 C 
BRANCH   3   4
ATOM      4  C   UNL     1      28.894  25.093  11.961  1.00  0.00     0.012 C 
BRANCH   4   5
ATOM      5  C   UNL     1      28.624  23.594  12.234  1.00  0.00     0.031 C 
BRANCH   5   6
ATOM      6  C   UNL     1      28.730  23.123  13.681  1.00  0.00    -0.077 C 
ATOM      7  C   UNL     1      27.622  23.474  14.644  1.00  0.00     0.039 C 
ATOM      8  C   UNL     1      29.716  22.321  14.143  1.00  0.00    -0.028 CG0
ATOM      9  G   UNL     1      30.899  21.839  13.347  1.00  0.00     0.000 G0
ENDBRANCH   5   6
ENDBRANCH   4   5
ENDBRANCH   3   4
BRANCH   3  10
ATOM     10  C   UNL     1      30.624  27.045  11.622  1.00  0.00    -0.010 C 
ATOM     11  C   UNL     1      29.580  27.865  12.402  1.00  0.00     0.008 C 
ATOM     12  C   UNL     1      32.038  27.418  12.081  1.00  0.00     0.008 C 
ENDBRANCH   3  10
ENDBRANCH   2   3
BRANCH   1  13
ATOM     13  C   UNL     1      31.563  22.627  11.066  1.00  0.00    -0.055 C 
ATOM     14  C   UNL     1      31.918  21.415  10.629  1.00  0.00     0.012 C 
BRANCH  13  15
ATOM     15  C   UNL     1      31.597  22.910  12.549  1.00  0.00     0.039 C 
BRANCH  15  16
ATOM     16  C   UNL     1      30.911  21.800  13.377  1.00  0.00     0.032 CG0
ATOM     17  G   UNL     1      29.715  22.331  14.121  1.00  0.00     0.000 G0
ENDBRANCH  15  16
ENDBRANCH  13  15
ENDBRANCH   1  13
TORSDOF 1
ENDMDL
