MODEL 1
REMARK VINA RESULT:    -4.673      0.000      0.000
REMARK INTER + INTRA:          -4.809
REMARK INTER:                  -4.809
REMARK INTRA:                   0.000
REMARK UNBOUND:                 0.000
REMARK SMILES O=c1ccc2ccc(O)cc2o1
REMARK SMILES IDX 6 1 7 2 8 3 10 4 11 5 5 6 4 7 3 8 2 9 1 10 12 11 9 12
REMARK H PARENT 9 13
REMARK Flexibility Score: inf
ROOT
ATOM      1  C   UNL     1      34.863 -32.871   9.888  1.00  0.00     0.016 A 
ATOM      2  C   UNL     1      35.642 -33.125   8.753  1.00  0.00     0.047 A 
ATOM      3  C   UNL     1      36.411 -32.103   8.180  1.00  0.00     0.119 A 
ATOM      4  C   UNL     1      36.402 -30.821   8.743  1.00  0.00     0.094 A 
ATOM      5  C   UNL     1      35.627 -30.557   9.878  1.00  0.00     0.142 A 
ATOM      6  C   UNL     1      34.852 -31.588  10.454  1.00  0.00     0.018 A 
ATOM      7  C   UNL     1      34.088 -31.295  11.588  1.00  0.00     0.019 A 
ATOM      8  C   UNL     1      34.111 -30.003  12.113  1.00  0.00     0.094 A 
ATOM      9  C   UNL     1      34.902 -29.031  11.489  1.00  0.00     0.336 A 
ATOM     10  O   UNL     1      34.936 -27.860  11.948  1.00  0.00    -0.246 OA
ATOM     11  O   UNL     1      35.620 -29.338  10.411  1.00  0.00    -0.423 OA
ENDROOT
BRANCH   3  12
ATOM     12  O   UNL     1      37.188 -32.349   7.050  1.00  0.00    -0.508 OA
ATOM     13  H   UNL     1      38.051 -32.878   7.105  1.00  0.00     0.293 HD
ENDBRANCH   3  12
TORSDOF 1
ENDMDL
MODEL 2
REMARK VINA RESULT:    -4.604      0.800      4.220
REMARK INTER + INTRA:          -4.739
REMARK INTER:                  -4.739
REMARK INTRA:                   0.000
REMARK UNBOUND:                 0.000
REMARK SMILES O=c1ccc2ccc(O)cc2o1
REMARK SMILES IDX 6 1 7 2 8 3 10 4 11 5 5 6 4 7 3 8 2 9 1 10 12 11 9 12
REMARK H PARENT 9 13
REMARK Flexibility Score: inf
ROOT
ATOM      1  C   UNL     1      34.088 -31.435  11.528  1.00  0.00     0.016 A 
ATOM      2  C   UNL     1      34.095 -30.166  12.117  1.00  0.00     0.047 A 
ATOM      3  C   UNL     1      34.873 -29.136  11.569  1.00  0.00     0.119 A 
ATOM      4  C   UNL     1      35.649 -29.377  10.428  1.00  0.00     0.094 A 
ATOM      5  C   UNL     1      35.648 -30.643   9.833  1.00  0.00     0.142 A 
ATOM      6  C   UNL     1      34.864 -31.679  10.386  1.00  0.00     0.018 A 
ATOM      7  C   UNL     1      34.883 -32.933   9.769  1.00  0.00     0.019 A 
ATOM      8  C   UNL     1      35.672 -33.125   8.634  1.00  0.00     0.094 A 
ATOM      9  C   UNL     1      36.424 -32.053   8.142  1.00  0.00     0.336 A 
ATOM     10  O   UNL     1      37.141 -32.206   7.119  1.00  0.00    -0.246 OA
ATOM     11  O   UNL     1      36.386 -30.869   8.748  1.00  0.00    -0.423 OA
ENDROOT
BRANCH   3  12
ATOM     12  O   UNL     1      34.885 -27.870  12.151  1.00  0.00    -0.508 OA
ATOM     13  H   UNL     1      35.737 -27.464  12.519  1.00  0.00     0.293 HD
ENDBRANCH   3  12
TORSDOF 1
ENDMDL
MODEL 3
REMARK VINA RESULT:    -4.296      1.803      4.185
REMARK INTER + INTRA:          -4.421
REMARK INTER:                  -4.421
REMARK INTRA:                   0.000
REMARK UNBOUND:                 0.000
REMARK SMILES O=c1ccc2ccc(O)cc2o1
REMARK SMILES IDX 6 1 7 2 8 3 10 4 11 5 5 6 4 7 3 8 2 9 1 10 12 11 9 12
REMARK H PARENT 9 13
REMARK Flexibility Score: inf
ROOT
ATOM      1  C   UNL     1      34.022 -30.928   9.887  1.00  0.00     0.016 A 
ATOM      2  C   UNL     1      33.390 -29.913  10.614  1.00  0.00     0.047 A 
ATOM      3  C   UNL     1      34.143 -29.042  11.416  1.00  0.00     0.119 A 
ATOM      4  C   UNL     1      35.533 -29.188  11.491  1.00  0.00     0.094 A 
ATOM      5  C   UNL     1      36.174 -30.200  10.768  1.00  0.00     0.142 A 
ATOM      6  C   UNL     1      35.415 -31.076   9.961  1.00  0.00     0.018 A 
ATOM      7  C   UNL     1      36.083 -32.078   9.250  1.00  0.00     0.019 A 
ATOM      8  C   UNL     1      37.470 -32.183   9.357  1.00  0.00     0.094 A 
ATOM      9  C   UNL     1      38.157 -31.281  10.176  1.00  0.00     0.336 A 
ATOM     10  O   UNL     1      39.408 -31.360  10.285  1.00  0.00    -0.246 OA
ATOM     11  O   UNL     1      37.496 -30.336  10.841  1.00  0.00    -0.423 OA
ENDROOT
BRANCH   3  12
ATOM     12  O   UNL     1      33.520 -28.030  12.142  1.00  0.00    -0.508 OA
ATOM     13  H   UNL     1      33.838 -27.769  13.068  1.00  0.00     0.293 HD
ENDBRANCH   3  12
TORSDOF 1
ENDMDL
MODEL 4
REMARK VINA RESULT:    -4.231      1.473      2.138
REMARK INTER + INTRA:          -4.355
REMARK INTER:                  -4.355
REMARK INTRA:                   0.000
REMARK UNBOUND:                 0.000
REMARK SMILES O=c1ccc2ccc(O)cc2o1
REMARK SMILES IDX 6 1 7 2 8 3 10 4 11 5 5 6 4 7 3 8 2 9 1 10 12 11 9 12
REMARK H PARENT 9 13
REMARK Flexibility Score: inf
ROOT
ATOM      1  C   UNL     1      37.193 -30.828   9.852  1.00  0.00     0.016 A 
ATOM      2  C   UNL     1      36.745 -31.870   9.030  1.00  0.00     0.047 A 
ATOM      3  C   UNL     1      35.372 -32.089   8.850  1.00  0.00     0.119 A 
ATOM      4  C   UNL     1      34.442 -31.264   9.495  1.00  0.00     0.094 A 
ATOM      5  C   UNL     1      34.880 -30.220  10.318  1.00  0.00     0.142 A 
ATOM      6  C   UNL     1      36.264 -30.001  10.498  1.00  0.00     0.018 A 
ATOM      7  C   UNL     1      36.671 -28.951  11.326  1.00  0.00     0.019 A 
ATOM      8  C   UNL     1      35.707 -28.156  11.947  1.00  0.00     0.094 A 
ATOM      9  C   UNL     1      34.354 -28.432  11.723  1.00  0.00     0.336 A 
ATOM     10  O   UNL     1      33.470 -27.726  12.273  1.00  0.00    -0.246 OA
ATOM     11  O   UNL     1      33.994 -29.437  10.929  1.00  0.00    -0.423 OA
ENDROOT
BRANCH   3  12
ATOM     12  O   UNL     1      34.920 -33.124   8.035  1.00  0.00    -0.508 OA
ATOM     13  H   UNL     1      34.222 -32.967   7.317  1.00  0.00     0.293 HD
ENDBRANCH   3  12
TORSDOF 1
ENDMDL
MODEL 5
REMARK VINA RESULT:    -3.806      1.927      2.107
REMARK INTER + INTRA:          -3.918
REMARK INTER:                  -3.918
REMARK INTRA:                   0.000
REMARK UNBOUND:                 0.000
REMARK SMILES O=c1ccc2ccc(O)cc2o1
REMARK SMILES IDX 6 1 7 2 8 3 10 4 11 5 5 6 4 7 3 8 2 9 1 10 12 11 9 12
REMARK H PARENT 9 13
REMARK Flexibility Score: inf
ROOT
ATOM      1  C   UNL     1      36.380 -32.270   9.478  1.00  0.00     0.016 A 
ATOM      2  C   UNL     1      37.776 -32.332   9.564  1.00  0.00     0.047 A 
ATOM      3  C   UNL     1      38.488 -31.335  10.246  1.00  0.00     0.119 A 
ATOM      4  C   UNL     1      37.802 -30.271  10.845  1.00  0.00     0.094 A 
ATOM      5  C   UNL     1      36.407 -30.201  10.765  1.00  0.00     0.142 A 
ATOM      6  C   UNL     1      35.691 -31.206  10.077  1.00  0.00     0.018 A 
ATOM      7  C   UNL     1      34.298 -31.108  10.014  1.00  0.00     0.019 A 
ATOM      8  C   UNL     1      33.659 -30.029  10.627  1.00  0.00     0.094 A 
ATOM      9  C   UNL     1      34.433 -29.071  11.290  1.00  0.00     0.336 A 
ATOM     10  O   UNL     1      33.876 -28.091  11.848  1.00  0.00    -0.246 OA
ATOM     11  O   UNL     1      35.758 -29.188  11.335  1.00  0.00    -0.423 OA
ENDROOT
BRANCH   3  12
ATOM     12  O   UNL     1      39.877 -31.391  10.334  1.00  0.00    -0.508 OA
ATOM     13  H   UNL     1      40.468 -30.769   9.794  1.00  0.00     0.293 HD
ENDBRANCH   3  12
TORSDOF 1
ENDMDL
MODEL 6
REMARK VINA RESULT:    -3.641      1.758      2.648
REMARK INTER + INTRA:          -3.747
REMARK INTER:                  -3.747
REMARK INTRA:                   0.000
REMARK UNBOUND:                 0.000
REMARK SMILES O=c1ccc2ccc(O)cc2o1
REMARK SMILES IDX 6 1 7 2 8 3 10 4 11 5 5 6 4 7 3 8 2 9 1 10 12 11 9 12
REMARK H PARENT 9 13
REMARK Flexibility Score: inf
ROOT
ATOM      1  C   UNL     1      36.000 -29.622   9.803  1.00  0.00     0.016 A 
ATOM      2  C   UNL     1      36.018 -30.822   9.082  1.00  0.00     0.047 A 
ATOM      3  C   UNL     1      35.282 -31.928   9.530  1.00  0.00     0.119 A 
ATOM      4  C   UNL     1      34.524 -31.834  10.705  1.00  0.00     0.094 A 
ATOM      5  C   UNL     1      34.500 -30.639  11.432  1.00  0.00     0.142 A 
ATOM      6  C   UNL     1      35.242 -29.526  10.979  1.00  0.00     0.018 A 
ATOM      7  C   UNL     1      35.199 -28.345  11.726  1.00  0.00     0.019 A 
ATOM      8  C   UNL     1      34.430 -28.300  12.889  1.00  0.00     0.094 A 
ATOM      9  C   UNL     1      33.721 -29.442  13.278  1.00  0.00     0.336 A 
ATOM     10  O   UNL     1      33.021 -29.421  14.324  1.00  0.00    -0.246 OA
ATOM     11  O   UNL     1      33.779 -30.552  12.547  1.00  0.00    -0.423 OA
ENDROOT
BRANCH   3  12
ATOM     12  O   UNL     1      35.296 -33.125   8.818  1.00  0.00    -0.508 OA
ATOM     13  H   UNL     1      34.790 -33.941   9.143  1.00  0.00     0.293 HD
ENDBRANCH   3  12
TORSDOF 1
ENDMDL
MODEL 7
REMARK VINA RESULT:    -3.632     19.651     21.386
REMARK INTER + INTRA:          -3.738
REMARK INTER:                  -3.738
REMARK INTRA:                   0.000
REMARK UNBOUND:                 0.000
REMARK SMILES O=c1ccc2ccc(O)cc2o1
REMARK SMILES IDX 6 1 7 2 8 3 10 4 11 5 5 6 4 7 3 8 2 9 1 10 12 11 9 12
REMARK H PARENT 9 13
REMARK Flexibility Score: inf
ROOT
ATOM      1  C   UNL     1      22.856 -13.454   7.061  1.00  0.00     0.016 A 
ATOM      2  C   UNL     1      23.625 -14.150   8.000  1.00  0.00     0.047 A 
ATOM      3  C   UNL     1      23.614 -15.552   8.026  1.00  0.00     0.119 A 
ATOM      4  C   UNL     1      22.829 -16.261   7.108  1.00  0.00     0.094 A 
ATOM      5  C   UNL     1      22.057 -15.574   6.165  1.00  0.00     0.142 A 
ATOM      6  C   UNL     1      22.069 -14.162   6.141  1.00  0.00     0.018 A 
ATOM      7  C   UNL     1      21.288 -13.503   5.187  1.00  0.00     0.019 A 
ATOM      8  C   UNL     1      20.522 -14.254   4.294  1.00  0.00     0.094 A 
ATOM      9  C   UNL     1      20.558 -15.650   4.377  1.00  0.00     0.336 A 
ATOM     10  O   UNL     1      19.875 -16.344   3.580  1.00  0.00    -0.246 OA
ATOM     11  O   UNL     1      21.312 -16.251   5.294  1.00  0.00    -0.423 OA
ENDROOT
BRANCH   3  12
ATOM     12  O   UNL     1      24.377 -16.250   8.959  1.00  0.00    -0.508 OA
ATOM     13  H   UNL     1      24.988 -15.770   9.609  1.00  0.00     0.293 HD
ENDBRANCH   3  12
TORSDOF 1
ENDMDL
