MODEL 1
REMARK VINA RESULT:    -3.176      0.000      0.000
REMARK INTER + INTRA:          -4.027
REMARK INTER:                  -3.826
REMARK INTRA:                  -0.201
REMARK UNBOUND:                -0.201
REMARK SMILES OCC(O)CO
REMARK SMILES IDX 3 1 5 2 6 3 2 5 1 6 4 8
REMARK H PARENT 6 4 1 7 4 9
REMARK Flexibility Score: inf
ROOT
ATOM      1  C   UNL     1     177.265 158.861 164.702  1.00  0.00     0.165 C 
ENDROOT
BRANCH   1   2
ATOM      2  C   UNL     1     175.927 159.320 164.106  1.00  0.00     0.190 C 
BRANCH   2   3
ATOM      3  O   UNL     1     175.249 158.235 163.534  1.00  0.00    -0.394 OA
ATOM      4  H   UNL     1     175.259 158.389 162.554  1.00  0.00     0.210 HD
ENDBRANCH   2   3
ENDBRANCH   1   2
BRANCH   1   5
ATOM      5  C   UNL     1     177.078 158.306 166.121  1.00  0.00     0.190 C 
BRANCH   5   6
ATOM      6  O   UNL     1     175.773 158.550 166.572  1.00  0.00    -0.394 OA
ATOM      7  H   UNL     1     175.211 158.682 165.765  1.00  0.00     0.210 HD
ENDBRANCH   5   6
ENDBRANCH   1   5
BRANCH   1   8
ATOM      8  O   UNL     1     177.843 157.876 163.886  1.00  0.00    -0.388 OA
ATOM      9  H   UNL     1     177.614 156.998 164.290  1.00  0.00     0.211 HD
ENDBRANCH   1   8
TORSDOF 5
ENDMDL
MODEL 2
REMARK VINA RESULT:    -3.026      0.568      2.524
REMARK INTER + INTRA:          -3.846
REMARK INTER:                  -3.827
REMARK INTRA:                  -0.019
REMARK UNBOUND:                -0.201
REMARK SMILES OCC(O)CO
REMARK SMILES IDX 3 1 5 2 6 3 2 5 1 6 4 8
REMARK H PARENT 6 4 1 7 4 9
REMARK Flexibility Score: inf
ROOT
ATOM      1  C   UNL     1     176.674 158.014 164.912  1.00  0.00     0.165 C 
ENDROOT
BRANCH   1   2
ATOM      2  C   UNL     1     176.957 158.347 166.384  1.00  0.00     0.190 C 
BRANCH   2   3
ATOM      3  O   UNL     1     175.838 158.951 166.972  1.00  0.00    -0.394 OA
ATOM      4  H   UNL     1     176.002 159.929 166.938  1.00  0.00     0.210 HD
ENDBRANCH   2   3
ENDBRANCH   1   2
BRANCH   1   5
ATOM      5  C   UNL     1     175.820 159.105 164.251  1.00  0.00     0.190 C 
BRANCH   5   6
ATOM      6  O   UNL     1     174.966 158.541 163.292  1.00  0.00    -0.394 OA
ATOM      7  H   UNL     1     175.533 158.288 162.518  1.00  0.00     0.210 HD
ENDBRANCH   5   6
ENDBRANCH   1   5
BRANCH   1   8
ATOM      8  O   UNL     1     177.882 157.875 164.211  1.00  0.00    -0.388 OA
ATOM      9  H   UNL     1     178.613 158.059 164.858  1.00  0.00     0.211 HD
ENDBRANCH   1   8
TORSDOF 5
ENDMDL
MODEL 3
REMARK VINA RESULT:    -2.994      1.783      3.140
REMARK INTER + INTRA:          -3.808
REMARK INTER:                  -3.806
REMARK INTRA:                  -0.002
REMARK UNBOUND:                -0.201
REMARK SMILES OCC(O)CO
REMARK SMILES IDX 3 1 5 2 6 3 2 5 1 6 4 8
REMARK H PARENT 6 4 1 7 4 9
REMARK Flexibility Score: inf
ROOT
ATOM      1  C   UNL     1     175.806 159.335 163.898  1.00  0.00     0.165 C 
ENDROOT
BRANCH   1   2
ATOM      2  C   UNL     1     177.305 159.270 163.575  1.00  0.00     0.190 C 
BRANCH   2   3
ATOM      3  O   UNL     1     177.840 158.040 163.979  1.00  0.00    -0.394 OA
ATOM      4  H   UNL     1     177.698 157.986 164.960  1.00  0.00     0.210 HD
ENDBRANCH   2   3
ENDBRANCH   1   2
BRANCH   1   5
ATOM      5  C   UNL     1     175.143 160.538 163.211  1.00  0.00     0.190 C 
BRANCH   5   6
ATOM      6  O   UNL     1     174.041 160.120 162.451  1.00  0.00    -0.394 OA
ATOM      7  H   UNL     1     174.259 160.313 161.502  1.00  0.00     0.210 HD
ENDBRANCH   5   6
ENDBRANCH   1   5
BRANCH   1   8
ATOM      8  O   UNL     1     175.173 158.153 163.483  1.00  0.00    -0.388 OA
ATOM      9  H   UNL     1     174.323 158.088 163.992  1.00  0.00     0.211 HD
ENDBRANCH   1   8
TORSDOF 5
ENDMDL
MODEL 4
REMARK VINA RESULT:    -2.929      0.983      2.659
REMARK INTER + INTRA:          -3.729
REMARK INTER:                  -3.505
REMARK INTRA:                  -0.224
REMARK UNBOUND:                -0.201
REMARK SMILES OCC(O)CO
REMARK SMILES IDX 3 1 5 2 6 3 2 5 1 6 4 8
REMARK H PARENT 6 4 1 7 4 9
REMARK Flexibility Score: inf
ROOT
ATOM      1  C   UNL     1     175.939 159.281 164.183  1.00  0.00     0.165 C 
ENDROOT
BRANCH   1   2
ATOM      2  C   UNL     1     175.784 159.111 165.701  1.00  0.00     0.190 C 
BRANCH   2   3
ATOM      3  O   UNL     1     176.991 159.399 166.351  1.00  0.00    -0.394 OA
ATOM      4  H   UNL     1     176.794 159.373 167.323  1.00  0.00     0.210 HD
ENDBRANCH   2   3
ENDBRANCH   1   2
BRANCH   1   5
ATOM      5  C   UNL     1     177.412 159.180 163.762  1.00  0.00     0.190 C 
BRANCH   5   6
ATOM      6  O   UNL     1     177.907 157.895 164.024  1.00  0.00    -0.394 OA
ATOM      7  H   UNL     1     178.828 158.009 164.377  1.00  0.00     0.210 HD
ENDBRANCH   5   6
ENDBRANCH   1   5
BRANCH   1   8
ATOM      8  O   UNL     1     175.191 158.302 163.511  1.00  0.00    -0.388 OA
ATOM      9  H   UNL     1     174.600 157.878 164.187  1.00  0.00     0.211 HD
ENDBRANCH   1   8
TORSDOF 5
ENDMDL
MODEL 5
REMARK VINA RESULT:    -2.919      1.467      2.289
REMARK INTER + INTRA:          -3.718
REMARK INTER:                  -3.495
REMARK INTRA:                  -0.223
REMARK UNBOUND:                -0.201
REMARK SMILES OCC(O)CO
REMARK SMILES IDX 3 1 5 2 6 3 2 5 1 6 4 8
REMARK H PARENT 6 4 1 7 4 9
REMARK Flexibility Score: inf
ROOT
ATOM      1  C   UNL     1     177.376 158.197 164.747  1.00  0.00     0.165 C 
ENDROOT
BRANCH   1   2
ATOM      2  C   UNL     1     175.858 158.419 164.783  1.00  0.00     0.190 C 
BRANCH   2   3
ATOM      3  O   UNL     1     175.308 158.253 163.505  1.00  0.00    -0.394 OA
ATOM      4  H   UNL     1     176.049 158.411 162.864  1.00  0.00     0.210 HD
ENDBRANCH   2   3
ENDBRANCH   1   2
BRANCH   1   5
ATOM      5  C   UNL     1     178.107 159.446 164.232  1.00  0.00     0.190 C 
BRANCH   5   6
ATOM      6  O   UNL     1     177.843 159.638 162.868  1.00  0.00    -0.394 OA
ATOM      7  H   UNL     1     178.562 159.170 162.369  1.00  0.00     0.210 HD
ENDBRANCH   5   6
ENDBRANCH   1   5
BRANCH   1   8
ATOM      8  O   UNL     1     177.846 157.875 166.029  1.00  0.00    -0.388 OA
ATOM      9  H   UNL     1     177.635 158.649 166.615  1.00  0.00     0.211 HD
ENDBRANCH   1   8
TORSDOF 5
ENDMDL
MODEL 6
REMARK VINA RESULT:    -2.902      1.557      2.084
REMARK INTER + INTRA:          -3.697
REMARK INTER:                  -3.476
REMARK INTRA:                  -0.221
REMARK UNBOUND:                -0.201
REMARK SMILES OCC(O)CO
REMARK SMILES IDX 3 1 5 2 6 3 2 5 1 6 4 8
REMARK H PARENT 6 4 1 7 4 9
REMARK Flexibility Score: inf
ROOT
ATOM      1  C   UNL     1     177.310 159.024 164.323  1.00  0.00     0.165 C 
ENDROOT
BRANCH   1   2
ATOM      2  C   UNL     1     177.348 159.827 163.016  1.00  0.00     0.190 C 
BRANCH   2   3
ATOM      3  O   UNL     1     176.472 160.918 163.086  1.00  0.00    -0.394 OA
ATOM      4  H   UNL     1     177.041 161.721 163.211  1.00  0.00     0.210 HD
ENDBRANCH   2   3
ENDBRANCH   1   2
BRANCH   1   5
ATOM      5  C   UNL     1     175.874 158.616 164.682  1.00  0.00     0.190 C 
BRANCH   5   6
ATOM      6  O   UNL     1     175.163 158.266 163.525  1.00  0.00    -0.394 OA
ATOM      7  H   UNL     1     175.824 158.223 162.785  1.00  0.00     0.210 HD
ENDBRANCH   5   6
ENDBRANCH   1   5
BRANCH   1   8
ATOM      8  O   UNL     1     178.108 157.875 164.205  1.00  0.00    -0.388 OA
ATOM      9  H   UNL     1     177.499 157.126 163.972  1.00  0.00     0.211 HD
ENDBRANCH   1   8
TORSDOF 5
ENDMDL
MODEL 7
REMARK VINA RESULT:    -2.898      1.665      2.842
REMARK INTER + INTRA:          -3.693
REMARK INTER:                  -3.481
REMARK INTRA:                  -0.212
REMARK UNBOUND:                -0.201
REMARK SMILES OCC(O)CO
REMARK SMILES IDX 3 1 5 2 6 3 2 5 1 6 4 8
REMARK H PARENT 6 4 1 7 4 9
REMARK Flexibility Score: inf
ROOT
ATOM      1  C   UNL     1     177.087 159.749 163.153  1.00  0.00     0.165 C 
ENDROOT
BRANCH   1   2
ATOM      2  C   UNL     1     178.005 159.271 164.287  1.00  0.00     0.190 C 
BRANCH   2   3
ATOM      3  O   UNL     1     178.121 157.875 164.267  1.00  0.00    -0.394 OA
ATOM      4  H   UNL     1     178.734 157.660 163.517  1.00  0.00     0.210 HD
ENDBRANCH   2   3
ENDBRANCH   1   2
BRANCH   1   5
ATOM      5  C   UNL     1     175.609 159.629 163.550  1.00  0.00     0.190 C 
BRANCH   5   6
ATOM      6  O   UNL     1     175.197 158.290 163.499  1.00  0.00    -0.394 OA
ATOM      7  H   UNL     1     175.986 157.738 163.739  1.00  0.00     0.210 HD
ENDBRANCH   5   6
ENDBRANCH   1   5
BRANCH   1   8
ATOM      8  O   UNL     1     177.378 161.083 162.828  1.00  0.00    -0.388 OA
ATOM      9  H   UNL     1     178.156 161.351 163.385  1.00  0.00     0.211 HD
ENDBRANCH   1   8
TORSDOF 5
ENDMDL
MODEL 8
REMARK VINA RESULT:    -2.832      1.696      2.213
REMARK INTER + INTRA:          -3.613
REMARK INTER:                  -3.401
REMARK INTRA:                  -0.213
REMARK UNBOUND:                -0.201
REMARK SMILES OCC(O)CO
REMARK SMILES IDX 3 1 5 2 6 3 2 5 1 6 4 8
REMARK H PARENT 6 4 1 7 4 9
REMARK Flexibility Score: inf
ROOT
ATOM      1  C   UNL     1     176.714 160.165 163.702  1.00  0.00     0.165 C 
ENDROOT
BRANCH   1   2
ATOM      2  C   UNL     1     175.420 159.485 164.173  1.00  0.00     0.190 C 
BRANCH   2   3
ATOM      3  O   UNL     1     175.170 158.333 163.417  1.00  0.00    -0.394 OA
ATOM      4  H   UNL     1     174.232 158.409 163.100  1.00  0.00     0.210 HD
ENDBRANCH   2   3
ENDBRANCH   1   2
BRANCH   1   5
ATOM      5  C   UNL     1     177.951 159.457 164.274  1.00  0.00     0.190 C 
BRANCH   5   6
ATOM      6  O   UNL     1     177.925 158.093 163.952  1.00  0.00    -0.394 OA
ATOM      7  H   UNL     1     178.763 157.698 164.308  1.00  0.00     0.210 HD
ENDBRANCH   5   6
ENDBRANCH   1   5
BRANCH   1   8
ATOM      8  O   UNL     1     176.778 160.159 162.300  1.00  0.00    -0.388 OA
ATOM      9  H   UNL     1     176.100 160.811 161.979  1.00  0.00     0.211 HD
ENDBRANCH   1   8
TORSDOF 5
ENDMDL
MODEL 9
REMARK VINA RESULT:    -2.824     19.643     21.091
REMARK INTER + INTRA:          -3.604
REMARK INTER:                  -3.384
REMARK INTRA:                  -0.219
REMARK UNBOUND:                -0.201
REMARK SMILES OCC(O)CO
REMARK SMILES IDX 3 1 5 2 6 3 2 5 1 6 4 8
REMARK H PARENT 6 4 1 7 4 9
REMARK Flexibility Score: inf
ROOT
ATOM      1  C   UNL     1     158.821 163.227 153.789  1.00  0.00     0.165 C 
ENDROOT
BRANCH   1   2
ATOM      2  C   UNL     1     160.343 163.290 153.981  1.00  0.00     0.190 C 
BRANCH   2   3
ATOM      3  O   UNL     1     160.817 162.091 154.529  1.00  0.00    -0.394 OA
ATOM      4  H   UNL     1     160.588 161.380 153.877  1.00  0.00     0.210 HD
ENDBRANCH   2   3
ENDBRANCH   1   2
BRANCH   1   5
ATOM      5  C   UNL     1     158.456 162.523 152.475  1.00  0.00     0.190 C 
BRANCH   5   6
ATOM      6  O   UNL     1     159.094 161.276 152.396  1.00  0.00    -0.394 OA
ATOM      7  H   UNL     1     158.887 160.905 151.500  1.00  0.00     0.210 HD
ENDBRANCH   5   6
ENDBRANCH   1   5
BRANCH   1   8
ATOM      8  O   UNL     1     158.229 162.547 154.865  1.00  0.00    -0.388 OA
ATOM      9  H   UNL     1     157.426 163.070 155.128  1.00  0.00     0.211 HD
ENDBRANCH   1   8
TORSDOF 5
ENDMDL
