MODEL 1
REMARK VINA RESULT:    -3.373      0.000      0.000
REMARK INTER + INTRA:          -4.007
REMARK INTER:                  -3.964
REMARK INTRA:                  -0.042
REMARK UNBOUND:                -0.042
REMARK SMILES CCCCC(=O)[O-]
REMARK SMILES IDX 4 1 5 2 6 3 7 4 3 5 2 6 1 7
REMARK H PARENT
REMARK Flexibility Score: inf
ROOT
ATOM      1  C   UNL     1     -30.749  14.773  14.918  1.00  0.00     0.053 C 
ENDROOT
BRANCH   1   2
ATOM      2  C   UNL     1     -29.385  14.279  14.545  1.00  0.00     0.041 C 
ATOM      3  O   UNL     1     -29.247  13.166  13.973  1.00  0.00    -0.550 OA
ATOM      4  O   UNL     1     -28.264  15.036  14.859  1.00  0.00    -0.550 OA
ENDBRANCH   1   2
BRANCH   1   5
ATOM      5  C   UNL     1     -31.733  14.686  13.740  1.00  0.00     0.006 C 
BRANCH   5   6
ATOM      6  C   UNL     1     -33.005  13.874  14.039  1.00  0.00    -0.003 C 
ATOM      7  C   UNL     1     -34.089  14.058  12.978  1.00  0.00     0.004 C 
ENDBRANCH   5   6
ENDBRANCH   1   5
TORSDOF 3
ENDMDL
MODEL 2
REMARK VINA RESULT:    -3.335      1.438      2.048
REMARK INTER + INTRA:          -3.963
REMARK INTER:                  -3.890
REMARK INTRA:                  -0.073
REMARK UNBOUND:                -0.042
REMARK SMILES CCCCC(=O)[O-]
REMARK SMILES IDX 4 1 5 2 6 3 7 4 3 5 2 6 1 7
REMARK H PARENT
REMARK Flexibility Score: inf
ROOT
ATOM      1  C   UNL     1     -31.946  14.734  13.738  1.00  0.00     0.053 C 
ENDROOT
BRANCH   1   2
ATOM      2  C   UNL     1     -30.723  14.112  13.136  1.00  0.00     0.041 C 
ATOM      3  O   UNL     1     -30.798  13.499  12.039  1.00  0.00    -0.550 OA
ATOM      4  O   UNL     1     -29.508  14.184  13.804  1.00  0.00    -0.550 OA
ENDBRANCH   1   2
BRANCH   1   5
ATOM      5  C   UNL     1     -33.234  14.037  13.270  1.00  0.00     0.006 C 
BRANCH   5   6
ATOM      6  C   UNL     1     -33.781  12.994  14.260  1.00  0.00    -0.003 C 
ATOM      7  C   UNL     1     -33.244  13.182  15.678  1.00  0.00     0.004 C 
ENDBRANCH   5   6
ENDBRANCH   1   5
TORSDOF 3
ENDMDL
MODEL 3
REMARK VINA RESULT:    -3.276      1.786      2.003
REMARK INTER + INTRA:          -3.893
REMARK INTER:                  -3.790
REMARK INTRA:                  -0.103
REMARK UNBOUND:                -0.042
REMARK SMILES CCCCC(=O)[O-]
REMARK SMILES IDX 4 1 5 2 6 3 7 4 3 5 2 6 1 7
REMARK H PARENT
REMARK Flexibility Score: inf
ROOT
ATOM      1  C   UNL     1     -30.887  13.103  14.413  1.00  0.00     0.053 C 
ENDROOT
BRANCH   1   2
ATOM      2  C   UNL     1     -30.265  12.865  13.071  1.00  0.00     0.041 C 
ATOM      3  O   UNL     1     -29.283  12.086  12.956  1.00  0.00    -0.550 OA
ATOM      4  O   UNL     1     -30.752  13.529  11.953  1.00  0.00    -0.550 OA
ENDBRANCH   1   2
BRANCH   1   5
ATOM      5  C   UNL     1     -31.972  14.190  14.359  1.00  0.00     0.006 C 
BRANCH   5   6
ATOM      6  C   UNL     1     -33.409  13.643  14.294  1.00  0.00    -0.003 C 
ATOM      7  C   UNL     1     -34.125  14.009  12.995  1.00  0.00     0.004 C 
ENDBRANCH   5   6
ENDBRANCH   1   5
TORSDOF 3
ENDMDL
MODEL 4
REMARK VINA RESULT:    -3.242      1.400      1.646
REMARK INTER + INTRA:          -3.853
REMARK INTER:                  -3.812
REMARK INTRA:                  -0.041
REMARK UNBOUND:                -0.042
REMARK SMILES CCCCC(=O)[O-]
REMARK SMILES IDX 4 1 5 2 6 3 7 4 3 5 2 6 1 7
REMARK H PARENT
REMARK Flexibility Score: inf
ROOT
ATOM      1  C   UNL     1     -30.884  12.735  12.931  1.00  0.00     0.053 C 
ENDROOT
BRANCH   1   2
ATOM      2  C   UNL     1     -29.460  12.697  13.395  1.00  0.00     0.041 C 
ATOM      3  O   UNL     1     -28.701  11.758  13.037  1.00  0.00    -0.550 OA
ATOM      4  O   UNL     1     -28.981  13.681  14.249  1.00  0.00    -0.550 OA
ENDBRANCH   1   2
BRANCH   1   5
ATOM      5  C   UNL     1     -31.476  14.150  13.010  1.00  0.00     0.006 C 
BRANCH   5   6
ATOM      6  C   UNL     1     -32.770  14.248  13.837  1.00  0.00    -0.003 C 
ATOM      7  C   UNL     1     -34.025  13.979  13.007  1.00  0.00     0.004 C 
ENDBRANCH   5   6
ENDBRANCH   1   5
TORSDOF 3
ENDMDL
MODEL 5
REMARK VINA RESULT:    -3.233      1.091      1.377
REMARK INTER + INTRA:          -3.842
REMARK INTER:                  -3.810
REMARK INTRA:                  -0.032
REMARK UNBOUND:                -0.042
REMARK SMILES CCCCC(=O)[O-]
REMARK SMILES IDX 4 1 5 2 6 3 7 4 3 5 2 6 1 7
REMARK H PARENT
REMARK Flexibility Score: inf
ROOT
ATOM      1  C   UNL     1     -30.631  14.560  15.328  1.00  0.00     0.053 C 
ENDROOT
BRANCH   1   2
ATOM      2  C   UNL     1     -29.227  15.022  15.576  1.00  0.00     0.041 C 
ATOM      3  O   UNL     1     -28.326  14.795  14.727  1.00  0.00    -0.550 OA
ATOM      4  O   UNL     1     -28.910  15.674  16.760  1.00  0.00    -0.550 OA
ENDBRANCH   1   2
BRANCH   1   5
ATOM      5  C   UNL     1     -31.147  15.006  13.951  1.00  0.00     0.006 C 
BRANCH   5   6
ATOM      6  C   UNL     1     -31.926  13.920  13.188  1.00  0.00    -0.003 C 
ATOM      7  C   UNL     1     -33.441  14.088  13.300  1.00  0.00     0.004 C 
ENDBRANCH   5   6
ENDBRANCH   1   5
TORSDOF 3
ENDMDL
MODEL 6
REMARK VINA RESULT:    -3.190      2.186      3.892
REMARK INTER + INTRA:          -3.792
REMARK INTER:                  -3.760
REMARK INTRA:                  -0.032
REMARK UNBOUND:                -0.042
REMARK SMILES CCCCC(=O)[O-]
REMARK SMILES IDX 4 1 5 2 6 3 7 4 3 5 2 6 1 7
REMARK H PARENT
REMARK Flexibility Score: inf
ROOT
ATOM      1  C   UNL     1     -31.115  14.746  14.588  1.00  0.00     0.053 C 
ENDROOT
BRANCH   1   2
ATOM      2  C   UNL     1     -31.800  14.412  13.298  1.00  0.00     0.041 C 
ATOM      3  O   UNL     1     -31.123  14.188  12.261  1.00  0.00    -0.550 OA
ATOM      4  O   UNL     1     -33.187  14.381  13.237  1.00  0.00    -0.550 OA
ENDBRANCH   1   2
BRANCH   1   5
ATOM      5  C   UNL     1     -29.597  14.524  14.507  1.00  0.00     0.006 C 
BRANCH   5   6
ATOM      6  C   UNL     1     -28.807  15.124  15.683  1.00  0.00    -0.003 C 
ATOM      7  C   UNL     1     -29.696  15.473  16.877  1.00  0.00     0.004 C 
ENDBRANCH   5   6
ENDBRANCH   1   5
TORSDOF 3
ENDMDL
MODEL 7
REMARK VINA RESULT:    -3.169      2.246      2.848
REMARK INTER + INTRA:          -3.767
REMARK INTER:                  -3.726
REMARK INTRA:                  -0.041
REMARK UNBOUND:                -0.042
REMARK SMILES CCCCC(=O)[O-]
REMARK SMILES IDX 4 1 5 2 6 3 7 4 3 5 2 6 1 7
REMARK H PARENT
REMARK Flexibility Score: inf
ROOT
ATOM      1  C   UNL     1     -30.763  11.948  12.789  1.00  0.00     0.053 C 
ENDROOT
BRANCH   1   2
ATOM      2  C   UNL     1     -29.317  11.575  12.915  1.00  0.00     0.041 C 
ATOM      3  O   UNL     1     -28.490  12.395  13.392  1.00  0.00    -0.550 OA
ATOM      4  O   UNL     1     -28.880  10.333  12.474  1.00  0.00    -0.550 OA
ENDBRANCH   1   2
BRANCH   1   5
ATOM      5  C   UNL     1     -30.964  13.472  12.784  1.00  0.00     0.006 C 
BRANCH   5   6
ATOM      6  C   UNL     1     -31.994  13.975  13.810  1.00  0.00    -0.003 C 
ATOM      7  C   UNL     1     -33.410  14.052  13.239  1.00  0.00     0.004 C 
ENDBRANCH   5   6
ENDBRANCH   1   5
TORSDOF 3
ENDMDL
MODEL 8
REMARK VINA RESULT:    -3.146      2.226      3.737
REMARK INTER + INTRA:          -3.741
REMARK INTER:                  -3.673
REMARK INTRA:                  -0.068
REMARK UNBOUND:                -0.042
REMARK SMILES CCCCC(=O)[O-]
REMARK SMILES IDX 4 1 5 2 6 3 7 4 3 5 2 6 1 7
REMARK H PARENT
REMARK Flexibility Score: inf
ROOT
ATOM      1  C   UNL     1     -31.473  14.929  13.841  1.00  0.00     0.053 C 
ENDROOT
BRANCH   1   2
ATOM      2  C   UNL     1     -31.483  13.629  13.096  1.00  0.00     0.041 C 
ATOM      3  O   UNL     1     -32.136  12.649  13.540  1.00  0.00    -0.550 OA
ATOM      4  O   UNL     1     -30.744  13.493  11.928  1.00  0.00    -0.550 OA
ENDBRANCH   1   2
BRANCH   1   5
ATOM      5  C   UNL     1     -30.752  14.811  15.193  1.00  0.00     0.006 C 
BRANCH   5   6
ATOM      6  C   UNL     1     -29.217  14.767  15.087  1.00  0.00    -0.003 C 
ATOM      7  C   UNL     1     -28.522  15.225  16.368  1.00  0.00     0.004 C 
ENDBRANCH   5   6
ENDBRANCH   1   5
TORSDOF 3
ENDMDL
MODEL 9
REMARK VINA RESULT:    -3.143     12.560     13.020
REMARK INTER + INTRA:          -3.737
REMARK INTER:                  -3.676
REMARK INTRA:                  -0.061
REMARK UNBOUND:                -0.042
REMARK SMILES CCCCC(=O)[O-]
REMARK SMILES IDX 4 1 5 2 6 3 7 4 3 5 2 6 1 7
REMARK H PARENT
REMARK Flexibility Score: inf
ROOT
ATOM      1  C   UNL     1     -31.519  14.174  27.632  1.00  0.00     0.053 C 
ENDROOT
BRANCH   1   2
ATOM      2  C   UNL     1     -30.199  14.790  27.284  1.00  0.00     0.041 C 
ATOM      3  O   UNL     1     -29.137  14.125  27.402  1.00  0.00    -0.550 OA
ATOM      4  O   UNL     1     -30.140  16.111  26.858  1.00  0.00    -0.550 OA
ENDBRANCH   1   2
BRANCH   1   5
ATOM      5  C   UNL     1     -32.347  13.844  26.380  1.00  0.00     0.006 C 
BRANCH   5   6
ATOM      6  C   UNL     1     -33.843  14.178  26.508  1.00  0.00    -0.003 C 
ATOM      7  C   UNL     1     -34.122  15.263  27.548  1.00  0.00     0.004 C 
ENDBRANCH   5   6
ENDBRANCH   1   5
TORSDOF 3
ENDMDL
