MODEL 1
REMARK VINA RESULT:    -4.028      0.000      0.000
REMARK INTER + INTRA:          -6.476
REMARK INTER:                  -6.148
REMARK INTRA:                  -0.329
REMARK UNBOUND:                -0.329
REMARK SMILES CC1=CCC[C@@H](C)C(=O)C[C@@H](C(C)C)C(=O)C1
REMARK SMILES IDX 8 1 9 2 6 3 7 4 5 5 4 6 3 7 2 8 1 9 10 11 11 12 15 13 16 14
REMARK SMILES IDX 17 15 12 17 13 18 14 19
REMARK H PARENT
REMARK Flexibility Score: 70.00
ROOT
ATOM      1  C   UNL     1     -16.312  12.189 -28.075  1.00  0.00     0.136 C 
ATOM      2  O   UNL     1     -16.257  12.248 -26.854  1.00  0.00    -0.299 OA
ENDROOT
BRANCH   1   3
ATOM      3  C   UNL     1     -17.330  13.036 -28.819  1.00  0.00     0.053 C 
ATOM      4  C   UNL     1     -17.964  12.235 -29.964  1.00  0.00     0.016 C 
BRANCH   3   5
ATOM      5  C   UNL     1     -16.667  14.326 -29.349  1.00  0.00     0.015 C 
BRANCH   5   6
ATOM      6  C   UNL     1     -16.469  14.294 -30.877  1.00  0.00     0.028 C 
BRANCH   6   7
ATOM      7  C   UNL     1     -15.074  14.736 -31.246  1.00  0.00    -0.028 C 
ATOM      8  C   UNL     1     -14.080  13.904 -31.639  1.00  0.00    -0.070 CG0
ATOM      9  C   UNL     1     -12.768  14.516 -32.055  1.00  0.00     0.039 C 
ATOM     10  G   UNL     1     -14.229  12.390 -31.655  1.00  0.00     0.000 G0
ENDBRANCH   6   7
ENDBRANCH   5   6
ENDBRANCH   3   5
ENDBRANCH   1   3
BRANCH   1  11
ATOM     11  C   UNL     1     -15.371  11.267 -28.817  1.00  0.00     0.087 C 
BRANCH  11  12
ATOM     12  C   UNL     1     -13.946  11.845 -29.086  1.00  0.00     0.066 C 
BRANCH  12  13
ATOM     13  C   UNL     1     -13.476  11.696 -30.531  1.00  0.00     0.140 C 
ATOM     14  O   UNL     1     -12.453  11.076 -30.784  1.00  0.00    -0.299 OA
BRANCH  13  15
ATOM     15  C   UNL     1     -14.217  12.380 -31.655  1.00  0.00     0.106 CG0
ATOM     16  G   UNL     1     -14.060  13.892 -31.617  1.00  0.00     0.000 G0
ENDBRANCH  13  15
ENDBRANCH  12  13
BRANCH  12  17
ATOM     17  C   UNL     1     -12.884  11.397 -28.032  1.00  0.00    -0.006 C 
ATOM     18  C   UNL     1     -13.342  10.143 -27.269  1.00  0.00     0.008 C 
ATOM     19  C   UNL     1     -12.460  12.494 -27.043  1.00  0.00     0.008 C 
ENDBRANCH  12  17
ENDBRANCH  11  12
ENDBRANCH   1  11
TORSDOF 1
ENDMDL
MODEL 2
REMARK VINA RESULT:    -3.993      1.932      4.760
REMARK INTER + INTRA:          -6.422
REMARK INTER:                  -6.396
REMARK INTRA:                  -0.026
REMARK UNBOUND:                -0.329
REMARK SMILES CC1=CCC[C@@H](C)C(=O)C[C@@H](C(C)C)C(=O)C1
REMARK SMILES IDX 8 1 9 2 6 3 7 4 5 5 4 6 3 7 2 8 1 9 10 11 11 12 15 13 16 14
REMARK SMILES IDX 17 15 12 17 13 18 14 19
REMARK H PARENT
REMARK Flexibility Score: 70.00
ROOT
ATOM      1  C   UNL     1     -13.220  11.531 -30.290  1.00  0.00     0.136 C 
ATOM      2  O   UNL     1     -12.264  10.994 -30.831  1.00  0.00    -0.299 OA
ENDROOT
BRANCH   1   3
ATOM      3  C   UNL     1     -13.317  11.533 -28.773  1.00  0.00     0.053 C 
ATOM      4  C   UNL     1     -12.054  10.921 -28.152  1.00  0.00     0.016 C 
BRANCH   3   5
ATOM      5  C   UNL     1     -14.582  10.773 -28.318  1.00  0.00     0.015 C 
BRANCH   5   6
ATOM      6  C   UNL     1     -15.617  11.708 -27.661  1.00  0.00     0.028 C 
BRANCH   6   7
ATOM      7  C   UNL     1     -16.970  11.548 -28.309  1.00  0.00    -0.028 C 
ATOM      8  C   UNL     1     -17.550  12.467 -29.118  1.00  0.00    -0.070 CG0
ATOM      9  C   UNL     1     -18.870  12.116 -29.755  1.00  0.00     0.039 C 
ATOM     10  G   UNL     1     -16.938  13.833 -29.388  1.00  0.00     0.000 G0
ENDBRANCH   6   7
ENDBRANCH   5   6
ENDBRANCH   3   5
ENDBRANCH   1   3
BRANCH   1  11
ATOM     11  C   UNL     1     -14.291  12.176 -31.142  1.00  0.00     0.087 C 
BRANCH  11  12
ATOM     12  C   UNL     1     -14.686  13.628 -30.728  1.00  0.00     0.066 C 
BRANCH  12  13
ATOM     13  C   UNL     1     -16.193  13.878 -30.699  1.00  0.00     0.140 C 
ATOM     14  O   UNL     1     -16.785  14.181 -31.725  1.00  0.00    -0.299 OA
BRANCH  13  15
ATOM     15  C   UNL     1     -16.953  13.839 -29.396  1.00  0.00     0.106 CG0
ATOM     16  G   UNL     1     -17.538  12.465 -29.107  1.00  0.00     0.000 G0
ENDBRANCH  13  15
ENDBRANCH  12  13
BRANCH  12  17
ATOM     17  C   UNL     1     -13.882  14.732 -31.486  1.00  0.00    -0.006 C 
ATOM     18  C   UNL     1     -12.403  14.343 -31.643  1.00  0.00     0.008 C 
ATOM     19  C   UNL     1     -13.999  16.139 -30.880  1.00  0.00     0.008 C 
ENDBRANCH  12  17
ENDBRANCH  11  12
ENDBRANCH   1  11
TORSDOF 1
ENDMDL
MODEL 3
REMARK VINA RESULT:    -3.937      9.998     12.354
REMARK INTER + INTRA:          -6.337
REMARK INTER:                  -6.387
REMARK INTRA:                   0.050
REMARK UNBOUND:                -0.329
REMARK SMILES CC1=CCC[C@@H](C)C(=O)C[C@@H](C(C)C)C(=O)C1
REMARK SMILES IDX 8 1 9 2 6 3 7 4 5 5 4 6 3 7 2 8 1 9 10 11 11 12 15 13 16 14
REMARK SMILES IDX 17 15 12 17 13 18 14 19
REMARK H PARENT
REMARK Flexibility Score: 70.00
ROOT
ATOM      1  C   UNL     1     -24.750  10.894 -29.291  1.00  0.00     0.136 C 
ATOM      2  O   UNL     1     -24.980   9.982 -30.073  1.00  0.00    -0.299 OA
ENDROOT
BRANCH   1   3
ATOM      3  C   UNL     1     -25.010  10.691 -27.808  1.00  0.00     0.053 C 
ATOM      4  C   UNL     1     -23.818   9.987 -27.144  1.00  0.00     0.016 C 
BRANCH   3   5
ATOM      5  C   UNL     1     -26.313   9.888 -27.599  1.00  0.00     0.015 C 
BRANCH   5   6
ATOM      6  C   UNL     1     -27.561  10.792 -27.613  1.00  0.00     0.028 C 
BRANCH   6   7
ATOM      7  C   UNL     1     -28.329  10.625 -28.900  1.00  0.00    -0.028 C 
ATOM      8  C   UNL     1     -28.415  11.563 -29.874  1.00  0.00    -0.070 CG0
ATOM      9  C   UNL     1     -29.152  11.205 -31.138  1.00  0.00     0.039 C 
ATOM     10  G   UNL     1     -27.821  12.956 -29.732  1.00  0.00     0.000 G0
ENDBRANCH   6   7
ENDBRANCH   5   6
ENDBRANCH   3   5
ENDBRANCH   1   3
BRANCH   1  11
ATOM     11  C   UNL     1     -24.219  12.209 -29.818  1.00  0.00     0.087 C 
BRANCH  11  12
ATOM     12  C   UNL     1     -25.216  13.407 -29.745  1.00  0.00     0.066 C 
BRANCH  12  13
ATOM     13  C   UNL     1     -26.534  13.165 -30.478  1.00  0.00     0.140 C 
ATOM     14  O   UNL     1     -26.572  13.196 -31.700  1.00  0.00    -0.299 OA
BRANCH  13  15
ATOM     15  C   UNL     1     -27.817  12.970 -29.708  1.00  0.00     0.106 CG0
ATOM     16  G   UNL     1     -28.392  11.573 -29.884  1.00  0.00     0.000 G0
ENDBRANCH  13  15
ENDBRANCH  12  13
BRANCH  12  17
ATOM     17  C   UNL     1     -24.558  14.785 -30.075  1.00  0.00    -0.006 C 
ATOM     18  C   UNL     1     -25.614  15.839 -30.443  1.00  0.00     0.008 C 
ATOM     19  C   UNL     1     -23.464  14.730 -31.152  1.00  0.00     0.008 C 
ENDBRANCH  12  17
ENDBRANCH  11  12
ENDBRANCH   1  11
TORSDOF 1
ENDMDL
MODEL 4
REMARK VINA RESULT:    -3.904      1.984      4.484
REMARK INTER + INTRA:          -6.287
REMARK INTER:                  -5.989
REMARK INTRA:                  -0.298
REMARK UNBOUND:                -0.329
REMARK SMILES CC1=CCC[C@@H](C)C(=O)C[C@@H](C(C)C)C(=O)C1
REMARK SMILES IDX 8 1 9 2 6 3 7 4 5 5 4 6 3 7 2 8 1 9 10 11 11 12 15 13 16 14
REMARK SMILES IDX 17 15 12 17 13 18 14 19
REMARK H PARENT
REMARK Flexibility Score: 70.00
ROOT
ATOM      1  C   UNL     1     -14.408  13.437 -31.370  1.00  0.00     0.136 C 
ATOM      2  O   UNL     1     -14.662  13.531 -32.562  1.00  0.00    -0.299 OA
ENDROOT
BRANCH   1   3
ATOM      3  C   UNL     1     -13.534  14.488 -30.706  1.00  0.00     0.053 C 
ATOM      4  C   UNL     1     -14.016  15.898 -31.070  1.00  0.00     0.016 C 
BRANCH   3   5
ATOM      5  C   UNL     1     -12.057  14.287 -31.110  1.00  0.00     0.015 C 
BRANCH   5   6
ATOM      6  C   UNL     1     -11.417  13.081 -30.394  1.00  0.00     0.028 C 
BRANCH   6   7
ATOM      7  C   UNL     1     -11.366  13.307 -28.904  1.00  0.00    -0.028 C 
ATOM      8  C   UNL     1     -12.035  12.568 -27.988  1.00  0.00    -0.070 CG0
ATOM      9  C   UNL     1     -11.809  12.872 -26.530  1.00  0.00     0.039 C 
ATOM     10  G   UNL     1     -13.014  11.468 -28.371  1.00  0.00     0.000 G0
ENDBRANCH   6   7
ENDBRANCH   5   6
ENDBRANCH   3   5
ENDBRANCH   1   3
BRANCH   1  11
ATOM     11  C   UNL     1     -14.964  12.271 -30.581  1.00  0.00     0.087 C 
BRANCH  11  12
ATOM     12  C   UNL     1     -15.306  12.579 -29.090  1.00  0.00     0.066 C 
BRANCH  12  13
ATOM     13  C   UNL     1     -14.451  11.810 -28.084  1.00  0.00     0.140 C 
ATOM     14  O   UNL     1     -14.905  11.523 -26.985  1.00  0.00    -0.299 OA
BRANCH  13  15
ATOM     15  C   UNL     1     -13.015  11.468 -28.398  1.00  0.00     0.106 CG0
ATOM     16  G   UNL     1     -12.053  12.570 -27.982  1.00  0.00     0.000 G0
ENDBRANCH  13  15
ENDBRANCH  12  13
BRANCH  12  17
ATOM     17  C   UNL     1     -16.836  12.530 -28.780  1.00  0.00    -0.006 C 
ATOM     18  C   UNL     1     -17.491  11.271 -29.372  1.00  0.00     0.008 C 
ATOM     19  C   UNL     1     -17.616  13.784 -29.205  1.00  0.00     0.008 C 
ENDBRANCH  12  17
ENDBRANCH  11  12
ENDBRANCH   1  11
TORSDOF 1
ENDMDL
MODEL 5
REMARK VINA RESULT:    -3.894      2.158      4.149
REMARK INTER + INTRA:          -6.271
REMARK INTER:                  -6.300
REMARK INTRA:                   0.029
REMARK UNBOUND:                -0.329
REMARK SMILES CC1=CCC[C@@H](C)C(=O)C[C@@H](C(C)C)C(=O)C1
REMARK SMILES IDX 8 1 9 2 6 3 7 4 5 5 4 6 3 7 2 8 1 9 10 11 11 12 15 13 16 14
REMARK SMILES IDX 17 15 12 17 13 18 14 19
REMARK H PARENT
REMARK Flexibility Score: 70.00
ROOT
ATOM      1  C   UNL     1     -15.210  14.165 -30.556  1.00  0.00     0.136 C 
ATOM      2  O   UNL     1     -15.555  14.753 -29.540  1.00  0.00    -0.299 OA
ENDROOT
BRANCH   1   3
ATOM      3  C   UNL     1     -16.047  13.005 -31.069  1.00  0.00     0.053 C 
ATOM      4  C   UNL     1     -17.420  13.501 -31.545  1.00  0.00     0.016 C 
BRANCH   3   5
ATOM      5  C   UNL     1     -16.198  11.928 -29.973  1.00  0.00     0.015 C 
BRANCH   5   6
ATOM      6  C   UNL     1     -14.931  11.061 -29.831  1.00  0.00     0.028 C 
BRANCH   6   7
ATOM      7  C   UNL     1     -14.402  11.113 -28.420  1.00  0.00    -0.028 C 
ATOM      8  C   UNL     1     -13.176  11.570 -28.073  1.00  0.00    -0.070 CG0
ATOM      9  C   UNL     1     -12.833  11.634 -26.607  1.00  0.00     0.039 C 
ATOM     10  G   UNL     1     -12.133  11.996 -29.095  1.00  0.00     0.000 G0
ENDBRANCH   6   7
ENDBRANCH   5   6
ENDBRANCH   3   5
ENDBRANCH   1   3
BRANCH   1  11
ATOM     11  C   UNL     1     -13.952  14.599 -31.275  1.00  0.00     0.087 C 
BRANCH  11  12
ATOM     12  C   UNL     1     -12.708  13.683 -31.052  1.00  0.00     0.066 C 
BRANCH  12  13
ATOM     13  C   UNL     1     -12.378  13.428 -29.583  1.00  0.00     0.140 C 
ATOM     14  O   UNL     1     -12.249  14.367 -28.810  1.00  0.00    -0.299 OA
BRANCH  13  15
ATOM     15  C   UNL     1     -12.124  12.026 -29.084  1.00  0.00     0.106 CG0
ATOM     16  G   UNL     1     -13.166  11.572 -28.074  1.00  0.00     0.000 G0
ENDBRANCH  13  15
ENDBRANCH  12  13
BRANCH  12  17
ATOM     17  C   UNL     1     -11.471  14.096 -31.911  1.00  0.00    -0.006 C 
ATOM     18  C   UNL     1     -11.668  13.738 -33.393  1.00  0.00     0.008 C 
ATOM     19  C   UNL     1     -10.128  13.544 -31.406  1.00  0.00     0.008 C 
ENDBRANCH  12  17
ENDBRANCH  11  12
ENDBRANCH   1  11
TORSDOF 1
ENDMDL
MODEL 6
REMARK VINA RESULT:    -3.852      2.162      4.300
REMARK INTER + INTRA:          -6.207
REMARK INTER:                  -6.081
REMARK INTRA:                  -0.126
REMARK UNBOUND:                -0.329
REMARK SMILES CC1=CCC[C@@H](C)C(=O)C[C@@H](C(C)C)C(=O)C1
REMARK SMILES IDX 8 1 9 2 6 3 7 4 5 5 4 6 3 7 2 8 1 9 10 11 11 12 15 13 16 14
REMARK SMILES IDX 17 15 12 17 13 18 14 19
REMARK H PARENT
REMARK Flexibility Score: 70.00
ROOT
ATOM      1  C   UNL     1     -17.282  13.076 -30.589  1.00  0.00     0.136 C 
ATOM      2  O   UNL     1     -17.601  13.642 -31.625  1.00  0.00    -0.299 OA
ENDROOT
BRANCH   1   3
ATOM      3  C   UNL     1     -18.079  11.871 -30.119  1.00  0.00     0.053 C 
ATOM      4  C   UNL     1     -19.563  12.232 -29.966  1.00  0.00     0.016 C 
BRANCH   3   5
ATOM      5  C   UNL     1     -17.502  11.333 -28.792  1.00  0.00     0.015 C 
BRANCH   5   6
ATOM      6  C   UNL     1     -16.574  10.121 -29.009  1.00  0.00     0.028 C 
BRANCH   6   7
ATOM      7  C   UNL     1     -15.651   9.935 -27.830  1.00  0.00    -0.028 C 
ATOM      8  C   UNL     1     -14.366  10.359 -27.783  1.00  0.00    -0.070 CG0
ATOM      9  C   UNL     1     -13.605  10.169 -26.496  1.00  0.00     0.039 C 
ATOM     10  G   UNL     1     -13.661  10.992 -28.973  1.00  0.00     0.000 G0
ENDBRANCH   6   7
ENDBRANCH   5   6
ENDBRANCH   3   5
ENDBRANCH   1   3
BRANCH   1  11
ATOM     11  C   UNL     1     -16.105  13.594 -29.791  1.00  0.00     0.087 C 
BRANCH  11  12
ATOM     12  C   UNL     1     -14.711  13.050 -30.233  1.00  0.00     0.066 C 
BRANCH  12  13
ATOM     13  C   UNL     1     -13.872  12.486 -29.088  1.00  0.00     0.140 C 
ATOM     14  O   UNL     1     -13.322  13.241 -28.299  1.00  0.00    -0.299 OA
BRANCH  13  15
ATOM     15  C   UNL     1     -13.640  10.999 -28.966  1.00  0.00     0.106 CG0
ATOM     16  G   UNL     1     -14.360  10.397 -27.769  1.00  0.00     0.000 G0
ENDBRANCH  13  15
ENDBRANCH  12  13
BRANCH  12  17
ATOM     17  C   UNL     1     -13.927  14.032 -31.161  1.00  0.00    -0.006 C 
ATOM     18  C   UNL     1     -14.237  15.499 -30.820  1.00  0.00     0.008 C 
ATOM     19  C   UNL     1     -14.120  13.784 -32.665  1.00  0.00     0.008 C 
ENDBRANCH  12  17
ENDBRANCH  11  12
ENDBRANCH   1  11
TORSDOF 1
ENDMDL
MODEL 7
REMARK VINA RESULT:    -3.774      2.227      4.950
REMARK INTER + INTRA:          -6.088
REMARK INTER:                  -5.970
REMARK INTRA:                  -0.118
REMARK UNBOUND:                -0.329
REMARK SMILES CC1=CCC[C@@H](C)C(=O)C[C@@H](C(C)C)C(=O)C1
REMARK SMILES IDX 8 1 9 2 6 3 7 4 5 5 4 6 3 7 2 8 1 9 10 11 11 12 15 13 16 14
REMARK SMILES IDX 17 15 12 17 13 18 14 19
REMARK H PARENT
REMARK Flexibility Score: 70.00
ROOT
ATOM      1  C   UNL     1     -13.229  13.958 -30.680  1.00  0.00     0.136 C 
ATOM      2  O   UNL     1     -13.746  15.046 -30.467  1.00  0.00    -0.299 OA
ENDROOT
BRANCH   1   3
ATOM      3  C   UNL     1     -11.745  13.770 -30.414  1.00  0.00     0.053 C 
ATOM      4  C   UNL     1     -11.260  12.433 -30.993  1.00  0.00     0.016 C 
BRANCH   3   5
ATOM      5  C   UNL     1     -11.459  13.853 -28.899  1.00  0.00     0.015 C 
BRANCH   5   6
ATOM      6  C   UNL     1     -11.481  12.466 -28.225  1.00  0.00     0.028 C 
BRANCH   6   7
ATOM      7  C   UNL     1     -12.694  12.320 -27.340  1.00  0.00    -0.028 C 
ATOM      8  C   UNL     1     -13.741  11.499 -27.596  1.00  0.00    -0.070 CG0
ATOM      9  C   UNL     1     -14.836  11.408 -26.565  1.00  0.00     0.039 C 
ATOM     10  G   UNL     1     -13.863  10.692 -28.879  1.00  0.00     0.000 G0
ENDBRANCH   6   7
ENDBRANCH   5   6
ENDBRANCH   3   5
ENDBRANCH   1   3
BRANCH   1  11
ATOM     11  C   UNL     1     -14.078  12.824 -31.211  1.00  0.00     0.087 C 
BRANCH  11  12
ATOM     12  C   UNL     1     -15.269  12.399 -30.296  1.00  0.00     0.066 C 
BRANCH  12  13
ATOM     13  C   UNL     1     -15.107  11.017 -29.665  1.00  0.00     0.140 C 
ATOM     14  O   UNL     1     -16.011  10.197 -29.742  1.00  0.00    -0.299 OA
BRANCH  13  15
ATOM     15  C   UNL     1     -13.870  10.676 -28.870  1.00  0.00     0.106 CG0
ATOM     16  G   UNL     1     -13.742  11.516 -27.609  1.00  0.00     0.000 G0
ENDBRANCH  13  15
ENDBRANCH  12  13
BRANCH  12  17
ATOM     17  C   UNL     1     -16.668  12.629 -30.950  1.00  0.00    -0.006 C 
ATOM     18  C   UNL     1     -16.631  13.779 -31.971  1.00  0.00     0.008 C 
ATOM     19  C   UNL     1     -17.815  12.844 -29.951  1.00  0.00     0.008 C 
ENDBRANCH  12  17
ENDBRANCH  11  12
ENDBRANCH   1  11
TORSDOF 1
ENDMDL
MODEL 8
REMARK VINA RESULT:    -3.742      1.601      2.347
REMARK INTER + INTRA:          -6.040
REMARK INTER:                  -5.806
REMARK INTRA:                  -0.234
REMARK UNBOUND:                -0.329
REMARK SMILES CC1=CCC[C@@H](C)C(=O)C[C@@H](C(C)C)C(=O)C1
REMARK SMILES IDX 8 1 9 2 6 3 7 4 5 5 4 6 3 7 2 8 1 9 10 11 11 12 15 13 16 14
REMARK SMILES IDX 17 15 12 17 13 18 14 19
REMARK H PARENT
REMARK Flexibility Score: 70.00
ROOT
ATOM      1  C   UNL     1     -16.835  13.262 -29.633  1.00  0.00     0.136 C 
ATOM      2  O   UNL     1     -17.539  13.521 -28.667  1.00  0.00    -0.299 OA
ENDROOT
BRANCH   1   3
ATOM      3  C   UNL     1     -16.499  14.360 -30.629  1.00  0.00     0.053 C 
ATOM      4  C   UNL     1     -16.328  13.775 -32.037  1.00  0.00     0.016 C 
BRANCH   3   5
ATOM      5  C   UNL     1     -15.226  15.113 -30.185  1.00  0.00     0.015 C 
BRANCH   5   6
ATOM      6  C   UNL     1     -14.068  14.941 -31.188  1.00  0.00     0.028 C 
BRANCH   6   7
ATOM      7  C   UNL     1     -12.822  14.458 -30.488  1.00  0.00    -0.028 C 
ATOM      8  C   UNL     1     -12.473  13.157 -30.346  1.00  0.00    -0.070 CG0
ATOM      9  C   UNL     1     -11.150  12.847 -29.695  1.00  0.00     0.039 C 
ATOM     10  G   UNL     1     -13.365  12.010 -30.793  1.00  0.00     0.000 G0
ENDBRANCH   6   7
ENDBRANCH   5   6
ENDBRANCH   3   5
ENDBRANCH   1   3
BRANCH   1  11
ATOM     11  C   UNL     1     -16.318  11.853 -29.820  1.00  0.00     0.087 C 
BRANCH  11  12
ATOM     12  C   UNL     1     -15.119  11.456 -28.905  1.00  0.00     0.066 C 
BRANCH  12  13
ATOM     13  C   UNL     1     -13.838  11.123 -29.667  1.00  0.00     0.140 C 
ATOM     14  O   UNL     1     -13.143  10.180 -29.319  1.00  0.00    -0.299 OA
BRANCH  13  15
ATOM     15  C   UNL     1     -13.369  12.001 -30.803  1.00  0.00     0.106 CG0
ATOM     16  G   UNL     1     -12.487  13.144 -30.326  1.00  0.00     0.000 G0
ENDBRANCH  13  15
ENDBRANCH  12  13
BRANCH  12  17
ATOM     17  C   UNL     1     -15.491  10.403 -27.814  1.00  0.00    -0.006 C 
ATOM     18  C   UNL     1     -16.991  10.067 -27.842  1.00  0.00     0.008 C 
ATOM     19  C   UNL     1     -15.057  10.777 -26.388  1.00  0.00     0.008 C 
ENDBRANCH  12  17
ENDBRANCH  11  12
ENDBRANCH   1  11
TORSDOF 1
ENDMDL
MODEL 9
REMARK VINA RESULT:    -3.497      2.198      4.385
REMARK INTER + INTRA:          -5.666
REMARK INTER:                  -6.083
REMARK INTRA:                   0.418
REMARK UNBOUND:                -0.329
REMARK SMILES CC1=CCC[C@@H](C)C(=O)C[C@@H](C(C)C)C(=O)C1
REMARK SMILES IDX 8 1 9 2 6 3 7 4 5 5 4 6 3 7 2 8 1 9 10 11 11 12 15 13 16 14
REMARK SMILES IDX 17 15 12 17 13 18 14 19
REMARK H PARENT
REMARK Flexibility Score: 70.00
ROOT
ATOM      1  C   UNL     1     -11.759  13.231 -27.907  1.00  0.00     0.136 C 
ATOM      2  O   UNL     1     -11.641  14.411 -27.610  1.00  0.00    -0.299 OA
ENDROOT
BRANCH   1   3
ATOM      3  C   UNL     1     -12.230  12.239 -26.857  1.00  0.00     0.053 C 
ATOM      4  C   UNL     1     -11.539  10.882 -27.049  1.00  0.00     0.016 C 
BRANCH   3   5
ATOM      5  C   UNL     1     -13.766  12.090 -26.913  1.00  0.00     0.015 C 
BRANCH   5   6
ATOM      6  C   UNL     1     -14.249  11.545 -28.271  1.00  0.00     0.028 C 
BRANCH   6   7
ATOM      7  C   UNL     1     -15.463  12.302 -28.751  1.00  0.00    -0.028 C 
ATOM      8  C   UNL     1     -15.545  12.956 -29.934  1.00  0.00    -0.070 CG0
ATOM      9  C   UNL     1     -16.861  13.592 -30.301  1.00  0.00     0.039 C 
ATOM     10  G   UNL     1     -14.368  13.090 -30.887  1.00  0.00     0.000 G0
ENDBRANCH   6   7
ENDBRANCH   5   6
ENDBRANCH   3   5
ENDBRANCH   1   3
BRANCH   1  11
ATOM     11  C   UNL     1     -11.426  12.781 -29.313  1.00  0.00     0.087 C 
BRANCH  11  12
ATOM     12  C   UNL     1     -11.859  13.763 -30.446  1.00  0.00     0.066 C 
BRANCH  12  13
ATOM     13  C   UNL     1     -13.347  14.105 -30.438  1.00  0.00     0.140 C 
ATOM     14  O   UNL     1     -13.729  15.181 -30.001  1.00  0.00    -0.299 OA
BRANCH  13  15
ATOM     15  C   UNL     1     -14.371  13.091 -30.889  1.00  0.00     0.106 CG0
ATOM     16  G   UNL     1     -15.535  12.971 -29.917  1.00  0.00     0.000 G0
ENDBRANCH  13  15
ENDBRANCH  12  13
BRANCH  12  17
ATOM     17  C   UNL     1     -11.314  13.366 -31.854  1.00  0.00    -0.006 C 
ATOM     18  C   UNL     1     -10.079  12.456 -31.745  1.00  0.00     0.008 C 
ATOM     19  C   UNL     1     -11.018  14.553 -32.784  1.00  0.00     0.008 C 
ENDBRANCH  12  17
ENDBRANCH  11  12
ENDBRANCH   1  11
TORSDOF 1
ENDMDL
