MODEL 1
REMARK VINA RESULT:    -1.843      0.000      0.000
REMARK INTER + INTRA:          -2.796
REMARK INTER:                  -2.381
REMARK INTRA:                  -0.415
REMARK UNBOUND:                -0.415
REMARK SMILES CCCCCCC=O
REMARK SMILES IDX 4 1 3 2 2 3 1 4 5 5 6 6 7 7 8 8
REMARK H PARENT
REMARK Flexibility Score: inf
ROOT
ATOM      1  C   UNL     1     132.051 145.827 138.979  1.00  0.00     0.000 C 
ENDROOT
BRANCH   1   2
ATOM      2  C   UNL     1     131.054 146.419 137.971  1.00  0.00    -0.000 C 
BRANCH   2   3
ATOM      3  C   UNL     1     129.598 146.053 138.293  1.00  0.00    -0.003 C 
ATOM      4  C   UNL     1     129.509 145.220 139.568  1.00  0.00     0.004 C 
ENDBRANCH   2   3
ENDBRANCH   1   2
BRANCH   1   5
ATOM      5  C   UNL     1     133.000 146.884 139.563  1.00  0.00     0.008 C 
BRANCH   5   6
ATOM      6  C   UNL     1     132.223 148.121 140.026  1.00  0.00     0.072 C 
BRANCH   6   7
ATOM      7  C   UNL     1     131.624 147.887 141.379  1.00  0.00     0.224 C 
ATOM      8  O   UNL     1     130.423 148.014 141.555  1.00  0.00    -0.303 OA
ENDBRANCH   6   7
ENDBRANCH   5   6
ENDBRANCH   1   5
TORSDOF 5
ENDMDL
MODEL 2
REMARK VINA RESULT:    -1.820     11.820     13.237
REMARK INTER + INTRA:          -2.767
REMARK INTER:                  -2.357
REMARK INTRA:                  -0.410
REMARK UNBOUND:                -0.415
REMARK SMILES CCCCCCC=O
REMARK SMILES IDX 4 1 3 2 2 3 1 4 5 5 6 6 7 7 8 8
REMARK H PARENT
REMARK Flexibility Score: inf
ROOT
ATOM      1  C   UNL     1     143.696 145.581 138.965  1.00  0.00     0.000 C 
ENDROOT
BRANCH   1   2
ATOM      2  C   UNL     1     143.913 146.790 138.043  1.00  0.00    -0.000 C 
BRANCH   2   3
ATOM      3  C   UNL     1     143.056 148.000 138.441  1.00  0.00    -0.003 C 
ATOM      4  C   UNL     1     142.067 147.635 139.544  1.00  0.00     0.004 C 
ENDBRANCH   2   3
ENDBRANCH   1   2
BRANCH   1   5
ATOM      5  C   UNL     1     145.009 145.048 139.561  1.00  0.00     0.008 C 
BRANCH   5   6
ATOM      6  C   UNL     1     145.940 146.201 139.952  1.00  0.00     0.072 C 
BRANCH   6   7
ATOM      7  C   UNL     1     145.638 146.670 141.342  1.00  0.00     0.224 C 
ATOM      8  O   UNL     1     145.074 147.736 141.527  1.00  0.00    -0.303 OA
ENDBRANCH   6   7
ENDBRANCH   5   6
ENDBRANCH   1   5
TORSDOF 5
ENDMDL
MODEL 3
REMARK VINA RESULT:    -1.788      2.399      3.888
REMARK INTER + INTRA:          -2.726
REMARK INTER:                  -2.338
REMARK INTRA:                  -0.388
REMARK UNBOUND:                -0.415
REMARK SMILES CCCCCCC=O
REMARK SMILES IDX 4 1 3 2 2 3 1 4 5 5 6 6 7 7 8 8
REMARK H PARENT
REMARK Flexibility Score: inf
ROOT
ATOM      1  C   UNL     1     130.974 146.091 137.693  1.00  0.00     0.000 C 
ENDROOT
BRANCH   1   2
ATOM      2  C   UNL     1     131.888 146.380 138.894  1.00  0.00    -0.000 C 
BRANCH   2   3
ATOM      3  C   UNL     1     132.774 145.183 139.266  1.00  0.00    -0.003 C 
ATOM      4  C   UNL     1     132.698 144.090 138.204  1.00  0.00     0.004 C 
ENDBRANCH   2   3
ENDBRANCH   1   2
BRANCH   1   5
ATOM      5  C   UNL     1     129.489 146.323 138.011  1.00  0.00     0.008 C 
BRANCH   5   6
ATOM      6  C   UNL     1     129.064 145.532 139.253  1.00  0.00     0.072 C 
BRANCH   6   7
ATOM      7  C   UNL     1     128.676 144.135 138.876  1.00  0.00     0.224 C 
ATOM      8  O   UNL     1     129.407 143.195 139.145  1.00  0.00    -0.303 OA
ENDBRANCH   6   7
ENDBRANCH   5   6
ENDBRANCH   1   5
TORSDOF 5
ENDMDL
MODEL 4
REMARK VINA RESULT:    -1.779      2.428      3.086
REMARK INTER + INTRA:          -2.714
REMARK INTER:                  -2.397
REMARK INTRA:                  -0.316
REMARK UNBOUND:                -0.415
REMARK SMILES CCCCCCC=O
REMARK SMILES IDX 4 1 3 2 2 3 1 4 5 5 6 6 7 7 8 8
REMARK H PARENT
REMARK Flexibility Score: inf
ROOT
ATOM      1  C   UNL     1     131.383 146.113 138.220  1.00  0.00     0.000 C 
ENDROOT
BRANCH   1   2
ATOM      2  C   UNL     1     131.308 144.595 138.443  1.00  0.00    -0.000 C 
BRANCH   2   3
ATOM      3  C   UNL     1     132.229 143.811 137.497  1.00  0.00    -0.003 C 
ATOM      4  C   UNL     1     133.575 143.521 138.156  1.00  0.00     0.004 C 
ENDBRANCH   2   3
ENDBRANCH   1   2
BRANCH   1   5
ATOM      5  C   UNL     1     131.647 146.889 139.520  1.00  0.00     0.008 C 
BRANCH   5   6
ATOM      6  C   UNL     1     133.123 147.281 139.635  1.00  0.00     0.072 C 
BRANCH   6   7
ATOM      7  C   UNL     1     133.832 146.375 140.595  1.00  0.00     0.224 C 
ATOM      8  O   UNL     1     134.965 145.987 140.359  1.00  0.00    -0.303 OA
ENDBRANCH   6   7
ENDBRANCH   5   6
ENDBRANCH   1   5
TORSDOF 5
ENDMDL
MODEL 5
REMARK VINA RESULT:    -1.773     11.191     12.402
REMARK INTER + INTRA:          -2.706
REMARK INTER:                  -2.496
REMARK INTRA:                  -0.211
REMARK UNBOUND:                -0.415
REMARK SMILES CCCCCCC=O
REMARK SMILES IDX 4 1 3 2 2 3 1 4 5 5 6 6 7 7 8 8
REMARK H PARENT
REMARK Flexibility Score: inf
ROOT
ATOM      1  C   UNL     1     142.283 145.680 138.215  1.00  0.00     0.000 C 
ENDROOT
BRANCH   1   2
ATOM      2  C   UNL     1     142.272 144.178 138.540  1.00  0.00    -0.000 C 
BRANCH   2   3
ATOM      3  C   UNL     1     141.389 143.370 137.579  1.00  0.00    -0.003 C 
ATOM      4  C   UNL     1     140.808 144.260 136.485  1.00  0.00     0.004 C 
ENDBRANCH   2   3
ENDBRANCH   1   2
BRANCH   1   5
ATOM      5  C   UNL     1     143.705 146.250 138.099  1.00  0.00     0.008 C 
BRANCH   5   6
ATOM      6  C   UNL     1     144.263 146.615 139.479  1.00  0.00     0.072 C 
BRANCH   6   7
ATOM      7  C   UNL     1     145.526 145.858 139.750  1.00  0.00     0.224 C 
ATOM      8  O   UNL     1     145.565 144.646 139.608  1.00  0.00    -0.303 OA
ENDBRANCH   6   7
ENDBRANCH   5   6
ENDBRANCH   1   5
TORSDOF 5
ENDMDL
MODEL 6
REMARK VINA RESULT:    -1.762     11.785     13.487
REMARK INTER + INTRA:          -2.692
REMARK INTER:                  -2.382
REMARK INTRA:                  -0.311
REMARK UNBOUND:                -0.415
REMARK SMILES CCCCCCC=O
REMARK SMILES IDX 4 1 3 2 2 3 1 4 5 5 6 6 7 7 8 8
REMARK H PARENT
REMARK Flexibility Score: inf
ROOT
ATOM      1  C   UNL     1     144.971 144.940 139.795  1.00  0.00     0.000 C 
ENDROOT
BRANCH   1   2
ATOM      2  C   UNL     1     145.946 146.113 139.976  1.00  0.00    -0.000 C 
BRANCH   2   3
ATOM      3  C   UNL     1     146.012 146.609 141.427  1.00  0.00    -0.003 C 
ATOM      4  C   UNL     1     145.049 147.770 141.656  1.00  0.00     0.004 C 
ENDBRANCH   2   3
ENDBRANCH   1   2
BRANCH   1   5
ATOM      5  C   UNL     1     143.688 145.346 139.052  1.00  0.00     0.008 C 
BRANCH   5   6
ATOM      6  C   UNL     1     143.912 146.619 138.228  1.00  0.00     0.072 C 
BRANCH   6   7
ATOM      7  C   UNL     1     142.860 147.638 138.544  1.00  0.00     0.224 C 
ATOM      8  O   UNL     1     141.706 147.294 138.747  1.00  0.00    -0.303 OA
ENDBRANCH   6   7
ENDBRANCH   5   6
ENDBRANCH   1   5
TORSDOF 5
ENDMDL
MODEL 7
REMARK VINA RESULT:    -1.759      3.634      4.899
REMARK INTER + INTRA:          -2.688
REMARK INTER:                  -2.452
REMARK INTRA:                  -0.236
REMARK UNBOUND:                -0.415
REMARK SMILES CCCCCCC=O
REMARK SMILES IDX 4 1 3 2 2 3 1 4 5 5 6 6 7 7 8 8
REMARK H PARENT
REMARK Flexibility Score: inf
ROOT
ATOM      1  C   UNL     1     132.856 144.332 138.857  1.00  0.00     0.000 C 
ENDROOT
BRANCH   1   2
ATOM      2  C   UNL     1     131.747 145.185 138.224  1.00  0.00    -0.000 C 
BRANCH   2   3
ATOM      3  C   UNL     1     131.602 146.559 138.893  1.00  0.00    -0.003 C 
ATOM      4  C   UNL     1     132.911 146.995 139.545  1.00  0.00     0.004 C 
ENDBRANCH   2   3
ENDBRANCH   1   2
BRANCH   1   5
ATOM      5  C   UNL     1     133.401 143.263 137.897  1.00  0.00     0.008 C 
BRANCH   5   6
ATOM      6  C   UNL     1     132.373 142.924 136.814  1.00  0.00     0.072 C 
BRANCH   6   7
ATOM      7  C   UNL     1     131.702 141.620 137.119  1.00  0.00     0.224 C 
ATOM      8  O   UNL     1     130.579 141.597 137.598  1.00  0.00    -0.303 OA
ENDBRANCH   6   7
ENDBRANCH   5   6
ENDBRANCH   1   5
TORSDOF 5
ENDMDL
MODEL 8
REMARK VINA RESULT:    -1.733     17.608     18.714
REMARK INTER + INTRA:          -2.654
REMARK INTER:                  -2.420
REMARK INTRA:                  -0.234
REMARK UNBOUND:                -0.415
REMARK SMILES CCCCCCC=O
REMARK SMILES IDX 4 1 3 2 2 3 1 4 5 5 6 6 7 7 8 8
REMARK H PARENT
REMARK Flexibility Score: inf
ROOT
ATOM      1  C   UNL     1     145.326 134.924 139.092  1.00  0.00     0.000 C 
ENDROOT
BRANCH   1   2
ATOM      2  C   UNL     1     146.822 135.236 138.939  1.00  0.00    -0.000 C 
BRANCH   2   3
ATOM      3  C   UNL     1     147.707 133.994 139.113  1.00  0.00    -0.003 C 
ATOM      4  C   UNL     1     146.941 132.863 139.793  1.00  0.00     0.004 C 
ENDBRANCH   2   3
ENDBRANCH   1   2
BRANCH   1   5
ATOM      5  C   UNL     1     144.446 135.772 138.160  1.00  0.00     0.008 C 
BRANCH   5   6
ATOM      6  C   UNL     1     145.299 136.511 137.124  1.00  0.00     0.072 C 
BRANCH   6   7
ATOM      7  C   UNL     1     145.010 137.980 137.159  1.00  0.00     0.224 C 
ATOM      8  O   UNL     1     145.756 138.744 137.752  1.00  0.00    -0.303 OA
ENDBRANCH   6   7
ENDBRANCH   5   6
ENDBRANCH   1   5
TORSDOF 5
ENDMDL
MODEL 9
REMARK VINA RESULT:    -1.703      2.803      4.314
REMARK INTER + INTRA:          -2.616
REMARK INTER:                  -2.226
REMARK INTRA:                  -0.390
REMARK UNBOUND:                -0.415
REMARK SMILES CCCCCCC=O
REMARK SMILES IDX 4 1 3 2 2 3 1 4 5 5 6 6 7 7 8 8
REMARK H PARENT
REMARK Flexibility Score: inf
ROOT
ATOM      1  C   UNL     1     132.060 143.880 137.651  1.00  0.00     0.000 C 
ENDROOT
BRANCH   1   2
ATOM      2  C   UNL     1     132.450 144.764 138.845  1.00  0.00    -0.000 C 
BRANCH   2   3
ATOM      3  C   UNL     1     131.834 146.168 138.769  1.00  0.00    -0.003 C 
ATOM      4  C   UNL     1     130.883 146.289 137.582  1.00  0.00     0.004 C 
ENDBRANCH   2   3
ENDBRANCH   1   2
BRANCH   1   5
ATOM      5  C   UNL     1     131.555 142.494 138.081  1.00  0.00     0.008 C 
BRANCH   5   6
ATOM      6  C   UNL     1     130.518 142.613 139.203  1.00  0.00     0.072 C 
BRANCH   6   7
ATOM      7  C   UNL     1     129.146 142.800 138.630  1.00  0.00     0.224 C 
ATOM      8  O   UNL     1     128.596 143.888 138.681  1.00  0.00    -0.303 OA
ENDBRANCH   6   7
ENDBRANCH   5   6
ENDBRANCH   1   5
TORSDOF 5
ENDMDL
