MODEL 1
REMARK VINA RESULT:    -3.245      0.000      0.000
REMARK INTER + INTRA:          -4.164
REMARK INTER:                  -3.814
REMARK INTRA:                  -0.351
REMARK UNBOUND:                -0.351
REMARK SMILES [NH3+][C@@H](CO)C(=O)[O-]
REMARK SMILES IDX 3 1 2 2 1 3 5 7 6 8 7 9 4 10
REMARK H PARENT 1 4 1 5 1 6 4 11
REMARK Flexibility Score: inf
ROOT
ATOM      1  C   UNL     1     177.602 158.232 165.401  1.00  0.00     0.227 C 
ENDROOT
BRANCH   1   2
ATOM      2  C   UNL     1     176.504 159.308 165.310  1.00  0.00     0.253 C 
BRANCH   2   3
ATOM      3  N   UNL     1     175.464 159.091 166.323  1.00  0.00    -0.348 N 
ATOM      4  H   UNL     1     174.633 158.611 165.904  1.00  0.00     0.345 HD
ATOM      5  H   UNL     1     175.163 160.010 166.724  1.00  0.00     0.345 HD
ATOM      6  H   UNL     1     175.841 158.504 167.101  1.00  0.00     0.345 HD
ENDBRANCH   2   3
BRANCH   2   7
ATOM      7  C   UNL     1     175.902 159.317 163.930  1.00  0.00     0.102 C 
ATOM      8  O   UNL     1     176.091 160.294 163.156  1.00  0.00    -0.544 OA
ATOM      9  O   UNL     1     175.116 158.252 163.509  1.00  0.00    -0.544 OA
ENDBRANCH   2   7
ENDBRANCH   1   2
BRANCH   1  10
ATOM     10  O   UNL     1     178.054 157.875 164.123  1.00  0.00    -0.390 OA
ATOM     11  H   UNL     1     178.578 157.039 164.230  1.00  0.00     0.210 HD
ENDBRANCH   1  10
TORSDOF 4
ENDMDL
MODEL 2
REMARK VINA RESULT:    -3.141      1.130      2.726
REMARK INTER + INTRA:          -4.042
REMARK INTER:                  -3.816
REMARK INTRA:                  -0.226
REMARK UNBOUND:                -0.351
REMARK SMILES [NH3+][C@@H](CO)C(=O)[O-]
REMARK SMILES IDX 3 1 2 2 1 3 5 7 6 8 7 9 4 10
REMARK H PARENT 1 4 1 5 1 6 4 11
REMARK Flexibility Score: inf
ROOT
ATOM      1  C   UNL     1     175.470 159.638 164.603  1.00  0.00     0.227 C 
ENDROOT
BRANCH   1   2
ATOM      2  C   UNL     1     175.899 158.723 165.766  1.00  0.00     0.253 C 
BRANCH   2   3
ATOM      3  N   UNL     1     175.765 159.409 167.057  1.00  0.00    -0.348 N 
ATOM      4  H   UNL     1     174.912 159.077 167.566  1.00  0.00     0.345 HD
ATOM      5  H   UNL     1     175.692 160.441 166.904  1.00  0.00     0.345 HD
ATOM      6  H   UNL     1     176.608 159.226 167.647  1.00  0.00     0.345 HD
ENDBRANCH   2   3
BRANCH   2   7
ATOM      7  C   UNL     1     177.316 158.258 165.562  1.00  0.00     0.102 C 
ATOM      8  O   UNL     1     178.123 158.225 166.529  1.00  0.00    -0.544 OA
ATOM      9  O   UNL     1     177.747 157.878 164.297  1.00  0.00    -0.544 OA
ENDBRANCH   2   7
ENDBRANCH   1   2
BRANCH   1  10
ATOM     10  O   UNL     1     175.132 158.880 163.474  1.00  0.00    -0.390 OA
ATOM     11  H   UNL     1     175.934 158.345 163.239  1.00  0.00     0.210 HD
ENDBRANCH   1  10
TORSDOF 4
ENDMDL
MODEL 3
REMARK VINA RESULT:    -3.046      1.941      2.030
REMARK INTER + INTRA:          -3.931
REMARK INTER:                  -3.704
REMARK INTRA:                  -0.227
REMARK UNBOUND:                -0.351
REMARK SMILES [NH3+][C@@H](CO)C(=O)[O-]
REMARK SMILES IDX 3 1 2 2 1 3 5 7 6 8 7 9 4 10
REMARK H PARENT 1 4 1 5 1 6 4 11
REMARK Flexibility Score: inf
ROOT
ATOM      1  C   UNL     1     177.830 159.245 164.264  1.00  0.00     0.227 C 
ENDROOT
BRANCH   1   2
ATOM      2  C   UNL     1     177.016 159.908 163.138  1.00  0.00     0.253 C 
BRANCH   2   3
ATOM      3  N   UNL     1     177.223 161.361 163.117  1.00  0.00    -0.348 N 
ATOM      4  H   UNL     1     177.762 161.671 163.960  1.00  0.00     0.345 HD
ATOM      5  H   UNL     1     176.299 161.851 163.103  1.00  0.00     0.345 HD
ATOM      6  H   UNL     1     177.749 161.634 162.256  1.00  0.00     0.345 HD
ENDBRANCH   2   3
BRANCH   2   7
ATOM      7  C   UNL     1     175.554 159.587 163.299  1.00  0.00     0.102 C 
ATOM      8  O   UNL     1     174.689 160.501 163.244  1.00  0.00    -0.544 OA
ATOM      9  O   UNL     1     175.152 158.277 163.528  1.00  0.00    -0.544 OA
ENDBRANCH   2   7
ENDBRANCH   1   2
BRANCH   1  10
ATOM     10  O   UNL     1     178.001 157.877 164.015  1.00  0.00    -0.390 OA
ATOM     11  H   UNL     1     178.124 157.778 163.036  1.00  0.00     0.210 HD
ENDBRANCH   1  10
TORSDOF 4
ENDMDL
MODEL 4
REMARK VINA RESULT:    -3.022      1.679      2.074
REMARK INTER + INTRA:          -3.903
REMARK INTER:                  -3.579
REMARK INTRA:                  -0.324
REMARK UNBOUND:                -0.351
REMARK SMILES [NH3+][C@@H](CO)C(=O)[O-]
REMARK SMILES IDX 3 1 2 2 1 3 5 7 6 8 7 9 4 10
REMARK H PARENT 1 4 1 5 1 6 4 11
REMARK Flexibility Score: inf
ROOT
ATOM      1  C   UNL     1     176.041 159.456 166.637  1.00  0.00     0.227 C 
ENDROOT
BRANCH   1   2
ATOM      2  C   UNL     1     176.020 159.910 165.166  1.00  0.00     0.253 C 
BRANCH   2   3
ATOM      3  N   UNL     1     174.764 160.596 164.840  1.00  0.00    -0.348 N 
ATOM      4  H   UNL     1     174.020 159.906 164.585  1.00  0.00     0.345 HD
ATOM      5  H   UNL     1     174.915 161.250 164.037  1.00  0.00     0.345 HD
ATOM      6  H   UNL     1     174.443 161.158 165.661  1.00  0.00     0.345 HD
ENDBRANCH   2   3
BRANCH   2   7
ATOM      7  C   UNL     1     176.225 158.726 164.257  1.00  0.00     0.102 C 
ATOM      8  O   UNL     1     177.357 158.182 164.162  1.00  0.00    -0.544 OA
ATOM      9  O   UNL     1     175.165 158.240 163.502  1.00  0.00    -0.544 OA
ENDBRANCH   2   7
ENDBRANCH   1   2
BRANCH   1  10
ATOM     10  O   UNL     1     175.906 158.064 166.730  1.00  0.00    -0.390 OA
ATOM     11  H   UNL     1     176.592 157.753 167.376  1.00  0.00     0.210 HD
ENDBRANCH   1  10
TORSDOF 4
ENDMDL
MODEL 5
REMARK VINA RESULT:    -2.997      1.152      2.141
REMARK INTER + INTRA:          -3.873
REMARK INTER:                  -3.478
REMARK INTRA:                  -0.396
REMARK UNBOUND:                -0.351
REMARK SMILES [NH3+][C@@H](CO)C(=O)[O-]
REMARK SMILES IDX 3 1 2 2 1 3 5 7 6 8 7 9 4 10
REMARK H PARENT 1 4 1 5 1 6 4 11
REMARK Flexibility Score: inf
ROOT
ATOM      1  C   UNL     1     176.110 160.910 165.280  1.00  0.00     0.227 C 
ENDROOT
BRANCH   1   2
ATOM      2  C   UNL     1     175.512 159.513 165.530  1.00  0.00     0.253 C 
BRANCH   2   3
ATOM      3  N   UNL     1     175.921 158.987 166.838  1.00  0.00    -0.348 N 
ATOM      4  H   UNL     1     175.417 158.095 167.053  1.00  0.00     0.345 HD
ATOM      5  H   UNL     1     175.709 159.689 167.584  1.00  0.00     0.345 HD
ATOM      6  H   UNL     1     176.951 158.808 166.843  1.00  0.00     0.345 HD
ENDBRANCH   2   3
BRANCH   2   7
ATOM      7  C   UNL     1     175.925 158.570 164.431  1.00  0.00     0.102 C 
ATOM      8  O   UNL     1     175.168 158.368 163.443  1.00  0.00    -0.544 OA
ATOM      9  O   UNL     1     177.140 157.901 164.510  1.00  0.00    -0.544 OA
ENDBRANCH   2   7
ENDBRANCH   1   2
BRANCH   1  10
ATOM     10  O   UNL     1     176.929 160.903 164.142  1.00  0.00    -0.390 OA
ATOM     11  H   UNL     1     177.029 159.955 163.868  1.00  0.00     0.210 HD
ENDBRANCH   1  10
TORSDOF 4
ENDMDL
MODEL 6
REMARK VINA RESULT:    -2.957      1.744      2.858
REMARK INTER + INTRA:          -3.826
REMARK INTER:                  -3.431
REMARK INTRA:                  -0.396
REMARK UNBOUND:                -0.351
REMARK SMILES [NH3+][C@@H](CO)C(=O)[O-]
REMARK SMILES IDX 3 1 2 2 1 3 5 7 6 8 7 9 4 10
REMARK H PARENT 1 4 1 5 1 6 4 11
REMARK Flexibility Score: inf
ROOT
ATOM      1  C   UNL     1     175.478 159.602 163.511  1.00  0.00     0.227 C 
ENDROOT
BRANCH   1   2
ATOM      2  C   UNL     1     176.600 159.837 164.539  1.00  0.00     0.253 C 
BRANCH   2   3
ATOM      3  N   UNL     1     177.694 160.626 163.959  1.00  0.00    -0.348 N 
ATOM      4  H   UNL     1     177.568 161.644 164.167  1.00  0.00     0.345 HD
ATOM      5  H   UNL     1     177.719 160.489 162.922  1.00  0.00     0.345 HD
ATOM      6  H   UNL     1     178.609 160.308 164.350  1.00  0.00     0.345 HD
ENDBRANCH   2   3
BRANCH   2   7
ATOM      7  C   UNL     1     177.117 158.519 165.051  1.00  0.00     0.102 C 
ATOM      8  O   UNL     1     177.982 157.875 164.400  1.00  0.00    -0.544 OA
ATOM      9  O   UNL     1     176.625 157.996 166.240  1.00  0.00    -0.544 OA
ENDBRANCH   2   7
ENDBRANCH   1   2
BRANCH   1  10
ATOM     10  O   UNL     1     175.105 158.252 163.483  1.00  0.00    -0.390 OA
ATOM     11  H   UNL     1     175.479 157.869 162.647  1.00  0.00     0.210 HD
ENDBRANCH   1  10
TORSDOF 4
ENDMDL
MODEL 7
REMARK VINA RESULT:    -2.929      2.289      2.954
REMARK INTER + INTRA:          -3.793
REMARK INTER:                  -3.396
REMARK INTRA:                  -0.396
REMARK UNBOUND:                -0.351
REMARK SMILES [NH3+][C@@H](CO)C(=O)[O-]
REMARK SMILES IDX 3 1 2 2 1 3 5 7 6 8 7 9 4 10
REMARK H PARENT 1 4 1 5 1 6 4 11
REMARK Flexibility Score: inf
ROOT
ATOM      1  C   UNL     1     176.770 160.740 162.077  1.00  0.00     0.227 C 
ENDROOT
BRANCH   1   2
ATOM      2  C   UNL     1     176.842 160.094 163.473  1.00  0.00     0.253 C 
BRANCH   2   3
ATOM      3  N   UNL     1     177.873 159.051 163.522  1.00  0.00    -0.348 N 
ATOM      4  H   UNL     1     178.032 158.732 164.507  1.00  0.00     0.345 HD
ATOM      5  H   UNL     1     178.772 159.421 163.134  1.00  0.00     0.345 HD
ATOM      6  H   UNL     1     177.581 158.233 162.941  1.00  0.00     0.345 HD
ENDBRANCH   2   3
BRANCH   2   7
ATOM      7  C   UNL     1     175.499 159.525 163.849  1.00  0.00     0.102 C 
ATOM      8  O   UNL     1     174.671 160.218 164.499  1.00  0.00    -0.544 OA
ATOM      9  O   UNL     1     175.174 158.222 163.494  1.00  0.00    -0.544 OA
ENDBRANCH   2   7
ENDBRANCH   1   2
BRANCH   1  10
ATOM     10  O   UNL     1     175.459 160.714 161.584  1.00  0.00    -0.390 OA
ATOM     11  H   UNL     1     175.437 161.319 160.798  1.00  0.00     0.210 HD
ENDBRANCH   1  10
TORSDOF 4
ENDMDL
MODEL 8
REMARK VINA RESULT:    -2.921      7.949      8.481
REMARK INTER + INTRA:          -3.784
REMARK INTER:                  -3.534
REMARK INTRA:                  -0.250
REMARK UNBOUND:                -0.351
REMARK SMILES [NH3+][C@@H](CO)C(=O)[O-]
REMARK SMILES IDX 3 1 2 2 1 3 5 7 6 8 7 9 4 10
REMARK H PARENT 1 4 1 5 1 6 4 11
REMARK Flexibility Score: inf
ROOT
ATOM      1  C   UNL     1     175.125 161.395 157.049  1.00  0.00     0.227 C 
ENDROOT
BRANCH   1   2
ATOM      2  C   UNL     1     176.184 160.801 156.103  1.00  0.00     0.253 C 
BRANCH   2   3
ATOM      3  N   UNL     1     175.566 160.265 154.884  1.00  0.00    -0.348 N 
ATOM      4  H   UNL     1     175.632 160.956 154.100  1.00  0.00     0.345 HD
ATOM      5  H   UNL     1     174.558 160.048 155.064  1.00  0.00     0.345 HD
ATOM      6  H   UNL     1     176.044 159.380 154.601  1.00  0.00     0.345 HD
ENDBRANCH   2   3
BRANCH   2   7
ATOM      7  C   UNL     1     176.967 159.727 156.811  1.00  0.00     0.102 C 
ATOM      8  O   UNL     1     177.418 159.925 157.971  1.00  0.00    -0.544 OA
ATOM      9  O   UNL     1     177.211 158.514 156.180  1.00  0.00    -0.544 OA
ENDBRANCH   2   7
ENDBRANCH   1   2
BRANCH   1  10
ATOM     10  O   UNL     1     174.482 160.382 157.774  1.00  0.00    -0.390 OA
ATOM     11  H   UNL     1     173.507 160.528 157.664  1.00  0.00     0.210 HD
ENDBRANCH   1  10
TORSDOF 4
ENDMDL
MODEL 9
REMARK VINA RESULT:    -2.883      8.312      8.828
REMARK INTER + INTRA:          -3.739
REMARK INTER:                  -3.715
REMARK INTRA:                  -0.024
REMARK UNBOUND:                -0.351
REMARK SMILES [NH3+][C@@H](CO)C(=O)[O-]
REMARK SMILES IDX 3 1 2 2 1 3 5 7 6 8 7 9 4 10
REMARK H PARENT 1 4 1 5 1 6 4 11
REMARK Flexibility Score: inf
ROOT
ATOM      1  C   UNL     1     177.017 159.453 157.050  1.00  0.00     0.227 C 
ENDROOT
BRANCH   1   2
ATOM      2  C   UNL     1     176.210 160.572 156.368  1.00  0.00     0.253 C 
BRANCH   2   3
ATOM      3  N   UNL     1     175.776 160.170 155.024  1.00  0.00    -0.348 N 
ATOM      4  H   UNL     1     175.599 159.139 154.984  1.00  0.00     0.345 HD
ATOM      5  H   UNL     1     176.513 160.419 154.325  1.00  0.00     0.345 HD
ATOM      6  H   UNL     1     174.899 160.677 154.767  1.00  0.00     0.345 HD
ENDBRANCH   2   3
BRANCH   2   7
ATOM      7  C   UNL     1     177.029 161.834 156.301  1.00  0.00     0.102 C 
ATOM      8  O   UNL     1     177.017 162.655 157.257  1.00  0.00    -0.544 OA
ATOM      9  O   UNL     1     177.791 162.108 155.173  1.00  0.00    -0.544 OA
ENDBRANCH   2   7
ENDBRANCH   1   2
BRANCH   1  10
ATOM     10  O   UNL     1     177.399 158.477 156.118  1.00  0.00    -0.390 OA
ATOM     11  H   UNL     1     177.729 157.700 156.639  1.00  0.00     0.210 HD
ENDBRANCH   1  10
TORSDOF 4
ENDMDL
