MODEL 1
REMARK VINA RESULT:     2.336      0.000      0.000
REMARK INTER + INTRA:           2.592
REMARK INTER:                   2.609
REMARK INTRA:                  -0.018
REMARK UNBOUND:                -0.018
REMARK SMILES CC1(C)CC[C@]2(C(=O)[O-])[C@@H](O)C[C@@]3(C)C(=CC[C@H]4[C@@]5(C)CC[C@H](O)C(C)(C)[C@H]5CC[C@]43C)[C@@H]2C1
REMARK SMILES IDX 6 1 5 2 33 3 10 4 4 5 34 6 15 7 12 8 2 9 16 10 13 11 1 12
REMARK SMILES IDX 3 13 17 14 31 15 14 16 18 17 30 18 32 19 19 20 29 21 21 22
REMARK SMILES IDX 20 23 28 24 22 25 25 26 23 27 26 28 27 29 7 30 8 31 9 32
REMARK SMILES IDX 11 33 24 35
REMARK H PARENT 11 34 24 36
REMARK Flexibility Score: inf
ROOT
ATOM      1  C   UNL     1      12.442 -18.902 -14.589  1.00  0.00     0.042 C 
ATOM      2  C   UNL     1      11.296 -18.169 -15.370  1.00  0.00     0.017 C 
ATOM      3  C   UNL     1      13.593 -17.884 -14.158  1.00  0.00     0.030 C 
ATOM      4  C   UNL     1      11.807 -19.590 -13.339  1.00  0.00     0.127 C 
ATOM      5  C   UNL     1      10.930 -16.813 -14.755  1.00  0.00     0.007 C 
ATOM      6  C   UNL     1      13.481 -16.538 -14.941  1.00  0.00     0.015 C 
ATOM      7  C   UNL     1      13.801 -17.784 -12.623  1.00  0.00    -0.063 C 
ATOM      8  C   UNL     1      12.860 -20.154 -12.370  1.00  0.00     0.044 C 
ATOM      9  C   UNL     1      12.107 -15.802 -14.835  1.00  0.00    -0.035 C 
ATOM     10  C   UNL     1      14.336 -16.674 -12.075  1.00  0.00    -0.027 C 
ATOM     11  C   UNL     1      13.871 -19.085 -11.799  1.00  0.00    -0.003 C 
ATOM     12  C   UNL     1      12.063 -14.875 -13.601  1.00  0.00     0.011 C 
ATOM     13  C   UNL     1      11.937 -14.915 -16.090  1.00  0.00     0.011 C 
ATOM     14  C   UNL     1      14.364 -16.410 -10.605  1.00  0.00     0.032 C 
ATOM     15  C   UNL     1      13.619 -18.829 -10.221  1.00  0.00    -0.020 C 
ATOM     16  C   UNL     1      15.314 -19.639 -12.041  1.00  0.00     0.017 C 
ATOM     17  C   UNL     1      14.520 -17.655  -9.686  1.00  0.00     0.006 C 
ATOM     18  C   UNL     1      12.125 -18.435  -9.959  1.00  0.00     0.008 C 
ATOM     19  C   UNL     1      13.966 -20.159  -9.458  1.00  0.00     0.012 C 
ATOM     20  C   UNL     1      14.339 -17.326  -8.104  1.00  0.00    -0.025 C 
ATOM     21  C   UNL     1      11.846 -17.519  -8.739  1.00  0.00     0.005 C 
ATOM     22  C   UNL     1      14.688 -15.819  -7.820  1.00  0.00     0.010 C 
ATOM     23  C   UNL     1      15.387 -18.188  -7.324  1.00  0.00     0.012 C 
ATOM     24  C   UNL     1      12.868 -17.671  -7.584  1.00  0.00     0.003 C 
ATOM     25  C   UNL     1      14.359 -15.324  -6.415  1.00  0.00     0.033 C 
ATOM     26  C   UNL     1      12.419 -16.995  -6.202  1.00  0.00    -0.006 C 
ATOM     27  C   UNL     1      12.863 -15.503  -6.133  1.00  0.00     0.120 C 
ATOM     28  C   UNL     1      12.989 -17.803  -4.997  1.00  0.00     0.014 C 
ATOM     29  C   UNL     1      10.876 -17.031  -6.015  1.00  0.00     0.014 C 
ENDROOT
BRANCH   1  30
ATOM     30  C   UNL     1      13.011 -19.983 -15.513  1.00  0.00     0.051 C 
ATOM     31  O   UNL     1      12.768 -19.974 -16.749  1.00  0.00    -0.549 OA
ATOM     32  O   UNL     1      13.886 -20.945 -15.021  1.00  0.00    -0.549 OA
ENDBRANCH   1  30
BRANCH   4  33
ATOM     33  O   UNL     1      10.875 -20.583 -13.705  1.00  0.00    -0.392 OA
ATOM     34  H   UNL     1      11.161 -21.449 -13.309  1.00  0.00     0.210 HD
ENDBRANCH   4  33
BRANCH  27  35
ATOM     35  O   UNL     1      12.508 -14.905  -4.906  1.00  0.00    -0.393 OA
ATOM     36  H   UNL     1      13.009 -15.359  -4.181  1.00  0.00     0.210 HD
ENDBRANCH  27  35
TORSDOF 3
ENDMDL
MODEL 2
REMARK VINA RESULT:     2.808      3.619      7.558
REMARK INTER + INTRA:           3.119
REMARK INTER:                   3.618
REMARK INTRA:                  -0.499
REMARK UNBOUND:                -0.018
REMARK SMILES CC1(C)CC[C@]2(C(=O)[O-])[C@@H](O)C[C@@]3(C)C(=CC[C@H]4[C@@]5(C)CC[C@H](O)C(C)(C)[C@H]5CC[C@]43C)[C@@H]2C1
REMARK SMILES IDX 6 1 5 2 33 3 10 4 4 5 34 6 15 7 12 8 2 9 16 10 13 11 1 12
REMARK SMILES IDX 3 13 17 14 31 15 14 16 18 17 30 18 32 19 19 20 29 21 21 22
REMARK SMILES IDX 20 23 28 24 22 25 25 26 23 27 26 28 27 29 7 30 8 31 9 32
REMARK SMILES IDX 11 33 24 35
REMARK H PARENT 11 34 24 36
REMARK Flexibility Score: inf
ROOT
ATOM      1  C   UNL     1      14.395 -17.136 -10.761  1.00  0.00     0.042 C 
ATOM      2  C   UNL     1      14.330 -16.074 -11.915  1.00  0.00     0.017 C 
ATOM      3  C   UNL     1      13.118 -18.093 -10.781  1.00  0.00     0.030 C 
ATOM      4  C   UNL     1      15.712 -17.957 -10.938  1.00  0.00     0.127 C 
ATOM      5  C   UNL     1      13.835 -16.665 -13.239  1.00  0.00     0.007 C 
ATOM      6  C   UNL     1      11.977 -17.497 -11.666  1.00  0.00     0.015 C 
ATOM      7  C   UNL     1      13.459 -19.592 -10.997  1.00  0.00    -0.063 C 
ATOM      8  C   UNL     1      15.784 -19.176 -10.003  1.00  0.00     0.044 C 
ATOM      9  C   UNL     1      12.367 -17.163 -13.141  1.00  0.00    -0.035 C 
ATOM     10  C   UNL     1      12.546 -20.433 -11.523  1.00  0.00    -0.027 C 
ATOM     11  C   UNL     1      14.609 -20.214 -10.181  1.00  0.00    -0.003 C 
ATOM     12  C   UNL     1      12.185 -18.391 -14.059  1.00  0.00     0.011 C 
ATOM     13  C   UNL     1      11.415 -16.055 -13.652  1.00  0.00     0.011 C 
ATOM     14  C   UNL     1      12.863 -21.824 -11.966  1.00  0.00     0.032 C 
ATOM     15  C   UNL     1      15.145 -21.597 -10.829  1.00  0.00    -0.020 C 
ATOM     16  C   UNL     1      14.002 -20.472  -8.762  1.00  0.00     0.017 C 
ATOM     17  C   UNL     1      13.953 -22.574 -11.149  1.00  0.00     0.006 C 
ATOM     18  C   UNL     1      15.902 -21.318 -12.172  1.00  0.00     0.008 C 
ATOM     19  C   UNL     1      16.119 -22.266  -9.792  1.00  0.00     0.012 C 
ATOM     20  C   UNL     1      14.395 -23.996 -11.800  1.00  0.00    -0.025 C 
ATOM     21  C   UNL     1      15.870 -22.443 -13.239  1.00  0.00     0.005 C 
ATOM     22  C   UNL     1      13.230 -24.573 -12.685  1.00  0.00     0.010 C 
ATOM     23  C   UNL     1      14.612 -25.004 -10.622  1.00  0.00     0.012 C 
ATOM     24  C   UNL     1      15.742 -23.872 -12.652  1.00  0.00     0.003 C 
ATOM     25  C   UNL     1      13.588 -25.797 -13.522  1.00  0.00     0.033 C 
ATOM     26  C   UNL     1      16.042 -25.052 -13.696  1.00  0.00    -0.006 C 
ATOM     27  C   UNL     1      14.751 -25.467 -14.464  1.00  0.00     0.120 C 
ATOM     28  C   UNL     1      16.669 -26.274 -12.960  1.00  0.00     0.014 C 
ATOM     29  C   UNL     1      17.101 -24.633 -14.753  1.00  0.00     0.014 C 
ENDROOT
BRANCH   1  30
ATOM     30  C   UNL     1      14.463 -16.372  -9.435  1.00  0.00     0.051 C 
ATOM     31  O   UNL     1      13.822 -16.767  -8.425  1.00  0.00    -0.549 OA
ATOM     32  O   UNL     1      15.310 -15.279  -9.291  1.00  0.00    -0.549 OA
ENDBRANCH   1  30
BRANCH   4  33
ATOM     33  O   UNL     1      16.857 -17.146 -10.799  1.00  0.00    -0.392 OA
ATOM     34  H   UNL     1      17.385 -17.194 -11.640  1.00  0.00     0.210 HD
ENDBRANCH   4  33
BRANCH  27  35
ATOM     35  O   UNL     1      14.991 -26.530 -15.359  1.00  0.00    -0.393 OA
ATOM     36  H   UNL     1      14.126 -26.796 -15.765  1.00  0.00     0.210 HD
ENDBRANCH  27  35
TORSDOF 3
ENDMDL
MODEL 3
REMARK VINA RESULT:     4.403      1.800      7.809
REMARK INTER + INTRA:           4.900
REMARK INTER:                   5.400
REMARK INTRA:                  -0.500
REMARK UNBOUND:                -0.018
REMARK SMILES CC1(C)CC[C@]2(C(=O)[O-])[C@@H](O)C[C@@]3(C)C(=CC[C@H]4[C@@]5(C)CC[C@H](O)C(C)(C)[C@H]5CC[C@]43C)[C@@H]2C1
REMARK SMILES IDX 6 1 5 2 33 3 10 4 4 5 34 6 15 7 12 8 2 9 16 10 13 11 1 12
REMARK SMILES IDX 3 13 17 14 31 15 14 16 18 17 30 18 32 19 19 20 29 21 21 22
REMARK SMILES IDX 20 23 28 24 22 25 25 26 23 27 26 28 27 29 7 30 8 31 9 32
REMARK SMILES IDX 11 33 24 35
REMARK H PARENT 11 34 24 36
REMARK Flexibility Score: inf
ROOT
ATOM      1  C   UNL     1      13.265 -18.054  -7.360  1.00  0.00     0.042 C 
ATOM      2  C   UNL     1      13.725 -19.464  -6.848  1.00  0.00     0.017 C 
ATOM      3  C   UNL     1      14.413 -17.341  -8.208  1.00  0.00     0.030 C 
ATOM      4  C   UNL     1      11.976 -18.253  -8.220  1.00  0.00     0.127 C 
ATOM      5  C   UNL     1      14.502 -20.256  -7.905  1.00  0.00     0.007 C 
ATOM      6  C   UNL     1      15.795 -18.033  -7.984  1.00  0.00     0.015 C 
ATOM      7  C   UNL     1      14.014 -17.038  -9.677  1.00  0.00    -0.063 C 
ATOM      8  C   UNL     1      11.553 -16.976  -8.964  1.00  0.00     0.044 C 
ATOM      9  C   UNL     1      15.842 -19.566  -8.280  1.00  0.00    -0.035 C 
ATOM     10  C   UNL     1      14.957 -16.915 -10.633  1.00  0.00    -0.027 C 
ATOM     11  C   UNL     1      12.639 -16.398  -9.953  1.00  0.00    -0.003 C 
ATOM     12  C   UNL     1      16.154 -19.839  -9.767  1.00  0.00     0.011 C 
ATOM     13  C   UNL     1      16.988 -20.184  -7.444  1.00  0.00     0.011 C 
ATOM     14  C   UNL     1      14.650 -16.847 -12.093  1.00  0.00     0.032 C 
ATOM     15  C   UNL     1      12.176 -16.573 -11.494  1.00  0.00    -0.020 C 
ATOM     16  C   UNL     1      12.822 -14.884  -9.604  1.00  0.00     0.017 C 
ATOM     17  C   UNL     1      13.321 -16.139 -12.483  1.00  0.00     0.006 C 
ATOM     18  C   UNL     1      11.831 -18.071 -11.798  1.00  0.00     0.008 C 
ATOM     19  C   UNL     1      10.908 -15.672 -11.719  1.00  0.00     0.012 C 
ATOM     20  C   UNL     1      12.947 -16.276 -14.059  1.00  0.00    -0.025 C 
ATOM     21  C   UNL     1      12.048 -18.557 -13.255  1.00  0.00     0.005 C 
ATOM     22  C   UNL     1      14.251 -16.501 -14.909  1.00  0.00     0.010 C 
ATOM     23  C   UNL     1      12.339 -14.908 -14.516  1.00  0.00     0.012 C 
ATOM     24  C   UNL     1      11.891 -17.446 -14.325  1.00  0.00     0.003 C 
ATOM     25  C   UNL     1      14.023 -16.855 -16.375  1.00  0.00     0.033 C 
ATOM     26  C   UNL     1      11.779 -17.982 -15.831  1.00  0.00    -0.006 C 
ATOM     27  C   UNL     1      13.186 -18.135 -16.483  1.00  0.00     0.120 C 
ATOM     28  C   UNL     1      10.875 -17.032 -16.674  1.00  0.00     0.014 C 
ATOM     29  C   UNL     1      11.079 -19.368 -15.901  1.00  0.00     0.014 C 
ENDROOT
BRANCH   1  30
ATOM     30  C   UNL     1      12.913 -17.209  -6.131  1.00  0.00     0.051 C 
ATOM     31  O   UNL     1      12.418 -17.738  -5.101  1.00  0.00    -0.549 OA
ATOM     32  O   UNL     1      13.220 -15.854  -6.093  1.00  0.00    -0.549 OA
ENDBRANCH   1  30
BRANCH   4  33
ATOM     33  O   UNL     1      10.910 -18.768  -7.454  1.00  0.00    -0.392 OA
ATOM     34  H   UNL     1      10.504 -18.024  -6.935  1.00  0.00     0.210 HD
ENDBRANCH   4  33
BRANCH  27  35
ATOM     35  O   UNL     1      13.102 -18.569 -17.821  1.00  0.00    -0.393 OA
ATOM     36  H   UNL     1      12.595 -17.892 -18.338  1.00  0.00     0.210 HD
ENDBRANCH  27  35
TORSDOF 3
ENDMDL
