MODEL 1
REMARK VINA RESULT:    -3.592      0.000      0.000
REMARK INTER + INTRA:          -3.907
REMARK INTER:                  -3.907
REMARK INTRA:                   0.000
REMARK UNBOUND:                 0.000
REMARK SMILES Cc1cc(O)c2c(c1)C(=O)c1cc(O)cc(O)c1C2=O
REMARK SMILES IDX 1 1 2 2 8 3 7 4 6 5 4 6 3 7 19 8 20 9 18 10 11 11 9 12 10 13
REMARK SMILES IDX 12 14 13 15 15 16 16 17 5 18 17 20 14 22
REMARK H PARENT 5 19 17 21 14 23
REMARK Flexibility Score: inf
ROOT
ATOM      1  C   UNL     1      -0.414  -5.516 -12.057  1.00  0.00     0.044 C 
ATOM      2  C   UNL     1       1.081  -5.451 -11.935  1.00  0.00    -0.047 A 
ATOM      3  C   UNL     1       1.873  -5.276 -13.073  1.00  0.00     0.016 A 
ATOM      4  C   UNL     1       3.274  -5.237 -12.973  1.00  0.00     0.038 A 
ATOM      5  C   UNL     1       3.896  -5.376 -11.710  1.00  0.00     0.076 A 
ATOM      6  C   UNL     1       3.087  -5.654 -10.574  1.00  0.00     0.127 A 
ATOM      7  C   UNL     1       1.694  -5.659 -10.696  1.00  0.00     0.050 A 
ATOM      8  C   UNL     1       5.369  -5.173 -11.618  1.00  0.00     0.201 C 
ATOM      9  O   UNL     1       5.899  -4.876 -10.514  1.00  0.00    -0.288 OA
ATOM     10  C   UNL     1       6.205  -5.205 -12.846  1.00  0.00     0.076 A 
ATOM     11  C   UNL     1       5.576  -5.134 -14.108  1.00  0.00     0.041 A 
ATOM     12  C   UNL     1       4.100  -5.065 -14.193  1.00  0.00     0.194 C 
ATOM     13  O   UNL     1       3.543  -4.876 -15.309  1.00  0.00    -0.289 OA
ATOM     14  C   UNL     1       6.356  -5.125 -15.278  1.00  0.00     0.059 A 
ATOM     15  C   UNL     1       7.747  -5.194 -15.203  1.00  0.00     0.120 A 
ATOM     16  C   UNL     1       8.374  -5.274 -13.957  1.00  0.00     0.093 A 
ATOM     17  C   UNL     1       7.616  -5.281 -12.779  1.00  0.00     0.131 A 
ENDROOT
BRANCH   6  18
ATOM     18  O   UNL     1       3.619  -5.965  -9.320  1.00  0.00    -0.507 OA
ATOM     19  H   UNL     1       4.599  -5.887  -9.091  1.00  0.00     0.293 HD
ENDBRANCH   6  18
BRANCH  17  20
ATOM     20  O   UNL     1       8.266  -5.374 -11.548  1.00  0.00    -0.507 OA
ATOM     21  H   UNL     1       7.889  -5.927 -10.787  1.00  0.00     0.293 HD
ENDBRANCH  17  20
BRANCH  15  22
ATOM     22  O   UNL     1       8.499  -5.186 -16.377  1.00  0.00    -0.508 OA
ATOM     23  H   UNL     1       8.060  -5.246 -17.288  1.00  0.00     0.293 HD
ENDBRANCH  15  22
TORSDOF 3
ENDMDL
MODEL 2
REMARK VINA RESULT:    -3.348      1.320      5.496
REMARK INTER + INTRA:          -3.642
REMARK INTER:                  -3.642
REMARK INTRA:                   0.000
REMARK UNBOUND:                 0.000
REMARK SMILES Cc1cc(O)c2c(c1)C(=O)c1cc(O)cc(O)c1C2=O
REMARK SMILES IDX 1 1 2 2 8 3 7 4 6 5 4 6 3 7 19 8 20 9 18 10 11 11 9 12 10 13
REMARK SMILES IDX 12 14 13 15 15 16 16 17 5 18 17 20 14 22
REMARK H PARENT 5 19 17 21 14 23
REMARK Flexibility Score: inf
ROOT
ATOM      1  C   UNL     1       8.569  -4.875 -15.978  1.00  0.00     0.044 C 
ATOM      2  C   UNL     1       7.636  -5.113 -14.826  1.00  0.00    -0.047 A 
ATOM      3  C   UNL     1       6.253  -5.049 -15.016  1.00  0.00     0.016 A 
ATOM      4  C   UNL     1       5.370  -5.246 -13.941  1.00  0.00     0.038 A 
ATOM      5  C   UNL     1       5.881  -5.513 -12.649  1.00  0.00     0.076 A 
ATOM      6  C   UNL     1       7.288  -5.476 -12.446  1.00  0.00     0.127 A 
ATOM      7  C   UNL     1       8.144  -5.305 -13.539  1.00  0.00     0.050 A 
ATOM      8  C   UNL     1       4.923  -5.872 -11.566  1.00  0.00     0.201 C 
ATOM      9  O   UNL     1       5.321  -6.505 -10.552  1.00  0.00    -0.288 OA
ATOM     10  C   UNL     1       3.473  -5.590 -11.730  1.00  0.00     0.076 A 
ATOM     11  C   UNL     1       2.977  -5.259 -13.009  1.00  0.00     0.041 A 
ATOM     12  C   UNL     1       3.906  -5.161 -14.157  1.00  0.00     0.194 C 
ATOM     13  O   UNL     1       3.450  -4.989 -15.322  1.00  0.00    -0.289 OA
ATOM     14  C   UNL     1       1.602  -5.026 -13.187  1.00  0.00     0.059 A 
ATOM     15  C   UNL     1       0.722  -5.112 -12.107  1.00  0.00     0.120 A 
ATOM     16  C   UNL     1       1.209  -5.431 -10.837  1.00  0.00     0.093 A 
ATOM     17  C   UNL     1       2.576  -5.670 -10.639  1.00  0.00     0.131 A 
ENDROOT
BRANCH   6  18
ATOM     18  O   UNL     1       7.876  -5.566 -11.183  1.00  0.00    -0.507 OA
ATOM     19  H   UNL     1       7.564  -5.042 -10.379  1.00  0.00     0.293 HD
ENDBRANCH   6  18
BRANCH  17  20
ATOM     20  O   UNL     1       3.038  -5.974  -9.358  1.00  0.00    -0.507 OA
ATOM     21  H   UNL     1       3.739  -6.688  -9.200  1.00  0.00     0.293 HD
ENDBRANCH  17  20
BRANCH  15  22
ATOM     22  O   UNL     1      -0.636  -4.875 -12.307  1.00  0.00    -0.508 OA
ATOM     23  H   UNL     1      -1.221  -4.491 -11.575  1.00  0.00     0.293 HD
ENDBRANCH  15  22
TORSDOF 3
ENDMDL
