MODEL 1
REMARK VINA RESULT:    -4.432      0.000      0.000
REMARK INTER + INTRA:          -6.529
REMARK INTER:                  -5.986
REMARK INTRA:                  -0.542
REMARK UNBOUND:                -0.542
REMARK SMILES CCCCCCCC(=O)[O-]
REMARK SMILES IDX 5 1 6 2 7 3 8 4 9 5 10 6 4 7 3 8 2 9 1 10
REMARK H PARENT
REMARK Flexibility Score: inf
ROOT
ATOM      1  C   UNL     1      -7.148  -6.366 -14.215  1.00  0.00     0.000 C 
ENDROOT
BRANCH   1   2
ATOM      2  C   UNL     1      -7.490  -4.882 -14.017  1.00  0.00     0.006 C 
BRANCH   2   3
ATOM      3  C   UNL     1      -6.287  -4.058 -13.541  1.00  0.00     0.053 C 
BRANCH   3   4
ATOM      4  C   UNL     1      -6.632  -3.301 -12.298  1.00  0.00     0.041 C 
ATOM      5  O   UNL     1      -7.066  -2.122 -12.374  1.00  0.00    -0.550 OA
ATOM      6  O   UNL     1      -6.426  -3.880 -11.052  1.00  0.00    -0.550 OA
ENDBRANCH   3   4
ENDBRANCH   2   3
ENDBRANCH   1   2
BRANCH   1   7
ATOM      7  C   UNL     1      -6.380  -6.960 -13.021  1.00  0.00     0.000 C 
BRANCH   7   8
ATOM      8  C   UNL     1      -7.267  -7.839 -12.119  1.00  0.00    -0.000 C 
BRANCH   8   9
ATOM      9  C   UNL     1      -7.629  -7.211 -10.763  1.00  0.00    -0.003 C 
ATOM     10  C   UNL     1      -8.843  -6.285 -10.838  1.00  0.00     0.004 C 
ENDBRANCH   8   9
ENDBRANCH   7   8
ENDBRANCH   1   7
TORSDOF 6
ENDMDL
MODEL 2
REMARK VINA RESULT:    -4.153      1.051      1.421
REMARK INTER + INTRA:          -6.152
REMARK INTER:                  -5.590
REMARK INTRA:                  -0.562
REMARK UNBOUND:                -0.542
REMARK SMILES CCCCCCCC(=O)[O-]
REMARK SMILES IDX 5 1 6 2 7 3 8 4 9 5 10 6 4 7 3 8 2 9 1 10
REMARK H PARENT
REMARK Flexibility Score: inf
ROOT
ATOM      1  C   UNL     1      -7.740  -6.875 -13.864  1.00  0.00     0.000 C 
ENDROOT
BRANCH   1   2
ATOM      2  C   UNL     1      -6.980  -5.651 -14.396  1.00  0.00     0.006 C 
BRANCH   2   3
ATOM      3  C   UNL     1      -7.579  -4.327 -13.905  1.00  0.00     0.053 C 
BRANCH   3   4
ATOM      4  C   UNL     1      -6.584  -3.580 -13.075  1.00  0.00     0.041 C 
ATOM      5  O   UNL     1      -5.424  -4.040 -12.908  1.00  0.00    -0.550 OA
ATOM      6  O   UNL     1      -6.953  -2.399 -12.443  1.00  0.00    -0.550 OA
ENDBRANCH   3   4
ENDBRANCH   2   3
ENDBRANCH   1   2
BRANCH   1   7
ATOM      7  C   UNL     1      -6.888  -7.730 -12.908  1.00  0.00     0.000 C 
BRANCH   7   8
ATOM      8  C   UNL     1      -7.516  -7.862 -11.508  1.00  0.00    -0.000 C 
BRANCH   8   9
ATOM      9  C   UNL     1      -8.314  -6.633 -11.041  1.00  0.00    -0.003 C 
ATOM     10  C   UNL     1      -7.462  -5.624 -10.271  1.00  0.00     0.004 C 
ENDBRANCH   8   9
ENDBRANCH   7   8
ENDBRANCH   1   7
TORSDOF 6
ENDMDL
MODEL 3
REMARK VINA RESULT:    -4.080      2.034      3.261
REMARK INTER + INTRA:          -6.054
REMARK INTER:                  -5.535
REMARK INTRA:                  -0.519
REMARK UNBOUND:                -0.542
REMARK SMILES CCCCCCCC(=O)[O-]
REMARK SMILES IDX 5 1 6 2 7 3 8 4 9 5 10 6 4 7 3 8 2 9 1 10
REMARK H PARENT
REMARK Flexibility Score: inf
ROOT
ATOM      1  C   UNL     1      -7.612  -8.124 -11.826  1.00  0.00     0.000 C 
ENDROOT
BRANCH   1   2
ATOM      2  C   UNL     1      -6.713  -7.538 -12.924  1.00  0.00     0.006 C 
BRANCH   2   3
ATOM      3  C   UNL     1      -7.471  -7.286 -14.233  1.00  0.00     0.053 C 
BRANCH   3   4
ATOM      4  C   UNL     1      -7.711  -5.822 -14.425  1.00  0.00     0.041 C 
ATOM      5  O   UNL     1      -8.878  -5.355 -14.354  1.00  0.00    -0.550 OA
ATOM      6  O   UNL     1      -6.650  -4.979 -14.733  1.00  0.00    -0.550 OA
ENDBRANCH   3   4
ENDBRANCH   2   3
ENDBRANCH   1   2
BRANCH   1   7
ATOM      7  C   UNL     1      -7.569  -7.303 -10.525  1.00  0.00     0.000 C 
BRANCH   7   8
ATOM      8  C   UNL     1      -8.090  -5.865 -10.710  1.00  0.00    -0.000 C 
BRANCH   8   9
ATOM      9  C   UNL     1      -7.090  -4.763 -10.320  1.00  0.00    -0.003 C 
ATOM     10  C   UNL     1      -6.735  -3.839 -11.484  1.00  0.00     0.004 C 
ENDBRANCH   8   9
ENDBRANCH   7   8
ENDBRANCH   1   7
TORSDOF 6
ENDMDL
MODEL 4
REMARK VINA RESULT:    -4.009      1.223      2.645
REMARK INTER + INTRA:          -5.957
REMARK INTER:                  -5.431
REMARK INTRA:                  -0.526
REMARK UNBOUND:                -0.542
REMARK SMILES CCCCCCCC(=O)[O-]
REMARK SMILES IDX 5 1 6 2 7 3 8 4 9 5 10 6 4 7 3 8 2 9 1 10
REMARK H PARENT
REMARK Flexibility Score: inf
ROOT
ATOM      1  C   UNL     1      -8.508  -5.857 -10.570  1.00  0.00     0.000 C 
ENDROOT
BRANCH   1   2
ATOM      2  C   UNL     1      -7.072  -5.352 -10.362  1.00  0.00     0.006 C 
BRANCH   2   3
ATOM      3  C   UNL     1      -6.949  -3.834 -10.543  1.00  0.00     0.053 C 
BRANCH   3   4
ATOM      4  C   UNL     1      -6.618  -3.503 -11.964  1.00  0.00     0.041 C 
ATOM      5  O   UNL     1      -7.056  -2.445 -12.487  1.00  0.00    -0.550 OA
ATOM      6  O   UNL     1      -5.865  -4.388 -12.726  1.00  0.00    -0.550 OA
ENDBRANCH   3   4
ENDBRANCH   2   3
ENDBRANCH   1   2
BRANCH   1   7
ATOM      7  C   UNL     1      -8.594  -6.976 -11.623  1.00  0.00     0.000 C 
BRANCH   7   8
ATOM      8  C   UNL     1      -7.280  -7.766 -11.762  1.00  0.00    -0.000 C 
BRANCH   8   9
ATOM      9  C   UNL     1      -6.715  -7.830 -13.191  1.00  0.00    -0.003 C 
ATOM     10  C   UNL     1      -7.575  -7.080 -14.208  1.00  0.00     0.004 C 
ENDBRANCH   8   9
ENDBRANCH   7   8
ENDBRANCH   1   7
TORSDOF 6
ENDMDL
MODEL 5
REMARK VINA RESULT:    -3.960      2.705      3.452
REMARK INTER + INTRA:          -5.891
REMARK INTER:                  -5.300
REMARK INTRA:                  -0.591
REMARK UNBOUND:                -0.542
REMARK SMILES CCCCCCCC(=O)[O-]
REMARK SMILES IDX 5 1 6 2 7 3 8 4 9 5 10 6 4 7 3 8 2 9 1 10
REMARK H PARENT
REMARK Flexibility Score: inf
ROOT
ATOM      1  C   UNL     1      -6.242  -5.328 -13.136  1.00  0.00     0.000 C 
ENDROOT
BRANCH   1   2
ATOM      2  C   UNL     1      -7.040  -5.692 -14.397  1.00  0.00     0.006 C 
BRANCH   2   3
ATOM      3  C   UNL     1      -7.793  -7.020 -14.254  1.00  0.00     0.053 C 
BRANCH   3   4
ATOM      4  C   UNL     1      -9.264  -6.777 -14.131  1.00  0.00     0.041 C 
ATOM      5  O   UNL     1      -9.832  -5.934 -14.875  1.00  0.00    -0.550 OA
ATOM      6  O   UNL     1     -10.000  -7.445 -13.160  1.00  0.00    -0.550 OA
ENDBRANCH   3   4
ENDBRANCH   2   3
ENDBRANCH   1   2
BRANCH   1   7
ATOM      7  C   UNL     1      -7.015  -4.382 -12.199  1.00  0.00     0.000 C 
BRANCH   7   8
ATOM      8  C   UNL     1      -7.107  -4.914 -10.757  1.00  0.00    -0.000 C 
BRANCH   8   9
ATOM      9  C   UNL     1      -8.254  -5.910 -10.510  1.00  0.00    -0.003 C 
ATOM     10  C   UNL     1      -7.774  -7.355 -10.378  1.00  0.00     0.004 C 
ENDBRANCH   8   9
ENDBRANCH   7   8
ENDBRANCH   1   7
TORSDOF 6
ENDMDL
MODEL 6
REMARK VINA RESULT:    -3.827     13.077     13.919
REMARK INTER + INTRA:          -5.712
REMARK INTER:                  -5.516
REMARK INTRA:                  -0.196
REMARK UNBOUND:                -0.542
REMARK SMILES CCCCCCCC(=O)[O-]
REMARK SMILES IDX 5 1 6 2 7 3 8 4 9 5 10 6 4 7 3 8 2 9 1 10
REMARK H PARENT
REMARK Flexibility Score: inf
ROOT
ATOM      1  C   UNL     1       5.778  -3.779 -12.871  1.00  0.00     0.000 C 
ENDROOT
BRANCH   1   2
ATOM      2  C   UNL     1       5.363  -2.913 -14.069  1.00  0.00     0.006 C 
BRANCH   2   3
ATOM      3  C   UNL     1       4.297  -1.872 -13.704  1.00  0.00     0.053 C 
BRANCH   3   4
ATOM      4  C   UNL     1       4.891  -0.499 -13.689  1.00  0.00     0.041 C 
ATOM      5  O   UNL     1       4.150   0.511 -13.565  1.00  0.00    -0.550 OA
ATOM      6  O   UNL     1       6.259  -0.332 -13.864  1.00  0.00    -0.550 OA
ENDBRANCH   3   4
ENDBRANCH   2   3
ENDBRANCH   1   2
BRANCH   1   7
ATOM      7  C   UNL     1       7.073  -3.284 -12.203  1.00  0.00     0.000 C 
BRANCH   7   8
ATOM      8  C   UNL     1       7.726  -4.351 -11.305  1.00  0.00    -0.000 C 
BRANCH   8   9
ATOM      9  C   UNL     1       8.715  -3.798 -10.264  1.00  0.00    -0.003 C 
ATOM     10  C   UNL     1       8.422  -4.283  -8.844  1.00  0.00     0.004 C 
ENDBRANCH   8   9
ENDBRANCH   7   8
ENDBRANCH   1   7
TORSDOF 6
ENDMDL
MODEL 7
REMARK VINA RESULT:    -3.792     13.487     14.629
REMARK INTER + INTRA:          -5.665
REMARK INTER:                  -5.498
REMARK INTRA:                  -0.167
REMARK UNBOUND:                -0.542
REMARK SMILES CCCCCCCC(=O)[O-]
REMARK SMILES IDX 5 1 6 2 7 3 8 4 9 5 10 6 4 7 3 8 2 9 1 10
REMARK H PARENT
REMARK Flexibility Score: inf
ROOT
ATOM      1  C   UNL     1       6.929  -3.395 -12.302  1.00  0.00     0.000 C 
ENDROOT
BRANCH   1   2
ATOM      2  C   UNL     1       7.700  -4.385 -11.417  1.00  0.00     0.006 C 
BRANCH   2   3
ATOM      3  C   UNL     1       8.357  -3.708 -10.207  1.00  0.00     0.053 C 
BRANCH   3   4
ATOM      4  C   UNL     1       8.400  -4.646  -9.043  1.00  0.00     0.041 C 
ATOM      5  O   UNL     1       8.407  -5.891  -9.231  1.00  0.00    -0.550 OA
ATOM      6  O   UNL     1       8.381  -4.146  -7.747  1.00  0.00    -0.550 OA
ENDBRANCH   3   4
ENDBRANCH   2   3
ENDBRANCH   1   2
BRANCH   1   7
ATOM      7  C   UNL     1       5.647  -4.005 -12.893  1.00  0.00     0.000 C 
BRANCH   7   8
ATOM      8  C   UNL     1       5.074  -3.176 -14.058  1.00  0.00    -0.000 C 
BRANCH   8   9
ATOM      9  C   UNL     1       5.187  -1.652 -13.880  1.00  0.00    -0.003 C 
ATOM     10  C   UNL     1       3.828  -0.954 -13.825  1.00  0.00     0.004 C 
ENDBRANCH   8   9
ENDBRANCH   7   8
ENDBRANCH   1   7
TORSDOF 6
ENDMDL
MODEL 8
REMARK VINA RESULT:    -3.774      2.639      4.222
REMARK INTER + INTRA:          -5.640
REMARK INTER:                  -5.218
REMARK INTRA:                  -0.422
REMARK UNBOUND:                -0.542
REMARK SMILES CCCCCCCC(=O)[O-]
REMARK SMILES IDX 5 1 6 2 7 3 8 4 9 5 10 6 4 7 3 8 2 9 1 10
REMARK H PARENT
REMARK Flexibility Score: inf
ROOT
ATOM      1  C   UNL     1      -7.842  -7.301 -10.656  1.00  0.00     0.000 C 
ENDROOT
BRANCH   1   2
ATOM      2  C   UNL     1      -8.272  -7.891 -12.007  1.00  0.00     0.006 C 
BRANCH   2   3
ATOM      3  C   UNL     1      -9.413  -7.100 -12.659  1.00  0.00     0.053 C 
BRANCH   3   4
ATOM      4  C   UNL     1      -9.041  -6.700 -14.052  1.00  0.00     0.041 C 
ATOM      5  O   UNL     1      -7.864  -6.866 -14.467  1.00  0.00    -0.550 OA
ATOM      6  O   UNL     1      -9.984  -6.097 -14.876  1.00  0.00    -0.550 OA
ENDBRANCH   3   4
ENDBRANCH   2   3
ENDBRANCH   1   2
BRANCH   1   7
ATOM      7  C   UNL     1      -8.269  -5.832 -10.490  1.00  0.00     0.000 C 
BRANCH   7   8
ATOM      8  C   UNL     1      -7.100  -4.847 -10.675  1.00  0.00    -0.000 C 
BRANCH   8   9
ATOM      9  C   UNL     1      -6.854  -4.405 -12.128  1.00  0.00    -0.003 C 
ATOM     10  C   UNL     1      -6.786  -2.886 -12.288  1.00  0.00     0.004 C 
ENDBRANCH   8   9
ENDBRANCH   7   8
ENDBRANCH   1   7
TORSDOF 6
ENDMDL
MODEL 9
REMARK VINA RESULT:    -3.691      2.307      3.182
REMARK INTER + INTRA:          -5.528
REMARK INTER:                  -5.001
REMARK INTRA:                  -0.527
REMARK UNBOUND:                -0.542
REMARK SMILES CCCCCCCC(=O)[O-]
REMARK SMILES IDX 5 1 6 2 7 3 8 4 9 5 10 6 4 7 3 8 2 9 1 10
REMARK H PARENT
REMARK Flexibility Score: inf
ROOT
ATOM      1  C   UNL     1      -7.520  -5.798 -10.320  1.00  0.00     0.000 C 
ENDROOT
BRANCH   1   2
ATOM      2  C   UNL     1      -7.065  -5.214 -11.666  1.00  0.00     0.006 C 
BRANCH   2   3
ATOM      3  C   UNL     1      -7.146  -6.234 -12.809  1.00  0.00     0.053 C 
BRANCH   3   4
ATOM      4  C   UNL     1      -7.561  -5.563 -14.080  1.00  0.00     0.041 C 
ATOM      5  O   UNL     1      -6.705  -4.987 -14.802  1.00  0.00    -0.550 OA
ATOM      6  O   UNL     1      -8.902  -5.530 -14.443  1.00  0.00    -0.550 OA
ENDBRANCH   3   4
ENDBRANCH   2   3
ENDBRANCH   1   2
BRANCH   1   7
ATOM      7  C   UNL     1      -7.716  -7.324 -10.374  1.00  0.00     0.000 C 
BRANCH   7   8
ATOM      8  C   UNL     1      -9.122  -7.761  -9.924  1.00  0.00    -0.000 C 
BRANCH   8   9
ATOM      9  C   UNL     1     -10.278  -6.981 -10.574  1.00  0.00    -0.003 C 
ATOM     10  C   UNL     1     -10.591  -7.450 -11.994  1.00  0.00     0.004 C 
ENDBRANCH   8   9
ENDBRANCH   7   8
ENDBRANCH   1   7
TORSDOF 6
ENDMDL
