MODEL 1
REMARK VINA RESULT:    -1.294      0.000      0.000
REMARK INTER + INTRA:          -1.294
REMARK INTER:                  -1.294
REMARK INTRA:                   0.000
REMARK UNBOUND:                 0.000
REMARK SMILES CC(C)=C1CC[C@@H](C)CC1=O
REMARK SMILES IDX 8 1 7 2 6 3 5 4 4 5 2 6 1 7 3 8 10 9 11 10 9 11
REMARK H PARENT
REMARK Flexibility Score: inf
ROOT
ATOM      1  C   UNL     1      29.697  21.445  27.620  1.00  0.00     0.008 C 
ATOM      2  C   UNL     1      30.813  22.477  27.819  1.00  0.00    -0.006 C 
ATOM      3  C   UNL     1      31.992  22.188  26.876  1.00  0.00     0.008 C 
ATOM      4  C   UNL     1      33.075  23.270  26.989  1.00  0.00     0.039 C 
ATOM      5  C   UNL     1      33.519  23.504  28.425  1.00  0.00    -0.006 C 
ATOM      6  C   UNL     1      34.798  23.878  28.721  1.00  0.00    -0.070 C 
ATOM      7  C   UNL     1      35.266  24.060  30.146  1.00  0.00     0.039 C 
ATOM      8  C   UNL     1      35.824  24.093  27.630  1.00  0.00     0.039 C 
ATOM      9  C   UNL     1      32.450  23.414  29.464  1.00  0.00     0.159 C 
ATOM     10  O   UNL     1      32.490  24.120  30.508  1.00  0.00    -0.295 OA
ATOM     11  C   UNL     1      31.295  22.475  29.276  1.00  0.00     0.084 C 
ENDROOT
TORSDOF 0
ENDMDL
