MODEL 1
REMARK VINA RESULT:    -5.073      0.000      0.000
REMARK INTER + INTRA:          -8.699
REMARK INTER:                  -7.742
REMARK INTRA:                  -0.957
REMARK UNBOUND:                -0.957
REMARK SMILES O=C([O-])CCCCCCCCC(=O)[O-]
REMARK SMILES IDX 7 1 6 2 5 3 4 4 2 5 1 6 3 7 8 8 9 9 10 10 11 11 12 12 13 13
REMARK SMILES IDX 14 14
REMARK H PARENT
REMARK Flexibility Score: inf
ROOT
ATOM      1  C   UNL     1     -96.324 -61.916 -64.759  1.00  0.00     0.000 C 
ENDROOT
BRANCH   1   2
ATOM      2  C   UNL     1     -96.000 -61.512 -66.208  1.00  0.00     0.000 C 
BRANCH   2   3
ATOM      3  C   UNL     1     -96.255 -60.015 -66.479  1.00  0.00     0.006 C 
BRANCH   3   4
ATOM      4  C   UNL     1     -97.392 -59.752 -67.479  1.00  0.00     0.053 C 
BRANCH   4   5
ATOM      5  C   UNL     1     -98.236 -58.578 -67.093  1.00  0.00     0.041 C 
ATOM      6  O   UNL     1     -99.442 -58.520 -67.451  1.00  0.00    -0.550 OA
ATOM      7  O   UNL     1     -97.691 -57.546 -66.341  1.00  0.00    -0.550 OA
ENDBRANCH   4   5
ENDBRANCH   3   4
ENDBRANCH   2   3
ENDBRANCH   1   2
BRANCH   1   8
ATOM      8  C   UNL     1     -97.443 -61.059 -64.144  1.00  0.00     0.000 C 
BRANCH   8   9
ATOM      9  C   UNL     1     -98.767 -61.824 -64.005  1.00  0.00     0.000 C 
BRANCH   9  10
ATOM     10  C   UNL     1     -99.769 -61.386 -65.079  1.00  0.00     0.006 C 
BRANCH  10  11
ATOM     11  C   UNL     1     -99.742 -62.339 -66.278  1.00  0.00     0.053 C 
BRANCH  11  12
ATOM     12  C   UNL     1    -100.703 -61.884 -67.330  1.00  0.00     0.041 C 
ATOM     13  O   UNL     1    -100.781 -62.500 -68.425  1.00  0.00    -0.550 OA
ATOM     14  O   UNL     1    -101.543 -60.805 -67.087  1.00  0.00    -0.550 OA
ENDBRANCH  11  12
ENDBRANCH  10  11
ENDBRANCH   9  10
ENDBRANCH   8   9
ENDBRANCH   1   8
TORSDOF 9
ENDMDL
MODEL 2
REMARK VINA RESULT:    -5.007      2.070      3.693
REMARK INTER + INTRA:          -8.599
REMARK INTER:                  -7.650
REMARK INTRA:                  -0.948
REMARK UNBOUND:                -0.957
REMARK SMILES O=C([O-])CCCCCCCCC(=O)[O-]
REMARK SMILES IDX 7 1 6 2 5 3 4 4 2 5 1 6 3 7 8 8 9 9 10 10 11 11 12 12 13 13
REMARK SMILES IDX 14 14
REMARK H PARENT
REMARK Flexibility Score: inf
ROOT
ATOM      1  C   UNL     1     -98.829 -61.784 -63.956  1.00  0.00     0.000 C 
ENDROOT
BRANCH   1   2
ATOM      2  C   UNL     1     -99.833 -62.500 -64.876  1.00  0.00     0.000 C 
BRANCH   2   3
ATOM      3  C   UNL     1     -99.625 -62.158 -66.365  1.00  0.00     0.006 C 
BRANCH   3   4
ATOM      4  C   UNL     1    -100.747 -61.294 -66.965  1.00  0.00     0.053 C 
BRANCH   4   5
ATOM      5  C   UNL     1    -100.719 -59.886 -66.461  1.00  0.00     0.041 C 
ATOM      6  O   UNL     1    -101.523 -59.517 -65.566  1.00  0.00    -0.550 OA
ATOM      7  O   UNL     1     -99.807 -58.977 -66.984  1.00  0.00    -0.550 OA
ENDBRANCH   4   5
ENDBRANCH   3   4
ENDBRANCH   2   3
ENDBRANCH   1   2
BRANCH   1   8
ATOM      8  C   UNL     1     -97.423 -61.698 -64.572  1.00  0.00     0.000 C 
BRANCH   8   9
ATOM      9  C   UNL     1     -96.934 -60.252 -64.735  1.00  0.00     0.000 C 
BRANCH   9  10
ATOM     10  C   UNL     1     -96.494 -59.980 -66.178  1.00  0.00     0.006 C 
BRANCH  10  11
ATOM     11  C   UNL     1     -95.864 -61.227 -66.806  1.00  0.00     0.053 C 
BRANCH  11  12
ATOM     12  C   UNL     1     -96.111 -61.253 -68.281  1.00  0.00     0.041 C 
ATOM     13  O   UNL     1     -95.197 -61.607 -69.070  1.00  0.00    -0.550 OA
ATOM     14  O   UNL     1     -97.364 -60.926 -68.784  1.00  0.00    -0.550 OA
ENDBRANCH  11  12
ENDBRANCH  10  11
ENDBRANCH   9  10
ENDBRANCH   8   9
ENDBRANCH   1   8
TORSDOF 9
ENDMDL
MODEL 3
REMARK VINA RESULT:    -4.999      0.253      3.980
REMARK INTER + INTRA:          -8.587
REMARK INTER:                  -7.721
REMARK INTRA:                  -0.866
REMARK UNBOUND:                -0.957
REMARK SMILES O=C([O-])CCCCCCCCC(=O)[O-]
REMARK SMILES IDX 7 1 6 2 5 3 4 4 2 5 1 6 3 7 8 8 9 9 10 10 11 11 12 12 13 13
REMARK SMILES IDX 14 14
REMARK H PARENT
REMARK Flexibility Score: inf
ROOT
ATOM      1  C   UNL     1     -97.717 -61.088 -64.194  1.00  0.00     0.000 C 
ENDROOT
BRANCH   1   2
ATOM      2  C   UNL     1     -98.979 -61.965 -64.117  1.00  0.00     0.000 C 
BRANCH   2   3
ATOM      3  C   UNL     1     -99.996 -61.643 -65.231  1.00  0.00     0.006 C 
BRANCH   3   4
ATOM      4  C   UNL     1     -99.734 -62.396 -66.546  1.00  0.00     0.053 C 
BRANCH   4   5
ATOM      5  C   UNL     1    -100.735 -62.063 -67.607  1.00  0.00     0.041 C 
ATOM      6  O   UNL     1    -100.827 -62.779 -68.638  1.00  0.00    -0.550 OA
ATOM      7  O   UNL     1    -101.566 -60.960 -67.459  1.00  0.00    -0.550 OA
ENDBRANCH   4   5
ENDBRANCH   3   4
ENDBRANCH   2   3
ENDBRANCH   1   2
BRANCH   1   8
ATOM      8  C   UNL     1     -96.492 -61.861 -64.710  1.00  0.00     0.000 C 
BRANCH   8   9
ATOM      9  C   UNL     1     -96.089 -61.453 -66.134  1.00  0.00     0.000 C 
BRANCH   9  10
ATOM     10  C   UNL     1     -96.322 -59.956 -66.363  1.00  0.00     0.006 C 
BRANCH  10  11
ATOM     11  C   UNL     1     -97.401 -59.722 -67.425  1.00  0.00     0.053 C 
BRANCH  11  12
ATOM     12  C   UNL     1     -98.276 -58.572 -67.038  1.00  0.00     0.041 C 
ATOM     13  O   UNL     1     -97.798 -57.597 -66.403  1.00  0.00    -0.550 OA
ATOM     14  O   UNL     1     -99.613 -58.557 -67.415  1.00  0.00    -0.550 OA
ENDBRANCH  11  12
ENDBRANCH  10  11
ENDBRANCH   9  10
ENDBRANCH   8   9
ENDBRANCH   1   8
TORSDOF 9
ENDMDL
MODEL 4
REMARK VINA RESULT:    -4.958      2.570      3.764
REMARK INTER + INTRA:          -8.523
REMARK INTER:                  -7.751
REMARK INTRA:                  -0.772
REMARK UNBOUND:                -0.957
REMARK SMILES O=C([O-])CCCCCCCCC(=O)[O-]
REMARK SMILES IDX 7 1 6 2 5 3 4 4 2 5 1 6 3 7 8 8 9 9 10 10 11 11 12 12 13 13
REMARK SMILES IDX 14 14
REMARK H PARENT
REMARK Flexibility Score: inf
ROOT
ATOM      1  C   UNL     1     -98.275 -61.720 -64.038  1.00  0.00     0.000 C 
ENDROOT
BRANCH   1   2
ATOM      2  C   UNL     1     -97.039 -60.926 -64.496  1.00  0.00     0.000 C 
BRANCH   2   3
ATOM      3  C   UNL     1     -96.033 -61.792 -65.281  1.00  0.00     0.006 C 
BRANCH   3   4
ATOM      4  C   UNL     1     -95.183 -60.998 -66.286  1.00  0.00     0.053 C 
BRANCH   4   5
ATOM      5  C   UNL     1     -94.552 -61.873 -67.322  1.00  0.00     0.041 C 
ATOM      6  O   UNL     1     -94.843 -61.728 -68.538  1.00  0.00    -0.550 OA
ATOM      7  O   UNL     1     -93.643 -62.853 -66.945  1.00  0.00    -0.550 OA
ENDBRANCH   4   5
ENDBRANCH   3   4
ENDBRANCH   2   3
ENDBRANCH   1   2
BRANCH   1   8
ATOM      8  C   UNL     1     -99.178 -62.134 -65.213  1.00  0.00     0.000 C 
BRANCH   8   9
ATOM      9  C   UNL     1    -100.374 -61.191 -65.403  1.00  0.00     0.000 C 
BRANCH   9  10
ATOM     10  C   UNL     1    -100.400 -60.617 -66.824  1.00  0.00     0.006 C 
BRANCH  10  11
ATOM     11  C   UNL     1     -99.956 -59.150 -66.834  1.00  0.00     0.053 C 
BRANCH  11  12
ATOM     12  C   UNL     1     -98.508 -59.043 -67.195  1.00  0.00     0.041 C 
ATOM     13  O   UNL     1     -97.967 -59.925 -67.911  1.00  0.00    -0.550 OA
ATOM     14  O   UNL     1     -97.765 -57.947 -66.775  1.00  0.00    -0.550 OA
ENDBRANCH  11  12
ENDBRANCH  10  11
ENDBRANCH   9  10
ENDBRANCH   8   9
ENDBRANCH   1   8
TORSDOF 9
ENDMDL
MODEL 5
REMARK VINA RESULT:    -4.864      2.134      2.766
REMARK INTER + INTRA:          -8.380
REMARK INTER:                  -7.643
REMARK INTRA:                  -0.738
REMARK UNBOUND:                -0.957
REMARK SMILES O=C([O-])CCCCCCCCC(=O)[O-]
REMARK SMILES IDX 7 1 6 2 5 3 4 4 2 5 1 6 3 7 8 8 9 9 10 10 11 11 12 12 13 13
REMARK SMILES IDX 14 14
REMARK H PARENT
REMARK Flexibility Score: inf
ROOT
ATOM      1  C   UNL     1     -97.540 -61.069 -64.686  1.00  0.00     0.000 C 
ENDROOT
BRANCH   1   2
ATOM      2  C   UNL     1     -96.182 -61.757 -64.906  1.00  0.00     0.000 C 
BRANCH   2   3
ATOM      3  C   UNL     1     -95.519 -61.354 -66.239  1.00  0.00     0.006 C 
BRANCH   3   4
ATOM      4  C   UNL     1     -96.507 -60.805 -67.281  1.00  0.00     0.053 C 
BRANCH   4   5
ATOM      5  C   UNL     1     -96.285 -61.383 -68.643  1.00  0.00     0.041 C 
ATOM      6  O   UNL     1     -97.251 -61.517 -69.440  1.00  0.00    -0.550 OA
ATOM      7  O   UNL     1     -95.012 -61.777 -69.033  1.00  0.00    -0.550 OA
ENDBRANCH   4   5
ENDBRANCH   3   4
ENDBRANCH   2   3
ENDBRANCH   1   2
BRANCH   1   8
ATOM      8  C   UNL     1     -98.520 -61.941 -63.883  1.00  0.00     0.000 C 
BRANCH   8   9
ATOM      9  C   UNL     1     -99.848 -62.172 -64.617  1.00  0.00     0.000 C 
BRANCH   9  10
ATOM     10  C   UNL     1     -99.632 -62.252 -66.132  1.00  0.00     0.006 C 
BRANCH  10  11
ATOM     11  C   UNL     1    -100.705 -61.459 -66.885  1.00  0.00     0.053 C 
BRANCH  11  12
ATOM     12  C   UNL     1    -100.680 -60.022 -66.473  1.00  0.00     0.041 C 
ATOM     13  O   UNL     1    -101.560 -59.570 -65.695  1.00  0.00    -0.550 OA
ATOM     14  O   UNL     1     -99.661 -59.188 -66.915  1.00  0.00    -0.550 OA
ENDBRANCH  11  12
ENDBRANCH  10  11
ENDBRANCH   9  10
ENDBRANCH   8   9
ENDBRANCH   1   8
TORSDOF 9
ENDMDL
MODEL 6
REMARK VINA RESULT:    -4.864      2.375      2.909
REMARK INTER + INTRA:          -8.380
REMARK INTER:                  -7.470
REMARK INTRA:                  -0.909
REMARK UNBOUND:                -0.957
REMARK SMILES O=C([O-])CCCCCCCCC(=O)[O-]
REMARK SMILES IDX 7 1 6 2 5 3 4 4 2 5 1 6 3 7 8 8 9 9 10 10 11 11 12 12 13 13
REMARK SMILES IDX 14 14
REMARK H PARENT
REMARK Flexibility Score: inf
ROOT
ATOM      1  C   UNL     1     -97.462 -61.630 -64.875  1.00  0.00     0.000 C 
ENDROOT
BRANCH   1   2
ATOM      2  C   UNL     1     -97.009 -60.164 -64.986  1.00  0.00     0.000 C 
BRANCH   2   3
ATOM      3  C   UNL     1     -96.434 -59.823 -66.376  1.00  0.00     0.006 C 
BRANCH   3   4
ATOM      4  C   UNL     1     -96.481 -60.994 -67.371  1.00  0.00     0.053 C 
BRANCH   4   5
ATOM      5  C   UNL     1     -95.125 -61.378 -67.871  1.00  0.00     0.041 C 
ATOM      6  O   UNL     1     -94.970 -61.748 -69.064  1.00  0.00    -0.550 OA
ATOM      7  O   UNL     1     -94.029 -61.331 -67.018  1.00  0.00    -0.550 OA
ENDBRANCH   4   5
ENDBRANCH   3   4
ENDBRANCH   2   3
ENDBRANCH   1   2
BRANCH   1   8
ATOM      8  C   UNL     1     -98.691 -61.800 -63.967  1.00  0.00     0.000 C 
BRANCH   8   9
ATOM      9  C   UNL     1     -99.938 -62.260 -64.736  1.00  0.00     0.000 C 
BRANCH   9  10
ATOM     10  C   UNL     1     -99.689 -62.239 -66.248  1.00  0.00     0.006 C 
BRANCH  10  11
ATOM     11  C   UNL     1    -100.750 -61.401 -66.969  1.00  0.00     0.053 C 
BRANCH  11  12
ATOM     12  C   UNL     1    -100.703 -59.981 -66.502  1.00  0.00     0.041 C 
ATOM     13  O   UNL     1     -99.811 -59.203 -66.929  1.00  0.00    -0.550 OA
ATOM     14  O   UNL     1    -101.669 -59.503 -65.626  1.00  0.00    -0.550 OA
ENDBRANCH  11  12
ENDBRANCH  10  11
ENDBRANCH   9  10
ENDBRANCH   8   9
ENDBRANCH   1   8
TORSDOF 9
ENDMDL
MODEL 7
REMARK VINA RESULT:    -4.772      1.974      4.611
REMARK INTER + INTRA:          -8.240
REMARK INTER:                  -7.421
REMARK INTRA:                  -0.819
REMARK UNBOUND:                -0.957
REMARK SMILES O=C([O-])CCCCCCCCC(=O)[O-]
REMARK SMILES IDX 7 1 6 2 5 3 4 4 2 5 1 6 3 7 8 8 9 9 10 10 11 11 12 12 13 13
REMARK SMILES IDX 14 14
REMARK H PARENT
REMARK Flexibility Score: inf
ROOT
ATOM      1  C   UNL     1     -97.931 -59.176 -67.178  1.00  0.00     0.000 C 
ENDROOT
BRANCH   1   2
ATOM      2  C   UNL     1     -99.432 -58.837 -67.160  1.00  0.00     0.000 C 
BRANCH   2   3
ATOM      3  C   UNL     1    -100.251 -59.811 -66.290  1.00  0.00     0.006 C 
BRANCH   3   4
ATOM      4  C   UNL     1    -101.188 -60.726 -67.097  1.00  0.00     0.053 C 
BRANCH   4   5
ATOM      5  C   UNL     1    -100.573 -62.056 -67.398  1.00  0.00     0.041 C 
ATOM      6  O   UNL     1     -99.773 -62.584 -66.581  1.00  0.00    -0.550 OA
ATOM      7  O   UNL     1    -100.878 -62.712 -68.583  1.00  0.00    -0.550 OA
ENDBRANCH   4   5
ENDBRANCH   3   4
ENDBRANCH   2   3
ENDBRANCH   1   2
BRANCH   1   8
ATOM      8  C   UNL     1     -97.566 -60.176 -68.288  1.00  0.00     0.000 C 
BRANCH   8   9
ATOM      9  C   UNL     1     -96.611 -61.277 -67.805  1.00  0.00     0.000 C 
BRANCH   9  10
ATOM     10  C   UNL     1     -95.792 -60.803 -66.599  1.00  0.00     0.006 C 
BRANCH  10  11
ATOM     11  C   UNL     1     -95.939 -61.770 -65.420  1.00  0.00     0.053 C 
BRANCH  11  12
ATOM     12  C   UNL     1     -96.971 -61.271 -64.458  1.00  0.00     0.041 C 
ATOM     13  O   UNL     1     -97.801 -62.068 -63.950  1.00  0.00    -0.550 OA
ATOM     14  O   UNL     1     -96.991 -59.932 -64.090  1.00  0.00    -0.550 OA
ENDBRANCH  11  12
ENDBRANCH  10  11
ENDBRANCH   9  10
ENDBRANCH   8   9
ENDBRANCH   1   8
TORSDOF 9
ENDMDL
MODEL 8
REMARK VINA RESULT:    -4.756      3.005      4.086
REMARK INTER + INTRA:          -8.215
REMARK INTER:                  -7.408
REMARK INTRA:                  -0.807
REMARK UNBOUND:                -0.957
REMARK SMILES O=C([O-])CCCCCCCCC(=O)[O-]
REMARK SMILES IDX 7 1 6 2 5 3 4 4 2 5 1 6 3 7 8 8 9 9 10 10 11 11 12 12 13 13
REMARK SMILES IDX 14 14
REMARK H PARENT
REMARK Flexibility Score: inf
ROOT
ATOM      1  C   UNL     1     -97.462 -58.455 -66.561  1.00  0.00     0.000 C 
ENDROOT
BRANCH   1   2
ATOM      2  C   UNL     1     -96.757 -59.533 -65.719  1.00  0.00     0.000 C 
BRANCH   2   3
ATOM      3  C   UNL     1     -96.053 -60.598 -66.583  1.00  0.00     0.006 C 
BRANCH   3   4
ATOM      4  C   UNL     1     -95.373 -61.709 -65.766  1.00  0.00     0.053 C 
BRANCH   4   5
ATOM      5  C   UNL     1     -94.012 -62.051 -66.284  1.00  0.00     0.041 C 
ATOM      6  O   UNL     1     -93.774 -63.204 -66.730  1.00  0.00    -0.550 OA
ATOM      7  O   UNL     1     -93.002 -61.098 -66.271  1.00  0.00    -0.550 OA
ENDBRANCH   4   5
ENDBRANCH   3   4
ENDBRANCH   2   3
ENDBRANCH   1   2
BRANCH   1   8
ATOM      8  C   UNL     1     -98.639 -59.019 -67.373  1.00  0.00     0.000 C 
BRANCH   8   9
ATOM      9  C   UNL     1     -99.823 -59.438 -66.490  1.00  0.00     0.000 C 
BRANCH   9  10
ATOM     10  C   UNL     1    -100.307 -60.846 -66.853  1.00  0.00     0.006 C 
BRANCH  10  11
ATOM     11  C   UNL     1     -99.494 -61.915 -66.116  1.00  0.00     0.053 C 
BRANCH  11  12
ATOM     12  C   UNL     1     -99.635 -61.753 -64.635  1.00  0.00     0.041 C 
ATOM     13  O   UNL     1    -100.777 -61.668 -64.114  1.00  0.00    -0.550 OA
ATOM     14  O   UNL     1     -98.507 -61.737 -63.825  1.00  0.00    -0.550 OA
ENDBRANCH  11  12
ENDBRANCH  10  11
ENDBRANCH   9  10
ENDBRANCH   8   9
ENDBRANCH   1   8
TORSDOF 9
ENDMDL
MODEL 9
REMARK VINA RESULT:    -4.734      2.967      4.756
REMARK INTER + INTRA:          -8.181
REMARK INTER:                  -7.540
REMARK INTRA:                  -0.641
REMARK UNBOUND:                -0.957
REMARK SMILES O=C([O-])CCCCCCCCC(=O)[O-]
REMARK SMILES IDX 7 1 6 2 5 3 4 4 2 5 1 6 3 7 8 8 9 9 10 10 11 11 12 12 13 13
REMARK SMILES IDX 14 14
REMARK H PARENT
REMARK Flexibility Score: inf
ROOT
ATOM      1  C   UNL     1     -97.447 -61.728 -64.430  1.00  0.00     0.000 C 
ENDROOT
BRANCH   1   2
ATOM      2  C   UNL     1     -98.970 -61.672 -64.220  1.00  0.00     0.000 C 
BRANCH   2   3
ATOM      3  C   UNL     1     -99.751 -62.416 -65.321  1.00  0.00     0.006 C 
BRANCH   3   4
ATOM      4  C   UNL     1    -100.031 -61.561 -66.569  1.00  0.00     0.053 C 
BRANCH   4   5
ATOM      5  C   UNL     1    -100.539 -60.196 -66.227  1.00  0.00     0.041 C 
ATOM      6  O   UNL     1     -99.871 -59.176 -66.539  1.00  0.00    -0.550 OA
ATOM      7  O   UNL     1    -101.749 -60.050 -65.561  1.00  0.00    -0.550 OA
ENDBRANCH   4   5
ENDBRANCH   3   4
ENDBRANCH   2   3
ENDBRANCH   1   2
BRANCH   1   8
ATOM      8  C   UNL     1     -96.880 -60.412 -64.987  1.00  0.00     0.000 C 
BRANCH   8   9
ATOM      9  C   UNL     1     -96.048 -60.616 -66.261  1.00  0.00     0.000 C 
BRANCH   9  10
ATOM     10  C   UNL     1     -94.953 -61.666 -66.039  1.00  0.00     0.006 C 
BRANCH  10  11
ATOM     11  C   UNL     1     -93.802 -61.480 -67.033  1.00  0.00     0.053 C 
BRANCH  11  12
ATOM     12  C   UNL     1     -93.949 -62.420 -68.187  1.00  0.00     0.041 C 
ATOM     13  O   UNL     1     -94.649 -62.098 -69.182  1.00  0.00    -0.550 OA
ATOM     14  O   UNL     1     -93.281 -63.638 -68.183  1.00  0.00    -0.550 OA
ENDBRANCH  11  12
ENDBRANCH  10  11
ENDBRANCH   9  10
ENDBRANCH   8   9
ENDBRANCH   1   8
TORSDOF 9
ENDMDL
