MODEL 1
REMARK VINA RESULT:    -6.848      0.000      0.000
REMARK INTER + INTRA:          -9.194
REMARK INTER:                  -8.649
REMARK INTRA:                  -0.545
REMARK UNBOUND:                -0.545
REMARK SMILES Oc1cc(O)cc(CCc2ccccc2O)c1
REMARK SMILES IDX 9 1 10 2 12 3 13 4 11 5 14 6 15 7 16 8 8 10 7 11 6 12 17 13
REMARK SMILES IDX 4 14 2 15 3 16 5 17 1 19
REMARK H PARENT 16 9 5 18 1 20
REMARK Flexibility Score: inf
ROOT
ATOM      1  C   UNL     1      20.746  28.659  35.989  1.00  0.00     0.044 C 
ENDROOT
BRANCH   1   2
ATOM      2  C   UNL     1      19.521  27.836  36.301  1.00  0.00    -0.006 A 
ATOM      3  C   UNL     1      17.236  27.715  37.125  1.00  0.00     0.001 A 
ATOM      4  C   UNL     1      17.198  26.351  36.832  1.00  0.00     0.004 A 
ATOM      5  C   UNL     1      18.389  28.458  36.858  1.00  0.00     0.007 A 
ATOM      6  C   UNL     1      18.311  25.726  36.264  1.00  0.00     0.046 A 
ATOM      7  C   UNL     1      19.473  26.462  35.991  1.00  0.00     0.118 A 
BRANCH   7   8
ATOM      8  O   UNL     1      20.575  25.833  35.411  1.00  0.00    -0.508 OA
ATOM      9  H   UNL     1      21.191  25.237  35.950  1.00  0.00     0.293 HD
ENDBRANCH   7   8
ENDBRANCH   1   2
BRANCH   1  10
ATOM     10  C   UNL     1      21.036  29.645  37.125  1.00  0.00     0.040 C 
BRANCH  10  11
ATOM     11  C   UNL     1      20.957  31.064  36.627  1.00  0.00    -0.040 A 
ATOM     12  C   UNL     1      21.968  31.582  35.802  1.00  0.00     0.050 A 
ATOM     13  C   UNL     1      19.843  31.860  36.936  1.00  0.00     0.050 A 
ATOM     14  C   UNL     1      21.877  32.892  35.311  1.00  0.00     0.119 A 
ATOM     15  C   UNL     1      19.751  33.170  36.446  1.00  0.00     0.119 A 
ATOM     16  C   UNL     1      20.770  33.683  35.637  1.00  0.00     0.092 A 
BRANCH  14  17
ATOM     17  O   UNL     1      22.879  33.415  34.496  1.00  0.00    -0.508 OA
ATOM     18  H   UNL     1      22.697  33.675  33.534  1.00  0.00     0.293 HD
ENDBRANCH  14  17
BRANCH  15  19
ATOM     19  O   UNL     1      18.652  33.969  36.754  1.00  0.00    -0.508 OA
ATOM     20  H   UNL     1      18.385  34.752  36.168  1.00  0.00     0.293 HD
ENDBRANCH  15  19
ENDBRANCH  10  11
ENDBRANCH   1  10
TORSDOF 6
ENDMDL
MODEL 2
REMARK VINA RESULT:    -6.029     17.661     19.532
REMARK INTER + INTRA:          -8.160
REMARK INTER:                  -7.730
REMARK INTRA:                  -0.430
REMARK UNBOUND:                -0.545
REMARK SMILES Oc1cc(O)cc(CCc2ccccc2O)c1
REMARK SMILES IDX 9 1 10 2 12 3 13 4 11 5 14 6 15 7 16 8 8 10 7 11 6 12 17 13
REMARK SMILES IDX 4 14 2 15 3 16 5 17 1 19
REMARK H PARENT 16 9 5 18 1 20
REMARK Flexibility Score: inf
ROOT
ATOM      1  C   UNL     1      22.627  22.157  19.900  1.00  0.00     0.044 C 
ENDROOT
BRANCH   1   2
ATOM      2  C   UNL     1      21.431  23.024  19.597  1.00  0.00    -0.006 A 
ATOM      3  C   UNL     1      19.477  24.240  20.381  1.00  0.00     0.001 A 
ATOM      4  C   UNL     1      19.233  24.695  19.084  1.00  0.00     0.004 A 
ATOM      5  C   UNL     1      20.573  23.412  20.640  1.00  0.00     0.007 A 
ATOM      6  C   UNL     1      20.089  24.328  18.042  1.00  0.00     0.046 A 
ATOM      7  C   UNL     1      21.192  23.499  18.291  1.00  0.00     0.118 A 
BRANCH   7   8
ATOM      8  O   UNL     1      22.050  23.149  17.248  1.00  0.00    -0.508 OA
ATOM      9  H   UNL     1      21.847  22.371  16.632  1.00  0.00     0.293 HD
ENDBRANCH   7   8
ENDBRANCH   1   2
BRANCH   1  10
ATOM     10  C   UNL     1      22.380  21.318  21.158  1.00  0.00     0.040 C 
BRANCH  10  11
ATOM     11  C   UNL     1      23.067  19.983  21.047  1.00  0.00    -0.040 A 
ATOM     12  C   UNL     1      22.457  18.828  21.563  1.00  0.00     0.050 A 
ATOM     13  C   UNL     1      24.294  19.873  20.374  1.00  0.00     0.050 A 
ATOM     14  C   UNL     1      23.081  17.580  21.431  1.00  0.00     0.119 A 
ATOM     15  C   UNL     1      24.918  18.625  20.241  1.00  0.00     0.119 A 
ATOM     16  C   UNL     1      24.311  17.483  20.772  1.00  0.00     0.092 A 
BRANCH  14  17
ATOM     17  O   UNL     1      22.485  16.431  21.946  1.00  0.00    -0.508 OA
ATOM     18  H   UNL     1      23.039  15.639  22.252  1.00  0.00     0.293 HD
ENDBRANCH  14  17
BRANCH  15  19
ATOM     19  O   UNL     1      26.140  18.509  19.581  1.00  0.00    -0.508 OA
ATOM     20  H   UNL     1      26.818  17.801  19.842  1.00  0.00     0.293 HD
ENDBRANCH  15  19
ENDBRANCH  10  11
ENDBRANCH   1  10
TORSDOF 6
ENDMDL
MODEL 3
REMARK VINA RESULT:    -6.008     17.653     19.447
REMARK INTER + INTRA:          -8.134
REMARK INTER:                  -7.708
REMARK INTRA:                  -0.426
REMARK UNBOUND:                -0.545
REMARK SMILES Oc1cc(O)cc(CCc2ccccc2O)c1
REMARK SMILES IDX 9 1 10 2 12 3 13 4 11 5 14 6 15 7 16 8 8 10 7 11 6 12 17 13
REMARK SMILES IDX 4 14 2 15 3 16 5 17 1 19
REMARK H PARENT 16 9 5 18 1 20
REMARK Flexibility Score: inf
ROOT
ATOM      1  C   UNL     1      22.646  22.158  19.918  1.00  0.00     0.044 C 
ENDROOT
BRANCH   1   2
ATOM      2  C   UNL     1      21.435  23.005  19.617  1.00  0.00    -0.006 A 
ATOM      3  C   UNL     1      19.476  24.210  20.407  1.00  0.00     0.001 A 
ATOM      4  C   UNL     1      19.210  24.641  19.106  1.00  0.00     0.004 A 
ATOM      5  C   UNL     1      20.585  23.400  20.665  1.00  0.00     0.007 A 
ATOM      6  C   UNL     1      20.057  24.267  18.059  1.00  0.00     0.046 A 
ATOM      7  C   UNL     1      21.174  23.456  18.307  1.00  0.00     0.118 A 
BRANCH   7   8
ATOM      8  O   UNL     1      22.022  23.100  17.259  1.00  0.00    -0.508 OA
ATOM      9  H   UNL     1      22.896  22.614  17.424  1.00  0.00     0.293 HD
ENDBRANCH   7   8
ENDBRANCH   1   2
BRANCH   1  10
ATOM     10  C   UNL     1      22.405  21.297  21.162  1.00  0.00     0.040 C 
BRANCH  10  11
ATOM     11  C   UNL     1      23.058  19.949  21.007  1.00  0.00    -0.040 A 
ATOM     12  C   UNL     1      24.312  19.838  20.385  1.00  0.00     0.050 A 
ATOM     13  C   UNL     1      22.445  18.802  21.535  1.00  0.00     0.050 A 
ATOM     14  C   UNL     1      24.936  18.588  20.270  1.00  0.00     0.119 A 
ATOM     15  C   UNL     1      23.068  17.551  21.421  1.00  0.00     0.119 A 
ATOM     16  C   UNL     1      24.310  17.448  20.786  1.00  0.00     0.092 A 
BRANCH  14  17
ATOM     17  O   UNL     1      26.177  18.468  19.650  1.00  0.00    -0.508 OA
ATOM     18  H   UNL     1      26.352  18.867  18.735  1.00  0.00     0.293 HD
ENDBRANCH  14  17
BRANCH  15  19
ATOM     19  O   UNL     1      22.463  16.407  21.935  1.00  0.00    -0.508 OA
ATOM     20  H   UNL     1      22.890  15.873  22.684  1.00  0.00     0.293 HD
ENDBRANCH  15  19
ENDBRANCH  10  11
ENDBRANCH   1  10
TORSDOF 6
ENDMDL
MODEL 4
REMARK VINA RESULT:    -5.883     17.117     19.348
REMARK INTER + INTRA:          -7.975
REMARK INTER:                  -7.464
REMARK INTRA:                  -0.511
REMARK UNBOUND:                -0.545
REMARK SMILES Oc1cc(O)cc(CCc2ccccc2O)c1
REMARK SMILES IDX 9 1 10 2 12 3 13 4 11 5 14 6 15 7 16 8 8 10 7 11 6 12 17 13
REMARK SMILES IDX 4 14 2 15 3 16 5 17 1 19
REMARK H PARENT 16 9 5 18 1 20
REMARK Flexibility Score: inf
ROOT
ATOM      1  C   UNL     1      21.081  21.402  20.742  1.00  0.00     0.044 C 
ENDROOT
BRANCH   1   2
ATOM      2  C   UNL     1      20.988  22.642  19.889  1.00  0.00    -0.006 A 
ATOM      3  C   UNL     1      21.365  23.746  17.755  1.00  0.00     0.001 A 
ATOM      4  C   UNL     1      20.768  24.909  18.246  1.00  0.00     0.004 A 
ATOM      5  C   UNL     1      21.471  22.615  18.568  1.00  0.00     0.007 A 
ATOM      6  C   UNL     1      20.271  24.942  19.551  1.00  0.00     0.046 A 
ATOM      7  C   UNL     1      20.371  23.812  20.376  1.00  0.00     0.118 A 
BRANCH   7   8
ATOM      8  O   UNL     1      19.859  23.849  21.673  1.00  0.00    -0.508 OA
ATOM      9  H   UNL     1      18.866  23.774  21.854  1.00  0.00     0.293 HD
ENDBRANCH   7   8
ENDBRANCH   1   2
BRANCH   1  10
ATOM     10  C   UNL     1      22.464  21.299  21.394  1.00  0.00     0.040 C 
BRANCH  10  11
ATOM     11  C   UNL     1      23.077  19.951  21.123  1.00  0.00    -0.040 A 
ATOM     12  C   UNL     1      24.294  19.853  20.430  1.00  0.00     0.050 A 
ATOM     13  C   UNL     1      22.466  18.786  21.614  1.00  0.00     0.050 A 
ATOM     14  C   UNL     1      24.882  18.600  20.208  1.00  0.00     0.119 A 
ATOM     15  C   UNL     1      23.054  17.532  21.392  1.00  0.00     0.119 A 
ATOM     16  C   UNL     1      24.258  17.443  20.687  1.00  0.00     0.092 A 
BRANCH  14  17
ATOM     17  O   UNL     1      26.086  18.493  19.516  1.00  0.00    -0.508 OA
ATOM     18  H   UNL     1      26.113  18.451  18.503  1.00  0.00     0.293 HD
ENDBRANCH  14  17
BRANCH  15  19
ATOM     19  O   UNL     1      22.450  16.371  21.869  1.00  0.00    -0.508 OA
ATOM     20  H   UNL     1      21.940  16.360  22.746  1.00  0.00     0.293 HD
ENDBRANCH  15  19
ENDBRANCH  10  11
ENDBRANCH   1  10
TORSDOF 6
ENDMDL
MODEL 5
REMARK VINA RESULT:    -5.868     17.050     19.451
REMARK INTER + INTRA:          -7.956
REMARK INTER:                  -7.437
REMARK INTRA:                  -0.519
REMARK UNBOUND:                -0.545
REMARK SMILES Oc1cc(O)cc(CCc2ccccc2O)c1
REMARK SMILES IDX 9 1 10 2 12 3 13 4 11 5 14 6 15 7 16 8 8 10 7 11 6 12 17 13
REMARK SMILES IDX 4 14 2 15 3 16 5 17 1 19
REMARK H PARENT 16 9 5 18 1 20
REMARK Flexibility Score: inf
ROOT
ATOM      1  C   UNL     1      21.129  21.388  20.837  1.00  0.00     0.044 C 
ENDROOT
BRANCH   1   2
ATOM      2  C   UNL     1      21.020  22.628  19.986  1.00  0.00    -0.006 A 
ATOM      3  C   UNL     1      21.390  23.743  17.856  1.00  0.00     0.001 A 
ATOM      4  C   UNL     1      20.771  24.895  18.346  1.00  0.00     0.004 A 
ATOM      5  C   UNL     1      21.511  22.612  18.668  1.00  0.00     0.007 A 
ATOM      6  C   UNL     1      20.266  24.917  19.648  1.00  0.00     0.046 A 
ATOM      7  C   UNL     1      20.380  23.787  20.471  1.00  0.00     0.118 A 
BRANCH   7   8
ATOM      8  O   UNL     1      19.860  23.813  21.765  1.00  0.00    -0.508 OA
ATOM      9  H   UNL     1      20.325  23.346  22.534  1.00  0.00     0.293 HD
ENDBRANCH   7   8
ENDBRANCH   1   2
BRANCH   1  10
ATOM     10  C   UNL     1      22.541  21.255  21.416  1.00  0.00     0.040 C 
BRANCH  10  11
ATOM     11  C   UNL     1      23.091  19.878  21.155  1.00  0.00    -0.040 A 
ATOM     12  C   UNL     1      22.424  18.744  21.648  1.00  0.00     0.050 A 
ATOM     13  C   UNL     1      24.242  19.713  20.368  1.00  0.00     0.050 A 
ATOM     14  C   UNL     1      22.917  17.460  21.377  1.00  0.00     0.119 A 
ATOM     15  C   UNL     1      24.736  18.430  20.097  1.00  0.00     0.119 A 
ATOM     16  C   UNL     1      24.074  17.307  20.605  1.00  0.00     0.092 A 
BRANCH  14  17
ATOM     17  O   UNL     1      22.265  16.331  21.867  1.00  0.00    -0.508 OA
ATOM     18  H   UNL     1      21.946  15.594  21.249  1.00  0.00     0.293 HD
ENDBRANCH  14  17
BRANCH  15  19
ATOM     19  O   UNL     1      25.882  18.259  19.323  1.00  0.00    -0.508 OA
ATOM     20  H   UNL     1      26.347  17.360  19.256  1.00  0.00     0.293 HD
ENDBRANCH  15  19
ENDBRANCH  10  11
ENDBRANCH   1  10
TORSDOF 6
ENDMDL
MODEL 6
REMARK VINA RESULT:    -5.760      0.130      2.034
REMARK INTER + INTRA:          -7.820
REMARK INTER:                  -7.296
REMARK INTRA:                  -0.524
REMARK UNBOUND:                -0.545
REMARK SMILES Oc1cc(O)cc(CCc2ccccc2O)c1
REMARK SMILES IDX 9 1 10 2 12 3 13 4 11 5 14 6 15 7 16 8 8 10 7 11 6 12 17 13
REMARK SMILES IDX 4 14 2 15 3 16 5 17 1 19
REMARK H PARENT 16 9 5 18 1 20
REMARK Flexibility Score: inf
ROOT
ATOM      1  C   UNL     1      20.743  28.571  36.003  1.00  0.00     0.044 C 
ENDROOT
BRANCH   1   2
ATOM      2  C   UNL     1      19.525  27.734  36.303  1.00  0.00    -0.006 A 
ATOM      3  C   UNL     1      17.241  27.584  37.125  1.00  0.00     0.001 A 
ATOM      4  C   UNL     1      17.212  26.224  36.811  1.00  0.00     0.004 A 
ATOM      5  C   UNL     1      18.389  28.339  36.869  1.00  0.00     0.007 A 
ATOM      6  C   UNL     1      18.330  25.616  36.234  1.00  0.00     0.046 A 
ATOM      7  C   UNL     1      19.486  26.365  35.972  1.00  0.00     0.118 A 
BRANCH   7   8
ATOM      8  O   UNL     1      20.593  25.753  35.382  1.00  0.00    -0.508 OA
ATOM      9  H   UNL     1      21.538  26.058  35.582  1.00  0.00     0.293 HD
ENDBRANCH   7   8
ENDBRANCH   1   2
BRANCH   1  10
ATOM     10  C   UNL     1      20.991  29.583  37.125  1.00  0.00     0.040 C 
BRANCH  10  11
ATOM     11  C   UNL     1      20.854  30.991  36.608  1.00  0.00    -0.040 A 
ATOM     12  C   UNL     1      19.728  31.761  36.942  1.00  0.00     0.050 A 
ATOM     13  C   UNL     1      21.878  31.563  35.837  1.00  0.00     0.050 A 
ATOM     14  C   UNL     1      19.616  33.083  36.488  1.00  0.00     0.119 A 
ATOM     15  C   UNL     1      21.767  32.885  35.383  1.00  0.00     0.119 A 
ATOM     16  C   UNL     1      20.635  33.640  35.708  1.00  0.00     0.092 A 
BRANCH  14  17
ATOM     17  O   UNL     1      18.500  33.851  36.810  1.00  0.00    -0.508 OA
ATOM     18  H   UNL     1      18.233  34.655  36.254  1.00  0.00     0.293 HD
ENDBRANCH  14  17
BRANCH  15  19
ATOM     19  O   UNL     1      22.775  33.458  34.611  1.00  0.00    -0.508 OA
ATOM     20  H   UNL     1      22.621  33.713  33.642  1.00  0.00     0.293 HD
ENDBRANCH  15  19
ENDBRANCH  10  11
ENDBRANCH   1  10
TORSDOF 6
ENDMDL
MODEL 7
REMARK VINA RESULT:    -5.582     16.513     18.108
REMARK INTER + INTRA:          -7.596
REMARK INTER:                  -7.037
REMARK INTRA:                  -0.558
REMARK UNBOUND:                -0.545
REMARK SMILES Oc1cc(O)cc(CCc2ccccc2O)c1
REMARK SMILES IDX 9 1 10 2 12 3 13 4 11 5 14 6 15 7 16 8 8 10 7 11 6 12 17 13
REMARK SMILES IDX 4 14 2 15 3 16 5 17 1 19
REMARK H PARENT 16 9 5 18 1 20
REMARK Flexibility Score: inf
ROOT
ATOM      1  C   UNL     1      22.793  20.690  21.567  1.00  0.00     0.044 C 
ENDROOT
BRANCH   1   2
ATOM      2  C   UNL     1      22.478  19.228  21.373  1.00  0.00    -0.006 A 
ATOM      3  C   UNL     1      20.829  17.464  21.083  1.00  0.00     0.001 A 
ATOM      4  C   UNL     1      21.851  16.524  20.942  1.00  0.00     0.004 A 
ATOM      5  C   UNL     1      21.137  18.811  21.293  1.00  0.00     0.007 A 
ATOM      6  C   UNL     1      23.187  16.930  21.004  1.00  0.00     0.046 A 
ATOM      7  C   UNL     1      23.508  18.279  21.213  1.00  0.00     0.118 A 
BRANCH   7   8
ATOM      8  O   UNL     1      24.844  18.678  21.260  1.00  0.00    -0.508 OA
ATOM      9  H   UNL     1      25.330  18.806  22.139  1.00  0.00     0.293 HD
ENDBRANCH   7   8
ENDBRANCH   1   2
BRANCH   1  10
ATOM     10  C   UNL     1      22.762  21.430  20.227  1.00  0.00     0.040 C 
BRANCH  10  11
ATOM     11  C   UNL     1      21.768  22.560  20.269  1.00  0.00    -0.040 A 
ATOM     12  C   UNL     1      20.966  22.755  21.406  1.00  0.00     0.050 A 
ATOM     13  C   UNL     1      21.677  23.462  19.198  1.00  0.00     0.050 A 
ATOM     14  C   UNL     1      20.065  23.827  21.460  1.00  0.00     0.119 A 
ATOM     15  C   UNL     1      20.775  24.535  19.250  1.00  0.00     0.119 A 
ATOM     16  C   UNL     1      19.970  24.712  20.380  1.00  0.00     0.092 A 
BRANCH  14  17
ATOM     17  O   UNL     1      19.262  24.024  22.581  1.00  0.00    -0.508 OA
ATOM     18  H   UNL     1      18.250  24.014  22.516  1.00  0.00     0.293 HD
ENDBRANCH  14  17
BRANCH  15  19
ATOM     19  O   UNL     1      20.673  25.430  18.188  1.00  0.00    -0.508 OA
ATOM     20  H   UNL     1      21.487  25.912  17.821  1.00  0.00     0.293 HD
ENDBRANCH  15  19
ENDBRANCH  10  11
ENDBRANCH   1  10
TORSDOF 6
ENDMDL
MODEL 8
REMARK VINA RESULT:    -5.567     16.490     18.015
REMARK INTER + INTRA:          -7.576
REMARK INTER:                  -7.010
REMARK INTRA:                  -0.566
REMARK UNBOUND:                -0.545
REMARK SMILES Oc1cc(O)cc(CCc2ccccc2O)c1
REMARK SMILES IDX 9 1 10 2 12 3 13 4 11 5 14 6 15 7 16 8 8 10 7 11 6 12 17 13
REMARK SMILES IDX 4 14 2 15 3 16 5 17 1 19
REMARK H PARENT 16 9 5 18 1 20
REMARK Flexibility Score: inf
ROOT
ATOM      1  C   UNL     1      22.827  20.699  21.567  1.00  0.00     0.044 C 
ENDROOT
BRANCH   1   2
ATOM      2  C   UNL     1      22.477  19.241  21.408  1.00  0.00    -0.006 A 
ATOM      3  C   UNL     1      20.787  17.510  21.160  1.00  0.00     0.001 A 
ATOM      4  C   UNL     1      21.786  16.543  21.043  1.00  0.00     0.004 A 
ATOM      5  C   UNL     1      21.127  18.854  21.337  1.00  0.00     0.007 A 
ATOM      6  C   UNL     1      23.132  16.918  21.097  1.00  0.00     0.046 A 
ATOM      7  C   UNL     1      23.484  18.264  21.273  1.00  0.00     0.118 A 
BRANCH   7   8
ATOM      8  O   UNL     1      24.829  18.632  21.312  1.00  0.00    -0.508 OA
ATOM      9  H   UNL     1      25.116  19.577  21.535  1.00  0.00     0.293 HD
ENDBRANCH   7   8
ENDBRANCH   1   2
BRANCH   1  10
ATOM     10  C   UNL     1      22.758  21.419  20.217  1.00  0.00     0.040 C 
BRANCH  10  11
ATOM     11  C   UNL     1      21.793  22.573  20.281  1.00  0.00    -0.040 A 
ATOM     12  C   UNL     1      21.679  23.462  19.200  1.00  0.00     0.050 A 
ATOM     13  C   UNL     1      20.959  22.735  21.398  1.00  0.00     0.050 A 
ATOM     14  C   UNL     1      20.757  24.517  19.246  1.00  0.00     0.119 A 
ATOM     15  C   UNL     1      20.036  23.789  21.446  1.00  0.00     0.119 A 
ATOM     16  C   UNL     1      19.940  24.678  20.371  1.00  0.00     0.092 A 
BRANCH  14  17
ATOM     17  O   UNL     1      20.641  25.406  18.181  1.00  0.00    -0.508 OA
ATOM     18  H   UNL     1      20.071  26.241  18.247  1.00  0.00     0.293 HD
ENDBRANCH  14  17
BRANCH  15  19
ATOM     19  O   UNL     1      19.210  23.961  22.554  1.00  0.00    -0.508 OA
ATOM     20  H   UNL     1      19.474  23.616  23.471  1.00  0.00     0.293 HD
ENDBRANCH  15  19
ENDBRANCH  10  11
ENDBRANCH   1  10
TORSDOF 6
ENDMDL
MODEL 9
REMARK VINA RESULT:    -5.491     16.860     19.205
REMARK INTER + INTRA:          -7.480
REMARK INTER:                  -6.955
REMARK INTRA:                  -0.526
REMARK UNBOUND:                -0.545
REMARK SMILES Oc1cc(O)cc(CCc2ccccc2O)c1
REMARK SMILES IDX 9 1 10 2 12 3 13 4 11 5 14 6 15 7 16 8 8 10 7 11 6 12 17 13
REMARK SMILES IDX 4 14 2 15 3 16 5 17 1 19
REMARK H PARENT 16 9 5 18 1 20
REMARK Flexibility Score: inf
ROOT
ATOM      1  C   UNL     1      22.306  21.398  20.785  1.00  0.00     0.044 C 
ENDROOT
BRANCH   1   2
ATOM      2  C   UNL     1      20.849  21.762  20.922  1.00  0.00    -0.006 A 
ATOM      3  C   UNL     1      18.508  21.166  20.641  1.00  0.00     0.001 A 
ATOM      4  C   UNL     1      18.125  22.374  21.225  1.00  0.00     0.004 A 
ATOM      5  C   UNL     1      19.863  20.856  20.493  1.00  0.00     0.007 A 
ATOM      6  C   UNL     1      19.096  23.275  21.669  1.00  0.00     0.046 A 
ATOM      7  C   UNL     1      20.458  22.974  21.527  1.00  0.00     0.118 A 
BRANCH   7   8
ATOM      8  O   UNL     1      21.422  23.872  21.986  1.00  0.00    -0.508 OA
ATOM      9  H   UNL     1      22.411  23.664  21.932  1.00  0.00     0.293 HD
ENDBRANCH   7   8
ENDBRANCH   1   2
BRANCH   1  10
ATOM     10  C   UNL     1      22.691  20.325  21.808  1.00  0.00     0.040 C 
BRANCH  10  11
ATOM     11  C   UNL     1      23.391  19.176  21.132  1.00  0.00    -0.040 A 
ATOM     12  C   UNL     1      24.694  19.336  20.633  1.00  0.00     0.050 A 
ATOM     13  C   UNL     1      22.769  17.921  21.047  1.00  0.00     0.050 A 
ATOM     14  C   UNL     1      25.359  18.257  20.034  1.00  0.00     0.119 A 
ATOM     15  C   UNL     1      23.433  16.841  20.447  1.00  0.00     0.119 A 
ATOM     16  C   UNL     1      24.725  17.014  19.940  1.00  0.00     0.092 A 
BRANCH  14  17
ATOM     17  O   UNL     1      26.649  18.409  19.531  1.00  0.00    -0.508 OA
ATOM     18  H   UNL     1      26.862  19.096  18.817  1.00  0.00     0.293 HD
ENDBRANCH  14  17
BRANCH  15  19
ATOM     19  O   UNL     1      22.819  15.594  20.352  1.00  0.00    -0.508 OA
ATOM     20  H   UNL     1      22.588  15.184  19.454  1.00  0.00     0.293 HD
ENDBRANCH  15  19
ENDBRANCH  10  11
ENDBRANCH   1  10
TORSDOF 6
ENDMDL
