MODEL 1
REMARK VINA RESULT:    -2.973      0.000      0.000
REMARK INTER + INTRA:          -3.587
REMARK INTER:                  -3.494
REMARK INTRA:                  -0.093
REMARK UNBOUND:                -0.093
REMARK SMILES O=C([O-])CCC(=O)[O-]
REMARK SMILES IDX 4 1 2 2 1 3 3 4 5 5 6 6 7 7 8 8
REMARK H PARENT
REMARK Flexibility Score: inf
ROOT
ATOM      1  C   UNL     1      -5.390  16.403  -6.843  1.00  0.00     0.059 C 
ENDROOT
BRANCH   1   2
ATOM      2  C   UNL     1      -4.658  17.470  -6.092  1.00  0.00     0.042 C 
ATOM      3  O   UNL     1      -4.350  18.549  -6.663  1.00  0.00    -0.550 OA
ATOM      4  O   UNL     1      -4.274  17.254  -4.775  1.00  0.00    -0.550 OA
ENDBRANCH   1   2
BRANCH   1   5
ATOM      5  C   UNL     1      -6.620  16.987  -7.539  1.00  0.00     0.059 C 
BRANCH   5   6
ATOM      6  C   UNL     1      -6.598  16.664  -8.999  1.00  0.00     0.042 C 
ATOM      7  O   UNL     1      -5.583  16.121  -9.513  1.00  0.00    -0.550 OA
ATOM      8  O   UNL     1      -7.714  16.917  -9.785  1.00  0.00    -0.550 OA
ENDBRANCH   5   6
ENDBRANCH   1   5
TORSDOF 3
ENDMDL
MODEL 2
REMARK VINA RESULT:    -2.969      0.162      4.138
REMARK INTER + INTRA:          -3.582
REMARK INTER:                  -3.498
REMARK INTRA:                  -0.085
REMARK UNBOUND:                -0.093
REMARK SMILES O=C([O-])CCC(=O)[O-]
REMARK SMILES IDX 4 1 2 2 1 3 3 4 5 5 6 6 7 7 8 8
REMARK H PARENT
REMARK Flexibility Score: inf
ROOT
ATOM      1  C   UNL     1      -6.581  16.980  -7.587  1.00  0.00     0.059 C 
ENDROOT
BRANCH   1   2
ATOM      2  C   UNL     1      -6.546  16.644  -9.045  1.00  0.00     0.042 C 
ATOM      3  O   UNL     1      -5.513  16.129  -9.551  1.00  0.00    -0.550 OA
ATOM      4  O   UNL     1      -7.634  16.942  -9.854  1.00  0.00    -0.550 OA
ENDBRANCH   1   2
BRANCH   1   5
ATOM      5  C   UNL     1      -5.407  16.326  -6.859  1.00  0.00     0.059 C 
BRANCH   5   6
ATOM      6  C   UNL     1      -4.698  17.327  -6.004  1.00  0.00     0.042 C 
ATOM      7  O   UNL     1      -4.479  18.490  -6.438  1.00  0.00    -0.550 OA
ATOM      8  O   UNL     1      -4.321  16.994  -4.709  1.00  0.00    -0.550 OA
ENDBRANCH   5   6
ENDBRANCH   1   5
TORSDOF 3
ENDMDL
MODEL 3
REMARK VINA RESULT:    -2.827      1.476      2.386
REMARK INTER + INTRA:          -3.415
REMARK INTER:                  -3.297
REMARK INTRA:                  -0.118
REMARK UNBOUND:                -0.093
REMARK SMILES O=C([O-])CCC(=O)[O-]
REMARK SMILES IDX 4 1 2 2 1 3 3 4 5 5 6 6 7 7 8 8
REMARK H PARENT
REMARK Flexibility Score: inf
ROOT
ATOM      1  C   UNL     1      -6.649  16.892  -7.673  1.00  0.00     0.059 C 
ENDROOT
BRANCH   1   2
ATOM      2  C   UNL     1      -5.238  16.587  -7.280  1.00  0.00     0.042 C 
ATOM      3  O   UNL     1      -4.922  16.508  -6.063  1.00  0.00    -0.550 OA
ATOM      4  O   UNL     1      -4.261  16.437  -8.256  1.00  0.00    -0.550 OA
ENDBRANCH   1   2
BRANCH   1   5
ATOM      5  C   UNL     1      -6.862  16.613  -9.162  1.00  0.00     0.059 C 
BRANCH   5   6
ATOM      6  C   UNL     1      -7.114  17.888  -9.902  1.00  0.00     0.042 C 
ATOM      7  O   UNL     1      -8.092  17.980 -10.691  1.00  0.00    -0.550 OA
ATOM      8  O   UNL     1      -6.298  18.991  -9.685  1.00  0.00    -0.550 OA
ENDBRANCH   5   6
ENDBRANCH   1   5
TORSDOF 3
ENDMDL
MODEL 4
REMARK VINA RESULT:    -2.823      4.391      6.296
REMARK INTER + INTRA:          -3.411
REMARK INTER:                  -3.300
REMARK INTRA:                  -0.111
REMARK UNBOUND:                -0.093
REMARK SMILES O=C([O-])CCC(=O)[O-]
REMARK SMILES IDX 4 1 2 2 1 3 3 4 5 5 6 6 7 7 8 8
REMARK H PARENT
REMARK Flexibility Score: inf
ROOT
ATOM      1  C   UNL     1     -10.019  16.706 -10.831  1.00  0.00     0.059 C 
ENDROOT
BRANCH   1   2
ATOM      2  C   UNL     1      -8.678  17.359 -10.726  1.00  0.00     0.042 C 
ATOM      3  O   UNL     1      -8.392  18.341 -11.462  1.00  0.00    -0.550 OA
ATOM      4  O   UNL     1      -7.725  16.855  -9.850  1.00  0.00    -0.550 OA
ENDBRANCH   1   2
BRANCH   1   5
ATOM      5  C   UNL     1     -10.532  16.766 -12.270  1.00  0.00     0.059 C 
BRANCH   5   6
ATOM      6  C   UNL     1     -11.718  17.672 -12.365  1.00  0.00     0.042 C 
ATOM      7  O   UNL     1     -12.795  17.256 -12.871  1.00  0.00    -0.550 OA
ATOM      8  O   UNL     1     -11.652  18.961 -11.853  1.00  0.00    -0.550 OA
ENDBRANCH   5   6
ENDBRANCH   1   5
TORSDOF 3
ENDMDL
MODEL 5
REMARK VINA RESULT:    -2.813      1.459      3.937
REMARK INTER + INTRA:          -3.399
REMARK INTER:                  -3.283
REMARK INTRA:                  -0.116
REMARK UNBOUND:                -0.093
REMARK SMILES O=C([O-])CCC(=O)[O-]
REMARK SMILES IDX 4 1 2 2 1 3 3 4 5 5 6 6 7 7 8 8
REMARK H PARENT
REMARK Flexibility Score: inf
ROOT
ATOM      1  C   UNL     1      -6.888  16.614  -9.210  1.00  0.00     0.059 C 
ENDROOT
BRANCH   1   2
ATOM      2  C   UNL     1      -7.208  17.877  -9.945  1.00  0.00     0.042 C 
ATOM      3  O   UNL     1      -8.172  17.913 -10.755  1.00  0.00    -0.550 OA
ATOM      4  O   UNL     1      -6.412  19.002  -9.772  1.00  0.00    -0.550 OA
ENDBRANCH   1   2
BRANCH   1   5
ATOM      5  C   UNL     1      -6.662  16.901  -7.726  1.00  0.00     0.059 C 
BRANCH   5   6
ATOM      6  C   UNL     1      -5.255  16.574  -7.338  1.00  0.00     0.042 C 
ATOM      7  O   UNL     1      -4.376  16.403  -8.225  1.00  0.00    -0.550 OA
ATOM      8  O   UNL     1      -4.901  16.504  -5.997  1.00  0.00    -0.550 OA
ENDBRANCH   5   6
ENDBRANCH   1   5
TORSDOF 3
ENDMDL
MODEL 6
REMARK VINA RESULT:    -2.743      4.420      7.139
REMARK INTER + INTRA:          -3.316
REMARK INTER:                  -3.193
REMARK INTRA:                  -0.123
REMARK UNBOUND:                -0.093
REMARK SMILES O=C([O-])CCC(=O)[O-]
REMARK SMILES IDX 4 1 2 2 1 3 3 4 5 5 6 6 7 7 8 8
REMARK H PARENT
REMARK Flexibility Score: inf
ROOT
ATOM      1  C   UNL     1     -10.446  17.010 -12.384  1.00  0.00     0.059 C 
ENDROOT
BRANCH   1   2
ATOM      2  C   UNL     1     -11.681  17.854 -12.396  1.00  0.00     0.042 C 
ATOM      3  O   UNL     1     -12.748  17.409 -12.898  1.00  0.00    -0.550 OA
ATOM      4  O   UNL     1     -11.644  19.150 -11.897  1.00  0.00    -0.550 OA
ENDBRANCH   1   2
BRANCH   1   5
ATOM      5  C   UNL     1      -9.965  16.788 -10.950  1.00  0.00     0.059 C 
BRANCH   5   6
ATOM      6  C   UNL     1      -8.638  17.445 -10.736  1.00  0.00     0.042 C 
ATOM      7  O   UNL     1      -7.831  16.983  -9.886  1.00  0.00    -0.550 OA
ATOM      8  O   UNL     1      -8.272  18.541 -11.508  1.00  0.00    -0.550 OA
ENDBRANCH   5   6
ENDBRANCH   1   5
TORSDOF 3
ENDMDL
MODEL 7
REMARK VINA RESULT:    -2.658      1.290      2.051
REMARK INTER + INTRA:          -3.216
REMARK INTER:                  -3.041
REMARK INTRA:                  -0.175
REMARK UNBOUND:                -0.093
REMARK SMILES O=C([O-])CCC(=O)[O-]
REMARK SMILES IDX 4 1 2 2 1 3 3 4 5 5 6 6 7 7 8 8
REMARK H PARENT
REMARK Flexibility Score: inf
ROOT
ATOM      1  C   UNL     1      -6.556  17.490  -7.688  1.00  0.00     0.059 C 
ENDROOT
BRANCH   1   2
ATOM      2  C   UNL     1      -5.304  17.407  -6.872  1.00  0.00     0.042 C 
ATOM      3  O   UNL     1      -5.016  16.345  -6.259  1.00  0.00    -0.550 OA
ATOM      4  O   UNL     1      -4.479  18.518  -6.749  1.00  0.00    -0.550 OA
ENDBRANCH   1   2
BRANCH   1   5
ATOM      5  C   UNL     1      -6.589  16.373  -8.731  1.00  0.00     0.059 C 
BRANCH   5   6
ATOM      6  C   UNL     1      -5.554  16.610  -9.784  1.00  0.00     0.042 C 
ATOM      7  O   UNL     1      -5.544  17.691 -10.432  1.00  0.00    -0.550 OA
ATOM      8  O   UNL     1      -4.569  15.658 -10.019  1.00  0.00    -0.550 OA
ENDBRANCH   5   6
ENDBRANCH   1   5
TORSDOF 3
ENDMDL
MODEL 8
REMARK VINA RESULT:    -2.619      3.551      5.205
REMARK INTER + INTRA:          -3.171
REMARK INTER:                  -3.119
REMARK INTRA:                  -0.052
REMARK UNBOUND:                -0.093
REMARK SMILES O=C([O-])CCC(=O)[O-]
REMARK SMILES IDX 4 1 2 2 1 3 3 4 5 5 6 6 7 7 8 8
REMARK H PARENT
REMARK Flexibility Score: inf
ROOT
ATOM      1  C   UNL     1      -8.424  18.166 -11.083  1.00  0.00     0.059 C 
ENDROOT
BRANCH   1   2
ATOM      2  C   UNL     1      -7.359  17.768 -10.111  1.00  0.00     0.042 C 
ATOM      3  O   UNL     1      -7.461  16.691  -9.464  1.00  0.00    -0.550 OA
ATOM      4  O   UNL     1      -6.276  18.607  -9.883  1.00  0.00    -0.550 OA
ENDBRANCH   1   2
BRANCH   1   5
ATOM      5  C   UNL     1      -9.587  17.174 -11.037  1.00  0.00     0.059 C 
BRANCH   5   6
ATOM      6  C   UNL     1     -10.871  17.858 -11.384  1.00  0.00     0.042 C 
ATOM      7  O   UNL     1     -11.052  19.065 -11.071  1.00  0.00    -0.550 OA
ATOM      8  O   UNL     1     -11.852  17.177 -12.094  1.00  0.00    -0.550 OA
ENDBRANCH   5   6
ENDBRANCH   1   5
TORSDOF 3
ENDMDL
MODEL 9
REMARK VINA RESULT:    -2.594      6.279      7.720
REMARK INTER + INTRA:          -3.141
REMARK INTER:                  -3.058
REMARK INTRA:                  -0.083
REMARK UNBOUND:                -0.093
REMARK SMILES O=C([O-])CCC(=O)[O-]
REMARK SMILES IDX 4 1 2 2 1 3 3 4 5 5 6 6 7 7 8 8
REMARK H PARENT
REMARK Flexibility Score: inf
ROOT
ATOM      1  C   UNL     1     -10.044  18.615 -11.431  1.00  0.00     0.059 C 
ENDROOT
BRANCH   1   2
ATOM      2  C   UNL     1     -10.737  17.291 -11.360  1.00  0.00     0.042 C 
ATOM      3  O   UNL     1     -10.317  16.396 -10.579  1.00  0.00    -0.550 OA
ATOM      4  O   UNL     1     -11.818  17.026 -12.191  1.00  0.00    -0.550 OA
ENDBRANCH   1   2
BRANCH   1   5
ATOM      5  C   UNL     1     -10.986  19.735 -10.988  1.00  0.00     0.059 C 
BRANCH   5   6
ATOM      6  C   UNL     1     -11.545  20.450 -12.177  1.00  0.00     0.042 C 
ATOM      7  O   UNL     1     -10.828  20.642 -13.196  1.00  0.00    -0.550 OA
ATOM      8  O   UNL     1     -12.871  20.862 -12.182  1.00  0.00    -0.550 OA
ENDBRANCH   5   6
ENDBRANCH   1   5
TORSDOF 3
ENDMDL
