MODEL 1
REMARK VINA RESULT:    -5.454      0.000      0.000
REMARK INTER + INTRA:          -7.555
REMARK INTER:                  -7.048
REMARK INTRA:                  -0.506
REMARK UNBOUND:                -0.506
REMARK SMILES CO[C@@]1(CO)O[C@@H](CO)[C@H](O)[C@H]1O
REMARK SMILES IDX 3 1 12 2 10 3 7 4 6 5 2 6 1 7 4 8 5 9 13 11 11 13 8 15 9 16
REMARK H PARENT 5 10 13 12 11 14 9 17
REMARK Flexibility Score: inf
ROOT
ATOM      1  C   UNL     1     -15.512  -9.313  -1.912  1.00  0.00     0.221 C 
ATOM      2  C   UNL     1     -15.305 -10.611  -1.103  1.00  0.00     0.207 C 
ATOM      3  C   UNL     1     -16.697 -10.917  -0.629  1.00  0.00     0.180 C 
ATOM      4  C   UNL     1     -17.291  -9.524  -0.470  1.00  0.00     0.179 C 
ATOM      5  O   UNL     1     -16.615  -8.637  -1.336  1.00  0.00    -0.337 OA
ENDROOT
BRANCH   1   6
ATOM      6  O   UNL     1     -15.889  -9.614  -3.261  1.00  0.00    -0.349 OA
ATOM      7  C   UNL     1     -16.377  -8.516  -4.007  1.00  0.00     0.198 C 
ENDBRANCH   1   6
BRANCH   1   8
ATOM      8  C   UNL     1     -14.286  -8.366  -1.782  1.00  0.00     0.224 C 
BRANCH   8   9
ATOM      9  O   UNL     1     -13.097  -9.110  -1.764  1.00  0.00    -0.391 OA
ATOM     10  H   UNL     1     -13.333 -10.018  -2.085  1.00  0.00     0.210 HD
ENDBRANCH   8   9
ENDBRANCH   1   8
BRANCH   2  11
ATOM     11  O   UNL     1     -14.811 -11.672  -1.877  1.00  0.00    -0.385 OA
ATOM     12  H   UNL     1     -13.824 -11.567  -1.907  1.00  0.00     0.211 HD
ENDBRANCH   2  11
BRANCH   3  13
ATOM     13  O   UNL     1     -16.684 -11.601   0.597  1.00  0.00    -0.387 OA
ATOM     14  H   UNL     1     -17.497 -12.171   0.610  1.00  0.00     0.211 HD
ENDBRANCH   3  13
BRANCH   4  15
ATOM     15  C   UNL     1     -18.795  -9.486  -0.767  1.00  0.00     0.191 C 
BRANCH  15  16
ATOM     16  O   UNL     1     -19.052  -9.913  -2.078  1.00  0.00    -0.394 OA
ATOM     17  H   UNL     1     -18.967  -9.115  -2.661  1.00  0.00     0.210 HD
ENDBRANCH  15  16
ENDBRANCH   4  15
TORSDOF 7
ENDMDL
MODEL 2
REMARK VINA RESULT:    -5.440      1.607      3.606
REMARK INTER + INTRA:          -7.536
REMARK INTER:                  -6.995
REMARK INTRA:                  -0.541
REMARK UNBOUND:                -0.506
REMARK SMILES CO[C@@]1(CO)O[C@@H](CO)[C@H](O)[C@H]1O
REMARK SMILES IDX 3 1 12 2 10 3 7 4 6 5 2 6 1 7 4 8 5 9 13 11 11 13 8 15 9 16
REMARK H PARENT 5 10 13 12 11 14 9 17
REMARK Flexibility Score: inf
ROOT
ATOM      1  C   UNL     1     -16.644  -9.458  -0.681  1.00  0.00     0.221 C 
ATOM      2  C   UNL     1     -15.857 -10.785  -0.736  1.00  0.00     0.207 C 
ATOM      3  C   UNL     1     -15.233 -10.730  -2.102  1.00  0.00     0.180 C 
ATOM      4  C   UNL     1     -16.278  -9.959  -2.896  1.00  0.00     0.179 C 
ATOM      5  O   UNL     1     -17.014  -9.141  -2.011  1.00  0.00    -0.337 OA
ENDROOT
BRANCH   1   6
ATOM      6  O   UNL     1     -15.800  -8.390  -0.237  1.00  0.00    -0.349 OA
ATOM      7  C   UNL     1     -16.298  -7.648   0.859  1.00  0.00     0.198 C 
ENDBRANCH   1   6
BRANCH   1   8
ATOM      8  C   UNL     1     -17.963  -9.617   0.126  1.00  0.00     0.224 C 
BRANCH   8   9
ATOM      9  O   UNL     1     -18.074 -10.924   0.623  1.00  0.00    -0.391 OA
ATOM     10  H   UNL     1     -18.901 -11.302   0.225  1.00  0.00     0.210 HD
ENDBRANCH   8   9
ENDBRANCH   1   8
BRANCH   2  11
ATOM     11  O   UNL     1     -14.863 -10.879   0.249  1.00  0.00    -0.385 OA
ATOM     12  H   UNL     1     -14.038 -10.486  -0.141  1.00  0.00     0.211 HD
ENDBRANCH   2  11
BRANCH   3  13
ATOM     13  O   UNL     1     -15.046 -12.016  -2.633  1.00  0.00    -0.387 OA
ATOM     14  H   UNL     1     -15.012 -12.638  -1.860  1.00  0.00     0.211 HD
ENDBRANCH   3  13
BRANCH   4  15
ATOM     15  C   UNL     1     -15.657  -9.093  -4.001  1.00  0.00     0.191 C 
BRANCH  15  16
ATOM     16  O   UNL     1     -14.438  -9.637  -4.430  1.00  0.00    -0.394 OA
ATOM     17  H   UNL     1     -14.241  -9.234  -5.316  1.00  0.00     0.210 HD
ENDBRANCH  15  16
ENDBRANCH   4  15
TORSDOF 7
ENDMDL
MODEL 3
REMARK VINA RESULT:    -5.414      2.477      4.484
REMARK INTER + INTRA:          -7.502
REMARK INTER:                  -6.977
REMARK INTRA:                  -0.525
REMARK UNBOUND:                -0.506
REMARK SMILES CO[C@@]1(CO)O[C@@H](CO)[C@H](O)[C@H]1O
REMARK SMILES IDX 3 1 12 2 10 3 7 4 6 5 2 6 1 7 4 8 5 9 13 11 11 13 8 15 9 16
REMARK H PARENT 5 10 13 12 11 14 9 17
REMARK Flexibility Score: inf
ROOT
ATOM      1  C   UNL     1     -16.882 -12.709  -1.725  1.00  0.00     0.221 C 
ATOM      2  C   UNL     1     -15.998 -11.448  -1.837  1.00  0.00     0.207 C 
ATOM      3  C   UNL     1     -15.031 -11.634  -0.703  1.00  0.00     0.180 C 
ATOM      4  C   UNL     1     -15.880 -12.377   0.319  1.00  0.00     0.179 C 
ATOM      5  O   UNL     1     -16.899 -13.082  -0.359  1.00  0.00    -0.337 OA
ENDROOT
BRANCH   1   6
ATOM      6  O   UNL     1     -16.288 -13.805  -2.430  1.00  0.00    -0.349 OA
ATOM      7  C   UNL     1     -17.163 -14.514  -3.285  1.00  0.00     0.198 C 
ENDBRANCH   1   6
BRANCH   1   8
ATOM      8  C   UNL     1     -18.352 -12.405  -2.127  1.00  0.00     0.224 C 
BRANCH   8   9
ATOM      9  O   UNL     1     -18.496 -11.048  -2.453  1.00  0.00    -0.391 OA
ATOM     10  H   UNL     1     -18.576 -11.008  -3.441  1.00  0.00     0.210 HD
ENDBRANCH   8   9
ENDBRANCH   1   8
BRANCH   2  11
ATOM     11  O   UNL     1     -15.307 -11.363  -3.056  1.00  0.00    -0.385 OA
ATOM     12  H   UNL     1     -14.553 -10.734  -2.911  1.00  0.00     0.211 HD
ENDBRANCH   2  11
BRANCH   3  13
ATOM     13  O   UNL     1     -14.595 -10.401  -0.192  1.00  0.00    -0.387 OA
ATOM     14  H   UNL     1     -15.412  -9.869  -0.004  1.00  0.00     0.211 HD
ENDBRANCH   3  13
BRANCH   4  15
ATOM     15  C   UNL     1     -15.058 -13.353   1.171  1.00  0.00     0.191 C 
BRANCH  15  16
ATOM     16  O   UNL     1     -13.702 -12.998   1.162  1.00  0.00    -0.394 OA
ATOM     17  H   UNL     1     -13.665 -12.008   1.088  1.00  0.00     0.210 HD
ENDBRANCH  15  16
ENDBRANCH   4  15
TORSDOF 7
ENDMDL
MODEL 4
REMARK VINA RESULT:    -5.374      1.493      3.746
REMARK INTER + INTRA:          -7.450
REMARK INTER:                  -6.968
REMARK INTRA:                  -0.483
REMARK UNBOUND:                -0.506
REMARK SMILES CO[C@@]1(CO)O[C@@H](CO)[C@H](O)[C@H]1O
REMARK SMILES IDX 3 1 12 2 10 3 7 4 6 5 2 6 1 7 4 8 5 9 13 11 11 13 8 15 9 16
REMARK H PARENT 5 10 13 12 11 14 9 17
REMARK Flexibility Score: inf
ROOT
ATOM      1  C   UNL     1     -16.973  -9.050  -0.309  1.00  0.00     0.221 C 
ATOM      2  C   UNL     1     -15.727  -8.392  -0.941  1.00  0.00     0.207 C 
ATOM      3  C   UNL     1     -14.984  -9.576  -1.491  1.00  0.00     0.180 C 
ATOM      4  C   UNL     1     -15.349 -10.669  -0.496  1.00  0.00     0.179 C 
ATOM      5  O   UNL     1     -16.592 -10.353   0.096  1.00  0.00    -0.337 OA
ENDROOT
BRANCH   1   6
ATOM      6  O   UNL     1     -18.003  -9.223  -1.289  1.00  0.00    -0.349 OA
ATOM      7  C   UNL     1     -19.039 -10.113  -0.920  1.00  0.00     0.198 C 
ENDBRANCH   1   6
BRANCH   1   8
ATOM      8  C   UNL     1     -17.422  -8.294   0.972  1.00  0.00     0.224 C 
BRANCH   8   9
ATOM      9  O   UNL     1     -16.584  -7.194   1.206  1.00  0.00    -0.391 OA
ATOM     10  H   UNL     1     -15.942  -7.478   1.906  1.00  0.00     0.210 HD
ENDBRANCH   8   9
ENDBRANCH   1   8
BRANCH   2  11
ATOM     11  O   UNL     1     -16.040  -7.493  -1.972  1.00  0.00    -0.385 OA
ATOM     12  H   UNL     1     -16.869  -7.021  -1.696  1.00  0.00     0.211 HD
ENDBRANCH   2  11
BRANCH   3  13
ATOM     13  O   UNL     1     -13.598  -9.352  -1.506  1.00  0.00    -0.387 OA
ATOM     14  H   UNL     1     -13.264  -9.714  -2.368  1.00  0.00     0.211 HD
ENDBRANCH   3  13
BRANCH   4  15
ATOM     15  C   UNL     1     -15.427 -12.057  -1.146  1.00  0.00     0.191 C 
BRANCH  15  16
ATOM     16  O   UNL     1     -14.147 -12.517  -1.487  1.00  0.00    -0.394 OA
ATOM     17  H   UNL     1     -14.236 -13.483  -1.697  1.00  0.00     0.210 HD
ENDBRANCH  15  16
ENDBRANCH   4  15
TORSDOF 7
ENDMDL
MODEL 5
REMARK VINA RESULT:    -5.361      2.239      4.034
REMARK INTER + INTRA:          -7.434
REMARK INTER:                  -6.925
REMARK INTRA:                  -0.510
REMARK UNBOUND:                -0.506
REMARK SMILES CO[C@@]1(CO)O[C@@H](CO)[C@H](O)[C@H]1O
REMARK SMILES IDX 3 1 12 2 10 3 7 4 6 5 2 6 1 7 4 8 5 9 13 11 11 13 8 15 9 16
REMARK H PARENT 5 10 13 12 11 14 9 17
REMARK Flexibility Score: inf
ROOT
ATOM      1  C   UNL     1     -15.579 -12.841  -0.899  1.00  0.00     0.221 C 
ATOM      2  C   UNL     1     -15.479 -11.585  -1.792  1.00  0.00     0.207 C 
ATOM      3  C   UNL     1     -16.888 -11.064  -1.770  1.00  0.00     0.180 C 
ATOM      4  C   UNL     1     -17.698 -12.347  -1.646  1.00  0.00     0.179 C 
ATOM      5  O   UNL     1     -16.901 -13.333  -1.024  1.00  0.00    -0.337 OA
ENDROOT
BRANCH   1   6
ATOM      6  O   UNL     1     -15.413 -12.493   0.480  1.00  0.00    -0.349 OA
ATOM      7  C   UNL     1     -15.397 -13.586   1.377  1.00  0.00     0.198 C 
ENDBRANCH   1   6
BRANCH   1   8
ATOM      8  C   UNL     1     -14.631 -13.966  -1.399  1.00  0.00     0.224 C 
BRANCH   8   9
ATOM      9  O   UNL     1     -13.349 -13.450  -1.639  1.00  0.00    -0.391 OA
ATOM     10  H   UNL     1     -12.783 -13.749  -0.880  1.00  0.00     0.210 HD
ENDBRANCH   8   9
ENDBRANCH   1   8
BRANCH   2  11
ATOM     11  O   UNL     1     -14.595 -10.619  -1.290  1.00  0.00    -0.385 OA
ATOM     12  H   UNL     1     -15.081 -10.134  -0.573  1.00  0.00     0.211 HD
ENDBRANCH   2  11
BRANCH   3  13
ATOM     13  O   UNL     1     -17.203 -10.383  -2.956  1.00  0.00    -0.387 OA
ATOM     14  H   UNL     1     -16.361  -9.958  -3.269  1.00  0.00     0.211 HD
ENDBRANCH   3  13
BRANCH   4  15
ATOM     15  C   UNL     1     -18.992 -12.151  -0.845  1.00  0.00     0.191 C 
BRANCH  15  16
ATOM     16  O   UNL     1     -18.722 -12.111   0.531  1.00  0.00    -0.394 OA
ATOM     17  H   UNL     1     -18.391 -13.012   0.785  1.00  0.00     0.210 HD
ENDBRANCH  15  16
ENDBRANCH   4  15
TORSDOF 7
ENDMDL
MODEL 6
REMARK VINA RESULT:    -5.357      1.484      2.050
REMARK INTER + INTRA:          -7.429
REMARK INTER:                  -7.006
REMARK INTRA:                  -0.423
REMARK UNBOUND:                -0.506
REMARK SMILES CO[C@@]1(CO)O[C@@H](CO)[C@H](O)[C@H]1O
REMARK SMILES IDX 3 1 12 2 10 3 7 4 6 5 2 6 1 7 4 8 5 9 13 11 11 13 8 15 9 16
REMARK H PARENT 5 10 13 12 11 14 9 17
REMARK Flexibility Score: inf
ROOT
ATOM      1  C   UNL     1     -15.306  -9.517  -1.447  1.00  0.00     0.221 C 
ATOM      2  C   UNL     1     -15.149  -8.929  -0.028  1.00  0.00     0.207 C 
ATOM      3  C   UNL     1     -16.557  -8.969   0.492  1.00  0.00     0.180 C 
ATOM      4  C   UNL     1     -17.370  -8.754  -0.777  1.00  0.00     0.179 C 
ATOM      5  O   UNL     1     -16.614  -9.198  -1.885  1.00  0.00    -0.337 OA
ENDROOT
BRANCH   1   6
ATOM      6  O   UNL     1     -15.236 -10.947  -1.410  1.00  0.00    -0.349 OA
ATOM      7  C   UNL     1     -15.833 -11.606  -2.510  1.00  0.00     0.198 C 
ENDBRANCH   1   6
BRANCH   1   8
ATOM      8  C   UNL     1     -14.321  -8.849  -2.447  1.00  0.00     0.224 C 
BRANCH   8   9
ATOM      9  O   UNL     1     -13.022  -8.841  -1.918  1.00  0.00    -0.391 OA
ATOM     10  H   UNL     1     -12.945  -8.008  -1.384  1.00  0.00     0.210 HD
ENDBRANCH   8   9
ENDBRANCH   1   8
BRANCH   2  11
ATOM     11  O   UNL     1     -14.304  -9.689   0.795  1.00  0.00    -0.385 OA
ATOM     12  H   UNL     1     -14.145  -9.150   1.614  1.00  0.00     0.211 HD
ENDBRANCH   2  11
BRANCH   3  13
ATOM     13  O   UNL     1     -16.792  -7.941   1.419  1.00  0.00    -0.387 OA
ATOM     14  H   UNL     1     -16.528  -7.094   0.973  1.00  0.00     0.211 HD
ENDBRANCH   3  13
BRANCH   4  15
ATOM     15  C   UNL     1     -18.717  -9.489  -0.746  1.00  0.00     0.191 C 
BRANCH  15  16
ATOM     16  O   UNL     1     -19.059  -9.951  -2.025  1.00  0.00    -0.394 OA
ATOM     17  H   UNL     1     -20.050 -10.014  -2.052  1.00  0.00     0.210 HD
ENDBRANCH  15  16
ENDBRANCH   4  15
TORSDOF 7
ENDMDL
MODEL 7
REMARK VINA RESULT:    -5.284      0.967      3.922
REMARK INTER + INTRA:          -7.335
REMARK INTER:                  -6.948
REMARK INTRA:                  -0.388
REMARK UNBOUND:                -0.506
REMARK SMILES CO[C@@]1(CO)O[C@@H](CO)[C@H](O)[C@H]1O
REMARK SMILES IDX 3 1 12 2 10 3 7 4 6 5 2 6 1 7 4 8 5 9 13 11 11 13 8 15 9 16
REMARK H PARENT 5 10 13 12 11 14 9 17
REMARK Flexibility Score: inf
ROOT
ATOM      1  C   UNL     1     -17.282  -9.860  -0.413  1.00  0.00     0.221 C 
ATOM      2  C   UNL     1     -16.487 -11.182  -0.458  1.00  0.00     0.207 C 
ATOM      3  C   UNL     1     -15.148 -10.733  -0.970  1.00  0.00     0.180 C 
ATOM      4  C   UNL     1     -15.529  -9.568  -1.874  1.00  0.00     0.179 C 
ATOM      5  O   UNL     1     -16.753  -9.024  -1.427  1.00  0.00    -0.337 OA
ENDROOT
BRANCH   1   6
ATOM      6  O   UNL     1     -17.054  -9.177   0.825  1.00  0.00    -0.349 OA
ATOM      7  C   UNL     1     -18.072  -8.272   1.207  1.00  0.00     0.198 C 
ENDBRANCH   1   6
BRANCH   1   8
ATOM      8  C   UNL     1     -18.780 -10.090  -0.756  1.00  0.00     0.224 C 
BRANCH   8   9
ATOM      9  O   UNL     1     -19.007  -9.861  -2.121  1.00  0.00    -0.391 OA
ATOM     10  H   UNL     1     -18.390 -10.464  -2.611  1.00  0.00     0.210 HD
ENDBRANCH   8   9
ENDBRANCH   1   8
BRANCH   2  11
ATOM     11  O   UNL     1     -16.348 -11.787   0.800  1.00  0.00    -0.385 OA
ATOM     12  H   UNL     1     -17.217 -11.674   1.267  1.00  0.00     0.211 HD
ENDBRANCH   2  11
BRANCH   3  13
ATOM     13  O   UNL     1     -14.509 -11.748  -1.701  1.00  0.00    -0.387 OA
ATOM     14  H   UNL     1     -15.203 -12.430  -1.900  1.00  0.00     0.211 HD
ENDBRANCH   3  13
BRANCH   4  15
ATOM     15  C   UNL     1     -14.458  -8.470  -1.903  1.00  0.00     0.191 C 
BRANCH  15  16
ATOM     16  O   UNL     1     -13.177  -9.023  -1.769  1.00  0.00    -0.394 OA
ATOM     17  H   UNL     1     -13.296  -9.935  -1.394  1.00  0.00     0.210 HD
ENDBRANCH  15  16
ENDBRANCH   4  15
TORSDOF 7
ENDMDL
MODEL 8
REMARK VINA RESULT:    -5.243      2.136      4.525
REMARK INTER + INTRA:          -7.281
REMARK INTER:                  -6.863
REMARK INTRA:                  -0.418
REMARK UNBOUND:                -0.506
REMARK SMILES CO[C@@]1(CO)O[C@@H](CO)[C@H](O)[C@H]1O
REMARK SMILES IDX 3 1 12 2 10 3 7 4 6 5 2 6 1 7 4 8 5 9 13 11 11 13 8 15 9 16
REMARK H PARENT 5 10 13 12 11 14 9 17
REMARK Flexibility Score: inf
ROOT
ATOM      1  C   UNL     1     -17.734 -11.699  -1.547  1.00  0.00     0.221 C 
ATOM      2  C   UNL     1     -16.782 -10.535  -1.895  1.00  0.00     0.207 C 
ATOM      3  C   UNL     1     -15.445 -11.220  -1.943  1.00  0.00     0.180 C 
ATOM      4  C   UNL     1     -15.615 -12.319  -0.903  1.00  0.00     0.179 C 
ATOM      5  O   UNL     1     -16.987 -12.634  -0.791  1.00  0.00    -0.337 OA
ENDROOT
BRANCH   1   6
ATOM      6  O   UNL     1     -18.145 -12.386  -2.735  1.00  0.00    -0.349 OA
ATOM      7  C   UNL     1     -18.705 -13.668  -2.525  1.00  0.00     0.198 C 
ENDBRANCH   1   6
BRANCH   1   8
ATOM      8  C   UNL     1     -18.904 -11.221  -0.642  1.00  0.00     0.224 C 
BRANCH   8   9
ATOM      9  O   UNL     1     -18.950 -11.981   0.535  1.00  0.00    -0.391 OA
ATOM     10  H   UNL     1     -19.783 -11.715   1.005  1.00  0.00     0.210 HD
ENDBRANCH   8   9
ENDBRANCH   1   8
BRANCH   2  11
ATOM     11  O   UNL     1     -17.067  -9.938  -3.132  1.00  0.00    -0.385 OA
ATOM     12  H   UNL     1     -16.263 -10.064  -3.700  1.00  0.00     0.211 HD
ENDBRANCH   2  11
BRANCH   3  13
ATOM     13  O   UNL     1     -14.407 -10.345  -1.585  1.00  0.00    -0.387 OA
ATOM     14  H   UNL     1     -14.497 -10.186  -0.609  1.00  0.00     0.211 HD
ENDBRANCH   3  13
BRANCH   4  15
ATOM     15  C   UNL     1     -14.823 -13.586  -1.251  1.00  0.00     0.191 C 
BRANCH  15  16
ATOM     16  O   UNL     1     -13.509 -13.263  -1.620  1.00  0.00    -0.394 OA
ATOM     17  H   UNL     1     -13.218 -12.522  -1.027  1.00  0.00     0.210 HD
ENDBRANCH  15  16
ENDBRANCH   4  15
TORSDOF 7
ENDMDL
MODEL 9
REMARK VINA RESULT:    -5.202      2.812      4.748
REMARK INTER + INTRA:          -7.229
REMARK INTER:                  -6.675
REMARK INTRA:                  -0.554
REMARK UNBOUND:                -0.506
REMARK SMILES CO[C@@]1(CO)O[C@@H](CO)[C@H](O)[C@H]1O
REMARK SMILES IDX 3 1 12 2 10 3 7 4 6 5 2 6 1 7 4 8 5 9 13 11 11 13 8 15 9 16
REMARK H PARENT 5 10 13 12 11 14 9 17
REMARK Flexibility Score: inf
ROOT
ATOM      1  C   UNL     1     -17.740 -13.033  -1.839  1.00  0.00     0.221 C 
ATOM      2  C   UNL     1     -16.443 -13.867  -1.912  1.00  0.00     0.207 C 
ATOM      3  C   UNL     1     -15.381 -12.825  -1.701  1.00  0.00     0.180 C 
ATOM      4  C   UNL     1     -16.015 -11.594  -2.333  1.00  0.00     0.179 C 
ATOM      5  O   UNL     1     -17.420 -11.729  -2.289  1.00  0.00    -0.337 OA
ENDROOT
BRANCH   1   6
ATOM      6  O   UNL     1     -18.171 -12.890  -0.480  1.00  0.00    -0.349 OA
ATOM      7  C   UNL     1     -19.125 -11.871  -0.257  1.00  0.00     0.198 C 
ENDBRANCH   1   6
BRANCH   1   8
ATOM      8  C   UNL     1     -18.824 -13.589  -2.804  1.00  0.00     0.224 C 
BRANCH   8   9
ATOM      9  O   UNL     1     -18.386 -14.786  -3.389  1.00  0.00    -0.391 OA
ATOM     10  H   UNL     1     -19.188 -15.206  -3.796  1.00  0.00     0.210 HD
ENDBRANCH   8   9
ENDBRANCH   1   8
BRANCH   2  11
ATOM     11  O   UNL     1     -16.362 -14.852  -0.917  1.00  0.00    -0.385 OA
ATOM     12  H   UNL     1     -15.715 -15.532  -1.241  1.00  0.00     0.211 HD
ENDBRANCH   2  11
BRANCH   3  13
ATOM     13  O   UNL     1     -14.187 -13.169  -2.355  1.00  0.00    -0.387 OA
ATOM     14  H   UNL     1     -14.398 -13.202  -3.325  1.00  0.00     0.211 HD
ENDBRANCH   3  13
BRANCH   4  15
ATOM     15  C   UNL     1     -15.601 -10.293  -1.634  1.00  0.00     0.191 C 
BRANCH  15  16
ATOM     16  O   UNL     1     -14.208 -10.234  -1.481  1.00  0.00    -0.394 OA
ATOM     17  H   UNL     1     -14.006  -9.379  -1.019  1.00  0.00     0.210 HD
ENDBRANCH  15  16
ENDBRANCH   4  15
TORSDOF 7
ENDMDL
