MODEL 1
REMARK VINA RESULT:    -8.616      0.000      0.000
REMARK INTER + INTRA:         -16.074
REMARK INTER:                 -14.157
REMARK INTRA:                  -1.917
REMARK UNBOUND:                -1.917
REMARK SMILES C[C@H]1O[C@@H](OC[C@H]2O[C@H](Oc3c(-c4ccc(O)c(O)c4)oc4cc(O)cc(O)c4c3=O)[C@@H](O)[C@H](O)[C@H]2O)[C@H](O)[C@@H](O)[C@@H]1O
REMARK SMILES IDX 7 1 36 2 34 3 32 4 9 5 8 6 6 7 5 8 4 9 1 10 2 11 42 12 3 13
REMARK SMILES IDX 40 14 38 15 43 16 41 18 39 20 37 22 35 24 10 26 11 27 12 28
REMARK SMILES IDX 30 29 21 30 29 31 31 32 22 33 27 34 23 35 26 36 24 37 13 38
REMARK SMILES IDX 20 39 14 40 18 41 15 42 16 43 19 44 17 46 28 48 25 50 33 52
REMARK H PARENT 43 17 41 19 39 21 37 23 35 25 19 45 17 47 28 49 25 51 33 53
REMARK Flexibility Score: inf
ROOT
ATOM      1  C   UNL     1      -1.136 -16.161  28.742  1.00  0.00     0.180 C 
ATOM      2  C   UNL     1      -0.755 -16.159  27.238  1.00  0.00     0.177 C 
ATOM      3  C   UNL     1      -1.120 -17.473  26.503  1.00  0.00     0.180 C 
ATOM      4  C   UNL     1      -1.875 -18.463  27.398  1.00  0.00     0.214 C 
ATOM      5  C   UNL     1      -1.277 -18.550  28.837  1.00  0.00     0.339 C 
ATOM      6  O   UNL     1      -0.685 -17.356  29.351  1.00  0.00    -0.332 OA
ENDROOT
BRANCH   1   7
ATOM      7  C   UNL     1      -2.595 -15.816  29.172  1.00  0.00     0.198 C 
BRANCH   7   8
ATOM      8  O   UNL     1      -3.315 -15.134  28.159  1.00  0.00    -0.347 OA
BRANCH   8   9
ATOM      9  C   UNL     1      -4.131 -14.087  28.665  1.00  0.00     0.281 C 
ATOM     10  C   UNL     1      -4.725 -13.344  31.930  1.00  0.00     0.041 C 
ATOM     11  C   UNL     1      -4.422 -12.670  30.588  1.00  0.00     0.150 C 
ATOM     12  C   UNL     1      -5.715 -12.207  29.864  1.00  0.00     0.174 C 
ATOM     13  O   UNL     1      -3.551 -13.503  29.827  1.00  0.00    -0.344 OA
ATOM     14  C   UNL     1      -6.505 -13.397  29.271  1.00  0.00     0.179 C 
ATOM     15  C   UNL     1      -5.581 -14.575  28.875  1.00  0.00     0.202 C 
BRANCH  12  16
ATOM     16  O   UNL     1      -5.362 -11.304  28.844  1.00  0.00    -0.388 OA
ATOM     17  H   UNL     1      -4.454 -10.963  29.059  1.00  0.00     0.211 HD
ENDBRANCH  12  16
BRANCH  14  18
ATOM     18  O   UNL     1      -7.458 -13.834  30.207  1.00  0.00    -0.387 OA
ATOM     19  H   UNL     1      -7.432 -14.827  30.206  1.00  0.00     0.211 HD
ENDBRANCH  14  18
BRANCH  15  20
ATOM     20  O   UNL     1      -6.044 -15.170  27.689  1.00  0.00    -0.385 OA
ATOM     21  H   UNL     1      -5.443 -15.937  27.497  1.00  0.00     0.211 HD
ENDBRANCH  15  20
ENDBRANCH   8   9
ENDBRANCH   7   8
ENDBRANCH   1   7
BRANCH   2  22
ATOM     22  O   UNL     1      -1.289 -15.043  26.574  1.00  0.00    -0.387 OA
ATOM     23  H   UNL     1      -2.176 -14.860  26.980  1.00  0.00     0.211 HD
ENDBRANCH   2  22
BRANCH   3  24
ATOM     24  O   UNL     1       0.045 -18.095  26.023  1.00  0.00    -0.387 OA
ATOM     25  H   UNL     1       0.027 -19.032  26.351  1.00  0.00     0.211 HD
ENDBRANCH   3  24
BRANCH   5  26
ATOM     26  O   UNL     1      -0.285 -19.576  28.836  1.00  0.00    -0.454 OA
BRANCH  26  27
ATOM     27  C   UNL     1      -0.460 -20.941  29.146  1.00  0.00     0.214 A 
ATOM     28  C   UNL     1       0.031 -21.894  28.230  1.00  0.00     0.180 A 
ATOM     29  C   UNL     1      -1.128 -21.412  30.302  1.00  0.00     0.239 A 
ATOM     30  O   UNL     1      -0.168 -23.191  28.436  1.00  0.00    -0.452 OA
ATOM     31  C   UNL     1      -1.301 -22.800  30.491  1.00  0.00     0.111 A 
ATOM     32  O   UNL     1      -1.579 -20.601  31.153  1.00  0.00    -0.285 OA
ATOM     33  C   UNL     1      -0.795 -23.672  29.499  1.00  0.00     0.146 A 
ATOM     34  C   UNL     1      -1.959 -23.353  31.619  1.00  0.00     0.134 A 
ATOM     35  C   UNL     1      -0.948 -25.055  29.630  1.00  0.00     0.094 A 
ATOM     36  C   UNL     1      -2.100 -24.743  31.733  1.00  0.00     0.093 A 
ATOM     37  C   UNL     1      -1.598 -25.593  30.744  1.00  0.00     0.123 A 
BRANCH  28  38
ATOM     38  C   UNL     1       0.766 -21.490  27.012  1.00  0.00     0.025 A 
ATOM     39  C   UNL     1       0.152 -21.525  25.748  1.00  0.00     0.062 A 
ATOM     40  C   UNL     1       2.079 -21.008  27.123  1.00  0.00     0.016 A 
ATOM     41  C   UNL     1       0.852 -21.111  24.605  1.00  0.00     0.158 A 
ATOM     42  C   UNL     1       2.781 -20.604  25.985  1.00  0.00     0.051 A 
ATOM     43  C   UNL     1       2.177 -20.656  24.726  1.00  0.00     0.157 A 
BRANCH  41  44
ATOM     44  O   UNL     1       0.236 -21.141  23.356  1.00  0.00    -0.504 OA
ATOM     45  H   UNL     1      -0.758 -20.976  23.250  1.00  0.00     0.293 HD
ENDBRANCH  41  44
BRANCH  43  46
ATOM     46  O   UNL     1       2.903 -20.248  23.607  1.00  0.00    -0.504 OA
ATOM     47  H   UNL     1       3.896 -20.052  23.654  1.00  0.00     0.293 HD
ENDBRANCH  43  46
ENDBRANCH  28  38
BRANCH  34  48
ATOM     48  O   UNL     1      -2.473 -22.533  32.625  1.00  0.00    -0.507 OA
ATOM     49  H   UNL     1      -2.676 -22.890  33.552  1.00  0.00     0.293 HD
ENDBRANCH  34  48
BRANCH  37  50
ATOM     50  O   UNL     1      -1.751 -26.971  30.880  1.00  0.00    -0.508 OA
ATOM     51  H   UNL     1      -1.535 -27.605  30.121  1.00  0.00     0.293 HD
ENDBRANCH  37  50
ENDBRANCH  26  27
ENDBRANCH   5  26
BRANCH   4  52
ATOM     52  O   UNL     1      -3.235 -18.111  27.434  1.00  0.00    -0.384 OA
ATOM     53  H   UNL     1      -3.326 -17.365  28.084  1.00  0.00     0.211 HD
ENDBRANCH   4  52
TORSDOF 16
ENDMDL
MODEL 2
REMARK VINA RESULT:    -8.496      2.521      8.498
REMARK INTER + INTRA:         -15.876
REMARK INTER:                 -13.324
REMARK INTRA:                  -2.552
REMARK UNBOUND:                -1.917
REMARK SMILES C[C@H]1O[C@@H](OC[C@H]2O[C@H](Oc3c(-c4ccc(O)c(O)c4)oc4cc(O)cc(O)c4c3=O)[C@@H](O)[C@H](O)[C@H]2O)[C@H](O)[C@@H](O)[C@@H]1O
REMARK SMILES IDX 7 1 36 2 34 3 32 4 9 5 8 6 6 7 5 8 4 9 1 10 2 11 42 12 3 13
REMARK SMILES IDX 40 14 38 15 43 16 41 18 39 20 37 22 35 24 10 26 11 27 12 28
REMARK SMILES IDX 30 29 21 30 29 31 31 32 22 33 27 34 23 35 26 36 24 37 13 38
REMARK SMILES IDX 20 39 14 40 18 41 15 42 16 43 19 44 17 46 28 48 25 50 33 52
REMARK H PARENT 43 17 41 19 39 21 37 23 35 25 19 45 17 47 28 49 25 51 33 53
REMARK Flexibility Score: inf
ROOT
ATOM      1  C   UNL     1      -1.103 -17.081  26.021  1.00  0.00     0.180 C 
ATOM      2  C   UNL     1      -1.123 -16.039  24.871  1.00  0.00     0.177 C 
ATOM      3  C   UNL     1      -0.298 -14.763  25.175  1.00  0.00     0.180 C 
ATOM      4  C   UNL     1       0.449 -14.845  26.512  1.00  0.00     0.214 C 
ATOM      5  C   UNL     1      -0.421 -15.464  27.650  1.00  0.00     0.339 C 
ATOM      6  O   UNL     1      -1.382 -16.443  27.252  1.00  0.00    -0.332 OA
ENDROOT
BRANCH   1   7
ATOM      7  C   UNL     1       0.094 -18.071  26.147  1.00  0.00     0.198 C 
BRANCH   7   8
ATOM      8  O   UNL     1      -0.325 -19.419  26.282  1.00  0.00    -0.347 OA
BRANCH   8   9
ATOM      9  C   UNL     1      -0.864 -19.710  27.563  1.00  0.00     0.281 C 
ATOM     10  C   UNL     1       0.852 -20.644  30.347  1.00  0.00     0.041 C 
ATOM     11  C   UNL     1      -0.293 -19.728  29.901  1.00  0.00     0.150 C 
ATOM     12  C   UNL     1      -1.681 -20.401  30.081  1.00  0.00     0.174 C 
ATOM     13  O   UNL     1      -0.013 -19.224  28.597  1.00  0.00    -0.344 OA
ATOM     14  C   UNL     1      -1.933 -21.501  29.022  1.00  0.00     0.179 C 
ATOM     15  C   UNL     1      -1.197 -21.212  27.690  1.00  0.00     0.202 C 
BRANCH  12  16
ATOM     16  O   UNL     1      -2.676 -19.411  29.996  1.00  0.00    -0.388 OA
ATOM     17  H   UNL     1      -3.174 -19.424  30.855  1.00  0.00     0.211 HD
ENDBRANCH  12  16
BRANCH  14  18
ATOM     18  O   UNL     1      -1.519 -22.742  29.535  1.00  0.00    -0.387 OA
ATOM     19  H   UNL     1      -0.824 -23.094  28.918  1.00  0.00     0.211 HD
ENDBRANCH  14  18
BRANCH  15  20
ATOM     20  O   UNL     1      -2.002 -21.600  26.605  1.00  0.00    -0.385 OA
ATOM     21  H   UNL     1      -2.598 -22.324  26.932  1.00  0.00     0.211 HD
ENDBRANCH  15  20
ENDBRANCH   8   9
ENDBRANCH   7   8
ENDBRANCH   1   7
BRANCH   2  22
ATOM     22  O   UNL     1      -0.734 -16.612  23.650  1.00  0.00    -0.387 OA
ATOM     23  H   UNL     1       0.215 -16.884  23.746  1.00  0.00     0.211 HD
ENDBRANCH   2  22
BRANCH   3  24
ATOM     24  O   UNL     1      -1.140 -13.639  25.196  1.00  0.00    -0.387 OA
ATOM     25  H   UNL     1      -0.925 -13.133  26.023  1.00  0.00     0.211 HD
ENDBRANCH   3  24
BRANCH   5  26
ATOM     26  O   UNL     1      -1.112 -14.398  28.301  1.00  0.00    -0.454 OA
BRANCH  26  27
ATOM     27  C   UNL     1      -2.417 -14.419  28.837  1.00  0.00     0.214 A 
ATOM     28  C   UNL     1      -2.559 -14.657  30.219  1.00  0.00     0.180 A 
ATOM     29  C   UNL     1      -3.593 -14.251  28.067  1.00  0.00     0.239 A 
ATOM     30  O   UNL     1      -3.765 -14.757  30.765  1.00  0.00    -0.452 OA
ATOM     31  C   UNL     1      -4.856 -14.346  28.691  1.00  0.00     0.111 A 
ATOM     32  O   UNL     1      -3.519 -14.031  26.829  1.00  0.00    -0.285 OA
ATOM     33  C   UNL     1      -4.889 -14.615  30.078  1.00  0.00     0.146 A 
ATOM     34  C   UNL     1      -6.080 -14.193  27.992  1.00  0.00     0.134 A 
ATOM     35  C   UNL     1      -6.112 -14.731  30.746  1.00  0.00     0.094 A 
ATOM     36  C   UNL     1      -7.295 -14.310  28.680  1.00  0.00     0.093 A 
ATOM     37  C   UNL     1      -7.315 -14.578  30.051  1.00  0.00     0.123 A 
BRANCH  28  38
ATOM     38  C   UNL     1      -1.383 -14.814  31.103  1.00  0.00     0.025 A 
ATOM     39  C   UNL     1      -0.950 -13.763  31.929  1.00  0.00     0.062 A 
ATOM     40  C   UNL     1      -0.722 -16.051  31.163  1.00  0.00     0.016 A 
ATOM     41  C   UNL     1       0.149 -13.936  32.783  1.00  0.00     0.158 A 
ATOM     42  C   UNL     1       0.379 -16.221  32.006  1.00  0.00     0.051 A 
ATOM     43  C   UNL     1       0.821 -15.170  32.814  1.00  0.00     0.157 A 
BRANCH  41  44
ATOM     44  O   UNL     1       0.570 -12.892  33.605  1.00  0.00    -0.504 OA
ATOM     45  H   UNL     1       0.516 -11.925  33.305  1.00  0.00     0.293 HD
ENDBRANCH  41  44
BRANCH  43  46
ATOM     46  O   UNL     1       1.923 -15.370  33.644  1.00  0.00    -0.504 OA
ATOM     47  H   UNL     1       2.701 -15.960  33.372  1.00  0.00     0.293 HD
ENDBRANCH  43  46
ENDBRANCH  28  38
BRANCH  34  48
ATOM     48  O   UNL     1      -6.097 -13.925  26.622  1.00  0.00    -0.507 OA
ATOM     49  H   UNL     1      -5.941 -12.991  26.260  1.00  0.00     0.293 HD
ENDBRANCH  34  48
BRANCH  37  50
ATOM     50  O   UNL     1      -8.536 -14.690  30.711  1.00  0.00    -0.508 OA
ATOM     51  H   UNL     1      -8.763 -14.107  31.508  1.00  0.00     0.293 HD
ENDBRANCH  37  50
ENDBRANCH  26  27
ENDBRANCH   5  26
BRANCH   4  52
ATOM     52  O   UNL     1       1.641 -15.567  26.334  1.00  0.00    -0.384 OA
ATOM     53  H   UNL     1       1.568 -16.040  25.463  1.00  0.00     0.211 HD
ENDBRANCH   4  52
TORSDOF 16
ENDMDL
MODEL 3
REMARK VINA RESULT:    -8.450      3.309      9.375
REMARK INTER + INTRA:         -15.802
REMARK INTER:                 -13.587
REMARK INTRA:                  -2.214
REMARK UNBOUND:                -1.917
REMARK SMILES C[C@H]1O[C@@H](OC[C@H]2O[C@H](Oc3c(-c4ccc(O)c(O)c4)oc4cc(O)cc(O)c4c3=O)[C@@H](O)[C@H](O)[C@H]2O)[C@H](O)[C@@H](O)[C@@H]1O
REMARK SMILES IDX 7 1 36 2 34 3 32 4 9 5 8 6 6 7 5 8 4 9 1 10 2 11 42 12 3 13
REMARK SMILES IDX 40 14 38 15 43 16 41 18 39 20 37 22 35 24 10 26 11 27 12 28
REMARK SMILES IDX 30 29 21 30 29 31 31 32 22 33 27 34 23 35 26 36 24 37 13 38
REMARK SMILES IDX 20 39 14 40 18 41 15 42 16 43 19 44 17 46 28 48 25 50 33 52
REMARK H PARENT 43 17 41 19 39 21 37 23 35 25 19 45 17 47 28 49 25 51 33 53
REMARK Flexibility Score: inf
ROOT
ATOM      1  C   UNL     1      -1.159 -17.380  25.894  1.00  0.00     0.180 C 
ATOM      2  C   UNL     1      -1.151 -16.331  24.751  1.00  0.00     0.177 C 
ATOM      3  C   UNL     1      -0.225 -15.120  25.026  1.00  0.00     0.180 C 
ATOM      4  C   UNL     1       0.567 -15.263  26.331  1.00  0.00     0.214 C 
ATOM      5  C   UNL     1      -0.300 -15.826  27.501  1.00  0.00     0.339 C 
ATOM      6  O   UNL     1      -1.343 -16.732  27.139  1.00  0.00    -0.332 OA
ENDROOT
BRANCH   1   7
ATOM      7  C   UNL     1      -0.032 -18.453  25.969  1.00  0.00     0.198 C 
BRANCH   7   8
ATOM      8  O   UNL     1       0.584 -18.687  24.713  1.00  0.00    -0.347 OA
BRANCH   8   9
ATOM      9  C   UNL     1       0.696 -20.066  24.395  1.00  0.00     0.281 C 
ATOM     10  C   UNL     1       0.812 -22.672  26.579  1.00  0.00     0.041 C 
ATOM     11  C   UNL     1       0.177 -22.257  25.247  1.00  0.00     0.150 C 
ATOM     12  C   UNL     1       0.998 -22.760  24.029  1.00  0.00     0.174 C 
ATOM     13  O   UNL     1      -0.100 -20.859  25.272  1.00  0.00    -0.344 OA
ATOM     14  C   UNL     1       2.307 -21.957  23.841  1.00  0.00     0.179 C 
ATOM     15  C   UNL     1       2.178 -20.498  24.344  1.00  0.00     0.202 C 
BRANCH  12  16
ATOM     16  O   UNL     1       0.200 -22.661  22.875  1.00  0.00    -0.388 OA
ATOM     17  H   UNL     1      -0.060 -23.585  22.620  1.00  0.00     0.211 HD
ENDBRANCH  12  16
BRANCH  14  18
ATOM     18  O   UNL     1       3.351 -22.605  24.523  1.00  0.00    -0.387 OA
ATOM     19  H   UNL     1       3.941 -21.896  24.891  1.00  0.00     0.211 HD
ENDBRANCH  14  18
BRANCH  15  20
ATOM     20  O   UNL     1       2.882 -19.632  23.490  1.00  0.00    -0.385 OA
ATOM     21  H   UNL     1       2.946 -18.757  23.956  1.00  0.00     0.211 HD
ENDBRANCH  15  20
ENDBRANCH   8   9
ENDBRANCH   7   8
ENDBRANCH   1   7
BRANCH   2  22
ATOM     22  O   UNL     1      -0.853 -16.923  23.512  1.00  0.00    -0.387 OA
ATOM     23  H   UNL     1      -0.289 -16.278  23.011  1.00  0.00     0.211 HD
ENDBRANCH   2  22
BRANCH   3  24
ATOM     24  O   UNL     1      -0.984 -13.938  25.085  1.00  0.00    -0.387 OA
ATOM     25  H   UNL     1      -1.207 -13.693  24.149  1.00  0.00     0.211 HD
ENDBRANCH   3  24
BRANCH   5  26
ATOM     26  O   UNL     1      -0.886 -14.718  28.183  1.00  0.00    -0.454 OA
BRANCH  26  27
ATOM     27  C   UNL     1      -2.174 -14.644  28.754  1.00  0.00     0.214 A 
ATOM     28  C   UNL     1      -2.289 -14.821  30.148  1.00  0.00     0.180 A 
ATOM     29  C   UNL     1      -3.360 -14.437  28.010  1.00  0.00     0.239 A 
ATOM     30  O   UNL     1      -3.483 -14.830  30.730  1.00  0.00    -0.452 OA
ATOM     31  C   UNL     1      -4.608 -14.435  28.670  1.00  0.00     0.111 A 
ATOM     32  O   UNL     1      -3.310 -14.268  26.763  1.00  0.00    -0.285 OA
ATOM     33  C   UNL     1      -4.617 -14.649  30.068  1.00  0.00     0.146 A 
ATOM     34  C   UNL     1      -5.841 -14.238  27.999  1.00  0.00     0.134 A 
ATOM     35  C   UNL     1      -5.825 -14.669  30.771  1.00  0.00     0.094 A 
ATOM     36  C   UNL     1      -7.041 -14.258  28.723  1.00  0.00     0.093 A 
ATOM     37  C   UNL     1      -7.036 -14.473  30.103  1.00  0.00     0.123 A 
BRANCH  28  38
ATOM     38  C   UNL     1      -1.099 -15.013  31.005  1.00  0.00     0.025 A 
ATOM     39  C   UNL     1      -0.539 -13.941  31.721  1.00  0.00     0.062 A 
ATOM     40  C   UNL     1      -0.553 -16.297  31.155  1.00  0.00     0.016 A 
ATOM     41  C   UNL     1       0.572 -14.144  32.553  1.00  0.00     0.158 A 
ATOM     42  C   UNL     1       0.559 -16.499  31.976  1.00  0.00     0.051 A 
ATOM     43  C   UNL     1       1.127 -15.429  32.673  1.00  0.00     0.157 A 
BRANCH  41  44
ATOM     44  O   UNL     1       1.118 -13.078  33.265  1.00  0.00    -0.504 OA
ATOM     45  H   UNL     1       1.272 -13.130  34.265  1.00  0.00     0.293 HD
ENDBRANCH  41  44
BRANCH  43  46
ATOM     46  O   UNL     1       2.238 -15.661  33.483  1.00  0.00    -0.504 OA
ATOM     47  H   UNL     1       3.178 -15.422  33.189  1.00  0.00     0.293 HD
ENDBRANCH  43  46
ENDBRANCH  28  38
BRANCH  34  48
ATOM     48  O   UNL     1      -5.882 -14.020  26.620  1.00  0.00    -0.507 OA
ATOM     49  H   UNL     1      -6.089 -14.768  25.968  1.00  0.00     0.293 HD
ENDBRANCH  34  48
BRANCH  37  50
ATOM     50  O   UNL     1      -8.243 -14.490  30.800  1.00  0.00    -0.508 OA
ATOM     51  H   UNL     1      -8.358 -13.986  31.671  1.00  0.00     0.293 HD
ENDBRANCH  37  50
ENDBRANCH  26  27
ENDBRANCH   5  26
BRANCH   4  52
ATOM     52  O   UNL     1       1.695 -16.067  26.103  1.00  0.00    -0.384 OA
ATOM     53  H   UNL     1       2.170 -15.687  25.316  1.00  0.00     0.211 HD
ENDBRANCH   4  52
TORSDOF 16
ENDMDL
MODEL 4
REMARK VINA RESULT:    -8.306      3.131      9.003
REMARK INTER + INTRA:         -15.565
REMARK INTER:                 -12.730
REMARK INTRA:                  -2.835
REMARK UNBOUND:                -1.917
REMARK SMILES C[C@H]1O[C@@H](OC[C@H]2O[C@H](Oc3c(-c4ccc(O)c(O)c4)oc4cc(O)cc(O)c4c3=O)[C@@H](O)[C@H](O)[C@H]2O)[C@H](O)[C@@H](O)[C@@H]1O
REMARK SMILES IDX 7 1 36 2 34 3 32 4 9 5 8 6 6 7 5 8 4 9 1 10 2 11 42 12 3 13
REMARK SMILES IDX 40 14 38 15 43 16 41 18 39 20 37 22 35 24 10 26 11 27 12 28
REMARK SMILES IDX 30 29 21 30 29 31 31 32 22 33 27 34 23 35 26 36 24 37 13 38
REMARK SMILES IDX 20 39 14 40 18 41 15 42 16 43 19 44 17 46 28 48 25 50 33 52
REMARK H PARENT 43 17 41 19 39 21 37 23 35 25 19 45 17 47 28 49 25 51 33 53
REMARK Flexibility Score: inf
ROOT
ATOM      1  C   UNL     1      -0.268 -15.634  26.865  1.00  0.00     0.180 C 
ATOM      2  C   UNL     1      -0.598 -14.709  25.664  1.00  0.00     0.177 C 
ATOM      3  C   UNL     1      -0.212 -13.227  25.896  1.00  0.00     0.180 C 
ATOM      4  C   UNL     1       0.511 -13.005  27.230  1.00  0.00     0.214 C 
ATOM      5  C   UNL     1      -0.136 -13.804  28.404  1.00  0.00     0.339 C 
ATOM      6  O   UNL     1      -0.742 -15.052  28.064  1.00  0.00    -0.332 OA
ENDROOT
BRANCH   1   7
ATOM      7  C   UNL     1       1.176 -16.196  27.034  1.00  0.00     0.198 C 
BRANCH   7   8
ATOM      8  O   UNL     1       1.391 -17.382  26.286  1.00  0.00    -0.347 OA
BRANCH   8   9
ATOM      9  C   UNL     1       0.280 -18.266  26.312  1.00  0.00     0.281 C 
ATOM     10  C   UNL     1       0.230 -21.465  27.466  1.00  0.00     0.041 C 
ATOM     11  C   UNL     1      -0.597 -20.176  27.486  1.00  0.00     0.150 C 
ATOM     12  C   UNL     1      -1.687 -20.166  26.380  1.00  0.00     0.174 C 
ATOM     13  O   UNL     1       0.280 -19.052  27.500  1.00  0.00    -0.344 OA
ATOM     14  C   UNL     1      -1.083 -19.948  24.972  1.00  0.00     0.179 C 
ATOM     15  C   UNL     1       0.214 -19.103  25.016  1.00  0.00     0.202 C 
BRANCH  12  16
ATOM     16  O   UNL     1      -2.615 -19.150  26.671  1.00  0.00    -0.388 OA
ATOM     17  H   UNL     1      -3.047 -19.388  27.533  1.00  0.00     0.211 HD
ENDBRANCH  12  16
BRANCH  14  18
ATOM     18  O   UNL     1      -0.819 -21.195  24.383  1.00  0.00    -0.387 OA
ATOM     19  H   UNL     1      -0.880 -21.070  23.399  1.00  0.00     0.211 HD
ENDBRANCH  14  18
BRANCH  15  20
ATOM     20  O   UNL     1       0.262 -18.241  23.907  1.00  0.00    -0.385 OA
ATOM     21  H   UNL     1       0.690 -17.399  24.215  1.00  0.00     0.211 HD
ENDBRANCH  15  20
ENDBRANCH   8   9
ENDBRANCH   7   8
ENDBRANCH   1   7
BRANCH   2  22
ATOM     22  O   UNL     1      -0.040 -15.195  24.470  1.00  0.00    -0.387 OA
ATOM     23  H   UNL     1      -0.638 -14.907  23.732  1.00  0.00     0.211 HD
ENDBRANCH   2  22
BRANCH   3  24
ATOM     24  O   UNL     1      -1.361 -12.419  25.864  1.00  0.00    -0.387 OA
ATOM     25  H   UNL     1      -1.610 -12.234  26.808  1.00  0.00     0.211 HD
ENDBRANCH   3  24
BRANCH   5  26
ATOM     26  O   UNL     1      -1.129 -12.973  29.004  1.00  0.00    -0.454 OA
BRANCH  26  27
ATOM     27  C   UNL     1      -2.409 -13.354  29.460  1.00  0.00     0.214 A 
ATOM     28  C   UNL     1      -2.563 -13.640  30.832  1.00  0.00     0.180 A 
ATOM     29  C   UNL     1      -3.538 -13.499  28.619  1.00  0.00     0.239 A 
ATOM     30  O   UNL     1      -3.728 -14.071  31.303  1.00  0.00    -0.452 OA
ATOM     31  C   UNL     1      -4.763 -13.941  29.165  1.00  0.00     0.111 A 
ATOM     32  O   UNL     1      -3.454 -13.249  27.387  1.00  0.00    -0.285 OA
ATOM     33  C   UNL     1      -4.805 -14.228  30.548  1.00  0.00     0.146 A 
ATOM     34  C   UNL     1      -5.939 -14.114  28.392  1.00  0.00     0.134 A 
ATOM     35  C   UNL     1      -5.988 -14.680  31.140  1.00  0.00     0.094 A 
ATOM     36  C   UNL     1      -7.116 -14.566  29.005  1.00  0.00     0.093 A 
ATOM     37  C   UNL     1      -7.144 -14.848  30.372  1.00  0.00     0.123 A 
BRANCH  28  38
ATOM     38  C   UNL     1      -1.443 -13.487  31.785  1.00  0.00     0.025 A 
ATOM     39  C   UNL     1      -0.565 -14.551  32.052  1.00  0.00     0.062 A 
ATOM     40  C   UNL     1      -1.214 -12.241  32.391  1.00  0.00     0.016 A 
ATOM     41  C   UNL     1       0.511 -14.382  32.936  1.00  0.00     0.158 A 
ATOM     42  C   UNL     1      -0.150 -12.074  33.279  1.00  0.00     0.051 A 
ATOM     43  C   UNL     1       0.713 -13.139  33.559  1.00  0.00     0.157 A 
BRANCH  41  44
ATOM     44  O   UNL     1       1.381 -15.440  33.191  1.00  0.00    -0.504 OA
ATOM     45  H   UNL     1       1.040 -16.354  33.468  1.00  0.00     0.293 HD
ENDBRANCH  41  44
BRANCH  43  46
ATOM     46  O   UNL     1       1.766 -12.942  34.451  1.00  0.00    -0.504 OA
ATOM     47  H   UNL     1       2.724 -13.169  34.211  1.00  0.00     0.293 HD
ENDBRANCH  43  46
ENDBRANCH  28  38
BRANCH  34  48
ATOM     48  O   UNL     1      -5.946 -13.841  27.023  1.00  0.00    -0.507 OA
ATOM     49  H   UNL     1      -5.108 -13.919  26.459  1.00  0.00     0.293 HD
ENDBRANCH  34  48
BRANCH  37  50
ATOM     50  O   UNL     1      -8.327 -15.296  30.957  1.00  0.00    -0.508 OA
ATOM     51  H   UNL     1      -8.332 -16.062  31.621  1.00  0.00     0.293 HD
ENDBRANCH  37  50
ENDBRANCH  26  27
ENDBRANCH   5  26
BRANCH   4  52
ATOM     52  O   UNL     1       1.869 -13.331  27.081  1.00  0.00    -0.384 OA
ATOM     53  H   UNL     1       2.185 -12.892  26.247  1.00  0.00     0.211 HD
ENDBRANCH   4  52
TORSDOF 16
ENDMDL
MODEL 5
REMARK VINA RESULT:    -8.237      3.149      8.888
REMARK INTER + INTRA:         -15.450
REMARK INTER:                 -13.015
REMARK INTRA:                  -2.436
REMARK UNBOUND:                -1.917
REMARK SMILES C[C@H]1O[C@@H](OC[C@H]2O[C@H](Oc3c(-c4ccc(O)c(O)c4)oc4cc(O)cc(O)c4c3=O)[C@@H](O)[C@H](O)[C@H]2O)[C@H](O)[C@@H](O)[C@@H]1O
REMARK SMILES IDX 7 1 36 2 34 3 32 4 9 5 8 6 6 7 5 8 4 9 1 10 2 11 42 12 3 13
REMARK SMILES IDX 40 14 38 15 43 16 41 18 39 20 37 22 35 24 10 26 11 27 12 28
REMARK SMILES IDX 30 29 21 30 29 31 31 32 22 33 27 34 23 35 26 36 24 37 13 38
REMARK SMILES IDX 20 39 14 40 18 41 15 42 16 43 19 44 17 46 28 48 25 50 33 52
REMARK H PARENT 43 17 41 19 39 21 37 23 35 25 19 45 17 47 28 49 25 51 33 53
REMARK Flexibility Score: inf
ROOT
ATOM      1  C   UNL     1      -1.781 -14.519  25.484  1.00  0.00     0.180 C 
ATOM      2  C   UNL     1      -1.185 -13.087  25.416  1.00  0.00     0.177 C 
ATOM      3  C   UNL     1      -1.038 -12.411  26.802  1.00  0.00     0.180 C 
ATOM      4  C   UNL     1      -1.418 -13.341  27.960  1.00  0.00     0.214 C 
ATOM      5  C   UNL     1      -2.706 -14.172  27.665  1.00  0.00     0.339 C 
ATOM      6  O   UNL     1      -2.937 -14.521  26.299  1.00  0.00    -0.332 OA
ENDROOT
BRANCH   1   7
ATOM      7  C   UNL     1      -0.852 -15.729  25.804  1.00  0.00     0.198 C 
BRANCH   7   8
ATOM      8  O   UNL     1      -1.513 -16.976  25.668  1.00  0.00    -0.347 OA
BRANCH   8   9
ATOM      9  C   UNL     1      -1.533 -17.730  26.872  1.00  0.00     0.281 C 
ATOM     10  C   UNL     1       1.074 -18.295  28.982  1.00  0.00     0.041 C 
ATOM     11  C   UNL     1      -0.418 -17.944  28.994  1.00  0.00     0.150 C 
ATOM     12  C   UNL     1      -1.311 -19.203  29.166  1.00  0.00     0.174 C 
ATOM     13  O   UNL     1      -0.718 -17.121  27.869  1.00  0.00    -0.344 OA
ATOM     14  C   UNL     1      -1.357 -20.061  27.879  1.00  0.00     0.179 C 
ATOM     15  C   UNL     1      -1.178 -19.208  26.599  1.00  0.00     0.202 C 
BRANCH  12  16
ATOM     16  O   UNL     1      -2.608 -18.790  29.520  1.00  0.00    -0.388 OA
ATOM     17  H   UNL     1      -2.516 -17.936  30.019  1.00  0.00     0.211 HD
ENDBRANCH  12  16
BRANCH  14  18
ATOM     18  O   UNL     1      -0.355 -21.043  27.940  1.00  0.00    -0.387 OA
ATOM     19  H   UNL     1       0.023 -21.015  28.859  1.00  0.00     0.211 HD
ENDBRANCH  14  18
BRANCH  15  20
ATOM     20  O   UNL     1      -2.006 -19.700  25.576  1.00  0.00    -0.385 OA
ATOM     21  H   UNL     1      -2.093 -20.679  25.720  1.00  0.00     0.211 HD
ENDBRANCH  15  20
ENDBRANCH   8   9
ENDBRANCH   7   8
ENDBRANCH   1   7
BRANCH   2  22
ATOM     22  O   UNL     1       0.029 -13.067  24.712  1.00  0.00    -0.387 OA
ATOM     23  H   UNL     1       0.154 -12.142  24.376  1.00  0.00     0.211 HD
ENDBRANCH   2  22
BRANCH   3  24
ATOM     24  O   UNL     1      -1.841 -11.259  26.864  1.00  0.00    -0.387 OA
ATOM     25  H   UNL     1      -1.343 -10.589  27.400  1.00  0.00     0.211 HD
ENDBRANCH   3  24
BRANCH   5  26
ATOM     26  O   UNL     1      -3.827 -13.421  28.131  1.00  0.00    -0.454 OA
BRANCH  26  27
ATOM     27  C   UNL     1      -5.009 -13.917  28.720  1.00  0.00     0.214 A 
ATOM     28  C   UNL     1      -5.055 -14.011  30.126  1.00  0.00     0.180 A 
ATOM     29  C   UNL     1      -6.136 -14.357  27.986  1.00  0.00     0.239 A 
ATOM     30  O   UNL     1      -6.115 -14.535  30.732  1.00  0.00    -0.452 OA
ATOM     31  C   UNL     1      -7.250 -14.890  28.671  1.00  0.00     0.111 A 
ATOM     32  O   UNL     1      -6.146 -14.288  26.729  1.00  0.00    -0.285 OA
ATOM     33  C   UNL     1      -7.186 -14.966  30.081  1.00  0.00     0.146 A 
ATOM     34  C   UNL     1      -8.416 -15.354  28.011  1.00  0.00     0.134 A 
ATOM     35  C   UNL     1      -8.255 -15.495  30.809  1.00  0.00     0.094 A 
ATOM     36  C   UNL     1      -9.479 -15.879  28.760  1.00  0.00     0.093 A 
ATOM     37  C   UNL     1      -9.402 -15.951  30.153  1.00  0.00     0.123 A 
BRANCH  28  38
ATOM     38  C   UNL     1      -3.933 -13.547  30.971  1.00  0.00     0.025 A 
ATOM     39  C   UNL     1      -2.751 -14.298  31.085  1.00  0.00     0.062 A 
ATOM     40  C   UNL     1      -4.023 -12.308  31.624  1.00  0.00     0.016 A 
ATOM     41  C   UNL     1      -1.683 -13.832  31.866  1.00  0.00     0.158 A 
ATOM     42  C   UNL     1      -2.965 -11.846  32.410  1.00  0.00     0.051 A 
ATOM     43  C   UNL     1      -1.796 -12.603  32.538  1.00  0.00     0.157 A 
BRANCH  41  44
ATOM     44  O   UNL     1      -0.512 -14.579  31.970  1.00  0.00    -0.504 OA
ATOM     45  H   UNL     1       0.182 -14.585  31.232  1.00  0.00     0.293 HD
ENDBRANCH  41  44
BRANCH  43  46
ATOM     46  O   UNL     1      -0.758 -12.117  33.331  1.00  0.00    -0.504 OA
ATOM     47  H   UNL     1      -0.685 -11.137  33.581  1.00  0.00     0.293 HD
ENDBRANCH  43  46
ENDBRANCH  28  38
BRANCH  34  48
ATOM     48  O   UNL     1      -8.527 -15.297  26.621  1.00  0.00    -0.507 OA
ATOM     49  H   UNL     1      -8.824 -16.098  26.076  1.00  0.00     0.293 HD
ENDBRANCH  34  48
BRANCH  37  50
ATOM     50  O   UNL     1     -10.471 -16.477  30.874  1.00  0.00    -0.508 OA
ATOM     51  H   UNL     1     -10.415 -17.387  31.316  1.00  0.00     0.293 HD
ENDBRANCH  37  50
ENDBRANCH  26  27
ENDBRANCH   5  26
BRANCH   4  52
ATOM     52  O   UNL     1      -0.330 -14.178  28.258  1.00  0.00    -0.384 OA
ATOM     53  H   UNL     1       0.091 -13.826  29.087  1.00  0.00     0.211 HD
ENDBRANCH   4  52
TORSDOF 16
ENDMDL
MODEL 6
REMARK VINA RESULT:    -8.143      4.182      6.641
REMARK INTER + INTRA:         -15.297
REMARK INTER:                 -13.442
REMARK INTRA:                  -1.855
REMARK UNBOUND:                -1.917
REMARK SMILES C[C@H]1O[C@@H](OC[C@H]2O[C@H](Oc3c(-c4ccc(O)c(O)c4)oc4cc(O)cc(O)c4c3=O)[C@@H](O)[C@H](O)[C@H]2O)[C@H](O)[C@@H](O)[C@@H]1O
REMARK SMILES IDX 7 1 36 2 34 3 32 4 9 5 8 6 6 7 5 8 4 9 1 10 2 11 42 12 3 13
REMARK SMILES IDX 40 14 38 15 43 16 41 18 39 20 37 22 35 24 10 26 11 27 12 28
REMARK SMILES IDX 30 29 21 30 29 31 31 32 22 33 27 34 23 35 26 36 24 37 13 38
REMARK SMILES IDX 20 39 14 40 18 41 15 42 16 43 19 44 17 46 28 48 25 50 33 52
REMARK H PARENT 43 17 41 19 39 21 37 23 35 25 19 45 17 47 28 49 25 51 33 53
REMARK Flexibility Score: inf
ROOT
ATOM      1  C   UNL     1      -5.595 -14.061  30.963  1.00  0.00     0.180 C 
ATOM      2  C   UNL     1      -5.693 -12.753  30.133  1.00  0.00     0.177 C 
ATOM      3  C   UNL     1      -4.951 -12.823  28.775  1.00  0.00     0.180 C 
ATOM      4  C   UNL     1      -4.360 -14.210  28.492  1.00  0.00     0.214 C 
ATOM      5  C   UNL     1      -3.685 -14.842  29.749  1.00  0.00     0.339 C 
ATOM      6  O   UNL     1      -4.250 -14.498  31.014  1.00  0.00    -0.332 OA
ENDROOT
BRANCH   1   7
ATOM      7  C   UNL     1      -6.569 -15.240  30.666  1.00  0.00     0.198 C 
BRANCH   7   8
ATOM      8  O   UNL     1      -7.443 -14.968  29.583  1.00  0.00    -0.347 OA
BRANCH   8   9
ATOM      9  C   UNL     1      -8.766 -15.436  29.803  1.00  0.00     0.281 C 
ATOM     10  C   UNL     1      -9.715 -18.598  30.618  1.00  0.00     0.041 C 
ATOM     11  C   UNL     1     -10.007 -17.135  30.970  1.00  0.00     0.150 C 
ATOM     12  C   UNL     1     -11.222 -16.578  30.181  1.00  0.00     0.174 C 
ATOM     13  O   UNL     1      -8.803 -16.377  30.871  1.00  0.00    -0.344 OA
ATOM     14  C   UNL     1     -10.879 -16.320  28.694  1.00  0.00     0.179 C 
ATOM     15  C   UNL     1      -9.386 -15.962  28.491  1.00  0.00     0.202 C 
BRANCH  12  16
ATOM     16  O   UNL     1     -11.648 -15.385  30.793  1.00  0.00    -0.388 OA
ATOM     17  H   UNL     1     -11.085 -15.255  31.601  1.00  0.00     0.211 HD
ENDBRANCH  12  16
BRANCH  14  18
ATOM     18  O   UNL     1     -11.202 -17.460  27.940  1.00  0.00    -0.387 OA
ATOM     19  H   UNL     1     -10.371 -17.747  27.477  1.00  0.00     0.211 HD
ENDBRANCH  14  18
BRANCH  15  20
ATOM     20  O   UNL     1      -9.261 -14.979  27.494  1.00  0.00    -0.385 OA
ATOM     21  H   UNL     1      -8.722 -14.241  27.883  1.00  0.00     0.211 HD
ENDBRANCH  15  20
ENDBRANCH   8   9
ENDBRANCH   7   8
ENDBRANCH   1   7
BRANCH   2  22
ATOM     22  O   UNL     1      -7.027 -12.352  29.960  1.00  0.00    -0.387 OA
ATOM     23  H   UNL     1      -7.313 -12.674  29.066  1.00  0.00     0.211 HD
ENDBRANCH   2  22
BRANCH   3  24
ATOM     24  O   UNL     1      -3.915 -11.875  28.742  1.00  0.00    -0.387 OA
ATOM     25  H   UNL     1      -3.404 -11.978  29.588  1.00  0.00     0.211 HD
ENDBRANCH   3  24
BRANCH   5  26
ATOM     26  O   UNL     1      -2.312 -14.451  29.750  1.00  0.00    -0.454 OA
BRANCH  26  27
ATOM     27  C   UNL     1      -1.263 -14.997  30.519  1.00  0.00     0.214 A 
ATOM     28  C   UNL     1      -0.516 -16.054  29.959  1.00  0.00     0.180 A 
ATOM     29  C   UNL     1      -0.937 -14.573  31.829  1.00  0.00     0.239 A 
ATOM     30  O   UNL     1       0.437 -16.653  30.664  1.00  0.00    -0.452 OA
ATOM     31  C   UNL     1       0.097 -15.225  32.537  1.00  0.00     0.111 A 
ATOM     32  O   UNL     1      -1.570 -13.629  32.371  1.00  0.00    -0.285 OA
ATOM     33  C   UNL     1       0.767 -16.292  31.896  1.00  0.00     0.146 A 
ATOM     34  C   UNL     1       0.484 -14.863  33.852  1.00  0.00     0.134 A 
ATOM     35  C   UNL     1       1.791 -16.980  32.553  1.00  0.00     0.094 A 
ATOM     36  C   UNL     1       1.515 -15.564  34.493  1.00  0.00     0.093 A 
ATOM     37  C   UNL     1       2.167 -16.618  33.850  1.00  0.00     0.123 A 
BRANCH  28  38
ATOM     38  C   UNL     1      -0.771 -16.539  28.585  1.00  0.00     0.025 A 
ATOM     39  C   UNL     1      -1.624 -17.631  28.348  1.00  0.00     0.062 A 
ATOM     40  C   UNL     1      -0.201 -15.865  27.495  1.00  0.00     0.016 A 
ATOM     41  C   UNL     1      -1.879 -18.062  27.037  1.00  0.00     0.158 A 
ATOM     42  C   UNL     1      -0.446 -16.299  26.190  1.00  0.00     0.051 A 
ATOM     43  C   UNL     1      -1.280 -17.396  25.955  1.00  0.00     0.157 A 
BRANCH  41  44
ATOM     44  O   UNL     1      -2.731 -19.141  26.808  1.00  0.00    -0.504 OA
ATOM     45  H   UNL     1      -3.528 -19.325  27.406  1.00  0.00     0.293 HD
ENDBRANCH  41  44
BRANCH  43  46
ATOM     46  O   UNL     1      -1.506 -17.807  24.642  1.00  0.00    -0.504 OA
ATOM     47  H   UNL     1      -0.914 -18.490  24.183  1.00  0.00     0.293 HD
ENDBRANCH  43  46
ENDBRANCH  28  38
BRANCH  34  48
ATOM     48  O   UNL     1      -0.146 -13.815  34.524  1.00  0.00    -0.507 OA
ATOM     49  H   UNL     1      -1.134 -13.843  34.750  1.00  0.00     0.293 HD
ENDBRANCH  34  48
BRANCH  37  50
ATOM     50  O   UNL     1       3.189 -17.299  34.509  1.00  0.00    -0.508 OA
ATOM     51  H   UNL     1       3.051 -17.695  35.431  1.00  0.00     0.293 HD
ENDBRANCH  37  50
ENDBRANCH  26  27
ENDBRANCH   5  26
BRANCH   4  52
ATOM     52  O   UNL     1      -5.366 -15.047  27.981  1.00  0.00    -0.384 OA
ATOM     53  H   UNL     1      -5.301 -15.911  28.467  1.00  0.00     0.211 HD
ENDBRANCH   4  52
TORSDOF 16
ENDMDL
MODEL 7
REMARK VINA RESULT:    -8.102      2.597      8.411
REMARK INTER + INTRA:         -15.229
REMARK INTER:                 -13.098
REMARK INTRA:                  -2.131
REMARK UNBOUND:                -1.917
REMARK SMILES C[C@H]1O[C@@H](OC[C@H]2O[C@H](Oc3c(-c4ccc(O)c(O)c4)oc4cc(O)cc(O)c4c3=O)[C@@H](O)[C@H](O)[C@H]2O)[C@H](O)[C@@H](O)[C@@H]1O
REMARK SMILES IDX 7 1 36 2 34 3 32 4 9 5 8 6 6 7 5 8 4 9 1 10 2 11 42 12 3 13
REMARK SMILES IDX 40 14 38 15 43 16 41 18 39 20 37 22 35 24 10 26 11 27 12 28
REMARK SMILES IDX 30 29 21 30 29 31 31 32 22 33 27 34 23 35 26 36 24 37 13 38
REMARK SMILES IDX 20 39 14 40 18 41 15 42 16 43 19 44 17 46 28 48 25 50 33 52
REMARK H PARENT 43 17 41 19 39 21 37 23 35 25 19 45 17 47 28 49 25 51 33 53
REMARK Flexibility Score: inf
ROOT
ATOM      1  C   UNL     1       0.158 -17.347  29.143  1.00  0.00     0.180 C 
ATOM      2  C   UNL     1       1.319 -16.510  28.547  1.00  0.00     0.177 C 
ATOM      3  C   UNL     1       1.462 -15.104  29.184  1.00  0.00     0.180 C 
ATOM      4  C   UNL     1       0.486 -14.877  30.343  1.00  0.00     0.214 C 
ATOM      5  C   UNL     1      -0.946 -15.420  30.038  1.00  0.00     0.339 C 
ATOM      6  O   UNL     1      -1.022 -16.567  29.191  1.00  0.00    -0.332 OA
ENDROOT
BRANCH   1   7
ATOM      7  C   UNL     1       0.375 -18.139  30.468  1.00  0.00     0.198 C 
BRANCH   7   8
ATOM      8  O   UNL     1      -0.784 -18.846  30.878  1.00  0.00    -0.347 OA
BRANCH   8   9
ATOM      9  C   UNL     1      -0.537 -20.223  31.126  1.00  0.00     0.281 C 
ATOM     10  C   UNL     1       0.599 -22.536  28.906  1.00  0.00     0.041 C 
ATOM     11  C   UNL     1       0.785 -22.081  30.358  1.00  0.00     0.150 C 
ATOM     12  C   UNL     1      -0.081 -22.911  31.344  1.00  0.00     0.174 C 
ATOM     13  O   UNL     1       0.626 -20.666  30.433  1.00  0.00    -0.344 OA
ATOM     14  C   UNL     1      -1.580 -22.541  31.251  1.00  0.00     0.179 C 
ATOM     15  C   UNL     1      -1.796 -21.067  30.828  1.00  0.00     0.202 C 
BRANCH  12  16
ATOM     16  O   UNL     1       0.391 -22.693  32.651  1.00  0.00    -0.388 OA
ATOM     17  H   UNL     1      -0.109 -21.916  33.015  1.00  0.00     0.211 HD
ENDBRANCH  12  16
BRANCH  14  18
ATOM     18  O   UNL     1      -2.213 -23.397  30.333  1.00  0.00    -0.387 OA
ATOM     19  H   UNL     1      -2.466 -22.843  29.548  1.00  0.00     0.211 HD
ENDBRANCH  14  18
BRANCH  15  20
ATOM     20  O   UNL     1      -2.890 -20.524  31.523  1.00  0.00    -0.385 OA
ATOM     21  H   UNL     1      -2.588 -20.361  32.455  1.00  0.00     0.211 HD
ENDBRANCH  15  20
ENDBRANCH   8   9
ENDBRANCH   7   8
ENDBRANCH   1   7
BRANCH   2  22
ATOM     22  O   UNL     1       2.535 -17.211  28.591  1.00  0.00    -0.387 OA
ATOM     23  H   UNL     1       3.253 -16.560  28.378  1.00  0.00     0.211 HD
ENDBRANCH   2  22
BRANCH   3  24
ATOM     24  O   UNL     1       1.251 -14.112  28.212  1.00  0.00    -0.387 OA
ATOM     25  H   UNL     1       2.076 -13.560  28.179  1.00  0.00     0.211 HD
ENDBRANCH   3  24
BRANCH   5  26
ATOM     26  O   UNL     1      -1.693 -14.366  29.432  1.00  0.00    -0.454 OA
BRANCH  26  27
ATOM     27  C   UNL     1      -3.003 -14.430  28.911  1.00  0.00     0.214 A 
ATOM     28  C   UNL     1      -3.161 -14.357  27.512  1.00  0.00     0.180 A 
ATOM     29  C   UNL     1      -4.169 -14.528  29.708  1.00  0.00     0.239 A 
ATOM     30  O   UNL     1      -4.373 -14.342  26.971  1.00  0.00    -0.452 OA
ATOM     31  C   UNL     1      -5.438 -14.528  29.090  1.00  0.00     0.111 A 
ATOM     32  O   UNL     1      -4.081 -14.602  30.962  1.00  0.00    -0.285 OA
ATOM     33  C   UNL     1      -5.489 -14.423  27.681  1.00  0.00     0.146 A 
ATOM     34  C   UNL     1      -6.653 -14.620  29.815  1.00  0.00     0.134 A 
ATOM     35  C   UNL     1      -6.719 -14.407  27.018  1.00  0.00     0.094 A 
ATOM     36  C   UNL     1      -7.877 -14.606  29.131  1.00  0.00     0.093 A 
ATOM     37  C   UNL     1      -7.913 -14.499  27.739  1.00  0.00     0.123 A 
BRANCH  28  38
ATOM     38  C   UNL     1      -1.995 -14.283  26.604  1.00  0.00     0.025 A 
ATOM     39  C   UNL     1      -1.409 -15.447  26.078  1.00  0.00     0.062 A 
ATOM     40  C   UNL     1      -1.501 -13.029  26.212  1.00  0.00     0.016 A 
ATOM     41  C   UNL     1      -0.323 -15.361  25.195  1.00  0.00     0.158 A 
ATOM     42  C   UNL     1      -0.413 -12.941  25.341  1.00  0.00     0.051 A 
ATOM     43  C   UNL     1       0.182 -14.100  24.832  1.00  0.00     0.157 A 
BRANCH  41  44
ATOM     44  O   UNL     1       0.249 -16.518  24.672  1.00  0.00    -0.504 OA
ATOM     45  H   UNL     1       0.178 -16.749  23.688  1.00  0.00     0.293 HD
ENDBRANCH  41  44
BRANCH  43  46
ATOM     46  O   UNL     1       1.267 -13.981  23.965  1.00  0.00    -0.504 OA
ATOM     47  H   UNL     1       1.506 -14.706  23.299  1.00  0.00     0.293 HD
ENDBRANCH  43  46
ENDBRANCH  28  38
BRANCH  34  48
ATOM     48  O   UNL     1      -6.654 -14.728  31.207  1.00  0.00    -0.507 OA
ATOM     49  H   UNL     1      -7.513 -14.700  31.744  1.00  0.00     0.293 HD
ENDBRANCH  34  48
BRANCH  37  50
ATOM     50  O   UNL     1      -9.142 -14.486  27.082  1.00  0.00    -0.508 OA
ATOM     51  H   UNL     1      -9.963 -14.069  27.505  1.00  0.00     0.293 HD
ENDBRANCH  37  50
ENDBRANCH  26  27
ENDBRANCH   5  26
BRANCH   4  52
ATOM     52  O   UNL     1       1.010 -15.455  31.511  1.00  0.00    -0.384 OA
ATOM     53  H   UNL     1       0.397 -15.214  32.256  1.00  0.00     0.211 HD
ENDBRANCH   4  52
TORSDOF 16
ENDMDL
MODEL 8
REMARK VINA RESULT:    -8.092      2.675      8.258
REMARK INTER + INTRA:         -15.213
REMARK INTER:                 -12.965
REMARK INTRA:                  -2.249
REMARK UNBOUND:                -1.917
REMARK SMILES C[C@H]1O[C@@H](OC[C@H]2O[C@H](Oc3c(-c4ccc(O)c(O)c4)oc4cc(O)cc(O)c4c3=O)[C@@H](O)[C@H](O)[C@H]2O)[C@H](O)[C@@H](O)[C@@H]1O
REMARK SMILES IDX 7 1 36 2 34 3 32 4 9 5 8 6 6 7 5 8 4 9 1 10 2 11 42 12 3 13
REMARK SMILES IDX 40 14 38 15 43 16 41 18 39 20 37 22 35 24 10 26 11 27 12 28
REMARK SMILES IDX 30 29 21 30 29 31 31 32 22 33 27 34 23 35 26 36 24 37 13 38
REMARK SMILES IDX 20 39 14 40 18 41 15 42 16 43 19 44 17 46 28 48 25 50 33 52
REMARK H PARENT 43 17 41 19 39 21 37 23 35 25 19 45 17 47 28 49 25 51 33 53
REMARK Flexibility Score: inf
ROOT
ATOM      1  C   UNL     1       1.498 -15.809  29.521  1.00  0.00     0.180 C 
ATOM      2  C   UNL     1       1.845 -14.817  30.662  1.00  0.00     0.177 C 
ATOM      3  C   UNL     1       0.657 -14.526  31.614  1.00  0.00     0.180 C 
ATOM      4  C   UNL     1      -0.585 -15.362  31.285  1.00  0.00     0.214 C 
ATOM      5  C   UNL     1      -0.859 -15.453  29.751  1.00  0.00     0.339 C 
ATOM      6  O   UNL     1       0.287 -15.422  28.899  1.00  0.00    -0.332 OA
ENDROOT
BRANCH   1   7
ATOM      7  C   UNL     1       1.538 -17.343  29.790  1.00  0.00     0.198 C 
BRANCH   7   8
ATOM      8  O   UNL     1       0.522 -18.047  29.094  1.00  0.00    -0.347 OA
BRANCH   8   9
ATOM      9  C   UNL     1       0.203 -19.296  29.690  1.00  0.00     0.281 C 
ATOM     10  C   UNL     1       0.249 -22.353  28.198  1.00  0.00     0.041 C 
ATOM     11  C   UNL     1       0.645 -21.655  29.504  1.00  0.00     0.150 C 
ATOM     12  C   UNL     1      -0.452 -21.794  30.594  1.00  0.00     0.174 C 
ATOM     13  O   UNL     1       1.069 -20.324  29.218  1.00  0.00    -0.344 OA
ATOM     14  C   UNL     1      -1.679 -20.899  30.299  1.00  0.00     0.179 C 
ATOM     15  C   UNL     1      -1.297 -19.620  29.513  1.00  0.00     0.202 C 
BRANCH  12  16
ATOM     16  O   UNL     1       0.105 -21.454  31.840  1.00  0.00    -0.388 OA
ATOM     17  H   UNL     1      -0.317 -22.044  32.518  1.00  0.00     0.211 HD
ENDBRANCH  12  16
BRANCH  14  18
ATOM     18  O   UNL     1      -2.628 -21.638  29.572  1.00  0.00    -0.387 OA
ATOM     19  H   UNL     1      -2.289 -21.709  28.641  1.00  0.00     0.211 HD
ENDBRANCH  14  18
BRANCH  15  20
ATOM     20  O   UNL     1      -2.061 -18.532  29.967  1.00  0.00    -0.385 OA
ATOM     21  H   UNL     1      -1.949 -18.492  30.953  1.00  0.00     0.211 HD
ENDBRANCH  15  20
ENDBRANCH   8   9
ENDBRANCH   7   8
ENDBRANCH   1   7
BRANCH   2  22
ATOM     22  O   UNL     1       2.978 -15.233  31.380  1.00  0.00    -0.387 OA
ATOM     23  H   UNL     1       2.665 -15.515  32.278  1.00  0.00     0.211 HD
ENDBRANCH   2  22
BRANCH   3  24
ATOM     24  O   UNL     1       0.315 -13.164  31.555  1.00  0.00    -0.387 OA
ATOM     25  H   UNL     1       0.959 -12.732  30.935  1.00  0.00     0.211 HD
ENDBRANCH   3  24
BRANCH   5  26
ATOM     26  O   UNL     1      -1.711 -14.365  29.394  1.00  0.00    -0.454 OA
BRANCH  26  27
ATOM     27  C   UNL     1      -3.024 -14.433  28.882  1.00  0.00     0.214 A 
ATOM     28  C   UNL     1      -3.192 -14.369  27.484  1.00  0.00     0.180 A 
ATOM     29  C   UNL     1      -4.184 -14.528  29.688  1.00  0.00     0.239 A 
ATOM     30  O   UNL     1      -4.408 -14.358  26.951  1.00  0.00    -0.452 OA
ATOM     31  C   UNL     1      -5.458 -14.534  29.079  1.00  0.00     0.111 A 
ATOM     32  O   UNL     1      -4.088 -14.595  30.942  1.00  0.00    -0.285 OA
ATOM     33  C   UNL     1      -5.519 -14.437  27.670  1.00  0.00     0.146 A 
ATOM     34  C   UNL     1      -6.668 -14.623  29.813  1.00  0.00     0.134 A 
ATOM     35  C   UNL     1      -6.753 -14.426  27.015  1.00  0.00     0.094 A 
ATOM     36  C   UNL     1      -7.896 -14.614  29.137  1.00  0.00     0.093 A 
ATOM     37  C   UNL     1      -7.942 -14.515  27.745  1.00  0.00     0.123 A 
BRANCH  28  38
ATOM     38  C   UNL     1      -2.033 -14.298  26.568  1.00  0.00     0.025 A 
ATOM     39  C   UNL     1      -1.562 -15.443  25.903  1.00  0.00     0.062 A 
ATOM     40  C   UNL     1      -1.428 -13.058  26.310  1.00  0.00     0.016 A 
ATOM     41  C   UNL     1      -0.480 -15.356  25.014  1.00  0.00     0.158 A 
ATOM     42  C   UNL     1      -0.344 -12.971  25.433  1.00  0.00     0.051 A 
ATOM     43  C   UNL     1       0.136 -14.114  24.786  1.00  0.00     0.157 A 
BRANCH  41  44
ATOM     44  O   UNL     1      -0.023 -16.494  24.353  1.00  0.00    -0.504 OA
ATOM     45  H   UNL     1       0.403 -16.440  23.435  1.00  0.00     0.293 HD
ENDBRANCH  41  44
BRANCH  43  46
ATOM     46  O   UNL     1       1.220 -13.996  23.917  1.00  0.00    -0.504 OA
ATOM     47  H   UNL     1       2.055 -13.479  24.166  1.00  0.00     0.293 HD
ENDBRANCH  43  46
ENDBRANCH  28  38
BRANCH  34  48
ATOM     48  O   UNL     1      -6.659 -14.724  31.205  1.00  0.00    -0.507 OA
ATOM     49  H   UNL     1      -7.507 -14.895  31.733  1.00  0.00     0.293 HD
ENDBRANCH  34  48
BRANCH  37  50
ATOM     50  O   UNL     1      -9.176 -14.507  27.097  1.00  0.00    -0.508 OA
ATOM     51  H   UNL     1      -9.800 -13.711  27.157  1.00  0.00     0.293 HD
ENDBRANCH  37  50
ENDBRANCH  26  27
ENDBRANCH   5  26
BRANCH   4  52
ATOM     52  O   UNL     1      -0.448 -16.640  31.853  1.00  0.00    -0.384 OA
ATOM     53  H   UNL     1      -1.128 -17.224  31.423  1.00  0.00     0.211 HD
ENDBRANCH   4  52
TORSDOF 16
ENDMDL
MODEL 9
REMARK VINA RESULT:    -7.919      2.754      8.804
REMARK INTER + INTRA:         -14.929
REMARK INTER:                 -11.979
REMARK INTRA:                  -2.950
REMARK UNBOUND:                -1.917
REMARK SMILES C[C@H]1O[C@@H](OC[C@H]2O[C@H](Oc3c(-c4ccc(O)c(O)c4)oc4cc(O)cc(O)c4c3=O)[C@@H](O)[C@H](O)[C@H]2O)[C@H](O)[C@@H](O)[C@@H]1O
REMARK SMILES IDX 7 1 36 2 34 3 32 4 9 5 8 6 6 7 5 8 4 9 1 10 2 11 42 12 3 13
REMARK SMILES IDX 40 14 38 15 43 16 41 18 39 20 37 22 35 24 10 26 11 27 12 28
REMARK SMILES IDX 30 29 21 30 29 31 31 32 22 33 27 34 23 35 26 36 24 37 13 38
REMARK SMILES IDX 20 39 14 40 18 41 15 42 16 43 19 44 17 46 28 48 25 50 33 52
REMARK H PARENT 43 17 41 19 39 21 37 23 35 25 19 45 17 47 28 49 25 51 33 53
REMARK Flexibility Score: inf
ROOT
ATOM      1  C   UNL     1      -1.818 -16.382  26.583  1.00  0.00     0.180 C 
ATOM      2  C   UNL     1      -1.742 -15.295  25.479  1.00  0.00     0.177 C 
ATOM      3  C   UNL     1      -0.428 -14.473  25.507  1.00  0.00     0.180 C 
ATOM      4  C   UNL     1       0.565 -14.978  26.560  1.00  0.00     0.214 C 
ATOM      5  C   UNL     1      -0.125 -15.336  27.914  1.00  0.00     0.339 C 
ATOM      6  O   UNL     1      -1.465 -15.823  27.834  1.00  0.00    -0.332 OA
ENDROOT
BRANCH   1   7
ATOM      7  C   UNL     1      -1.130 -17.763  26.358  1.00  0.00     0.198 C 
BRANCH   7   8
ATOM      8  O   UNL     1      -1.844 -18.833  26.956  1.00  0.00    -0.347 OA
BRANCH   8   9
ATOM      9  C   UNL     1      -1.142 -19.439  28.031  1.00  0.00     0.281 C 
ATOM     10  C   UNL     1      -1.339 -22.680  29.043  1.00  0.00     0.041 C 
ATOM     11  C   UNL     1      -0.316 -21.565  28.798  1.00  0.00     0.150 C 
ATOM     12  C   UNL     1       0.026 -20.793  30.101  1.00  0.00     0.174 C 
ATOM     13  O   UNL     1      -0.744 -20.766  27.698  1.00  0.00    -0.344 OA
ATOM     14  C   UNL     1      -1.126 -19.860  30.541  1.00  0.00     0.179 C 
ATOM     15  C   UNL     1      -1.957 -19.346  29.339  1.00  0.00     0.202 C 
BRANCH  12  16
ATOM     16  O   UNL     1       1.199 -20.046  29.886  1.00  0.00    -0.388 OA
ATOM     17  H   UNL     1       1.938 -20.526  30.344  1.00  0.00     0.211 HD
ENDBRANCH  12  16
BRANCH  14  18
ATOM     18  O   UNL     1      -1.961 -20.547  31.438  1.00  0.00    -0.387 OA
ATOM     19  H   UNL     1      -1.540 -20.481  32.336  1.00  0.00     0.211 HD
ENDBRANCH  14  18
BRANCH  15  20
ATOM     20  O   UNL     1      -2.335 -18.010  29.554  1.00  0.00    -0.385 OA
ATOM     21  H   UNL     1      -2.881 -17.735  28.771  1.00  0.00     0.211 HD
ENDBRANCH  15  20
ENDBRANCH   8   9
ENDBRANCH   7   8
ENDBRANCH   1   7
BRANCH   2  22
ATOM     22  O   UNL     1      -1.971 -15.838  24.205  1.00  0.00    -0.387 OA
ATOM     23  H   UNL     1      -2.623 -16.577  24.318  1.00  0.00     0.211 HD
ENDBRANCH   2  22
BRANCH   3  24
ATOM     24  O   UNL     1      -0.712 -13.121  25.764  1.00  0.00    -0.387 OA
ATOM     25  H   UNL     1      -1.551 -12.906  25.279  1.00  0.00     0.211 HD
ENDBRANCH   3  24
BRANCH   5  26
ATOM     26  O   UNL     1      -0.123 -14.164  28.728  1.00  0.00    -0.454 OA
BRANCH  26  27
ATOM     27  C   UNL     1      -1.159 -13.695  29.563  1.00  0.00     0.214 A 
ATOM     28  C   UNL     1      -1.159 -14.109  30.911  1.00  0.00     0.180 A 
ATOM     29  C   UNL     1      -2.216 -12.863  29.123  1.00  0.00     0.239 A 
ATOM     30  O   UNL     1      -2.148 -13.756  31.724  1.00  0.00    -0.452 OA
ATOM     31  C   UNL     1      -3.237 -12.495  30.026  1.00  0.00     0.111 A 
ATOM     32  O   UNL     1      -2.258 -12.461  27.930  1.00  0.00    -0.285 OA
ATOM     33  C   UNL     1      -3.159 -12.986  31.349  1.00  0.00     0.146 A 
ATOM     34  C   UNL     1      -4.331 -11.668  29.664  1.00  0.00     0.134 A 
ATOM     35  C   UNL     1      -4.148 -12.663  32.282  1.00  0.00     0.094 A 
ATOM     36  C   UNL     1      -5.311 -11.353  30.615  1.00  0.00     0.093 A 
ATOM     37  C   UNL     1      -5.224 -11.847  31.919  1.00  0.00     0.123 A 
BRANCH  28  38
ATOM     38  C   UNL     1      -0.077 -14.954  31.461  1.00  0.00     0.025 A 
ATOM     39  C   UNL     1       1.110 -14.385  31.953  1.00  0.00     0.062 A 
ATOM     40  C   UNL     1      -0.259 -16.343  31.549  1.00  0.00     0.016 A 
ATOM     41  C   UNL     1       2.115 -15.196  32.499  1.00  0.00     0.158 A 
ATOM     42  C   UNL     1       0.745 -17.153  32.084  1.00  0.00     0.051 A 
ATOM     43  C   UNL     1       1.933 -16.589  32.556  1.00  0.00     0.157 A 
BRANCH  41  44
ATOM     44  O   UNL     1       3.287 -14.625  32.991  1.00  0.00    -0.504 OA
ATOM     45  H   UNL     1       3.299 -14.102  33.859  1.00  0.00     0.293 HD
ENDBRANCH  41  44
BRANCH  43  46
ATOM     46  O   UNL     1       2.918 -17.423  33.083  1.00  0.00    -0.504 OA
ATOM     47  H   UNL     1       3.519 -17.986  32.492  1.00  0.00     0.293 HD
ENDBRANCH  43  46
ENDBRANCH  28  38
BRANCH  34  48
ATOM     48  O   UNL     1      -4.449 -11.157  28.371  1.00  0.00    -0.507 OA
ATOM     49  H   UNL     1      -4.879 -10.257  28.190  1.00  0.00     0.293 HD
ENDBRANCH  34  48
BRANCH  37  50
ATOM     50  O   UNL     1      -6.211 -11.519  32.846  1.00  0.00    -0.508 OA
ATOM     51  H   UNL     1      -6.102 -10.740  33.483  1.00  0.00     0.293 HD
ENDBRANCH  37  50
ENDBRANCH  26  27
ENDBRANCH   5  26
BRANCH   4  52
ATOM     52  O   UNL     1       1.270 -16.078  26.043  1.00  0.00    -0.384 OA
ATOM     53  H   UNL     1       1.797 -15.748  25.267  1.00  0.00     0.211 HD
ENDBRANCH   4  52
TORSDOF 16
ENDMDL
