MODEL 1
REMARK VINA RESULT:    -4.550      0.000      0.000
REMARK INTER + INTRA:          -7.664
REMARK INTER:                  -6.945
REMARK INTRA:                  -0.719
REMARK UNBOUND:                -0.719
REMARK SMILES CCCCCCCCCCC(=O)[O-]
REMARK SMILES IDX 7 1 8 2 9 3 10 4 11 5 12 6 13 7 6 8 5 9 4 10 3 11 2 12 1 13
REMARK H PARENT
REMARK Flexibility Score: inf
ROOT
ATOM      1  C   UNL     1     123.496 179.140 129.019  1.00  0.00     0.000 C 
ENDROOT
BRANCH   1   2
ATOM      2  C   UNL     1     123.064 178.915 127.557  1.00  0.00     0.000 C 
BRANCH   2   3
ATOM      3  C   UNL     1     121.546 178.974 127.312  1.00  0.00     0.006 C 
BRANCH   3   4
ATOM      4  C   UNL     1     121.174 179.818 126.087  1.00  0.00     0.053 C 
BRANCH   4   5
ATOM      5  C   UNL     1     120.686 178.942 124.977  1.00  0.00     0.041 C 
ATOM      6  O   UNL     1     121.508 178.372 124.211  1.00  0.00    -0.550 OA
ATOM      7  O   UNL     1     119.325 178.712 124.820  1.00  0.00    -0.550 OA
ENDBRANCH   4   5
ENDBRANCH   3   4
ENDBRANCH   2   3
ENDBRANCH   1   2
BRANCH   1   8
ATOM      8  C   UNL     1     122.370 179.008 130.064  1.00  0.00     0.000 C 
BRANCH   8   9
ATOM      9  C   UNL     1     122.498 177.799 131.008  1.00  0.00    -0.000 C 
BRANCH   9  10
ATOM     10  C   UNL     1     122.008 176.490 130.370  1.00  0.00    -0.000 C 
BRANCH  10  11
ATOM     11  C   UNL     1     120.554 176.197 130.770  1.00  0.00    -0.000 C 
BRANCH  11  12
ATOM     12  C   UNL     1     119.568 176.415 129.612  1.00  0.00    -0.003 C 
ATOM     13  C   UNL     1     118.111 176.215 130.031  1.00  0.00     0.004 C 
ENDBRANCH  11  12
ENDBRANCH  10  11
ENDBRANCH   9  10
ENDBRANCH   8   9
ENDBRANCH   1   8
TORSDOF 9
ENDMDL
MODEL 2
REMARK VINA RESULT:    -4.535      1.312      1.979
REMARK INTER + INTRA:          -7.640
REMARK INTER:                  -6.818
REMARK INTRA:                  -0.822
REMARK UNBOUND:                -0.719
REMARK SMILES CCCCCCCCCCC(=O)[O-]
REMARK SMILES IDX 7 1 8 2 9 3 10 4 11 5 12 6 13 7 6 8 5 9 4 10 3 11 2 12 1 13
REMARK H PARENT
REMARK Flexibility Score: inf
ROOT
ATOM      1  C   UNL     1     121.451 178.969 127.994  1.00  0.00     0.000 C 
ENDROOT
BRANCH   1   2
ATOM      2  C   UNL     1     120.073 178.602 127.409  1.00  0.00     0.000 C 
BRANCH   2   3
ATOM      3  C   UNL     1     119.426 179.693 126.539  1.00  0.00     0.006 C 
BRANCH   3   4
ATOM      4  C   UNL     1     120.315 180.124 125.366  1.00  0.00     0.053 C 
BRANCH   4   5
ATOM      5  C   UNL     1     119.972 179.344 124.136  1.00  0.00     0.041 C 
ATOM      6  O   UNL     1     118.769 179.091 123.861  1.00  0.00    -0.550 OA
ATOM      7  O   UNL     1     120.977 178.940 123.266  1.00  0.00    -0.550 OA
ENDBRANCH   4   5
ENDBRANCH   3   4
ENDBRANCH   2   3
ENDBRANCH   1   2
BRANCH   1   8
ATOM      8  C   UNL     1     122.007 177.977 129.035  1.00  0.00     0.000 C 
BRANCH   8   9
ATOM      9  C   UNL     1     122.115 176.519 128.551  1.00  0.00    -0.000 C 
BRANCH   9  10
ATOM     10  C   UNL     1     121.247 175.553 129.371  1.00  0.00    -0.000 C 
BRANCH  10  11
ATOM     11  C   UNL     1     120.770 176.214 130.673  1.00  0.00    -0.000 C 
BRANCH  11  12
ATOM     12  C   UNL     1     119.268 176.012 130.923  1.00  0.00    -0.003 C 
ATOM     13  C   UNL     1     118.452 175.978 129.631  1.00  0.00     0.004 C 
ENDBRANCH  11  12
ENDBRANCH  10  11
ENDBRANCH   9  10
ENDBRANCH   8   9
ENDBRANCH   1   8
TORSDOF 9
ENDMDL
MODEL 3
REMARK VINA RESULT:    -4.529      2.169      3.536
REMARK INTER + INTRA:          -7.632
REMARK INTER:                  -6.579
REMARK INTRA:                  -1.053
REMARK UNBOUND:                -0.719
REMARK SMILES CCCCCCCCCCC(=O)[O-]
REMARK SMILES IDX 7 1 8 2 9 3 10 4 11 5 12 6 13 7 6 8 5 9 4 10 3 11 2 12 1 13
REMARK H PARENT
REMARK Flexibility Score: inf
ROOT
ATOM      1  C   UNL     1     122.071 177.738 124.951  1.00  0.00     0.000 C 
ENDROOT
BRANCH   1   2
ATOM      2  C   UNL     1     121.877 178.269 123.517  1.00  0.00     0.000 C 
BRANCH   2   3
ATOM      3  C   UNL     1     120.703 179.248 123.341  1.00  0.00     0.006 C 
BRANCH   3   4
ATOM      4  C   UNL     1     120.040 179.627 124.671  1.00  0.00     0.053 C 
BRANCH   4   5
ATOM      5  C   UNL     1     118.557 179.451 124.584  1.00  0.00     0.041 C 
ATOM      6  O   UNL     1     118.050 178.805 123.629  1.00  0.00    -0.550 OA
ATOM      7  O   UNL     1     117.737 179.954 125.586  1.00  0.00    -0.550 OA
ENDBRANCH   4   5
ENDBRANCH   3   4
ENDBRANCH   2   3
ENDBRANCH   1   2
BRANCH   1   8
ATOM      8  C   UNL     1     123.376 178.181 125.643  1.00  0.00     0.000 C 
BRANCH   8   9
ATOM      9  C   UNL     1     123.219 179.339 126.645  1.00  0.00    -0.000 C 
BRANCH   9  10
ATOM     10  C   UNL     1     122.992 178.856 128.085  1.00  0.00    -0.000 C 
BRANCH  10  11
ATOM     11  C   UNL     1     121.508 178.953 128.469  1.00  0.00    -0.000 C 
BRANCH  11  12
ATOM     12  C   UNL     1     120.813 177.582 128.494  1.00  0.00    -0.003 C 
ATOM     13  C   UNL     1     119.481 177.580 127.744  1.00  0.00     0.004 C 
ENDBRANCH  11  12
ENDBRANCH  10  11
ENDBRANCH   9  10
ENDBRANCH   8   9
ENDBRANCH   1   8
TORSDOF 9
ENDMDL
MODEL 4
REMARK VINA RESULT:    -4.521      2.977      5.152
REMARK INTER + INTRA:          -7.619
REMARK INTER:                  -6.682
REMARK INTRA:                  -0.937
REMARK UNBOUND:                -0.719
REMARK SMILES CCCCCCCCCCC(=O)[O-]
REMARK SMILES IDX 7 1 8 2 9 3 10 4 11 5 12 6 13 7 6 8 5 9 4 10 3 11 2 12 1 13
REMARK H PARENT
REMARK Flexibility Score: inf
ROOT
ATOM      1  C   UNL     1     122.564 179.432 126.549  1.00  0.00     0.000 C 
ENDROOT
BRANCH   1   2
ATOM      2  C   UNL     1     121.411 179.010 127.481  1.00  0.00     0.000 C 
BRANCH   2   3
ATOM      3  C   UNL     1     120.006 179.406 126.996  1.00  0.00     0.006 C 
BRANCH   3   4
ATOM      4  C   UNL     1     119.990 179.872 125.535  1.00  0.00     0.053 C 
BRANCH   4   5
ATOM      5  C   UNL     1     119.053 179.029 124.728  1.00  0.00     0.041 C 
ATOM      6  O   UNL     1     119.113 179.041 123.470  1.00  0.00    -0.550 OA
ATOM      7  O   UNL     1     118.148 178.191 125.367  1.00  0.00    -0.550 OA
ENDBRANCH   4   5
ENDBRANCH   3   4
ENDBRANCH   2   3
ENDBRANCH   1   2
BRANCH   1   8
ATOM      8  C   UNL     1     123.391 178.272 125.960  1.00  0.00     0.000 C 
BRANCH   8   9
ATOM      9  C   UNL     1     122.624 176.948 125.791  1.00  0.00    -0.000 C 
BRANCH   9  10
ATOM     10  C   UNL     1     122.706 176.389 124.363  1.00  0.00    -0.000 C 
BRANCH  10  11
ATOM     11  C   UNL     1     122.506 177.504 123.326  1.00  0.00    -0.000 C 
BRANCH  11  12
ATOM     12  C   UNL     1     123.441 177.360 122.115  1.00  0.00    -0.003 C 
ATOM     13  C   UNL     1     124.901 177.150 122.517  1.00  0.00     0.004 C 
ENDBRANCH  11  12
ENDBRANCH  10  11
ENDBRANCH   9  10
ENDBRANCH   8   9
ENDBRANCH   1   8
TORSDOF 9
ENDMDL
MODEL 5
REMARK VINA RESULT:    -4.479      2.915      4.648
REMARK INTER + INTRA:          -7.554
REMARK INTER:                  -6.369
REMARK INTRA:                  -1.185
REMARK UNBOUND:                -0.719
REMARK SMILES CCCCCCCCCCC(=O)[O-]
REMARK SMILES IDX 7 1 8 2 9 3 10 4 11 5 12 6 13 7 6 8 5 9 4 10 3 11 2 12 1 13
REMARK H PARENT
REMARK Flexibility Score: inf
ROOT
ATOM      1  C   UNL     1     122.578 178.242 126.271  1.00  0.00     0.000 C 
ENDROOT
BRANCH   1   2
ATOM      2  C   UNL     1     123.375 179.368 126.960  1.00  0.00     0.000 C 
BRANCH   2   3
ATOM      3  C   UNL     1     123.666 179.136 128.453  1.00  0.00     0.006 C 
BRANCH   3   4
ATOM      4  C   UNL     1     122.462 178.564 129.213  1.00  0.00     0.053 C 
BRANCH   4   5
ATOM      5  C   UNL     1     122.848 177.314 129.938  1.00  0.00     0.041 C 
ATOM      6  O   UNL     1     121.993 176.413 130.148  1.00  0.00    -0.550 OA
ATOM      7  O   UNL     1     124.164 177.121 130.339  1.00  0.00    -0.550 OA
ENDBRANCH   4   5
ENDBRANCH   3   4
ENDBRANCH   2   3
ENDBRANCH   1   2
BRANCH   1   8
ATOM      8  C   UNL     1     121.474 178.717 125.304  1.00  0.00     0.000 C 
BRANCH   8   9
ATOM      9  C   UNL     1     120.722 179.984 125.749  1.00  0.00    -0.000 C 
BRANCH   9  10
ATOM     10  C   UNL     1     119.710 179.713 126.872  1.00  0.00    -0.000 C 
BRANCH  10  11
ATOM     11  C   UNL     1     119.009 178.362 126.664  1.00  0.00    -0.000 C 
BRANCH  11  12
ATOM     12  C   UNL     1     119.215 177.401 127.844  1.00  0.00    -0.003 C 
ATOM     13  C   UNL     1     119.660 176.007 127.402  1.00  0.00     0.004 C 
ENDBRANCH  11  12
ENDBRANCH  10  11
ENDBRANCH   9  10
ENDBRANCH   8   9
ENDBRANCH   1   8
TORSDOF 9
ENDMDL
MODEL 6
REMARK VINA RESULT:    -4.445      2.233      4.377
REMARK INTER + INTRA:          -7.503
REMARK INTER:                  -6.304
REMARK INTRA:                  -1.199
REMARK UNBOUND:                -0.719
REMARK SMILES CCCCCCCCCCC(=O)[O-]
REMARK SMILES IDX 7 1 8 2 9 3 10 4 11 5 12 6 13 7 6 8 5 9 4 10 3 11 2 12 1 13
REMARK H PARENT
REMARK Flexibility Score: inf
ROOT
ATOM      1  C   UNL     1     122.258 178.916 129.553  1.00  0.00     0.000 C 
ENDROOT
BRANCH   1   2
ATOM      2  C   UNL     1     122.240 177.899 130.712  1.00  0.00     0.000 C 
BRANCH   2   3
ATOM      3  C   UNL     1     121.227 176.753 130.554  1.00  0.00     0.006 C 
BRANCH   3   4
ATOM      4  C   UNL     1     120.537 176.753 129.184  1.00  0.00     0.053 C 
BRANCH   4   5
ATOM      5  C   UNL     1     121.067 175.642 128.333  1.00  0.00     0.041 C 
ATOM      6  O   UNL     1     120.439 175.277 127.303  1.00  0.00    -0.550 OA
ATOM      7  O   UNL     1     122.280 175.043 128.647  1.00  0.00    -0.550 OA
ENDBRANCH   4   5
ENDBRANCH   3   4
ENDBRANCH   2   3
ENDBRANCH   1   2
BRANCH   1   8
ATOM      8  C   UNL     1     123.555 178.937 128.719  1.00  0.00     0.000 C 
BRANCH   8   9
ATOM      9  C   UNL     1     123.377 179.370 127.253  1.00  0.00    -0.000 C 
BRANCH   9  10
ATOM     10  C   UNL     1     123.035 178.196 126.322  1.00  0.00    -0.000 C 
BRANCH  10  11
ATOM     11  C   UNL     1     121.588 178.301 125.817  1.00  0.00    -0.000 C 
BRANCH  11  12
ATOM     12  C   UNL     1     120.984 179.696 126.040  1.00  0.00    -0.003 C 
ATOM     13  C   UNL     1     119.655 179.652 126.793  1.00  0.00     0.004 C 
ENDBRANCH  11  12
ENDBRANCH  10  11
ENDBRANCH   9  10
ENDBRANCH   8   9
ENDBRANCH   1   8
TORSDOF 9
ENDMDL
MODEL 7
REMARK VINA RESULT:    -4.406      2.176      4.114
REMARK INTER + INTRA:          -7.443
REMARK INTER:                  -6.140
REMARK INTRA:                  -1.303
REMARK UNBOUND:                -0.719
REMARK SMILES CCCCCCCCCCC(=O)[O-]
REMARK SMILES IDX 7 1 8 2 9 3 10 4 11 5 12 6 13 7 6 8 5 9 4 10 3 11 2 12 1 13
REMARK H PARENT
REMARK Flexibility Score: inf
ROOT
ATOM      1  C   UNL     1     121.190 176.417 126.987  1.00  0.00     0.000 C 
ENDROOT
BRANCH   1   2
ATOM      2  C   UNL     1     119.816 176.991 126.590  1.00  0.00     0.000 C 
BRANCH   2   3
ATOM      3  C   UNL     1     119.362 178.212 127.408  1.00  0.00     0.006 C 
BRANCH   3   4
ATOM      4  C   UNL     1     119.678 179.544 126.715  1.00  0.00     0.053 C 
BRANCH   4   5
ATOM      5  C   UNL     1     119.054 179.586 125.356  1.00  0.00     0.041 C 
ATOM      6  O   UNL     1     119.779 179.605 124.326  1.00  0.00    -0.550 OA
ATOM      7  O   UNL     1     117.672 179.553 125.224  1.00  0.00    -0.550 OA
ENDBRANCH   4   5
ENDBRANCH   3   4
ENDBRANCH   2   3
ENDBRANCH   1   2
BRANCH   1   8
ATOM      8  C   UNL     1     122.220 176.330 125.843  1.00  0.00     0.000 C 
BRANCH   8   9
ATOM      9  C   UNL     1     122.629 177.683 125.233  1.00  0.00    -0.000 C 
BRANCH   9  10
ATOM     10  C   UNL     1     123.819 178.329 125.958  1.00  0.00    -0.000 C 
BRANCH  10  11
ATOM     11  C   UNL     1     123.337 179.354 126.997  1.00  0.00    -0.000 C 
BRANCH  11  12
ATOM     12  C   UNL     1     123.712 178.959 128.433  1.00  0.00    -0.003 C 
ATOM     13  C   UNL     1     122.506 178.927 129.372  1.00  0.00     0.004 C 
ENDBRANCH  11  12
ENDBRANCH  10  11
ENDBRANCH   9  10
ENDBRANCH   8   9
ENDBRANCH   1   8
TORSDOF 9
ENDMDL
