MODEL 1
REMARK VINA RESULT:    -5.870      0.000      0.000
REMARK INTER + INTRA:          -5.870
REMARK INTER:                  -5.870
REMARK INTRA:                   0.000
REMARK UNBOUND:                 0.000
REMARK SMILES C=C1CCC[C@]2(C)CC(=O)C(=C(C)C)C[C@@H]12
REMARK SMILES IDX 13 1 12 2 11 3 15 4 16 5 2 6 1 7 3 8 4 9 5 10 6 11 8 12 9 13
REMARK SMILES IDX 10 14 7 15 14 16
REMARK H PARENT
REMARK Flexibility Score: inf
ROOT
ATOM      1  C   UNL     1      28.290  -5.730   6.492  1.00  0.00     0.039 C 
ATOM      2  C   UNL     1      27.011  -6.365   6.991  1.00  0.00    -0.070 C 
ATOM      3  C   UNL     1      25.841  -5.662   7.032  1.00  0.00    -0.006 C 
ATOM      4  C   UNL     1      25.782  -4.203   6.600  1.00  0.00     0.047 C 
ATOM      5  C   UNL     1      24.701  -3.395   7.362  1.00  0.00     0.025 C 
ATOM      6  C   UNL     1      24.568  -1.931   6.941  1.00  0.00    -0.073 C 
ATOM      7  C   UNL     1      25.309  -1.353   5.975  1.00  0.00     0.008 C 
ATOM      8  C   UNL     1      23.563  -1.104   7.708  1.00  0.00     0.031 C 
ATOM      9  C   UNL     1      22.194  -1.791   7.702  1.00  0.00     0.005 C 
ATOM     10  C   UNL     1      22.290  -3.254   8.165  1.00  0.00     0.008 C 
ATOM     11  C   UNL     1      23.305  -4.092   7.331  1.00  0.00    -0.018 C 
ATOM     12  C   UNL     1      23.436  -5.487   7.991  1.00  0.00     0.088 C 
ATOM     13  C   UNL     1      24.539  -6.302   7.381  1.00  0.00     0.159 C 
ATOM     14  O   UNL     1      24.333  -7.526   7.160  1.00  0.00    -0.295 OA
ATOM     15  C   UNL     1      22.774  -4.259   5.880  1.00  0.00     0.012 C 
ATOM     16  C   UNL     1      27.100  -7.795   7.472  1.00  0.00     0.039 C 
ENDROOT
TORSDOF 0
ENDMDL
MODEL 2
REMARK VINA RESULT:    -5.787      2.114      5.791
REMARK INTER + INTRA:          -5.787
REMARK INTER:                  -5.787
REMARK INTRA:                   0.000
REMARK UNBOUND:                 0.000
REMARK SMILES C=C1CCC[C@]2(C)CC(=O)C(=C(C)C)C[C@@H]12
REMARK SMILES IDX 13 1 12 2 11 3 15 4 16 5 2 6 1 7 3 8 4 9 5 10 6 11 8 12 9 13
REMARK SMILES IDX 10 14 7 15 14 16
REMARK H PARENT
REMARK Flexibility Score: inf
ROOT
ATOM      1  C   UNL     1      22.162  -3.757   8.467  1.00  0.00     0.039 C 
ATOM      2  C   UNL     1      23.575  -3.828   7.933  1.00  0.00    -0.070 C 
ATOM      3  C   UNL     1      24.195  -5.027   7.728  1.00  0.00    -0.006 C 
ATOM      4  C   UNL     1      23.498  -6.341   8.051  1.00  0.00     0.047 C 
ATOM      5  C   UNL     1      24.485  -7.457   8.474  1.00  0.00     0.025 C 
ATOM      6  C   UNL     1      23.845  -8.813   8.773  1.00  0.00    -0.073 C 
ATOM      7  C   UNL     1      22.525  -9.062   8.675  1.00  0.00     0.008 C 
ATOM      8  C   UNL     1      24.778  -9.903   9.245  1.00  0.00     0.031 C 
ATOM      9  C   UNL     1      25.946 -10.065   8.267  1.00  0.00     0.005 C 
ATOM     10  C   UNL     1      26.638  -8.721   7.982  1.00  0.00     0.008 C 
ATOM     11  C   UNL     1      25.659  -7.628   7.459  1.00  0.00    -0.018 C 
ATOM     12  C   UNL     1      26.434  -6.290   7.370  1.00  0.00     0.088 C 
ATOM     13  C   UNL     1      25.529  -5.131   7.067  1.00  0.00     0.159 C 
ATOM     14  O   UNL     1      25.917  -4.264   6.239  1.00  0.00    -0.295 OA
ATOM     15  C   UNL     1      25.148  -8.021   6.045  1.00  0.00     0.012 C 
ATOM     16  C   UNL     1      24.275  -2.513   7.674  1.00  0.00     0.039 C 
ENDROOT
TORSDOF 0
ENDMDL
MODEL 3
REMARK VINA RESULT:    -5.601     11.646     13.150
REMARK INTER + INTRA:          -5.601
REMARK INTER:                  -5.601
REMARK INTRA:                   0.000
REMARK UNBOUND:                 0.000
REMARK SMILES C=C1CCC[C@]2(C)CC(=O)C(=C(C)C)C[C@@H]12
REMARK SMILES IDX 13 1 12 2 11 3 15 4 16 5 2 6 1 7 3 8 4 9 5 10 6 11 8 12 9 13
REMARK SMILES IDX 10 14 7 15 14 16
REMARK H PARENT
REMARK Flexibility Score: inf
ROOT
ATOM      1  C   UNL     1      21.106  -7.885  15.527  1.00  0.00     0.039 C 
ATOM      2  C   UNL     1      20.748  -8.498  16.862  1.00  0.00    -0.070 C 
ATOM      3  C   UNL     1      19.530  -8.277  17.439  1.00  0.00    -0.006 C 
ATOM      4  C   UNL     1      18.492  -7.386  16.771  1.00  0.00     0.047 C 
ATOM      5  C   UNL     1      17.575  -6.665  17.791  1.00  0.00     0.025 C 
ATOM      6  C   UNL     1      16.485  -5.785  17.178  1.00  0.00    -0.073 C 
ATOM      7  C   UNL     1      16.297  -5.632  15.853  1.00  0.00     0.008 C 
ATOM      8  C   UNL     1      15.614  -5.024  18.150  1.00  0.00     0.031 C 
ATOM      9  C   UNL     1      15.013  -5.979  19.185  1.00  0.00     0.005 C 
ATOM     10  C   UNL     1      16.093  -6.847  19.853  1.00  0.00     0.008 C 
ATOM     11  C   UNL     1      16.950  -7.650  18.828  1.00  0.00    -0.018 C 
ATOM     12  C   UNL     1      18.097  -8.347  19.601  1.00  0.00     0.088 C 
ATOM     13  C   UNL     1      19.097  -8.984  18.679  1.00  0.00     0.159 C 
ATOM     14  O   UNL     1      19.544 -10.125  18.971  1.00  0.00    -0.295 OA
ATOM     15  C   UNL     1      16.066  -8.728  18.142  1.00  0.00     0.012 C 
ATOM     16  C   UNL     1      21.812  -9.332  17.539  1.00  0.00     0.039 C 
ENDROOT
TORSDOF 0
ENDMDL
MODEL 4
REMARK VINA RESULT:    -5.423      2.870      4.648
REMARK INTER + INTRA:          -5.423
REMARK INTER:                  -5.423
REMARK INTRA:                   0.000
REMARK UNBOUND:                 0.000
REMARK SMILES C=C1CCC[C@]2(C)CC(=O)C(=C(C)C)C[C@@H]12
REMARK SMILES IDX 13 1 12 2 11 3 15 4 16 5 2 6 1 7 3 8 4 9 5 10 6 11 8 12 9 13
REMARK SMILES IDX 10 14 7 15 14 16
REMARK H PARENT
REMARK Flexibility Score: inf
ROOT
ATOM      1  C   UNL     1      28.757  -5.811   6.647  1.00  0.00     0.039 C 
ATOM      2  C   UNL     1      28.625  -7.276   6.999  1.00  0.00    -0.070 C 
ATOM      3  C   UNL     1      27.421  -7.813   7.357  1.00  0.00    -0.006 C 
ATOM      4  C   UNL     1      26.168  -6.952   7.439  1.00  0.00     0.047 C 
ATOM      5  C   UNL     1      25.161  -7.458   8.502  1.00  0.00     0.025 C 
ATOM      6  C   UNL     1      23.864  -6.656   8.603  1.00  0.00    -0.073 C 
ATOM      7  C   UNL     1      23.575  -5.589   7.832  1.00  0.00     0.008 C 
ATOM      8  C   UNL     1      22.890  -7.092   9.672  1.00  0.00     0.031 C 
ATOM      9  C   UNL     1      22.587  -8.587   9.538  1.00  0.00     0.005 C 
ATOM     10  C   UNL     1      23.875  -9.425   9.481  1.00  0.00     0.008 C 
ATOM     11  C   UNL     1      24.843  -8.978   8.343  1.00  0.00    -0.018 C 
ATOM     12  C   UNL     1      26.162  -9.777   8.491  1.00  0.00     0.088 C 
ATOM     13  C   UNL     1      27.234  -9.278   7.566  1.00  0.00     0.159 C 
ATOM     14  O   UNL     1      27.953 -10.121   6.968  1.00  0.00    -0.295 OA
ATOM     15  C   UNL     1      24.204  -9.294   6.963  1.00  0.00     0.012 C 
ATOM     16  C   UNL     1      29.890  -8.103   6.970  1.00  0.00     0.039 C 
ENDROOT
TORSDOF 0
ENDMDL
MODEL 5
REMARK VINA RESULT:    -5.392     13.556     15.973
REMARK INTER + INTRA:          -5.392
REMARK INTER:                  -5.392
REMARK INTRA:                   0.000
REMARK UNBOUND:                 0.000
REMARK SMILES C=C1CCC[C@]2(C)CC(=O)C(=C(C)C)C[C@@H]12
REMARK SMILES IDX 13 1 12 2 11 3 15 4 16 5 2 6 1 7 3 8 4 9 5 10 6 11 8 12 9 13
REMARK SMILES IDX 10 14 7 15 14 16
REMARK H PARENT
REMARK Flexibility Score: inf
ROOT
ATOM      1  C   UNL     1      14.090  -4.901  22.588  1.00  0.00     0.039 C 
ATOM      2  C   UNL     1      14.185  -4.135  21.287  1.00  0.00    -0.070 C 
ATOM      3  C   UNL     1      14.643  -4.730  20.147  1.00  0.00    -0.006 C 
ATOM      4  C   UNL     1      15.098  -6.183  20.144  1.00  0.00     0.047 C 
ATOM      5  C   UNL     1      16.210  -6.461  19.101  1.00  0.00     0.025 C 
ATOM      6  C   UNL     1      16.680  -7.914  19.025  1.00  0.00    -0.073 C 
ATOM      7  C   UNL     1      16.180  -8.910  19.783  1.00  0.00     0.008 C 
ATOM      8  C   UNL     1      17.804  -8.203  18.058  1.00  0.00     0.031 C 
ATOM      9  C   UNL     1      17.454  -7.678  16.662  1.00  0.00     0.005 C 
ATOM     10  C   UNL     1      17.020  -6.203  16.703  1.00  0.00     0.008 C 
ATOM     11  C   UNL     1      15.833  -5.942  17.678  1.00  0.00    -0.018 C 
ATOM     12  C   UNL     1      15.600  -4.413  17.756  1.00  0.00     0.088 C 
ATOM     13  C   UNL     1      14.610  -4.044  18.822  1.00  0.00     0.159 C 
ATOM     14  O   UNL     1      13.751  -3.159  18.566  1.00  0.00    -0.295 OA
ATOM     15  C   UNL     1      14.551  -6.630  17.133  1.00  0.00     0.012 C 
ATOM     16  C   UNL     1      13.785  -2.677  21.321  1.00  0.00     0.039 C 
ENDROOT
TORSDOF 0
ENDMDL
MODEL 6
REMARK VINA RESULT:    -5.391      2.871      5.803
REMARK INTER + INTRA:          -5.391
REMARK INTER:                  -5.391
REMARK INTRA:                   0.000
REMARK UNBOUND:                 0.000
REMARK SMILES C=C1CCC[C@]2(C)CC(=O)C(=C(C)C)C[C@@H]12
REMARK SMILES IDX 13 1 12 2 11 3 15 4 16 5 2 6 1 7 3 8 4 9 5 10 6 11 8 12 9 13
REMARK SMILES IDX 10 14 7 15 14 16
REMARK H PARENT
REMARK Flexibility Score: inf
ROOT
ATOM      1  C   UNL     1      22.683  -9.038  10.418  1.00  0.00     0.039 C 
ATOM      2  C   UNL     1      22.948  -7.599  10.034  1.00  0.00    -0.070 C 
ATOM      3  C   UNL     1      23.911  -7.276   9.121  1.00  0.00    -0.006 C 
ATOM      4  C   UNL     1      24.773  -8.349   8.470  1.00  0.00     0.047 C 
ATOM      5  C   UNL     1      26.189  -7.840   8.102  1.00  0.00     0.025 C 
ATOM      6  C   UNL     1      27.087  -8.864   7.408  1.00  0.00    -0.073 C 
ATOM      7  C   UNL     1      26.707 -10.122   7.110  1.00  0.00     0.008 C 
ATOM      8  C   UNL     1      28.494  -8.413   7.091  1.00  0.00     0.031 C 
ATOM      9  C   UNL     1      28.467  -7.101   6.301  1.00  0.00     0.005 C 
ATOM     10  C   UNL     1      27.605  -6.035   7.001  1.00  0.00     0.008 C 
ATOM     11  C   UNL     1      26.149  -6.515   7.279  1.00  0.00    -0.018 C 
ATOM     12  C   UNL     1      25.438  -5.429   8.125  1.00  0.00     0.088 C 
ATOM     13  C   UNL     1      24.094  -5.884   8.617  1.00  0.00     0.159 C 
ATOM     14  O   UNL     1      23.133  -5.070   8.579  1.00  0.00    -0.295 OA
ATOM     15  C   UNL     1      25.393  -6.692   5.933  1.00  0.00     0.012 C 
ATOM     16  C   UNL     1      22.125  -6.542  10.734  1.00  0.00     0.039 C 
ENDROOT
TORSDOF 0
ENDMDL
MODEL 7
REMARK VINA RESULT:    -5.321      2.336      3.971
REMARK INTER + INTRA:          -5.321
REMARK INTER:                  -5.321
REMARK INTRA:                   0.000
REMARK UNBOUND:                 0.000
REMARK SMILES C=C1CCC[C@]2(C)CC(=O)C(=C(C)C)C[C@@H]12
REMARK SMILES IDX 13 1 12 2 11 3 15 4 16 5 2 6 1 7 3 8 4 9 5 10 6 11 8 12 9 13
REMARK SMILES IDX 10 14 7 15 14 16
REMARK H PARENT
REMARK Flexibility Score: inf
ROOT
ATOM      1  C   UNL     1      22.275  -7.123  12.092  1.00  0.00     0.039 C 
ATOM      2  C   UNL     1      22.689  -7.828  10.820  1.00  0.00    -0.070 C 
ATOM      3  C   UNL     1      23.127  -7.128   9.733  1.00  0.00    -0.006 C 
ATOM      4  C   UNL     1      23.192  -5.607   9.749  1.00  0.00     0.047 C 
ATOM      5  C   UNL     1      22.971  -4.982   8.348  1.00  0.00     0.025 C 
ATOM      6  C   UNL     1      23.066  -3.457   8.295  1.00  0.00    -0.073 C 
ATOM      7  C   UNL     1      23.332  -2.680   9.363  1.00  0.00     0.008 C 
ATOM      8  C   UNL     1      22.796  -2.817   6.954  1.00  0.00     0.031 C 
ATOM      9  C   UNL     1      23.682  -3.448   5.875  1.00  0.00     0.005 C 
ATOM     10  C   UNL     1      23.572  -4.982   5.875  1.00  0.00     0.008 C 
ATOM     11  C   UNL     1      23.895  -5.617   7.262  1.00  0.00    -0.018 C 
ATOM     12  C   UNL     1      23.591  -7.133   7.180  1.00  0.00     0.088 C 
ATOM     13  C   UNL     1      23.678  -7.802   8.521  1.00  0.00     0.159 C 
ATOM     14  O   UNL     1      24.235  -8.929   8.597  1.00  0.00    -0.295 OA
ATOM     15  C   UNL     1      25.399  -5.412   7.590  1.00  0.00     0.012 C 
ATOM     16  C   UNL     1      22.561  -9.335  10.801  1.00  0.00     0.039 C 
ENDROOT
TORSDOF 0
ENDMDL
MODEL 8
REMARK VINA RESULT:    -5.076     12.721     15.023
REMARK INTER + INTRA:          -5.076
REMARK INTER:                  -5.076
REMARK INTRA:                   0.000
REMARK UNBOUND:                 0.000
REMARK SMILES C=C1CCC[C@]2(C)CC(=O)C(=C(C)C)C[C@@H]12
REMARK SMILES IDX 13 1 12 2 11 3 15 4 16 5 2 6 1 7 3 8 4 9 5 10 6 11 8 12 9 13
REMARK SMILES IDX 10 14 7 15 14 16
REMARK H PARENT
REMARK Flexibility Score: inf
ROOT
ATOM      1  C   UNL     1      15.183  -4.684  20.868  1.00  0.00     0.039 C 
ATOM      2  C   UNL     1      14.950  -4.920  19.392  1.00  0.00    -0.070 C 
ATOM      3  C   UNL     1      15.500  -5.993  18.751  1.00  0.00    -0.006 C 
ATOM      4  C   UNL     1      16.391  -6.982  19.492  1.00  0.00     0.047 C 
ATOM      5  C   UNL     1      17.466  -7.622  18.578  1.00  0.00     0.025 C 
ATOM      6  C   UNL     1      18.365  -8.655  19.259  1.00  0.00    -0.073 C 
ATOM      7  C   UNL     1      18.254  -9.017  20.551  1.00  0.00     0.008 C 
ATOM      8  C   UNL     1      19.461  -9.252  18.406  1.00  0.00     0.031 C 
ATOM      9  C   UNL     1      18.876  -9.820  17.109  1.00  0.00     0.005 C 
ATOM     10  C   UNL     1      18.002  -8.786  16.380  1.00  0.00     0.008 C 
ATOM     11  C   UNL     1      16.857  -8.218  17.270  1.00  0.00    -0.018 C 
ATOM     12  C   UNL     1      16.158  -7.078  16.488  1.00  0.00     0.088 C 
ATOM     13  C   UNL     1      15.170  -6.331  17.336  1.00  0.00     0.159 C 
ATOM     14  O   UNL     1      14.061  -6.012  16.830  1.00  0.00    -0.295 OA
ATOM     15  C   UNL     1      15.825  -9.340  17.572  1.00  0.00     0.012 C 
ATOM     16  C   UNL     1      14.113  -3.896  18.660  1.00  0.00     0.039 C 
ENDROOT
TORSDOF 0
ENDMDL
MODEL 9
REMARK VINA RESULT:    -5.033     12.547     14.373
REMARK INTER + INTRA:          -5.033
REMARK INTER:                  -5.033
REMARK INTRA:                   0.000
REMARK UNBOUND:                 0.000
REMARK SMILES C=C1CCC[C@]2(C)CC(=O)C(=C(C)C)C[C@@H]12
REMARK SMILES IDX 13 1 12 2 11 3 15 4 16 5 2 6 1 7 3 8 4 9 5 10 6 11 8 12 9 13
REMARK SMILES IDX 10 14 7 15 14 16
REMARK H PARENT
REMARK Flexibility Score: inf
ROOT
ATOM      1  C   UNL     1      19.727 -10.085  18.587  1.00  0.00     0.039 C 
ATOM      2  C   UNL     1      19.377  -8.980  17.616  1.00  0.00    -0.070 C 
ATOM      3  C   UNL     1      18.138  -8.404  17.614  1.00  0.00    -0.006 C 
ATOM      4  C   UNL     1      17.052  -8.869  18.575  1.00  0.00     0.047 C 
ATOM      5  C   UNL     1      15.626  -8.702  17.995  1.00  0.00     0.025 C 
ATOM      6  C   UNL     1      14.490  -9.115  18.932  1.00  0.00    -0.073 C 
ATOM      7  C   UNL     1      14.676  -9.583  20.182  1.00  0.00     0.008 C 
ATOM      8  C   UNL     1      13.091  -9.018  18.370  1.00  0.00     0.031 C 
ATOM      9  C   UNL     1      12.839  -7.615  17.808  1.00  0.00     0.005 C 
ATOM     10  C   UNL     1      13.944  -7.191  16.826  1.00  0.00     0.008 C 
ATOM     11  C   UNL     1      15.372  -7.263  17.445  1.00  0.00    -0.018 C 
ATOM     12  C   UNL     1      16.400  -6.975  16.323  1.00  0.00     0.088 C 
ATOM     13  C   UNL     1      17.812  -7.219  16.770  1.00  0.00     0.159 C 
ATOM     14  O   UNL     1      18.702  -6.394  16.430  1.00  0.00    -0.295 OA
ATOM     15  C   UNL     1      15.513  -6.186  18.557  1.00  0.00     0.012 C 
ATOM     16  C   UNL     1      20.447  -8.572  16.629  1.00  0.00     0.039 C 
ENDROOT
TORSDOF 0
ENDMDL
