MODEL 1
REMARK VINA RESULT:    -4.468      0.000      0.000
REMARK INTER + INTRA:          -6.537
REMARK INTER:                  -6.819
REMARK INTRA:                   0.282
REMARK UNBOUND:                 0.282
REMARK SMILES CC1=CCC[C@@H](C)C(=O)C[C@@H](C(C)C)C(=O)C1
REMARK SMILES IDX 8 1 9 2 6 3 7 4 5 5 4 6 3 7 2 8 1 9 10 11 11 12 15 13 16 14
REMARK SMILES IDX 17 15 12 17 13 18 14 19
REMARK H PARENT
REMARK Flexibility Score: 70.00
ROOT
ATOM      1  C   UNL     1     100.133 117.216 125.557  1.00  0.00     0.136 C 
ATOM      2  O   UNL     1     100.152 117.942 126.540  1.00  0.00    -0.299 OA
ENDROOT
BRANCH   1   3
ATOM      3  C   UNL     1     100.228 117.851 124.179  1.00  0.00     0.053 C 
ATOM      4  C   UNL     1     100.251 119.378 124.326  1.00  0.00     0.016 C 
BRANCH   3   5
ATOM      5  C   UNL     1      99.090 117.413 123.222  1.00  0.00     0.015 C 
BRANCH   5   6
ATOM      6  C   UNL     1      99.446 116.294 122.216  1.00  0.00     0.028 C 
BRANCH   6   7
ATOM      7  C   UNL     1     100.902 116.162 121.839  1.00  0.00    -0.028 C 
ATOM      8  C   UNL     1     101.757 115.216 122.291  1.00  0.00    -0.070 CG0
ATOM      9  C   UNL     1     103.108 115.130 121.622  1.00  0.00     0.039 C 
ATOM     10  G   UNL     1     101.393 114.210 123.371  1.00  0.00     0.000 G0
ENDBRANCH   6   7
ENDBRANCH   5   6
ENDBRANCH   3   5
ENDBRANCH   1   3
BRANCH   1  11
ATOM     11  C   UNL     1      99.865 115.737 125.736  1.00  0.00     0.087 C 
BRANCH  11  12
ATOM     12  C   UNL     1     101.140 114.878 125.968  1.00  0.00     0.066 C 
BRANCH  12  13
ATOM     13  C   UNL     1     101.981 114.592 124.723  1.00  0.00     0.140 C 
ATOM     14  O   UNL     1     103.196 114.690 124.826  1.00  0.00    -0.299 OA
BRANCH  13  15
ATOM     15  C   UNL     1     101.420 114.197 123.372  1.00  0.00     0.106 CG0
ATOM     16  G   UNL     1     101.758 115.228 122.307  1.00  0.00     0.000 G0
ENDBRANCH  13  15
ENDBRANCH  12  13
BRANCH  12  17
ATOM     17  C   UNL     1     100.836 113.540 126.715  1.00  0.00    -0.006 C 
ATOM     18  C   UNL     1      99.535 112.876 126.234  1.00  0.00     0.008 C 
ATOM     19  C   UNL     1     102.000 112.536 126.660  1.00  0.00     0.008 C 
ENDBRANCH  12  17
ENDBRANCH  11  12
ENDBRANCH   1  11
TORSDOF 1
ENDMDL
MODEL 2
REMARK VINA RESULT:    -4.350      2.284      5.238
REMARK INTER + INTRA:          -6.356
REMARK INTER:                  -6.328
REMARK INTRA:                  -0.028
REMARK UNBOUND:                 0.282
REMARK SMILES CC1=CCC[C@@H](C)C(=O)C[C@@H](C(C)C)C(=O)C1
REMARK SMILES IDX 8 1 9 2 6 3 7 4 5 5 4 6 3 7 2 8 1 9 10 11 11 12 15 13 16 14
REMARK SMILES IDX 17 15 12 17 13 18 14 19
REMARK H PARENT
REMARK Flexibility Score: 70.00
ROOT
ATOM      1  C   UNL     1     101.321 115.241 124.464  1.00  0.00     0.136 C 
ATOM      2  O   UNL     1     102.470 114.915 124.206  1.00  0.00    -0.299 OA
ENDROOT
BRANCH   1   3
ATOM      3  C   UNL     1     100.861 115.212 125.913  1.00  0.00     0.053 C 
ATOM      4  C   UNL     1     100.286 113.826 126.233  1.00  0.00     0.016 C 
BRANCH   3   5
ATOM      5  C   UNL     1      99.833 116.320 126.253  1.00  0.00     0.015 C 
BRANCH   5   6
ATOM      6  C   UNL     1     100.349 117.774 126.159  1.00  0.00     0.028 C 
BRANCH   6   7
ATOM      7  C   UNL     1      99.338 118.827 125.771  1.00  0.00    -0.028 C 
ATOM      8  C   UNL     1      99.230 119.417 124.559  1.00  0.00    -0.070 CG0
ATOM      9  C   UNL     1      98.014 120.280 124.317  1.00  0.00     0.039 C 
ATOM     10  G   UNL     1     100.223 119.192 123.430  1.00  0.00     0.000 G0
ENDBRANCH   6   7
ENDBRANCH   5   6
ENDBRANCH   3   5
ENDBRANCH   1   3
BRANCH   1  11
ATOM     11  C   UNL     1     100.358 115.515 123.328  1.00  0.00     0.087 C 
BRANCH  11  12
ATOM     12  C   UNL     1     100.746 116.729 122.438  1.00  0.00     0.066 C 
BRANCH  12  13
ATOM     13  C   UNL     1      99.864 117.969 122.587  1.00  0.00     0.140 C 
ATOM     14  O   UNL     1      98.792 117.975 121.999  1.00  0.00    -0.299 OA
BRANCH  13  15
ATOM     15  C   UNL     1     100.220 119.191 123.410  1.00  0.00     0.106 CG0
ATOM     16  G   UNL     1      99.226 119.409 124.539  1.00  0.00     0.000 G0
ENDBRANCH  13  15
ENDBRANCH  12  13
BRANCH  12  17
ATOM     17  C   UNL     1     100.869 116.351 120.927  1.00  0.00    -0.006 C 
ATOM     18  C   UNL     1     101.852 117.257 120.168  1.00  0.00     0.008 C 
ATOM     19  C   UNL     1     101.222 114.871 120.698  1.00  0.00     0.008 C 
ENDBRANCH  12  17
ENDBRANCH  11  12
ENDBRANCH   1  11
TORSDOF 1
ENDMDL
MODEL 3
REMARK VINA RESULT:    -4.307      1.890      4.508
REMARK INTER + INTRA:          -6.291
REMARK INTER:                  -5.995
REMARK INTRA:                  -0.296
REMARK UNBOUND:                 0.282
REMARK SMILES CC1=CCC[C@@H](C)C(=O)C[C@@H](C(C)C)C(=O)C1
REMARK SMILES IDX 8 1 9 2 6 3 7 4 5 5 4 6 3 7 2 8 1 9 10 11 11 12 15 13 16 14
REMARK SMILES IDX 17 15 12 17 13 18 14 19
REMARK H PARENT
REMARK Flexibility Score: 70.00
ROOT
ATOM      1  C   UNL     1      99.742 116.825 121.464  1.00  0.00     0.136 C 
ATOM      2  O   UNL     1      99.055 116.601 120.479  1.00  0.00    -0.299 OA
ENDROOT
BRANCH   1   3
ATOM      3  C   UNL     1     101.255 116.737 121.335  1.00  0.00     0.053 C 
ATOM      4  C   UNL     1     101.687 117.373 120.008  1.00  0.00     0.016 C 
BRANCH   3   5
ATOM      5  C   UNL     1     101.797 115.289 121.447  1.00  0.00     0.015 C 
BRANCH   5   6
ATOM      6  C   UNL     1     101.025 114.350 122.401  1.00  0.00     0.028 C 
BRANCH   6   7
ATOM      7  C   UNL     1     101.673 114.059 123.734  1.00  0.00    -0.028 C 
ATOM      8  C   UNL     1     101.163 114.364 124.949  1.00  0.00    -0.070 CG0
ATOM      9  C   UNL     1     101.865 113.790 126.157  1.00  0.00     0.039 C 
ATOM     10  G   UNL     1      99.897 115.183 125.141  1.00  0.00     0.000 G0
ENDBRANCH   6   7
ENDBRANCH   5   6
ENDBRANCH   3   5
ENDBRANCH   1   3
BRANCH   1  11
ATOM     11  C   UNL     1      99.068 117.033 122.804  1.00  0.00     0.087 C 
BRANCH  11  12
ATOM     12  C   UNL     1     100.013 117.559 123.921  1.00  0.00     0.066 C 
BRANCH  12  13
ATOM     13  C   UNL     1     100.143 116.665 125.155  1.00  0.00     0.140 C 
ATOM     14  O   UNL     1     100.484 117.194 126.203  1.00  0.00    -0.299 OA
BRANCH  13  15
ATOM     15  C   UNL     1      99.879 115.173 125.174  1.00  0.00     0.106 CG0
ATOM     16  G   UNL     1     101.157 114.381 124.949  1.00  0.00     0.000 G0
ENDBRANCH  13  15
ENDBRANCH  12  13
BRANCH  12  17
ATOM     17  C   UNL     1      99.666 119.017 124.363  1.00  0.00    -0.006 C 
ATOM     18  C   UNL     1     100.682 120.050 123.847  1.00  0.00     0.008 C 
ATOM     19  C   UNL     1      98.236 119.442 123.987  1.00  0.00     0.008 C 
ENDBRANCH  12  17
ENDBRANCH  11  12
ENDBRANCH   1  11
TORSDOF 1
ENDMDL
MODEL 4
REMARK VINA RESULT:    -4.137      1.817      4.136
REMARK INTER + INTRA:          -6.032
REMARK INTER:                  -6.030
REMARK INTRA:                  -0.002
REMARK UNBOUND:                 0.282
REMARK SMILES CC1=CCC[C@@H](C)C(=O)C[C@@H](C(C)C)C(=O)C1
REMARK SMILES IDX 8 1 9 2 6 3 7 4 5 5 4 6 3 7 2 8 1 9 10 11 11 12 15 13 16 14
REMARK SMILES IDX 17 15 12 17 13 18 14 19
REMARK H PARENT
REMARK Flexibility Score: 70.00
ROOT
ATOM      1  C   UNL     1     100.503 115.627 126.222  1.00  0.00     0.136 C 
ATOM      2  O   UNL     1      99.485 116.065 126.737  1.00  0.00    -0.299 OA
ENDROOT
BRANCH   1   3
ATOM      3  C   UNL     1     101.315 114.589 126.980  1.00  0.00     0.053 C 
ATOM      4  C   UNL     1     102.797 114.985 126.948  1.00  0.00     0.016 C 
BRANCH   3   5
ATOM      5  C   UNL     1     101.125 113.148 126.441  1.00  0.00     0.015 C 
BRANCH   5   6
ATOM      6  C   UNL     1     102.165 112.672 125.401  1.00  0.00     0.028 C 
BRANCH   6   7
ATOM      7  C   UNL     1     101.621 112.106 124.111  1.00  0.00    -0.028 C 
ATOM      8  C   UNL     1     101.541 112.757 122.928  1.00  0.00    -0.070 CG0
ATOM      9  C   UNL     1     101.171 111.940 121.713  1.00  0.00     0.039 C 
ATOM     10  G   UNL     1     101.873 114.232 122.764  1.00  0.00     0.000 G0
ENDBRANCH   6   7
ENDBRANCH   5   6
ENDBRANCH   3   5
ENDBRANCH   1   3
BRANCH   1  11
ATOM     11  C   UNL     1     100.998 116.236 124.928  1.00  0.00     0.087 C 
BRANCH  11  12
ATOM     12  C   UNL     1     100.064 115.995 123.708  1.00  0.00     0.066 C 
BRANCH  12  13
ATOM     13  C   UNL     1     100.625 115.085 122.614  1.00  0.00     0.140 C 
ATOM     14  O   UNL     1     100.019 115.038 121.553  1.00  0.00    -0.299 OA
BRANCH  13  15
ATOM     15  C   UNL     1     101.874 114.238 122.749  1.00  0.00     0.106 CG0
ATOM     16  G   UNL     1     101.532 112.767 122.917  1.00  0.00     0.000 G0
ENDBRANCH  13  15
ENDBRANCH  12  13
BRANCH  12  17
ATOM     17  C   UNL     1      99.551 117.327 123.072  1.00  0.00    -0.006 C 
ATOM     18  C   UNL     1      98.882 118.255 124.100  1.00  0.00     0.008 C 
ATOM     19  C   UNL     1     100.640 118.088 122.296  1.00  0.00     0.008 C 
ENDBRANCH  12  17
ENDBRANCH  11  12
ENDBRANCH   1  11
TORSDOF 1
ENDMDL
MODEL 5
REMARK VINA RESULT:    -4.064      1.882      4.312
REMARK INTER + INTRA:          -5.921
REMARK INTER:                  -5.822
REMARK INTRA:                  -0.099
REMARK UNBOUND:                 0.282
REMARK SMILES CC1=CCC[C@@H](C)C(=O)C[C@@H](C(C)C)C(=O)C1
REMARK SMILES IDX 8 1 9 2 6 3 7 4 5 5 4 6 3 7 2 8 1 9 10 11 11 12 15 13 16 14
REMARK SMILES IDX 17 15 12 17 13 18 14 19
REMARK H PARENT
REMARK Flexibility Score: 70.00
ROOT
ATOM      1  C   UNL     1     102.001 115.283 124.900  1.00  0.00     0.136 C 
ATOM      2  O   UNL     1     102.984 115.132 125.609  1.00  0.00    -0.299 OA
ENDROOT
BRANCH   1   3
ATOM      3  C   UNL     1     100.634 115.382 125.558  1.00  0.00     0.053 C 
ATOM      4  C   UNL     1     100.445 116.796 126.121  1.00  0.00     0.016 C 
BRANCH   3   5
ATOM      5  C   UNL     1     100.407 114.320 126.665  1.00  0.00     0.015 C 
BRANCH   5   6
ATOM      6  C   UNL     1     100.220 112.866 126.178  1.00  0.00     0.028 C 
BRANCH   6   7
ATOM      7  C   UNL     1     101.460 112.146 125.704  1.00  0.00    -0.028 C 
ATOM      8  C   UNL     1     101.732 111.787 124.429  1.00  0.00    -0.070 CG0
ATOM      9  C   UNL     1     103.123 111.275 124.137  1.00  0.00     0.039 C 
ATOM     10  G   UNL     1     100.740 111.945 123.288  1.00  0.00     0.000 G0
ENDBRANCH   6   7
ENDBRANCH   5   6
ENDBRANCH   3   5
ENDBRANCH   1   3
BRANCH   1  11
ATOM     11  C   UNL     1     102.157 115.215 123.395  1.00  0.00     0.087 C 
BRANCH  11  12
ATOM     12  C   UNL     1     100.959 114.555 122.657  1.00  0.00     0.066 C 
BRANCH  12  13
ATOM     13  C   UNL     1     101.108 113.063 122.355  1.00  0.00     0.140 C 
ATOM     14  O   UNL     1     101.568 112.750 121.265  1.00  0.00    -0.299 OA
BRANCH  13  15
ATOM     15  C   UNL     1     100.728 111.945 123.305  1.00  0.00     0.106 CG0
ATOM     16  G   UNL     1     101.748 111.796 124.422  1.00  0.00     0.000 G0
ENDBRANCH  13  15
ENDBRANCH  12  13
BRANCH  12  17
ATOM     17  C   UNL     1     100.564 115.318 121.351  1.00  0.00    -0.006 C 
ATOM     18  C   UNL     1      99.372 116.267 121.559  1.00  0.00     0.008 C 
ATOM     19  C   UNL     1     101.741 116.072 120.709  1.00  0.00     0.008 C 
ENDBRANCH  12  17
ENDBRANCH  11  12
ENDBRANCH   1  11
TORSDOF 1
ENDMDL
MODEL 6
REMARK VINA RESULT:    -4.011      2.004      4.733
REMARK INTER + INTRA:          -5.839
REMARK INTER:                  -6.055
REMARK INTRA:                   0.215
REMARK UNBOUND:                 0.282
REMARK SMILES CC1=CCC[C@@H](C)C(=O)C[C@@H](C(C)C)C(=O)C1
REMARK SMILES IDX 8 1 9 2 6 3 7 4 5 5 4 6 3 7 2 8 1 9 10 11 11 12 15 13 16 14
REMARK SMILES IDX 17 15 12 17 13 18 14 19
REMARK H PARENT
REMARK Flexibility Score: 70.00
ROOT
ATOM      1  C   UNL     1     100.955 112.969 125.083  1.00  0.00     0.136 C 
ATOM      2  O   UNL     1      99.881 112.586 125.524  1.00  0.00    -0.299 OA
ENDROOT
BRANCH   1   3
ATOM      3  C   UNL     1     102.081 113.266 126.060  1.00  0.00     0.053 C 
ATOM      4  C   UNL     1     102.213 112.101 127.049  1.00  0.00     0.016 C 
BRANCH   3   5
ATOM      5  C   UNL     1     101.898 114.606 126.819  1.00  0.00     0.015 C 
BRANCH   5   6
ATOM      6  C   UNL     1     100.501 115.257 126.713  1.00  0.00     0.028 C 
BRANCH   6   7
ATOM      7  C   UNL     1     100.456 116.687 126.229  1.00  0.00    -0.028 C 
ATOM      8  C   UNL     1     100.006 117.104 125.023  1.00  0.00    -0.070 CG0
ATOM      9  C   UNL     1      99.843 118.592 124.824  1.00  0.00     0.039 C 
ATOM     10  G   UNL     1      99.597 116.152 123.911  1.00  0.00     0.000 G0
ENDBRANCH   6   7
ENDBRANCH   5   6
ENDBRANCH   3   5
ENDBRANCH   1   3
BRANCH   1  11
ATOM     11  C   UNL     1     101.080 113.277 123.606  1.00  0.00     0.087 C 
BRANCH  11  12
ATOM     12  C   UNL     1     101.732 114.653 123.292  1.00  0.00     0.066 C 
BRANCH  12  13
ATOM     13  C   UNL     1     100.759 115.801 123.019  1.00  0.00     0.140 C 
ATOM     14  O   UNL     1     100.940 116.467 122.010  1.00  0.00    -0.299 OA
BRANCH  13  15
ATOM     15  C   UNL     1      99.589 116.173 123.907  1.00  0.00     0.106 CG0
ATOM     16  G   UNL     1     100.015 117.120 125.018  1.00  0.00     0.000 G0
ENDBRANCH  13  15
ENDBRANCH  12  13
BRANCH  12  17
ATOM     17  C   UNL     1     102.783 114.570 122.139  1.00  0.00    -0.006 C 
ATOM     18  C   UNL     1     104.105 113.925 122.588  1.00  0.00     0.008 C 
ATOM     19  C   UNL     1     102.248 113.868 120.879  1.00  0.00     0.008 C 
ENDBRANCH  12  17
ENDBRANCH  11  12
ENDBRANCH   1  11
TORSDOF 1
ENDMDL
MODEL 7
REMARK VINA RESULT:    -3.897      2.048      3.541
REMARK INTER + INTRA:          -5.665
REMARK INTER:                  -5.662
REMARK INTRA:                  -0.003
REMARK UNBOUND:                 0.282
REMARK SMILES CC1=CCC[C@@H](C)C(=O)C[C@@H](C(C)C)C(=O)C1
REMARK SMILES IDX 8 1 9 2 6 3 7 4 5 5 4 6 3 7 2 8 1 9 10 11 11 12 15 13 16 14
REMARK SMILES IDX 17 15 12 17 13 18 14 19
REMARK H PARENT
REMARK Flexibility Score: 70.00
ROOT
ATOM      1  C   UNL     1     100.715 113.522 125.636  1.00  0.00     0.136 C 
ATOM      2  O   UNL     1     100.137 113.040 126.599  1.00  0.00    -0.299 OA
ENDROOT
BRANCH   1   3
ATOM      3  C   UNL     1     101.497 114.813 125.825  1.00  0.00     0.053 C 
ATOM      4  C   UNL     1     102.350 114.706 127.095  1.00  0.00     0.016 C 
BRANCH   3   5
ATOM      5  C   UNL     1     100.597 116.074 125.879  1.00  0.00     0.015 C 
BRANCH   5   6
ATOM      6  C   UNL     1      99.666 116.292 124.664  1.00  0.00     0.028 C 
BRANCH   6   7
ATOM      7  C   UNL     1     100.255 117.032 123.486  1.00  0.00    -0.028 C 
ATOM      8  C   UNL     1     100.552 116.497 122.279  1.00  0.00    -0.070 CG0
ATOM      9  C   UNL     1     100.925 117.454 121.173  1.00  0.00     0.039 C 
ATOM     10  G   UNL     1     100.455 115.010 121.979  1.00  0.00     0.000 G0
ENDBRANCH   6   7
ENDBRANCH   5   6
ENDBRANCH   3   5
ENDBRANCH   1   3
BRANCH   1  11
ATOM     11  C   UNL     1     100.510 112.908 124.268  1.00  0.00     0.087 C 
BRANCH  11  12
ATOM     12  C   UNL     1     101.732 113.044 123.316  1.00  0.00     0.066 C 
BRANCH  12  13
ATOM     13  C   UNL     1     101.704 114.244 122.369  1.00  0.00     0.140 C 
ATOM     14  O   UNL     1     102.770 114.625 121.906  1.00  0.00    -0.299 OA
BRANCH  13  15
ATOM     15  C   UNL     1     100.452 114.997 121.963  1.00  0.00     0.106 CG0
ATOM     16  G   UNL     1     100.569 116.479 122.279  1.00  0.00     0.000 G0
ENDBRANCH  13  15
ENDBRANCH  12  13
BRANCH  12  17
ATOM     17  C   UNL     1     102.007 111.739 122.502  1.00  0.00    -0.006 C 
ATOM     18  C   UNL     1     103.109 110.870 123.131  1.00  0.00     0.008 C 
ATOM     19  C   UNL     1     100.741 110.899 122.255  1.00  0.00     0.008 C 
ENDBRANCH  12  17
ENDBRANCH  11  12
ENDBRANCH   1  11
TORSDOF 1
ENDMDL
MODEL 8
REMARK VINA RESULT:    -3.885      1.825      4.232
REMARK INTER + INTRA:          -5.646
REMARK INTER:                  -5.996
REMARK INTRA:                   0.350
REMARK UNBOUND:                 0.282
REMARK SMILES CC1=CCC[C@@H](C)C(=O)C[C@@H](C(C)C)C(=O)C1
REMARK SMILES IDX 8 1 9 2 6 3 7 4 5 5 4 6 3 7 2 8 1 9 10 11 11 12 15 13 16 14
REMARK SMILES IDX 17 15 12 17 13 18 14 19
REMARK H PARENT
REMARK Flexibility Score: 70.00
ROOT
ATOM      1  C   UNL     1      99.277 118.500 123.436  1.00  0.00     0.136 C 
ATOM      2  O   UNL     1      98.378 118.526 122.608  1.00  0.00    -0.299 OA
ENDROOT
BRANCH   1   3
ATOM      3  C   UNL     1      99.138 119.345 124.692  1.00  0.00     0.053 C 
ATOM      4  C   UNL     1     100.210 120.442 124.685  1.00  0.00     0.016 C 
BRANCH   3   5
ATOM      5  C   UNL     1      99.214 118.518 126.001  1.00  0.00     0.015 C 
BRANCH   5   6
ATOM      6  C   UNL     1     100.364 117.489 126.083  1.00  0.00     0.028 C 
BRANCH   6   7
ATOM      7  C   UNL     1      99.965 116.041 126.250  1.00  0.00    -0.028 C 
ATOM      8  C   UNL     1     100.487 114.991 125.577  1.00  0.00    -0.070 CG0
ATOM      9  C   UNL     1     100.105 113.608 126.051  1.00  0.00     0.039 C 
ATOM     10  G   UNL     1     101.477 115.141 124.434  1.00  0.00     0.000 G0
ENDBRANCH   6   7
ENDBRANCH   5   6
ENDBRANCH   3   5
ENDBRANCH   1   3
BRANCH   1  11
ATOM     11  C   UNL     1     100.555 117.754 123.116  1.00  0.00     0.087 C 
BRANCH  11  12
ATOM     12  C   UNL     1     100.342 116.422 122.341  1.00  0.00     0.066 C 
BRANCH  12  13
ATOM     13  C   UNL     1     100.796 115.154 123.066  1.00  0.00     0.140 C 
ATOM     14  O   UNL     1     100.583 114.083 122.516  1.00  0.00    -0.299 OA
BRANCH  13  15
ATOM     15  C   UNL     1     101.489 115.128 124.413  1.00  0.00     0.106 CG0
ATOM     16  G   UNL     1     100.488 114.991 125.549  1.00  0.00     0.000 G0
ENDBRANCH  13  15
ENDBRANCH  12  13
BRANCH  12  17
ATOM     17  C   UNL     1     100.959 116.457 120.906  1.00  0.00    -0.006 C 
ATOM     18  C   UNL     1      99.940 116.094 119.814  1.00  0.00     0.008 C 
ATOM     19  C   UNL     1     101.645 117.794 120.573  1.00  0.00     0.008 C 
ENDBRANCH  12  17
ENDBRANCH  11  12
ENDBRANCH   1  11
TORSDOF 1
ENDMDL
MODEL 9
REMARK VINA RESULT:    -3.876      1.804      2.862
REMARK INTER + INTRA:          -5.633
REMARK INTER:                  -5.845
REMARK INTRA:                   0.213
REMARK UNBOUND:                 0.282
REMARK SMILES CC1=CCC[C@@H](C)C(=O)C[C@@H](C(C)C)C(=O)C1
REMARK SMILES IDX 8 1 9 2 6 3 7 4 5 5 4 6 3 7 2 8 1 9 10 11 11 12 15 13 16 14
REMARK SMILES IDX 17 15 12 17 13 18 14 19
REMARK H PARENT
REMARK Flexibility Score: 70.00
ROOT
ATOM      1  C   UNL     1      99.158 117.805 122.491  1.00  0.00     0.136 C 
ATOM      2  O   UNL     1      98.869 118.863 123.030  1.00  0.00    -0.299 OA
ENDROOT
BRANCH   1   3
ATOM      3  C   UNL     1      99.305 117.773 120.978  1.00  0.00     0.053 C 
ATOM      4  C   UNL     1      98.558 116.553 120.423  1.00  0.00     0.016 C 
BRANCH   3   5
ATOM      5  C   UNL     1     100.781 117.769 120.504  1.00  0.00     0.015 C 
BRANCH   5   6
ATOM      6  C   UNL     1     101.179 116.627 119.542  1.00  0.00     0.028 C 
BRANCH   6   7
ATOM      7  C   UNL     1     102.349 115.768 119.959  1.00  0.00    -0.028 C 
ATOM      8  C   UNL     1     102.345 114.848 120.950  1.00  0.00    -0.070 CG0
ATOM      9  C   UNL     1     103.551 113.945 121.059  1.00  0.00     0.039 C 
ATOM     10  G   UNL     1     101.171 114.641 121.893  1.00  0.00     0.000 G0
ENDBRANCH   6   7
ENDBRANCH   5   6
ENDBRANCH   3   5
ENDBRANCH   1   3
BRANCH   1  11
ATOM     11  C   UNL     1      99.211 116.541 123.323  1.00  0.00     0.087 C 
BRANCH  11  12
ATOM     12  C   UNL     1     100.598 116.258 123.968  1.00  0.00     0.066 C 
BRANCH  12  13
ATOM     13  C   UNL     1     101.444 115.189 123.275  1.00  0.00     0.140 C 
ATOM     14  O   UNL     1     102.410 114.750 123.883  1.00  0.00    -0.299 OA
BRANCH  13  15
ATOM     15  C   UNL     1     101.174 114.634 121.891  1.00  0.00     0.106 CG0
ATOM     16  G   UNL     1     102.350 114.875 120.958  1.00  0.00     0.000 G0
ENDBRANCH  13  15
ENDBRANCH  12  13
BRANCH  12  17
ATOM     17  C   UNL     1     100.496 115.939 125.494  1.00  0.00    -0.006 C 
ATOM     18  C   UNL     1     100.115 117.171 126.332  1.00  0.00     0.008 C 
ATOM     19  C   UNL     1      99.550 114.767 125.808  1.00  0.00     0.008 C 
ENDBRANCH  12  17
ENDBRANCH  11  12
ENDBRANCH   1  11
TORSDOF 1
ENDMDL
