MODEL 1
REMARK VINA RESULT:    -1.864      0.000      0.000
REMARK INTER + INTRA:          -4.559
REMARK INTER:                  -3.498
REMARK INTRA:                  -1.061
REMARK UNBOUND:                -1.061
REMARK SMILES O=C([O-])CCCCCCCCCCCCCCC(=O)[O-]
REMARK SMILES IDX 10 1 9 2 8 3 7 4 6 5 5 6 4 7 2 8 1 9 3 10 11 11 12 12 13 13
REMARK SMILES IDX 14 14 15 15 16 16 17 17 18 18 19 19 20 20
REMARK H PARENT
REMARK Flexibility Score: inf
ROOT
ATOM      1  C   UNL     1      -6.882 -21.885  18.342  1.00  0.00     0.000 C 
ENDROOT
BRANCH   1   2
ATOM      2  C   UNL     1      -7.156 -23.124  19.203  1.00  0.00     0.000 C 
BRANCH   2   3
ATOM      3  C   UNL     1      -8.593 -23.114  19.745  1.00  0.00     0.000 C 
BRANCH   3   4
ATOM      4  C   UNL     1      -9.270 -21.736  19.587  1.00  0.00     0.000 C 
BRANCH   4   5
ATOM      5  C   UNL     1     -10.505 -21.541  20.489  1.00  0.00     0.000 C 
BRANCH   5   6
ATOM      6  C   UNL     1     -10.878 -20.076  20.771  1.00  0.00     0.006 C 
BRANCH   6   7
ATOM      7  C   UNL     1      -9.655 -19.196  21.060  1.00  0.00     0.053 C 
BRANCH   7   8
ATOM      8  C   UNL     1      -9.811 -18.501  22.375  1.00  0.00     0.041 C 
ATOM      9  O   UNL     1     -10.864 -18.650  23.050  1.00  0.00    -0.550 OA
ATOM     10  O   UNL     1      -8.776 -17.721  22.875  1.00  0.00    -0.550 OA
ENDBRANCH   7   8
ENDBRANCH   6   7
ENDBRANCH   5   6
ENDBRANCH   4   5
ENDBRANCH   3   4
ENDBRANCH   2   3
ENDBRANCH   1   2
BRANCH   1  11
ATOM     11  C   UNL     1      -5.847 -22.197  17.251  1.00  0.00     0.000 C 
BRANCH  11  12
ATOM     12  C   UNL     1      -6.478 -22.366  15.860  1.00  0.00     0.000 C 
BRANCH  12  13
ATOM     13  C   UNL     1      -7.936 -21.878  15.747  1.00  0.00     0.000 C 
BRANCH  13  14
ATOM     14  C   UNL     1      -8.111 -20.644  14.835  1.00  0.00     0.000 C 
BRANCH  14  15
ATOM     15  C   UNL     1      -9.265 -20.820  13.833  1.00  0.00     0.000 C 
BRANCH  15  16
ATOM     16  C   UNL     1     -10.648 -20.674  14.493  1.00  0.00     0.006 C 
BRANCH  16  17
ATOM     17  C   UNL     1     -10.757 -19.472  15.445  1.00  0.00     0.053 C 
BRANCH  17  18
ATOM     18  C   UNL     1     -11.011 -19.902  16.857  1.00  0.00     0.041 C 
ATOM     19  O   UNL     1     -11.125 -19.045  17.772  1.00  0.00    -0.550 OA
ATOM     20  O   UNL     1     -11.097 -21.253  17.167  1.00  0.00    -0.550 OA
ENDBRANCH  17  18
ENDBRANCH  16  17
ENDBRANCH  15  16
ENDBRANCH  14  15
ENDBRANCH  13  14
ENDBRANCH  12  13
ENDBRANCH  11  12
ENDBRANCH   1  11
TORSDOF 15
ENDMDL
MODEL 2
REMARK VINA RESULT:    -1.847      4.425      5.937
REMARK INTER + INTRA:          -4.528
REMARK INTER:                  -3.813
REMARK INTRA:                  -0.715
REMARK UNBOUND:                -1.061
REMARK SMILES O=C([O-])CCCCCCCCCCCCCCC(=O)[O-]
REMARK SMILES IDX 10 1 9 2 8 3 7 4 6 5 5 6 4 7 2 8 1 9 3 10 11 11 12 12 13 13
REMARK SMILES IDX 14 14 15 15 16 16 17 17 18 18 19 19 20 20
REMARK H PARENT
REMARK Flexibility Score: inf
ROOT
ATOM      1  C   UNL     1      -7.826 -22.073  18.466  1.00  0.00     0.000 C 
ENDROOT
BRANCH   1   2
ATOM      2  C   UNL     1      -8.930 -22.892  19.144  1.00  0.00     0.000 C 
BRANCH   2   3
ATOM      3  C   UNL     1     -10.161 -22.021  19.441  1.00  0.00     0.000 C 
BRANCH   3   4
ATOM      4  C   UNL     1     -10.737 -22.279  20.850  1.00  0.00     0.000 C 
BRANCH   4   5
ATOM      5  C   UNL     1      -9.716 -22.078  21.987  1.00  0.00     0.000 C 
BRANCH   5   6
ATOM      6  C   UNL     1      -9.877 -20.770  22.780  1.00  0.00     0.006 C 
BRANCH   6   7
ATOM      7  C   UNL     1     -10.671 -19.704  22.014  1.00  0.00     0.053 C 
BRANCH   7   8
ATOM      8  C   UNL     1      -9.796 -18.535  21.691  1.00  0.00     0.041 C 
ATOM      9  O   UNL     1      -9.631 -18.177  20.494  1.00  0.00    -0.550 OA
ATOM     10  O   UNL     1      -9.195 -17.814  22.715  1.00  0.00    -0.550 OA
ENDBRANCH   7   8
ENDBRANCH   6   7
ENDBRANCH   5   6
ENDBRANCH   4   5
ENDBRANCH   3   4
ENDBRANCH   2   3
ENDBRANCH   1   2
BRANCH   1  11
ATOM     11  C   UNL     1      -8.036 -22.030  16.945  1.00  0.00     0.000 C 
BRANCH  11  12
ATOM     12  C   UNL     1      -6.786 -22.456  16.157  1.00  0.00     0.000 C 
BRANCH  12  13
ATOM     13  C   UNL     1      -5.612 -22.952  17.024  1.00  0.00     0.000 C 
BRANCH  13  14
ATOM     14  C   UNL     1      -4.263 -22.278  16.689  1.00  0.00     0.000 C 
BRANCH  14  15
ATOM     15  C   UNL     1      -3.429 -23.107  15.697  1.00  0.00     0.000 C 
BRANCH  15  16
ATOM     16  C   UNL     1      -1.922 -23.060  16.007  1.00  0.00     0.006 C 
BRANCH  16  17
ATOM     17  C   UNL     1      -1.363 -21.635  16.146  1.00  0.00     0.053 C 
BRANCH  17  18
ATOM     18  C   UNL     1       0.126 -21.635  16.310  1.00  0.00     0.041 C 
ATOM     19  O   UNL     1       0.677 -20.850  17.126  1.00  0.00    -0.550 OA
ATOM     20  O   UNL     1       0.910 -22.486  15.542  1.00  0.00    -0.550 OA
ENDBRANCH  17  18
ENDBRANCH  16  17
ENDBRANCH  15  16
ENDBRANCH  14  15
ENDBRANCH  13  14
ENDBRANCH  12  13
ENDBRANCH  11  12
ENDBRANCH   1  11
TORSDOF 15
ENDMDL
MODEL 3
REMARK VINA RESULT:    -1.844     10.877     13.228
REMARK INTER + INTRA:          -4.521
REMARK INTER:                  -4.003
REMARK INTRA:                  -0.519
REMARK UNBOUND:                -1.061
REMARK SMILES O=C([O-])CCCCCCCCCCCCCCC(=O)[O-]
REMARK SMILES IDX 10 1 9 2 8 3 7 4 6 5 5 6 4 7 2 8 1 9 3 10 11 11 12 12 13 13
REMARK SMILES IDX 14 14 15 15 16 16 17 17 18 18 19 19 20 20
REMARK H PARENT
REMARK Flexibility Score: inf
ROOT
ATOM      1  C   UNL     1       1.842 -22.678  14.730  1.00  0.00     0.000 C 
ENDROOT
BRANCH   1   2
ATOM      2  C   UNL     1       0.365 -22.975  15.015  1.00  0.00     0.000 C 
BRANCH   2   3
ATOM      3  C   UNL     1      -0.151 -22.136  16.193  1.00  0.00     0.000 C 
BRANCH   3   4
ATOM      4  C   UNL     1      -1.589 -21.624  15.965  1.00  0.00     0.000 C 
BRANCH   4   5
ATOM      5  C   UNL     1      -2.632 -22.747  15.799  1.00  0.00     0.000 C 
BRANCH   5   6
ATOM      6  C   UNL     1      -4.097 -22.293  15.905  1.00  0.00     0.006 C 
BRANCH   6   7
ATOM      7  C   UNL     1      -4.881 -23.059  16.979  1.00  0.00     0.053 C 
BRANCH   7   8
ATOM      8  C   UNL     1      -6.301 -22.590  17.021  1.00  0.00     0.041 C 
ATOM      9  O   UNL     1      -6.932 -22.382  15.952  1.00  0.00    -0.550 OA
ATOM     10  O   UNL     1      -6.940 -22.423  18.243  1.00  0.00    -0.550 OA
ENDBRANCH   7   8
ENDBRANCH   6   7
ENDBRANCH   5   6
ENDBRANCH   4   5
ENDBRANCH   3   4
ENDBRANCH   2   3
ENDBRANCH   1   2
BRANCH   1  11
ATOM     11  C   UNL     1       2.181 -22.960  13.259  1.00  0.00     0.000 C 
BRANCH  11  12
ATOM     12  C   UNL     1       3.691 -23.115  13.013  1.00  0.00     0.000 C 
BRANCH  12  13
ATOM     13  C   UNL     1       4.586 -22.700  14.198  1.00  0.00     0.000 C 
BRANCH  13  14
ATOM     14  C   UNL     1       6.096 -22.895  13.937  1.00  0.00     0.000 C 
BRANCH  14  15
ATOM     15  C   UNL     1       6.608 -22.001  12.795  1.00  0.00     0.000 C 
BRANCH  15  16
ATOM     16  C   UNL     1       8.112 -22.189  12.526  1.00  0.00     0.006 C 
BRANCH  16  17
ATOM     17  C   UNL     1       8.904 -20.872  12.489  1.00  0.00     0.053 C 
BRANCH  17  18
ATOM     18  C   UNL     1       8.264 -19.863  11.585  1.00  0.00     0.041 C 
ATOM     19  O   UNL     1       7.943 -18.728  12.025  1.00  0.00    -0.550 OA
ATOM     20  O   UNL     1       7.999 -20.186  10.260  1.00  0.00    -0.550 OA
ENDBRANCH  17  18
ENDBRANCH  16  17
ENDBRANCH  15  16
ENDBRANCH  14  15
ENDBRANCH  13  14
ENDBRANCH  12  13
ENDBRANCH  11  12
ENDBRANCH   1  11
TORSDOF 15
ENDMDL
MODEL 4
REMARK VINA RESULT:    -1.634     10.404     12.995
REMARK INTER + INTRA:          -4.127
REMARK INTER:                  -3.543
REMARK INTRA:                  -0.585
REMARK UNBOUND:                -1.061
REMARK SMILES O=C([O-])CCCCCCCCCCCCCCC(=O)[O-]
REMARK SMILES IDX 10 1 9 2 8 3 7 4 6 5 5 6 4 7 2 8 1 9 3 10 11 11 12 12 13 13
REMARK SMILES IDX 14 14 15 15 16 16 17 17 18 18 19 19 20 20
REMARK H PARENT
REMARK Flexibility Score: inf
ROOT
ATOM      1  C   UNL     1       2.771 -22.489  14.544  1.00  0.00     0.000 C 
ENDROOT
BRANCH   1   2
ATOM      2  C   UNL     1       3.458 -22.218  15.887  1.00  0.00     0.000 C 
BRANCH   2   3
ATOM      3  C   UNL     1       4.985 -22.173  15.728  1.00  0.00     0.000 C 
BRANCH   3   4
ATOM      4  C   UNL     1       5.692 -21.635  16.990  1.00  0.00     0.000 C 
BRANCH   4   5
ATOM      5  C   UNL     1       7.203 -21.398  16.806  1.00  0.00     0.000 C 
BRANCH   5   6
ATOM      6  C   UNL     1       7.926 -22.454  15.951  1.00  0.00     0.006 C 
BRANCH   6   7
ATOM      7  C   UNL     1       8.989 -21.846  15.028  1.00  0.00     0.053 C 
BRANCH   7   8
ATOM      8  C   UNL     1       8.361 -20.880  14.074  1.00  0.00     0.041 C 
ATOM      9  O   UNL     1       7.510 -21.280  13.236  1.00  0.00    -0.550 OA
ATOM     10  O   UNL     1       8.685 -19.531  14.139  1.00  0.00    -0.550 OA
ENDBRANCH   7   8
ENDBRANCH   6   7
ENDBRANCH   5   6
ENDBRANCH   4   5
ENDBRANCH   3   4
ENDBRANCH   2   3
ENDBRANCH   1   2
BRANCH   1  11
ATOM     11  C   UNL     1       1.389 -23.125  14.757  1.00  0.00     0.000 C 
BRANCH  11  12
ATOM     12  C   UNL     1       0.391 -22.174  15.438  1.00  0.00     0.000 C 
BRANCH  12  13
ATOM     13  C   UNL     1      -0.990 -22.791  15.737  1.00  0.00     0.000 C 
BRANCH  13  14
ATOM     14  C   UNL     1      -2.036 -21.766  16.230  1.00  0.00     0.000 C 
BRANCH  14  15
ATOM     15  C   UNL     1      -3.420 -22.000  15.599  1.00  0.00     0.000 C 
BRANCH  15  16
ATOM     16  C   UNL     1      -4.460 -22.489  16.623  1.00  0.00     0.006 C 
BRANCH  16  17
ATOM     17  C   UNL     1      -5.886 -21.984  16.347  1.00  0.00     0.053 C 
BRANCH  17  18
ATOM     18  C   UNL     1      -6.827 -22.338  17.458  1.00  0.00     0.041 C 
ATOM     19  O   UNL     1      -8.063 -22.139  17.331  1.00  0.00    -0.550 OA
ATOM     20  O   UNL     1      -6.333 -22.865  18.644  1.00  0.00    -0.550 OA
ENDBRANCH  17  18
ENDBRANCH  16  17
ENDBRANCH  15  16
ENDBRANCH  14  15
ENDBRANCH  13  14
ENDBRANCH  12  13
ENDBRANCH  11  12
ENDBRANCH   1  11
TORSDOF 15
ENDMDL
MODEL 5
REMARK VINA RESULT:    -1.579     10.762     13.430
REMARK INTER + INTRA:          -4.024
REMARK INTER:                  -3.411
REMARK INTRA:                  -0.613
REMARK UNBOUND:                -1.061
REMARK SMILES O=C([O-])CCCCCCCCCCCCCCC(=O)[O-]
REMARK SMILES IDX 10 1 9 2 8 3 7 4 6 5 5 6 4 7 2 8 1 9 3 10 11 11 12 12 13 13
REMARK SMILES IDX 14 14 15 15 16 16 17 17 18 18 19 19 20 20
REMARK H PARENT
REMARK Flexibility Score: inf
ROOT
ATOM      1  C   UNL     1       3.178 -23.125  14.999  1.00  0.00     0.000 C 
ENDROOT
BRANCH   1   2
ATOM      2  C   UNL     1       1.792 -22.712  14.488  1.00  0.00     0.000 C 
BRANCH   2   3
ATOM      3  C   UNL     1       0.868 -22.322  15.652  1.00  0.00     0.000 C 
BRANCH   3   4
ATOM      4  C   UNL     1      -0.491 -23.051  15.593  1.00  0.00     0.000 C 
BRANCH   4   5
ATOM      5  C   UNL     1      -1.682 -22.190  16.058  1.00  0.00     0.000 C 
BRANCH   5   6
ATOM      6  C   UNL     1      -3.043 -22.906  16.050  1.00  0.00     0.006 C 
BRANCH   6   7
ATOM      7  C   UNL     1      -4.227 -21.933  15.984  1.00  0.00     0.053 C 
BRANCH   7   8
ATOM      8  C   UNL     1      -5.424 -22.521  16.661  1.00  0.00     0.041 C 
ATOM      9  O   UNL     1      -5.299 -23.125  17.759  1.00  0.00    -0.550 OA
ATOM     10  O   UNL     1      -6.684 -22.368  16.098  1.00  0.00    -0.550 OA
ENDBRANCH   7   8
ENDBRANCH   6   7
ENDBRANCH   5   6
ENDBRANCH   4   5
ENDBRANCH   3   4
ENDBRANCH   2   3
ENDBRANCH   1   2
BRANCH   1  11
ATOM     11  C   UNL     1       3.536 -22.360  16.282  1.00  0.00     0.000 C 
BRANCH  11  12
ATOM     12  C   UNL     1       4.893 -21.642  16.191  1.00  0.00     0.000 C 
BRANCH  12  13
ATOM     13  C   UNL     1       5.728 -21.670  17.486  1.00  0.00     0.000 C 
BRANCH  13  14
ATOM     14  C   UNL     1       7.248 -21.524  17.250  1.00  0.00     0.000 C 
BRANCH  14  15
ATOM     15  C   UNL     1       7.726 -22.326  16.027  1.00  0.00     0.000 C 
BRANCH  15  16
ATOM     16  C   UNL     1       8.125 -21.422  14.847  1.00  0.00     0.006 C 
BRANCH  16  17
ATOM     17  C   UNL     1       8.149 -22.147  13.492  1.00  0.00     0.053 C 
BRANCH  17  18
ATOM     18  C   UNL     1       7.181 -21.543  12.521  1.00  0.00     0.041 C 
ATOM     19  O   UNL     1       7.441 -20.444  11.963  1.00  0.00    -0.550 OA
ATOM     20  O   UNL     1       5.978 -22.182  12.250  1.00  0.00    -0.550 OA
ENDBRANCH  17  18
ENDBRANCH  16  17
ENDBRANCH  15  16
ENDBRANCH  14  15
ENDBRANCH  13  14
ENDBRANCH  12  13
ENDBRANCH  11  12
ENDBRANCH   1  11
TORSDOF 15
ENDMDL
MODEL 6
REMARK VINA RESULT:    -1.387      5.504      7.097
REMARK INTER + INTRA:          -3.664
REMARK INTER:                  -3.019
REMARK INTRA:                  -0.645
REMARK UNBOUND:                -1.061
REMARK SMILES O=C([O-])CCCCCCCCCCCCCCC(=O)[O-]
REMARK SMILES IDX 10 1 9 2 8 3 7 4 6 5 5 6 4 7 2 8 1 9 3 10 11 11 12 12 13 13
REMARK SMILES IDX 14 14 15 15 16 16 17 17 18 18 19 19 20 20
REMARK H PARENT
REMARK Flexibility Score: inf
ROOT
ATOM      1  C   UNL     1      -7.177 -22.625  18.084  1.00  0.00     0.000 C 
ENDROOT
BRANCH   1   2
ATOM      2  C   UNL     1      -8.180 -22.491  16.933  1.00  0.00     0.000 C 
BRANCH   2   3
ATOM      3  C   UNL     1      -9.426 -21.708  17.374  1.00  0.00     0.000 C 
BRANCH   3   4
ATOM      4  C   UNL     1      -9.465 -21.476  18.899  1.00  0.00     0.000 C 
BRANCH   4   5
ATOM      5  C   UNL     1      -9.947 -20.069  19.304  1.00  0.00     0.000 C 
BRANCH   5   6
ATOM      6  C   UNL     1     -11.072 -20.045  20.353  1.00  0.00     0.006 C 
BRANCH   6   7
ATOM      7  C   UNL     1     -10.947 -21.173  21.385  1.00  0.00     0.053 C 
BRANCH   7   8
ATOM      8  C   UNL     1     -10.113 -20.730  22.544  1.00  0.00     0.041 C 
ATOM      9  O   UNL     1      -9.695 -21.571  23.384  1.00  0.00    -0.550 OA
ATOM     10  O   UNL     1      -9.762 -19.393  22.675  1.00  0.00    -0.550 OA
ENDBRANCH   7   8
ENDBRANCH   6   7
ENDBRANCH   5   6
ENDBRANCH   4   5
ENDBRANCH   3   4
ENDBRANCH   2   3
ENDBRANCH   1   2
BRANCH   1  11
ATOM     11  C   UNL     1      -5.779 -22.973  17.552  1.00  0.00     0.000 C 
BRANCH  11  12
ATOM     12  C   UNL     1      -5.128 -21.815  16.779  1.00  0.00     0.000 C 
BRANCH  12  13
ATOM     13  C   UNL     1      -4.148 -22.248  15.670  1.00  0.00     0.000 C 
BRANCH  13  14
ATOM     14  C   UNL     1      -2.850 -22.893  16.202  1.00  0.00     0.000 C 
BRANCH  14  15
ATOM     15  C   UNL     1      -1.622 -21.992  15.989  1.00  0.00     0.000 C 
BRANCH  15  16
ATOM     16  C   UNL     1      -0.318 -22.795  15.837  1.00  0.00     0.006 C 
BRANCH  16  17
ATOM     17  C   UNL     1       0.928 -21.920  15.623  1.00  0.00     0.053 C 
BRANCH  17  18
ATOM     18  C   UNL     1       1.995 -22.647  14.863  1.00  0.00     0.041 C 
ATOM     19  O   UNL     1       1.851 -22.884  13.635  1.00  0.00    -0.550 OA
ATOM     20  O   UNL     1       3.139 -23.084  15.518  1.00  0.00    -0.550 OA
ENDBRANCH  17  18
ENDBRANCH  16  17
ENDBRANCH  15  16
ENDBRANCH  14  15
ENDBRANCH  13  14
ENDBRANCH  12  13
ENDBRANCH  11  12
ENDBRANCH   1  11
TORSDOF 15
ENDMDL
MODEL 7
REMARK VINA RESULT:    -1.373      8.967     11.545
REMARK INTER + INTRA:          -3.638
REMARK INTER:                  -3.330
REMARK INTRA:                  -0.308
REMARK UNBOUND:                -1.061
REMARK SMILES O=C([O-])CCCCCCCCCCCCCCC(=O)[O-]
REMARK SMILES IDX 10 1 9 2 8 3 7 4 6 5 5 6 4 7 2 8 1 9 3 10 11 11 12 12 13 13
REMARK SMILES IDX 14 14 15 15 16 16 17 17 18 18 19 19 20 20
REMARK H PARENT
REMARK Flexibility Score: inf
ROOT
ATOM      1  C   UNL     1      -0.437 -22.561  15.880  1.00  0.00     0.000 C 
ENDROOT
BRANCH   1   2
ATOM      2  C   UNL     1       0.597 -23.125  14.899  1.00  0.00     0.000 C 
BRANCH   2   3
ATOM      3  C   UNL     1       1.978 -22.493  15.128  1.00  0.00     0.000 C 
BRANCH   3   4
ATOM      4  C   UNL     1       2.880 -22.585  13.879  1.00  0.00     0.000 C 
BRANCH   4   5
ATOM      5  C   UNL     1       4.296 -23.120  14.170  1.00  0.00     0.000 C 
BRANCH   5   6
ATOM      6  C   UNL     1       5.402 -22.558  13.262  1.00  0.00     0.006 C 
BRANCH   6   7
ATOM      7  C   UNL     1       6.812 -22.899  13.760  1.00  0.00     0.053 C 
BRANCH   7   8
ATOM      8  C   UNL     1       7.507 -21.665  14.243  1.00  0.00     0.041 C 
ATOM      9  O   UNL     1       8.256 -21.015  13.468  1.00  0.00    -0.550 OA
ATOM     10  O   UNL     1       7.294 -21.211  15.539  1.00  0.00    -0.550 OA
ENDBRANCH   7   8
ENDBRANCH   6   7
ENDBRANCH   5   6
ENDBRANCH   4   5
ENDBRANCH   3   4
ENDBRANCH   2   3
ENDBRANCH   1   2
BRANCH   1  11
ATOM     11  C   UNL     1      -1.849 -23.050  15.525  1.00  0.00     0.000 C 
BRANCH  11  12
ATOM     12  C   UNL     1      -2.942 -22.029  15.879  1.00  0.00     0.000 C 
BRANCH  12  13
ATOM     13  C   UNL     1      -4.077 -22.577  16.768  1.00  0.00     0.000 C 
BRANCH  13  14
ATOM     14  C   UNL     1      -5.487 -22.383  16.167  1.00  0.00     0.000 C 
BRANCH  14  15
ATOM     15  C   UNL     1      -6.595 -22.879  17.112  1.00  0.00     0.000 C 
BRANCH  15  16
ATOM     16  C   UNL     1      -7.653 -21.799  17.400  1.00  0.00     0.006 C 
BRANCH  16  17
ATOM     17  C   UNL     1      -8.693 -22.216  18.453  1.00  0.00     0.053 C 
BRANCH  17  18
ATOM     18  C   UNL     1      -9.834 -21.247  18.522  1.00  0.00     0.041 C 
ATOM     19  O   UNL     1      -9.768 -20.239  19.273  1.00  0.00    -0.550 OA
ATOM     20  O   UNL     1     -10.983 -21.472  17.775  1.00  0.00    -0.550 OA
ENDBRANCH  17  18
ENDBRANCH  16  17
ENDBRANCH  15  16
ENDBRANCH  14  15
ENDBRANCH  13  14
ENDBRANCH  12  13
ENDBRANCH  11  12
ENDBRANCH   1  11
TORSDOF 15
ENDMDL
MODEL 8
REMARK VINA RESULT:    -1.267     10.191     12.944
REMARK INTER + INTRA:          -3.438
REMARK INTER:                  -2.899
REMARK INTRA:                  -0.539
REMARK UNBOUND:                -1.061
REMARK SMILES O=C([O-])CCCCCCCCCCCCCCC(=O)[O-]
REMARK SMILES IDX 10 1 9 2 8 3 7 4 6 5 5 6 4 7 2 8 1 9 3 10 11 11 12 12 13 13
REMARK SMILES IDX 14 14 15 15 16 16 17 17 18 18 19 19 20 20
REMARK H PARENT
REMARK Flexibility Score: inf
ROOT
ATOM      1  C   UNL     1       1.309 -23.124  13.903  1.00  0.00     0.000 C 
ENDROOT
BRANCH   1   2
ATOM      2  C   UNL     1       2.784 -22.753  13.711  1.00  0.00     0.000 C 
BRANCH   2   3
ATOM      3  C   UNL     1       3.532 -22.751  15.053  1.00  0.00     0.000 C 
BRANCH   3   4
ATOM      4  C   UNL     1       5.060 -22.627  14.873  1.00  0.00     0.000 C 
BRANCH   4   5
ATOM      5  C   UNL     1       5.502 -22.427  13.410  1.00  0.00     0.000 C 
BRANCH   5   6
ATOM      6  C   UNL     1       7.012 -22.580  13.160  1.00  0.00     0.006 C 
BRANCH   6   7
ATOM      7  C   UNL     1       7.775 -21.257  13.300  1.00  0.00     0.053 C 
BRANCH   7   8
ATOM      8  C   UNL     1       8.014 -20.649  11.955  1.00  0.00     0.041 C 
ATOM      9  O   UNL     1       7.786 -19.425  11.762  1.00  0.00    -0.550 OA
ATOM     10  O   UNL     1       8.528 -21.425  10.924  1.00  0.00    -0.550 OA
ENDBRANCH   7   8
ENDBRANCH   6   7
ENDBRANCH   5   6
ENDBRANCH   4   5
ENDBRANCH   3   4
ENDBRANCH   2   3
ENDBRANCH   1   2
BRANCH   1  11
ATOM     11  C   UNL     1       0.798 -22.642  15.269  1.00  0.00     0.000 C 
BRANCH  11  12
ATOM     12  C   UNL     1      -0.643 -23.089  15.560  1.00  0.00     0.000 C 
BRANCH  12  13
ATOM     13  C   UNL     1      -1.532 -22.017  16.222  1.00  0.00     0.000 C 
BRANCH  13  14
ATOM     14  C   UNL     1      -2.926 -21.875  15.571  1.00  0.00     0.000 C 
BRANCH  14  15
ATOM     15  C   UNL     1      -3.981 -22.759  16.258  1.00  0.00     0.000 C 
BRANCH  15  16
ATOM     16  C   UNL     1      -5.255 -21.979  16.630  1.00  0.00     0.006 C 
BRANCH  16  17
ATOM     17  C   UNL     1      -6.539 -22.821  16.562  1.00  0.00     0.053 C 
BRANCH  17  18
ATOM     18  C   UNL     1      -7.463 -22.520  17.702  1.00  0.00     0.041 C 
ATOM     19  O   UNL     1      -7.077 -22.672  18.891  1.00  0.00    -0.550 OA
ATOM     20  O   UNL     1      -8.761 -22.095  17.451  1.00  0.00    -0.550 OA
ENDBRANCH  17  18
ENDBRANCH  16  17
ENDBRANCH  15  16
ENDBRANCH  14  15
ENDBRANCH  13  14
ENDBRANCH  12  13
ENDBRANCH  11  12
ENDBRANCH   1  11
TORSDOF 15
ENDMDL
