MODEL 1
REMARK VINA RESULT:    12.299      0.000      0.000
REMARK INTER + INTRA:          12.850
REMARK INTER:                  13.018
REMARK INTRA:                  -0.168
REMARK UNBOUND:                -0.168
REMARK SMILES C=C(C)[C@@H]1CC=C(C)CC1
REMARK SMILES IDX 8 1 7 2 6 3 5 4 4 5 10 6 9 7 2 8 1 9 3 10
REMARK H PARENT
REMARK Flexibility Score: inf
ROOT
ATOM      1  C   UNL     1      10.007  68.174   1.572  1.00  0.00     0.039 C 
ATOM      2  C   UNL     1      10.045  69.144   2.720  1.00  0.00    -0.077 C 
ATOM      3  C   UNL     1      11.018  69.059   3.643  1.00  0.00    -0.027 C 
ATOM      4  C   UNL     1      11.012  70.007   4.810  1.00  0.00     0.035 C 
ATOM      5  C   UNL     1       9.591  70.105   5.418  1.00  0.00     0.018 C 
ATOM      6  C   UNL     1       8.458  70.206   4.344  1.00  0.00     0.013 C 
ATOM      7  C   UNL     1       8.976  70.197   2.894  1.00  0.00     0.031 C 
ENDROOT
BRANCH   5   8
ATOM      8  C   UNL     1       9.521  71.251   6.416  1.00  0.00    -0.077 C 
ATOM      9  C   UNL     1       9.435  72.521   5.989  1.00  0.00     0.008 C 
ATOM     10  C   UNL     1       9.518  70.982   7.900  1.00  0.00     0.039 C 
ENDBRANCH   5   8
TORSDOF 1
ENDMDL
MODEL 2
REMARK VINA RESULT:    12.769      0.898      4.532
REMARK INTER + INTRA:          13.347
REMARK INTER:                  13.513
REMARK INTRA:                  -0.166
REMARK UNBOUND:                -0.168
REMARK SMILES C=C(C)[C@@H]1CC=C(C)CC1
REMARK SMILES IDX 8 1 7 2 6 3 5 4 4 5 10 6 9 7 2 8 1 9 3 10
REMARK H PARENT
REMARK Flexibility Score: inf
ROOT
ATOM      1  C   UNL     1       9.998  71.169   7.601  1.00  0.00     0.039 C 
ATOM      2  C   UNL     1       9.883  70.880   6.130  1.00  0.00    -0.077 C 
ATOM      3  C   UNL     1       8.682  70.633   5.582  1.00  0.00    -0.027 C 
ATOM      4  C   UNL     1       8.593  70.298   4.119  1.00  0.00     0.035 C 
ATOM      5  C   UNL     1       9.671  69.254   3.738  1.00  0.00     0.018 C 
ATOM      6  C   UNL     1      11.072  69.543   4.373  1.00  0.00     0.013 C 
ATOM      7  C   UNL     1      11.107  70.812   5.246  1.00  0.00     0.031 C 
ENDROOT
BRANCH   5   8
ATOM      8  C   UNL     1       9.761  69.114   2.225  1.00  0.00    -0.077 C 
ATOM      9  C   UNL     1      10.039  67.925   1.667  1.00  0.00     0.008 C 
ATOM     10  C   UNL     1       9.512  70.299   1.325  1.00  0.00     0.039 C 
ENDBRANCH   5   8
TORSDOF 1
ENDMDL
MODEL 3
REMARK VINA RESULT:    13.553      0.997      4.323
REMARK INTER + INTRA:          14.177
REMARK INTER:                  14.350
REMARK INTRA:                  -0.173
REMARK UNBOUND:                -0.168
REMARK SMILES C=C(C)[C@@H]1CC=C(C)CC1
REMARK SMILES IDX 8 1 7 2 6 3 5 4 4 5 10 6 9 7 2 8 1 9 3 10
REMARK H PARENT
REMARK Flexibility Score: inf
ROOT
ATOM      1  C   UNL     1       9.581  71.050   7.489  1.00  0.00     0.039 C 
ATOM      2  C   UNL     1       9.703  70.396   6.141  1.00  0.00    -0.077 C 
ATOM      3  C   UNL     1      10.882  70.391   5.497  1.00  0.00    -0.027 C 
ATOM      4  C   UNL     1      10.972  69.775   4.128  1.00  0.00     0.035 C 
ATOM      5  C   UNL     1       9.790  70.244   3.246  1.00  0.00     0.018 C 
ATOM      6  C   UNL     1       8.416  70.247   3.995  1.00  0.00     0.013 C 
ATOM      7  C   UNL     1       8.506  69.776   5.458  1.00  0.00     0.031 C 
ENDROOT
BRANCH   5   8
ATOM      8  C   UNL     1       9.728  69.424   1.965  1.00  0.00    -0.077 C 
ATOM      9  C   UNL     1       9.895  68.093   2.001  1.00  0.00     0.008 C 
ATOM     10  C   UNL     1       9.449  70.087   0.639  1.00  0.00     0.039 C 
ENDBRANCH   5   8
TORSDOF 1
ENDMDL
MODEL 4
REMARK VINA RESULT:    14.515      6.221      6.649
REMARK INTER + INTRA:          15.195
REMARK INTER:                  15.359
REMARK INTRA:                  -0.163
REMARK UNBOUND:                -0.168
REMARK SMILES C=C(C)[C@@H]1CC=C(C)CC1
REMARK SMILES IDX 8 1 7 2 6 3 5 4 4 5 10 6 9 7 2 8 1 9 3 10
REMARK H PARENT
REMARK Flexibility Score: inf
ROOT
ATOM      1  C   UNL     1      11.134  74.362  -1.398  1.00  0.00     0.039 C 
ATOM      2  C   UNL     1      10.937  74.795   0.028  1.00  0.00    -0.077 C 
ATOM      3  C   UNL     1       9.697  74.941   0.525  1.00  0.00    -0.027 C 
ATOM      4  C   UNL     1       9.520  75.422   1.939  1.00  0.00     0.035 C 
ATOM      5  C   UNL     1      10.442  76.635   2.215  1.00  0.00     0.018 C 
ATOM      6  C   UNL     1      11.886  76.465   1.639  1.00  0.00     0.013 C 
ATOM      7  C   UNL     1      12.113  75.123   0.918  1.00  0.00     0.031 C 
ENDROOT
BRANCH   5   8
ATOM      8  C   UNL     1      10.466  76.953   3.703  1.00  0.00    -0.077 C 
ATOM      9  C   UNL     1       9.324  77.203   4.363  1.00  0.00     0.008 C 
ATOM     10  C   UNL     1      11.765  76.965   4.468  1.00  0.00     0.039 C 
ENDBRANCH   5   8
TORSDOF 1
ENDMDL
