MODEL 1
REMARK VINA RESULT:    -3.845      0.000      0.000
REMARK INTER + INTRA:          -5.265
REMARK INTER:                  -4.744
REMARK INTRA:                  -0.521
REMARK UNBOUND:                -0.521
REMARK SMILES C=CC(=C)CCC=C(C)C
REMARK SMILES IDX 5 1 6 2 7 3 9 4 8 5 10 6 3 7 4 8 2 9 1 10
REMARK H PARENT
REMARK Flexibility Score: inf
ROOT
ATOM      1  C   UNL     1     137.042 155.118 162.354  1.00  0.00     0.039 C 
ENDROOT
BRANCH   1   2
ATOM      2  C   UNL     1     138.574 155.125 162.405  1.00  0.00     0.032 C 
BRANCH   2   3
ATOM      3  C   UNL     1     139.155 155.085 161.014  1.00  0.00    -0.028 C 
ATOM      4  C   UNL     1     139.055 152.586 160.870  1.00  0.00     0.039 C 
ATOM      5  C   UNL     1     139.400 153.950 160.321  1.00  0.00    -0.080 C 
ATOM      6  C   UNL     1     140.022 154.065 158.953  1.00  0.00     0.039 C 
ENDBRANCH   2   3
ENDBRANCH   1   2
BRANCH   1   7
ATOM      7  C   UNL     1     136.489 153.872 163.010  1.00  0.00    -0.055 C 
ATOM      8  C   UNL     1     135.223 153.517 162.766  1.00  0.00     0.012 C 
BRANCH   7   9
ATOM      9  C   UNL     1     137.289 153.051 163.957  1.00  0.00    -0.005 C 
ATOM     10  C   UNL     1     136.991 151.794 164.289  1.00  0.00     0.009 C 
ENDBRANCH   7   9
ENDBRANCH   1   7
TORSDOF 4
ENDMDL
MODEL 2
REMARK VINA RESULT:    -3.827     16.393     17.911
REMARK INTER + INTRA:          -5.243
REMARK INTER:                  -5.045
REMARK INTRA:                  -0.199
REMARK UNBOUND:                -0.521
REMARK SMILES C=CC(=C)CCC=C(C)C
REMARK SMILES IDX 5 1 6 2 7 3 9 4 8 5 10 6 3 7 4 8 2 9 1 10
REMARK H PARENT
REMARK Flexibility Score: inf
ROOT
ATOM      1  C   UNL     1     136.827 137.240 163.434  1.00  0.00     0.039 C 
ENDROOT
BRANCH   1   2
ATOM      2  C   UNL     1     137.759 137.604 162.274  1.00  0.00     0.032 C 
BRANCH   2   3
ATOM      3  C   UNL     1     139.017 136.773 162.318  1.00  0.00    -0.028 C 
ATOM      4  C   UNL     1     138.145 135.077 160.694  1.00  0.00     0.039 C 
ATOM      5  C   UNL     1     139.195 135.620 161.633  1.00  0.00    -0.080 C 
ATOM      6  C   UNL     1     140.493 134.876 161.808  1.00  0.00     0.039 C 
ENDBRANCH   2   3
ENDBRANCH   1   2
BRANCH   1   7
ATOM      7  C   UNL     1     135.769 136.257 162.985  1.00  0.00    -0.055 C 
ATOM      8  C   UNL     1     135.449 135.236 163.787  1.00  0.00     0.012 C 
BRANCH   7   9
ATOM      9  C   UNL     1     135.102 136.358 161.661  1.00  0.00    -0.005 C 
ATOM     10  C   UNL     1     135.055 135.365 160.772  1.00  0.00     0.009 C 
ENDBRANCH   7   9
ENDBRANCH   1   7
TORSDOF 4
ENDMDL
MODEL 3
REMARK VINA RESULT:    -3.795     21.374     23.124
REMARK INTER + INTRA:          -5.204
REMARK INTER:                  -4.727
REMARK INTRA:                  -0.477
REMARK UNBOUND:                -0.521
REMARK SMILES C=CC(=C)CCC=C(C)C
REMARK SMILES IDX 5 1 6 2 7 3 9 4 8 5 10 6 3 7 4 8 2 9 1 10
REMARK H PARENT
REMARK Flexibility Score: inf
ROOT
ATOM      1  C   UNL     1     153.489 134.891 162.037  1.00  0.00     0.039 C 
ENDROOT
BRANCH   1   2
ATOM      2  C   UNL     1     154.000 135.590 163.301  1.00  0.00     0.032 C 
BRANCH   2   3
ATOM      3  C   UNL     1     154.697 136.882 162.953  1.00  0.00    -0.028 C 
ATOM      4  C   UNL     1     153.255 138.256 164.472  1.00  0.00     0.039 C 
ATOM      5  C   UNL     1     154.356 138.092 163.452  1.00  0.00    -0.080 C 
ATOM      6  C   UNL     1     155.119 139.302 162.980  1.00  0.00     0.039 C 
ENDBRANCH   2   3
ENDBRANCH   1   2
BRANCH   1   7
ATOM      7  C   UNL     1     152.184 135.499 161.576  1.00  0.00    -0.055 C 
ATOM      8  C   UNL     1     151.037 134.876 161.869  1.00  0.00     0.012 C 
BRANCH   7   9
ATOM      9  C   UNL     1     152.130 136.745 160.767  1.00  0.00    -0.005 C 
ATOM     10  C   UNL     1     151.001 137.285 160.303  1.00  0.00     0.009 C 
ENDBRANCH   7   9
ENDBRANCH   1   7
TORSDOF 4
ENDMDL
MODEL 4
REMARK VINA RESULT:    -3.766     16.401     17.873
REMARK INTER + INTRA:          -5.167
REMARK INTER:                  -4.776
REMARK INTRA:                  -0.391
REMARK UNBOUND:                -0.521
REMARK SMILES C=CC(=C)CCC=C(C)C
REMARK SMILES IDX 5 1 6 2 7 3 9 4 8 5 10 6 3 7 4 8 2 9 1 10
REMARK H PARENT
REMARK Flexibility Score: inf
ROOT
ATOM      1  C   UNL     1     136.571 135.584 163.461  1.00  0.00     0.039 C 
ENDROOT
BRANCH   1   2
ATOM      2  C   UNL     1     135.186 136.231 163.347  1.00  0.00     0.032 C 
BRANCH   2   3
ATOM      3  C   UNL     1     135.049 136.973 162.041  1.00  0.00    -0.028 C 
ATOM      4  C   UNL     1     134.955 134.875 160.674  1.00  0.00     0.039 C 
ATOM      5  C   UNL     1     134.969 136.377 160.829  1.00  0.00    -0.080 C 
ATOM      6  C   UNL     1     134.875 137.252 159.605  1.00  0.00     0.039 C 
ENDBRANCH   2   3
ENDBRANCH   1   2
BRANCH   1   7
ATOM      7  C   UNL     1     137.658 136.580 163.122  1.00  0.00    -0.055 C 
ATOM      8  C   UNL     1     137.762 137.700 163.846  1.00  0.00     0.012 C 
BRANCH   7   9
ATOM      9  C   UNL     1     138.588 136.381 161.980  1.00  0.00    -0.005 C 
ATOM     10  C   UNL     1     138.663 135.257 161.266  1.00  0.00     0.009 C 
ENDBRANCH   7   9
ENDBRANCH   1   7
TORSDOF 4
ENDMDL
MODEL 5
REMARK VINA RESULT:    -3.741     21.477     22.709
REMARK INTER + INTRA:          -5.137
REMARK INTER:                  -5.066
REMARK INTRA:                  -0.070
REMARK UNBOUND:                -0.521
REMARK SMILES C=CC(=C)CCC=C(C)C
REMARK SMILES IDX 5 1 6 2 7 3 9 4 8 5 10 6 3 7 4 8 2 9 1 10
REMARK H PARENT
REMARK Flexibility Score: inf
ROOT
ATOM      1  C   UNL     1     153.316 136.573 161.353  1.00  0.00     0.039 C 
ENDROOT
BRANCH   1   2
ATOM      2  C   UNL     1     153.632 136.065 162.764  1.00  0.00     0.032 C 
BRANCH   2   3
ATOM      3  C   UNL     1     153.323 137.123 163.794  1.00  0.00    -0.028 C 
ATOM      4  C   UNL     1     155.125 138.664 162.985  1.00  0.00     0.039 C 
ATOM      5  C   UNL     1     154.002 138.286 163.922  1.00  0.00    -0.080 C 
ATOM      6  C   UNL     1     153.605 139.230 165.026  1.00  0.00     0.039 C 
ENDBRANCH   2   3
ENDBRANCH   1   2
BRANCH   1   7
ATOM      7  C   UNL     1     151.898 136.222 160.960  1.00  0.00    -0.055 C 
ATOM      8  C   UNL     1     151.383 135.055 161.363  1.00  0.00     0.012 C 
BRANCH   7   9
ATOM      9  C   UNL     1     151.070 137.107 160.101  1.00  0.00    -0.005 C 
ATOM     10  C   UNL     1     150.599 136.755 158.903  1.00  0.00     0.009 C 
ENDBRANCH   7   9
ENDBRANCH   1   7
TORSDOF 4
ENDMDL
MODEL 6
REMARK VINA RESULT:    -3.735     21.084     22.874
REMARK INTER + INTRA:          -5.129
REMARK INTER:                  -4.494
REMARK INTRA:                  -0.635
REMARK UNBOUND:                -0.521
REMARK SMILES C=CC(=C)CCC=C(C)C
REMARK SMILES IDX 5 1 6 2 7 3 9 4 8 5 10 6 3 7 4 8 2 9 1 10
REMARK H PARENT
REMARK Flexibility Score: inf
ROOT
ATOM      1  C   UNL     1     153.297 135.118 162.545  1.00  0.00     0.039 C 
ENDROOT
BRANCH   1   2
ATOM      2  C   UNL     1     151.801 135.253 162.241  1.00  0.00     0.032 C 
BRANCH   2   3
ATOM      3  C   UNL     1     151.572 135.441 160.762  1.00  0.00    -0.028 C 
ATOM      4  C   UNL     1     151.133 137.898 160.979  1.00  0.00     0.039 C 
ATOM      5  C   UNL     1     151.246 136.619 160.183  1.00  0.00    -0.080 C 
ATOM      6  C   UNL     1     151.007 136.645 158.696  1.00  0.00     0.039 C 
ENDBRANCH   2   3
ENDBRANCH   1   2
BRANCH   1   7
ATOM      7  C   UNL     1     153.899 136.461 162.892  1.00  0.00    -0.055 C 
ATOM      8  C   UNL     1     155.106 136.777 162.409  1.00  0.00     0.012 C 
BRANCH   7   9
ATOM      9  C   UNL     1     153.216 137.428 163.791  1.00  0.00    -0.005 C 
ATOM     10  C   UNL     1     153.681 138.648 164.065  1.00  0.00     0.009 C 
ENDBRANCH   7   9
ENDBRANCH   1   7
TORSDOF 4
ENDMDL
MODEL 7
REMARK VINA RESULT:    -3.717     21.141     22.719
REMARK INTER + INTRA:          -5.107
REMARK INTER:                  -4.937
REMARK INTRA:                  -0.170
REMARK UNBOUND:                -0.521
REMARK SMILES C=CC(=C)CCC=C(C)C
REMARK SMILES IDX 5 1 6 2 7 3 9 4 8 5 10 6 3 7 4 8 2 9 1 10
REMARK H PARENT
REMARK Flexibility Score: inf
ROOT
ATOM      1  C   UNL     1     154.577 136.638 163.391  1.00  0.00     0.039 C 
ENDROOT
BRANCH   1   2
ATOM      2  C   UNL     1     153.202 135.979 163.235  1.00  0.00     0.032 C 
BRANCH   2   3
ATOM      3  C   UNL     1     152.306 136.813 162.355  1.00  0.00    -0.028 C 
ATOM      4  C   UNL     1     151.699 134.887 160.874  1.00  0.00     0.039 C 
ATOM      5  C   UNL     1     151.644 136.342 161.274  1.00  0.00    -0.080 C 
ATOM      6  C   UNL     1     150.815 137.305 160.464  1.00  0.00     0.039 C 
ENDBRANCH   2   3
ENDBRANCH   1   2
BRANCH   1   7
ATOM      7  C   UNL     1     154.437 138.125 163.629  1.00  0.00    -0.055 C 
ATOM      8  C   UNL     1     155.122 138.974 162.856  1.00  0.00     0.012 C 
BRANCH   7   9
ATOM      9  C   UNL     1     153.599 138.677 164.725  1.00  0.00    -0.005 C 
ATOM     10  C   UNL     1     153.975 139.682 165.517  1.00  0.00     0.009 C 
ENDBRANCH   7   9
ENDBRANCH   1   7
TORSDOF 4
ENDMDL
MODEL 8
REMARK VINA RESULT:    -3.272      0.562      4.538
REMARK INTER + INTRA:          -4.559
REMARK INTER:                  -4.557
REMARK INTRA:                  -0.002
REMARK UNBOUND:                -0.521
REMARK SMILES C=CC(=C)CCC=C(C)C
REMARK SMILES IDX 5 1 6 2 7 3 9 4 8 5 10 6 3 7 4 8 2 9 1 10
REMARK H PARENT
REMARK Flexibility Score: inf
ROOT
ATOM      1  C   UNL     1     139.051 155.085 161.246  1.00  0.00     0.039 C 
ENDROOT
BRANCH   1   2
ATOM      2  C   UNL     1     138.510 154.625 162.604  1.00  0.00     0.032 C 
BRANCH   2   3
ATOM      3  C   UNL     1     137.018 154.414 162.541  1.00  0.00    -0.028 C 
ATOM      4  C   UNL     1     137.090 152.348 163.957  1.00  0.00     0.039 C 
ATOM      5  C   UNL     1     136.368 153.380 163.123  1.00  0.00    -0.080 C 
ATOM      6  C   UNL     1     134.876 153.277 162.941  1.00  0.00     0.039 C 
ENDBRANCH   2   3
ENDBRANCH   1   2
BRANCH   1   7
ATOM      7  C   UNL     1     139.349 153.899 160.357  1.00  0.00    -0.055 C 
ATOM      8  C   UNL     1     138.866 152.698 160.693  1.00  0.00     0.012 C 
BRANCH   7   9
ATOM      9  C   UNL     1     140.200 154.010 159.144  1.00  0.00    -0.005 C 
ATOM     10  C   UNL     1     139.728 153.985 157.896  1.00  0.00     0.009 C 
ENDBRANCH   7   9
ENDBRANCH   1   7
TORSDOF 4
ENDMDL
MODEL 9
REMARK VINA RESULT:    -3.139     16.180     17.933
REMARK INTER + INTRA:          -4.395
REMARK INTER:                  -3.962
REMARK INTRA:                  -0.432
REMARK UNBOUND:                -0.521
REMARK SMILES C=CC(=C)CCC=C(C)C
REMARK SMILES IDX 5 1 6 2 7 3 9 4 8 5 10 6 3 7 4 8 2 9 1 10
REMARK H PARENT
REMARK Flexibility Score: inf
ROOT
ATOM      1  C   UNL     1     137.205 134.875 161.373  1.00  0.00     0.039 C 
ENDROOT
BRANCH   1   2
ATOM      2  C   UNL     1     138.165 136.070 161.391  1.00  0.00     0.032 C 
BRANCH   2   3
ATOM      3  C   UNL     1     138.808 136.218 162.747  1.00  0.00    -0.028 C 
ATOM      4  C   UNL     1     137.136 137.910 163.532  1.00  0.00     0.039 C 
ATOM      5  C   UNL     1     138.371 137.061 163.711  1.00  0.00    -0.080 C 
ATOM      6  C   UNL     1     139.141 137.131 165.005  1.00  0.00     0.039 C 
ENDBRANCH   2   3
ENDBRANCH   1   2
BRANCH   1   7
ATOM      7  C   UNL     1     135.776 135.332 161.563  1.00  0.00    -0.055 C 
ATOM      8  C   UNL     1     135.228 135.263 162.781  1.00  0.00     0.012 C 
BRANCH   7   9
ATOM      9  C   UNL     1     134.940 135.813 160.432  1.00  0.00    -0.005 C 
ATOM     10  C   UNL     1     134.900 137.082 160.021  1.00  0.00     0.009 C 
ENDBRANCH   7   9
ENDBRANCH   1   7
TORSDOF 4
ENDMDL
