MODEL 1
REMARK VINA RESULT:    -4.107      0.000      0.000
REMARK INTER + INTRA:          -9.147
REMARK INTER:                  -7.469
REMARK INTRA:                  -1.678
REMARK UNBOUND:                -1.678
REMARK SMILES CCCCCCCCCCCCCC[C@H](C)C(=O)[O-]
REMARK SMILES IDX 9 1 10 2 11 3 12 4 13 5 14 6 15 7 16 8 17 9 18 10 19 11 8 12
REMARK SMILES IDX 7 13 6 14 5 15 4 16 3 17 2 18 1 19
REMARK H PARENT
REMARK Flexibility Score: inf
ROOT
ATOM      1  C   UNL     1      33.511  18.075 -18.667  1.00  0.00     0.000 C 
ENDROOT
BRANCH   1   2
ATOM      2  C   UNL     1      32.937  17.269 -19.844  1.00  0.00     0.000 C 
BRANCH   2   3
ATOM      3  C   UNL     1      31.412  17.422 -19.978  1.00  0.00     0.000 C 
BRANCH   3   4
ATOM      4  C   UNL     1      30.711  17.596 -18.623  1.00  0.00     0.000 C 
BRANCH   4   5
ATOM      5  C   UNL     1      29.197  17.368 -18.753  1.00  0.00     0.001 C 
BRANCH   5   6
ATOM      6  C   UNL     1      28.416  17.915 -17.539  1.00  0.00     0.009 C 
BRANCH   6   7
ATOM      7  C   UNL     1      26.924  18.192 -17.836  1.00  0.00     0.032 C 
ATOM      8  C   UNL     1      26.478  17.619 -19.187  1.00  0.00     0.014 C 
BRANCH   7   9
ATOM      9  C   UNL     1      26.667  19.673 -17.807  1.00  0.00     0.044 C 
ATOM     10  O   UNL     1      27.053  20.402 -18.758  1.00  0.00    -0.550 OA
ATOM     11  O   UNL     1      26.003  20.249 -16.729  1.00  0.00    -0.550 OA
ENDBRANCH   7   9
ENDBRANCH   6   7
ENDBRANCH   5   6
ENDBRANCH   4   5
ENDBRANCH   3   4
ENDBRANCH   2   3
ENDBRANCH   1   2
BRANCH   1  12
ATOM     12  C   UNL     1      34.593  17.302 -17.894  1.00  0.00     0.000 C 
BRANCH  12  13
ATOM     13  C   UNL     1      34.482  15.780 -18.090  1.00  0.00    -0.000 C 
BRANCH  13  14
ATOM     14  C   UNL     1      34.559  14.998 -16.766  1.00  0.00    -0.000 C 
BRANCH  14  15
ATOM     15  C   UNL     1      33.232  14.369 -16.301  1.00  0.00    -0.000 C 
BRANCH  15  16
ATOM     16  C   UNL     1      32.250  14.116 -17.453  1.00  0.00    -0.000 C 
BRANCH  16  17
ATOM     17  C   UNL     1      30.800  14.339 -16.999  1.00  0.00    -0.000 C 
BRANCH  17  18
ATOM     18  C   UNL     1      30.669  14.432 -15.471  1.00  0.00    -0.003 C 
ATOM     19  C   UNL     1      29.870  13.273 -14.874  1.00  0.00     0.004 C 
ENDBRANCH  17  18
ENDBRANCH  16  17
ENDBRANCH  15  16
ENDBRANCH  14  15
ENDBRANCH  13  14
ENDBRANCH  12  13
ENDBRANCH   1  12
TORSDOF 14
ENDMDL
MODEL 2
REMARK VINA RESULT:    -4.057      1.467      3.902
REMARK INTER + INTRA:          -9.056
REMARK INTER:                  -7.224
REMARK INTRA:                  -1.832
REMARK UNBOUND:                -1.678
REMARK SMILES CCCCCCCCCCCCCC[C@H](C)C(=O)[O-]
REMARK SMILES IDX 9 1 10 2 11 3 12 4 13 5 14 6 15 7 16 8 17 9 18 10 19 11 8 12
REMARK SMILES IDX 7 13 6 14 5 15 4 16 3 17 2 18 1 19
REMARK H PARENT
REMARK Flexibility Score: inf
ROOT
ATOM      1  C   UNL     1      29.776  15.117 -15.815  1.00  0.00     0.000 C 
ENDROOT
BRANCH   1   2
ATOM      2  C   UNL     1      28.628  15.008 -16.833  1.00  0.00     0.000 C 
BRANCH   2   3
ATOM      3  C   UNL     1      29.081  15.319 -18.270  1.00  0.00     0.000 C 
BRANCH   3   4
ATOM      4  C   UNL     1      30.336  16.204 -18.320  1.00  0.00     0.000 C 
BRANCH   4   5
ATOM      5  C   UNL     1      29.969  17.662 -18.637  1.00  0.00     0.001 C 
BRANCH   5   6
ATOM      6  C   UNL     1      28.578  17.786 -19.295  1.00  0.00     0.009 C 
BRANCH   6   7
ATOM      7  C   UNL     1      27.591  18.667 -18.496  1.00  0.00     0.032 C 
ATOM      8  C   UNL     1      28.023  18.858 -17.037  1.00  0.00     0.014 C 
BRANCH   7   9
ATOM      9  C   UNL     1      26.217  18.058 -18.539  1.00  0.00     0.044 C 
ATOM     10  O   UNL     1      25.940  17.067 -17.813  1.00  0.00    -0.550 OA
ATOM     11  O   UNL     1      25.242  18.583 -19.380  1.00  0.00    -0.550 OA
ENDBRANCH   7   9
ENDBRANCH   6   7
ENDBRANCH   5   6
ENDBRANCH   4   5
ENDBRANCH   3   4
ENDBRANCH   2   3
ENDBRANCH   1   2
BRANCH   1  12
ATOM     12  C   UNL     1      30.116  13.767 -15.162  1.00  0.00     0.000 C 
BRANCH  12  13
ATOM     13  C   UNL     1      31.277  13.046 -15.869  1.00  0.00    -0.000 C 
BRANCH  13  14
ATOM     14  C   UNL     1      32.296  14.019 -16.491  1.00  0.00    -0.000 C 
BRANCH  14  15
ATOM     15  C   UNL     1      33.769  13.735 -16.142  1.00  0.00    -0.000 C 
BRANCH  15  16
ATOM     16  C   UNL     1      34.712  14.882 -16.534  1.00  0.00    -0.000 C 
BRANCH  16  17
ATOM     17  C   UNL     1      34.167  15.650 -17.747  1.00  0.00    -0.000 C 
BRANCH  17  18
ATOM     18  C   UNL     1      34.702  17.088 -17.824  1.00  0.00    -0.003 C 
ATOM     19  C   UNL     1      33.724  18.048 -18.501  1.00  0.00     0.004 C 
ENDBRANCH  17  18
ENDBRANCH  16  17
ENDBRANCH  15  16
ENDBRANCH  14  15
ENDBRANCH  13  14
ENDBRANCH  12  13
ENDBRANCH   1  12
TORSDOF 14
ENDMDL
MODEL 3
REMARK VINA RESULT:    -4.028      2.500      5.506
REMARK INTER + INTRA:          -9.003
REMARK INTER:                  -7.506
REMARK INTRA:                  -1.497
REMARK UNBOUND:                -1.678
REMARK SMILES CCCCCCCCCCCCCC[C@H](C)C(=O)[O-]
REMARK SMILES IDX 9 1 10 2 11 3 12 4 13 5 14 6 15 7 16 8 17 9 18 10 19 11 8 12
REMARK SMILES IDX 7 13 6 14 5 15 4 16 3 17 2 18 1 19
REMARK H PARENT
REMARK Flexibility Score: inf
ROOT
ATOM      1  C   UNL     1      34.108  18.055 -18.275  1.00  0.00     0.000 C 
ENDROOT
BRANCH   1   2
ATOM      2  C   UNL     1      35.003  17.016 -17.579  1.00  0.00     0.000 C 
BRANCH   2   3
ATOM      3  C   UNL     1      34.450  15.586 -17.694  1.00  0.00     0.000 C 
BRANCH   3   4
ATOM      4  C   UNL     1      34.683  14.754 -16.425  1.00  0.00     0.000 C 
BRANCH   4   5
ATOM      5  C   UNL     1      33.442  13.915 -16.081  1.00  0.00     0.001 C 
BRANCH   5   6
ATOM      6  C   UNL     1      32.145  14.528 -16.653  1.00  0.00     0.009 C 
BRANCH   6   7
ATOM      7  C   UNL     1      30.935  13.566 -16.612  1.00  0.00     0.032 C 
ATOM      8  C   UNL     1      30.208  13.480 -17.959  1.00  0.00     0.014 C 
BRANCH   7   9
ATOM      9  C   UNL     1      29.972  14.009 -15.545  1.00  0.00     0.044 C 
ATOM     10  O   UNL     1      29.489  15.171 -15.571  1.00  0.00    -0.550 OA
ATOM     11  O   UNL     1      29.606  13.138 -14.524  1.00  0.00    -0.550 OA
ENDBRANCH   7   9
ENDBRANCH   6   7
ENDBRANCH   5   6
ENDBRANCH   4   5
ENDBRANCH   3   4
ENDBRANCH   2   3
ENDBRANCH   1   2
BRANCH   1  12
ATOM     12  C   UNL     1      33.736  17.645 -19.711  1.00  0.00     0.000 C 
BRANCH  12  13
ATOM     13  C   UNL     1      32.235  17.345 -19.868  1.00  0.00    -0.000 C 
BRANCH  13  14
ATOM     14  C   UNL     1      31.414  17.724 -18.621  1.00  0.00    -0.000 C 
BRANCH  14  15
ATOM     15  C   UNL     1      30.018  17.079 -18.537  1.00  0.00    -0.000 C 
BRANCH  15  16
ATOM     16  C   UNL     1      28.878  18.081 -18.768  1.00  0.00    -0.000 C 
BRANCH  16  17
ATOM     17  C   UNL     1      28.120  18.362 -17.462  1.00  0.00    -0.000 C 
BRANCH  17  18
ATOM     18  C   UNL     1      26.899  19.270 -17.672  1.00  0.00    -0.003 C 
ATOM     19  C   UNL     1      27.022  20.149 -18.916  1.00  0.00     0.004 C 
ENDBRANCH  17  18
ENDBRANCH  16  17
ENDBRANCH  15  16
ENDBRANCH  14  15
ENDBRANCH  13  14
ENDBRANCH  12  13
ENDBRANCH   1  12
TORSDOF 14
ENDMDL
MODEL 4
REMARK VINA RESULT:    -3.909      1.598      3.786
REMARK INTER + INTRA:          -8.787
REMARK INTER:                  -6.760
REMARK INTRA:                  -2.027
REMARK UNBOUND:                -1.678
REMARK SMILES CCCCCCCCCCCCCC[C@H](C)C(=O)[O-]
REMARK SMILES IDX 9 1 10 2 11 3 12 4 13 5 14 6 15 7 16 8 17 9 18 10 19 11 8 12
REMARK SMILES IDX 7 13 6 14 5 15 4 16 3 17 2 18 1 19
REMARK H PARENT
REMARK Flexibility Score: inf
ROOT
ATOM      1  C   UNL     1      33.487  14.024 -16.032  1.00  0.00     0.000 C 
ENDROOT
BRANCH   1   2
ATOM      2  C   UNL     1      32.190  13.909 -16.851  1.00  0.00     0.000 C 
BRANCH   2   3
ATOM      3  C   UNL     1      30.974  13.541 -15.984  1.00  0.00     0.000 C 
BRANCH   3   4
ATOM      4  C   UNL     1      30.133  14.763 -15.590  1.00  0.00     0.000 C 
BRANCH   4   5
ATOM      5  C   UNL     1      29.032  15.032 -16.628  1.00  0.00     0.001 C 
BRANCH   5   6
ATOM      6  C   UNL     1      28.266  16.342 -16.344  1.00  0.00     0.009 C 
BRANCH   6   7
ATOM      7  C   UNL     1      27.912  17.141 -17.619  1.00  0.00     0.032 C 
ATOM      8  C   UNL     1      28.251  18.631 -17.490  1.00  0.00     0.014 C 
BRANCH   7   9
ATOM      9  C   UNL     1      26.449  16.982 -17.928  1.00  0.00     0.044 C 
ATOM     10  O   UNL     1      25.832  17.884 -18.554  1.00  0.00    -0.550 OA
ATOM     11  O   UNL     1      25.767  15.838 -17.526  1.00  0.00    -0.550 OA
ENDBRANCH   7   9
ENDBRANCH   6   7
ENDBRANCH   5   6
ENDBRANCH   4   5
ENDBRANCH   3   4
ENDBRANCH   2   3
ENDBRANCH   1   2
BRANCH   1  12
ATOM     12  C   UNL     1      34.558  14.873 -16.739  1.00  0.00     0.000 C 
BRANCH  12  13
ATOM     13  C   UNL     1      34.594  14.629 -18.258  1.00  0.00    -0.000 C 
BRANCH  13  14
ATOM     14  C   UNL     1      34.584  15.934 -19.075  1.00  0.00    -0.000 C 
BRANCH  14  15
ATOM     15  C   UNL     1      34.200  17.198 -18.283  1.00  0.00    -0.000 C 
BRANCH  15  16
ATOM     16  C   UNL     1      33.207  18.099 -19.031  1.00  0.00    -0.000 C 
BRANCH  16  17
ATOM     17  C   UNL     1      31.763  17.795 -18.607  1.00  0.00    -0.000 C 
BRANCH  17  18
ATOM     18  C   UNL     1      30.921  17.215 -19.753  1.00  0.00    -0.003 C 
ATOM     19  C   UNL     1      31.070  15.700 -19.890  1.00  0.00     0.004 C 
ENDBRANCH  17  18
ENDBRANCH  16  17
ENDBRANCH  15  16
ENDBRANCH  14  15
ENDBRANCH  13  14
ENDBRANCH  12  13
ENDBRANCH   1  12
TORSDOF 14
ENDMDL
MODEL 5
REMARK VINA RESULT:    -3.909      1.111      3.564
REMARK INTER + INTRA:          -8.786
REMARK INTER:                  -6.434
REMARK INTRA:                  -2.352
REMARK UNBOUND:                -1.678
REMARK SMILES CCCCCCCCCCCCCC[C@H](C)C(=O)[O-]
REMARK SMILES IDX 9 1 10 2 11 3 12 4 13 5 14 6 15 7 16 8 17 9 18 10 19 11 8 12
REMARK SMILES IDX 7 13 6 14 5 15 4 16 3 17 2 18 1 19
REMARK H PARENT
REMARK Flexibility Score: inf
ROOT
ATOM      1  C   UNL     1      29.542  14.905 -16.245  1.00  0.00     0.000 C 
ENDROOT
BRANCH   1   2
ATOM      2  C   UNL     1      29.530  14.332 -17.672  1.00  0.00     0.000 C 
BRANCH   2   3
ATOM      3  C   UNL     1      29.921  15.376 -18.732  1.00  0.00     0.000 C 
BRANCH   3   4
ATOM      4  C   UNL     1      30.163  16.769 -18.133  1.00  0.00     0.000 C 
BRANCH   4   5
ATOM      5  C   UNL     1      29.964  17.865 -19.192  1.00  0.00     0.001 C 
BRANCH   5   6
ATOM      6  C   UNL     1      28.472  18.134 -19.483  1.00  0.00     0.009 C 
BRANCH   6   7
ATOM      7  C   UNL     1      27.604  18.251 -18.209  1.00  0.00     0.032 C 
ATOM      8  C   UNL     1      26.545  17.146 -18.117  1.00  0.00     0.014 C 
BRANCH   7   9
ATOM      9  C   UNL     1      26.933  19.597 -18.175  1.00  0.00     0.044 C 
ATOM     10  O   UNL     1      26.208  19.918 -17.197  1.00  0.00    -0.550 OA
ATOM     11  O   UNL     1      27.107  20.495 -19.222  1.00  0.00    -0.550 OA
ENDBRANCH   7   9
ENDBRANCH   6   7
ENDBRANCH   5   6
ENDBRANCH   4   5
ENDBRANCH   3   4
ENDBRANCH   2   3
ENDBRANCH   1   2
BRANCH   1  12
ATOM     12  C   UNL     1      30.655  14.299 -15.375  1.00  0.00     0.000 C 
BRANCH  12  13
ATOM     13  C   UNL     1      31.537  13.306 -16.153  1.00  0.00    -0.000 C 
BRANCH  13  14
ATOM     14  C   UNL     1      33.017  13.728 -16.200  1.00  0.00    -0.000 C 
BRANCH  14  15
ATOM     15  C   UNL     1      33.301  15.034 -16.964  1.00  0.00    -0.000 C 
BRANCH  15  16
ATOM     16  C   UNL     1      33.593  14.807 -18.455  1.00  0.00    -0.000 C 
BRANCH  16  17
ATOM     17  C   UNL     1      33.665  16.142 -19.209  1.00  0.00    -0.000 C 
BRANCH  17  18
ATOM     18  C   UNL     1      34.297  17.262 -18.369  1.00  0.00    -0.003 C 
ATOM     19  C   UNL     1      33.502  18.566 -18.427  1.00  0.00     0.004 C 
ENDBRANCH  17  18
ENDBRANCH  16  17
ENDBRANCH  15  16
ENDBRANCH  14  15
ENDBRANCH  13  14
ENDBRANCH  12  13
ENDBRANCH   1  12
TORSDOF 14
ENDMDL
MODEL 6
REMARK VINA RESULT:    -3.876      1.389      1.785
REMARK INTER + INTRA:          -8.726
REMARK INTER:                  -7.157
REMARK INTRA:                  -1.570
REMARK UNBOUND:                -1.678
REMARK SMILES CCCCCCCCCCCCCC[C@H](C)C(=O)[O-]
REMARK SMILES IDX 9 1 10 2 11 3 12 4 13 5 14 6 15 7 16 8 17 9 18 10 19 11 8 12
REMARK SMILES IDX 7 13 6 14 5 15 4 16 3 17 2 18 1 19
REMARK H PARENT
REMARK Flexibility Score: inf
ROOT
ATOM      1  C   UNL     1      33.748  17.636 -19.772  1.00  0.00     0.000 C 
ENDROOT
BRANCH   1   2
ATOM      2  C   UNL     1      32.272  17.296 -20.040  1.00  0.00     0.000 C 
BRANCH   2   3
ATOM      3  C   UNL     1      31.343  17.770 -18.910  1.00  0.00     0.000 C 
BRANCH   3   4
ATOM      4  C   UNL     1      29.856  17.559 -19.235  1.00  0.00     0.000 C 
BRANCH   4   5
ATOM      5  C   UNL     1      28.969  17.988 -18.056  1.00  0.00     0.001 C 
BRANCH   5   6
ATOM      6  C   UNL     1      27.537  17.423 -18.165  1.00  0.00     0.009 C 
BRANCH   6   7
ATOM      7  C   UNL     1      26.475  18.489 -18.518  1.00  0.00     0.032 C 
ATOM      8  C   UNL     1      26.453  19.650 -17.517  1.00  0.00     0.014 C 
BRANCH   7   9
ATOM      9  C   UNL     1      25.115  17.850 -18.579  1.00  0.00     0.044 C 
ATOM     10  O   UNL     1      24.233  18.311 -19.351  1.00  0.00    -0.550 OA
ATOM     11  O   UNL     1      24.821  16.747 -17.786  1.00  0.00    -0.550 OA
ENDBRANCH   7   9
ENDBRANCH   6   7
ENDBRANCH   5   6
ENDBRANCH   4   5
ENDBRANCH   3   4
ENDBRANCH   2   3
ENDBRANCH   1   2
BRANCH   1  12
ATOM     12  C   UNL     1      34.008  18.025 -18.307  1.00  0.00     0.000 C 
BRANCH  12  13
ATOM     13  C   UNL     1      34.895  17.004 -17.574  1.00  0.00    -0.000 C 
BRANCH  13  14
ATOM     14  C   UNL     1      34.410  15.553 -17.750  1.00  0.00    -0.000 C 
BRANCH  14  15
ATOM     15  C   UNL     1      34.327  14.730 -16.451  1.00  0.00    -0.000 C 
BRANCH  15  16
ATOM     16  C   UNL     1      32.991  13.989 -16.293  1.00  0.00    -0.000 C 
BRANCH  16  17
ATOM     17  C   UNL     1      31.989  14.428 -17.370  1.00  0.00    -0.000 C 
BRANCH  17  18
ATOM     18  C   UNL     1      30.628  14.829 -16.781  1.00  0.00    -0.003 C 
ATOM     19  C   UNL     1      30.380  14.227 -15.398  1.00  0.00     0.004 C 
ENDBRANCH  17  18
ENDBRANCH  16  17
ENDBRANCH  15  16
ENDBRANCH  14  15
ENDBRANCH  13  14
ENDBRANCH  12  13
ENDBRANCH   1  12
TORSDOF 14
ENDMDL
MODEL 7
REMARK VINA RESULT:    -3.825      2.548      3.372
REMARK INTER + INTRA:          -8.633
REMARK INTER:                  -6.571
REMARK INTRA:                  -2.062
REMARK UNBOUND:                -1.678
REMARK SMILES CCCCCCCCCCCCCC[C@H](C)C(=O)[O-]
REMARK SMILES IDX 9 1 10 2 11 3 12 4 13 5 14 6 15 7 16 8 17 9 18 10 19 11 8 12
REMARK SMILES IDX 7 13 6 14 5 15 4 16 3 17 2 18 1 19
REMARK H PARENT
REMARK Flexibility Score: inf
ROOT
ATOM      1  C   UNL     1      32.234  17.886 -18.615  1.00  0.00     0.000 C 
ENDROOT
BRANCH   1   2
ATOM      2  C   UNL     1      31.442  17.370 -19.828  1.00  0.00     0.000 C 
BRANCH   2   3
ATOM      3  C   UNL     1      30.052  16.837 -19.443  1.00  0.00     0.000 C 
BRANCH   3   4
ATOM      4  C   UNL     1      29.052  17.957 -19.127  1.00  0.00     0.000 C 
BRANCH   4   5
ATOM      5  C   UNL     1      28.083  17.531 -18.013  1.00  0.00     0.001 C 
BRANCH   5   6
ATOM      6  C   UNL     1      28.128  16.011 -17.747  1.00  0.00     0.009 C 
BRANCH   6   7
ATOM      7  C   UNL     1      27.860  15.631 -16.273  1.00  0.00     0.032 C 
ATOM      8  C   UNL     1      29.153  15.445 -15.471  1.00  0.00     0.014 C 
BRANCH   7   9
ATOM      9  C   UNL     1      27.044  14.369 -16.214  1.00  0.00     0.044 C 
ATOM     10  O   UNL     1      26.160  14.227 -15.329  1.00  0.00    -0.550 OA
ATOM     11  O   UNL     1      27.260  13.350 -17.136  1.00  0.00    -0.550 OA
ENDBRANCH   7   9
ENDBRANCH   6   7
ENDBRANCH   5   6
ENDBRANCH   4   5
ENDBRANCH   3   4
ENDBRANCH   2   3
ENDBRANCH   1   2
BRANCH   1  12
ATOM     12  C   UNL     1      33.733  18.055 -18.916  1.00  0.00     0.000 C 
BRANCH  12  13
ATOM     13  C   UNL     1      34.623  17.279 -17.930  1.00  0.00    -0.000 C 
BRANCH  13  14
ATOM     14  C   UNL     1      34.427  15.754 -18.017  1.00  0.00    -0.000 C 
BRANCH  14  15
ATOM     15  C   UNL     1      34.563  15.000 -16.682  1.00  0.00    -0.000 C 
BRANCH  15  16
ATOM     16  C   UNL     1      33.312  14.186 -16.320  1.00  0.00    -0.000 C 
BRANCH  16  17
ATOM     17  C   UNL     1      32.199  14.402 -17.355  1.00  0.00    -0.000 C 
BRANCH  17  18
ATOM     18  C   UNL     1      31.228  13.214 -17.434  1.00  0.00    -0.003 C 
ATOM     19  C   UNL     1      30.425  13.192 -18.734  1.00  0.00     0.004 C 
ENDBRANCH  17  18
ENDBRANCH  16  17
ENDBRANCH  15  16
ENDBRANCH  14  15
ENDBRANCH  13  14
ENDBRANCH  12  13
ENDBRANCH   1  12
TORSDOF 14
ENDMDL
MODEL 8
REMARK VINA RESULT:    -3.722      2.387      5.932
REMARK INTER + INTRA:          -8.446
REMARK INTER:                  -7.120
REMARK INTRA:                  -1.325
REMARK UNBOUND:                -1.678
REMARK SMILES CCCCCCCCCCCCCC[C@H](C)C(=O)[O-]
REMARK SMILES IDX 9 1 10 2 11 3 12 4 13 5 14 6 15 7 16 8 17 9 18 10 19 11 8 12
REMARK SMILES IDX 7 13 6 14 5 15 4 16 3 17 2 18 1 19
REMARK H PARENT
REMARK Flexibility Score: inf
ROOT
ATOM      1  C   UNL     1      33.047  14.062 -16.020  1.00  0.00     0.000 C 
ENDROOT
BRANCH   1   2
ATOM      2  C   UNL     1      34.354  13.252 -15.983  1.00  0.00     0.000 C 
BRANCH   2   3
ATOM      3  C   UNL     1      35.214  13.460 -17.241  1.00  0.00     0.000 C 
BRANCH   3   4
ATOM      4  C   UNL     1      34.381  13.496 -18.531  1.00  0.00     0.000 C 
BRANCH   4   5
ATOM      5  C   UNL     1      34.663  14.777 -19.333  1.00  0.00     0.001 C 
BRANCH   5   6
ATOM      6  C   UNL     1      33.583  15.857 -19.109  1.00  0.00     0.009 C 
BRANCH   6   7
ATOM      7  C   UNL     1      34.161  17.253 -18.782  1.00  0.00     0.032 C 
ATOM      8  C   UNL     1      34.994  17.256 -17.494  1.00  0.00     0.014 C 
BRANCH   7   9
ATOM      9  C   UNL     1      33.042  18.250 -18.661  1.00  0.00     0.044 C 
ATOM     10  O   UNL     1      33.258  19.386 -18.163  1.00  0.00    -0.550 OA
ATOM     11  O   UNL     1      31.762  17.926 -19.099  1.00  0.00    -0.550 OA
ENDBRANCH   7   9
ENDBRANCH   6   7
ENDBRANCH   5   6
ENDBRANCH   4   5
ENDBRANCH   3   4
ENDBRANCH   2   3
ENDBRANCH   1   2
BRANCH   1  12
ATOM     12  C   UNL     1      31.799  13.166 -16.091  1.00  0.00     0.000 C 
BRANCH  12  13
ATOM     13  C   UNL     1      30.545  13.938 -16.537  1.00  0.00    -0.000 C 
BRANCH  13  14
ATOM     14  C   UNL     1      29.779  14.569 -15.360  1.00  0.00    -0.000 C 
BRANCH  14  15
ATOM     15  C   UNL     1      28.668  15.559 -15.758  1.00  0.00    -0.000 C 
BRANCH  15  16
ATOM     16  C   UNL     1      28.939  16.258 -17.098  1.00  0.00    -0.000 C 
BRANCH  16  17
ATOM     17  C   UNL     1      27.771  17.179 -17.482  1.00  0.00    -0.000 C 
BRANCH  17  18
ATOM     18  C   UNL     1      28.233  18.599 -17.844  1.00  0.00    -0.003 C 
ATOM     19  C   UNL     1      27.067  19.556 -18.088  1.00  0.00     0.004 C 
ENDBRANCH  17  18
ENDBRANCH  16  17
ENDBRANCH  15  16
ENDBRANCH  14  15
ENDBRANCH  13  14
ENDBRANCH  12  13
ENDBRANCH   1  12
TORSDOF 14
ENDMDL
MODEL 9
REMARK VINA RESULT:    -3.658      1.647      2.599
REMARK INTER + INTRA:          -8.329
REMARK INTER:                  -6.397
REMARK INTRA:                  -1.933
REMARK UNBOUND:                -1.678
REMARK SMILES CCCCCCCCCCCCCC[C@H](C)C(=O)[O-]
REMARK SMILES IDX 9 1 10 2 11 3 12 4 13 5 14 6 15 7 16 8 17 9 18 10 19 11 8 12
REMARK SMILES IDX 7 13 6 14 5 15 4 16 3 17 2 18 1 19
REMARK H PARENT
REMARK Flexibility Score: inf
ROOT
ATOM      1  C   UNL     1      31.415  17.670 -18.975  1.00  0.00     0.000 C 
ENDROOT
BRANCH   1   2
ATOM      2  C   UNL     1      31.119  16.354 -18.237  1.00  0.00     0.000 C 
BRANCH   2   3
ATOM      3  C   UNL     1      30.308  15.366 -19.092  1.00  0.00     0.000 C 
BRANCH   3   4
ATOM      4  C   UNL     1      28.875  15.171 -18.578  1.00  0.00     0.000 C 
BRANCH   4   5
ATOM      5  C   UNL     1      28.728  15.700 -17.142  1.00  0.00     0.001 C 
BRANCH   5   6
ATOM      6  C   UNL     1      28.115  17.116 -17.100  1.00  0.00     0.009 C 
BRANCH   6   7
ATOM      7  C   UNL     1      27.360  17.504 -18.392  1.00  0.00     0.032 C 
ATOM      8  C   UNL     1      27.793  18.870 -18.937  1.00  0.00     0.014 C 
BRANCH   7   9
ATOM      9  C   UNL     1      25.879  17.511 -18.132  1.00  0.00     0.044 C 
ATOM     10  O   UNL     1      25.234  18.591 -18.172  1.00  0.00    -0.550 OA
ATOM     11  O   UNL     1      25.211  16.325 -17.846  1.00  0.00    -0.550 OA
ENDBRANCH   7   9
ENDBRANCH   6   7
ENDBRANCH   5   6
ENDBRANCH   4   5
ENDBRANCH   3   4
ENDBRANCH   2   3
ENDBRANCH   1   2
BRANCH   1  12
ATOM     12  C   UNL     1      32.850  17.729 -19.526  1.00  0.00     0.000 C 
BRANCH  12  13
ATOM     13  C   UNL     1      33.880  18.102 -18.446  1.00  0.00    -0.000 C 
BRANCH  13  14
ATOM     14  C   UNL     1      34.659  16.885 -17.913  1.00  0.00    -0.000 C 
BRANCH  14  15
ATOM     15  C   UNL     1      34.572  15.621 -18.787  1.00  0.00    -0.000 C 
BRANCH  15  16
ATOM     16  C   UNL     1      34.580  14.321 -17.969  1.00  0.00    -0.000 C 
BRANCH  16  17
ATOM     17  C   UNL     1      34.344  14.609 -16.479  1.00  0.00    -0.000 C 
BRANCH  17  18
ATOM     18  C   UNL     1      32.981  14.097 -15.988  1.00  0.00    -0.003 C 
ATOM     19  C   UNL     1      32.374  13.046 -16.917  1.00  0.00     0.004 C 
ENDBRANCH  17  18
ENDBRANCH  16  17
ENDBRANCH  15  16
ENDBRANCH  14  15
ENDBRANCH  13  14
ENDBRANCH  12  13
ENDBRANCH   1  12
TORSDOF 14
ENDMDL
