MODEL 1
REMARK VINA RESULT:    -4.538      0.000      0.000
REMARK INTER + INTRA:          -8.921
REMARK INTER:                  -6.926
REMARK INTRA:                  -1.994
REMARK UNBOUND:                -1.994
REMARK SMILES CC(=O)CCC=C(C)CCC=C(C)CCC=C(C)C
REMARK SMILES IDX 10 1 11 2 12 3 13 4 14 5 15 6 16 7 18 8 17 9 19 10 9 11 7 12
REMARK SMILES IDX 6 13 8 14 5 15 4 16 2 17 3 18 1 19
REMARK H PARENT
REMARK Flexibility Score: inf
ROOT
ATOM      1  C   UNL     1      -0.042  73.791 -20.329  1.00  0.00     0.032 C 
ENDROOT
BRANCH   1   2
ATOM      2  C   UNL     1      -0.586  74.763 -21.349  1.00  0.00    -0.028 C 
ATOM      3  C   UNL     1       0.159  75.427 -22.263  1.00  0.00    -0.077 C 
ATOM      4  C   UNL     1       1.647  75.207 -22.395  1.00  0.00     0.039 C 
BRANCH   3   5
ATOM      5  C   UNL     1      -0.520  76.420 -23.183  1.00  0.00     0.034 C 
BRANCH   5   6
ATOM      6  C   UNL     1      -1.389  77.420 -22.408  1.00  0.00     0.032 C 
BRANCH   6   7
ATOM      7  C   UNL     1      -0.552  78.340 -21.551  1.00  0.00    -0.028 C 
ATOM      8  C   UNL     1      -1.304  80.413 -22.737  1.00  0.00     0.039 C 
ATOM      9  C   UNL     1      -0.527  79.686 -21.666  1.00  0.00    -0.080 C 
ATOM     10  C   UNL     1       0.323  80.473 -20.702  1.00  0.00     0.039 C 
ENDBRANCH   6   7
ENDBRANCH   5   6
ENDBRANCH   3   5
ENDBRANCH   1   2
BRANCH   1  11
ATOM     11  C   UNL     1      -0.029  74.413 -18.928  1.00  0.00     0.034 C 
BRANCH  11  12
ATOM     12  C   UNL     1       1.207  75.257 -18.699  1.00  0.00    -0.077 C 
ATOM     13  C   UNL     1       1.127  76.596 -18.870  1.00  0.00    -0.028 C 
ATOM     14  C   UNL     1       2.487  74.579 -18.272  1.00  0.00     0.039 C 
BRANCH  13  15
ATOM     15  C   UNL     1       2.282  77.559 -18.713  1.00  0.00     0.035 C 
BRANCH  15  16
ATOM     16  C   UNL     1       2.033  78.533 -17.556  1.00  0.00     0.079 C 
BRANCH  16  17
ATOM     17  C   UNL     1       3.186  78.542 -16.585  1.00  0.00     0.130 C 
ATOM     18  O   UNL     1       3.819  79.572 -16.414  1.00  0.00    -0.300 OA
ATOM     19  C   UNL     1       3.569  77.311 -15.820  1.00  0.00     0.087 C 
ENDBRANCH  16  17
ENDBRANCH  15  16
ENDBRANCH  13  15
ENDBRANCH  11  12
ENDBRANCH   1  11
TORSDOF 9
ENDMDL
MODEL 2
REMARK VINA RESULT:    -4.470      9.778     11.597
REMARK INTER + INTRA:          -8.816
REMARK INTER:                  -6.445
REMARK INTRA:                  -2.371
REMARK UNBOUND:                -1.994
REMARK SMILES CC(=O)CCC=C(C)CCC=C(C)CCC=C(C)C
REMARK SMILES IDX 10 1 11 2 12 3 13 4 14 5 15 6 16 7 18 8 17 9 19 10 9 11 7 12
REMARK SMILES IDX 6 13 8 14 5 15 4 16 2 17 3 18 1 19
REMARK H PARENT
REMARK Flexibility Score: inf
ROOT
ATOM      1  C   UNL     1      11.819  76.312 -17.379  1.00  0.00     0.032 C 
ENDROOT
BRANCH   1   2
ATOM      2  C   UNL     1      12.674  76.172 -18.616  1.00  0.00    -0.028 C 
ATOM      3  C   UNL     1      12.200  76.072 -19.880  1.00  0.00    -0.077 C 
ATOM      4  C   UNL     1      10.724  76.153 -20.190  1.00  0.00     0.039 C 
BRANCH   3   5
ATOM      5  C   UNL     1      13.179  75.873 -21.019  1.00  0.00     0.034 C 
BRANCH   5   6
ATOM      6  C   UNL     1      13.039  76.962 -22.092  1.00  0.00     0.032 C 
BRANCH   6   7
ATOM      7  C   UNL     1      13.423  78.323 -21.562  1.00  0.00    -0.028 C 
ATOM      8  C   UNL     1      11.181  79.332 -22.039  1.00  0.00     0.039 C 
ATOM      9  C   UNL     1      12.592  79.386 -21.503  1.00  0.00    -0.080 C 
ATOM     10  C   UNL     1      13.107  80.667 -20.898  1.00  0.00     0.039 C 
ENDBRANCH   6   7
ENDBRANCH   5   6
ENDBRANCH   3   5
ENDBRANCH   1   2
BRANCH   1  11
ATOM     11  C   UNL     1      11.924  77.727 -16.796  1.00  0.00     0.034 C 
BRANCH  11  12
ATOM     12  C   UNL     1      10.838  78.637 -17.332  1.00  0.00    -0.077 C 
ATOM     13  C   UNL     1      11.191  79.711 -18.073  1.00  0.00    -0.028 C 
ATOM     14  C   UNL     1       9.395  78.306 -17.037  1.00  0.00     0.039 C 
BRANCH  13  15
ATOM     15  C   UNL     1      10.224  80.725 -18.643  1.00  0.00     0.035 C 
BRANCH  15  16
ATOM     16  C   UNL     1      10.323  82.059 -17.896  1.00  0.00     0.079 C 
BRANCH  16  17
ATOM     17  C   UNL     1      11.420  82.926 -18.458  1.00  0.00     0.130 C 
ATOM     18  O   UNL     1      11.238  83.519 -19.509  1.00  0.00    -0.300 OA
ATOM     19  C   UNL     1      12.732  83.078 -17.747  1.00  0.00     0.087 C 
ENDBRANCH  16  17
ENDBRANCH  15  16
ENDBRANCH  13  15
ENDBRANCH  11  12
ENDBRANCH   1  11
TORSDOF 9
ENDMDL
MODEL 3
REMARK VINA RESULT:    -4.432      9.285     12.387
REMARK INTER + INTRA:          -8.758
REMARK INTER:                  -7.280
REMARK INTRA:                  -1.478
REMARK UNBOUND:                -1.994
REMARK SMILES CC(=O)CCC=C(C)CCC=C(C)CCC=C(C)C
REMARK SMILES IDX 10 1 11 2 12 3 13 4 14 5 15 6 16 7 18 8 17 9 19 10 9 11 7 12
REMARK SMILES IDX 6 13 8 14 5 15 4 16 2 17 3 18 1 19
REMARK H PARENT
REMARK Flexibility Score: inf
ROOT
ATOM      1  C   UNL     1       6.223  76.210 -29.927  1.00  0.00     0.032 C 
ENDROOT
BRANCH   1   2
ATOM      2  C   UNL     1       6.809  74.924 -30.461  1.00  0.00    -0.028 C 
ATOM      3  C   UNL     1       6.718  73.719 -29.853  1.00  0.00    -0.077 C 
ATOM      4  C   UNL     1       5.943  73.525 -28.571  1.00  0.00     0.039 C 
BRANCH   3   5
ATOM      5  C   UNL     1       7.411  72.525 -30.478  1.00  0.00     0.034 C 
BRANCH   5   6
ATOM      6  C   UNL     1       8.903  72.791 -30.722  1.00  0.00     0.032 C 
BRANCH   6   7
ATOM      7  C   UNL     1       9.603  73.244 -29.462  1.00  0.00    -0.028 C 
ATOM      8  C   UNL     1      10.480  75.348 -30.499  1.00  0.00     0.039 C 
ATOM      9  C   UNL     1      10.287  74.402 -29.337  1.00  0.00    -0.080 C 
ATOM     10  C   UNL     1      10.889  74.739 -27.998  1.00  0.00     0.039 C 
ENDBRANCH   6   7
ENDBRANCH   5   6
ENDBRANCH   3   5
ENDBRANCH   1   2
BRANCH   1  11
ATOM     11  C   UNL     1       5.193  76.791 -30.904  1.00  0.00     0.034 C 
BRANCH  11  12
ATOM     12  C   UNL     1       3.786  76.713 -30.348  1.00  0.00    -0.077 C 
ATOM     13  C   UNL     1       3.226  75.498 -30.153  1.00  0.00    -0.028 C 
ATOM     14  C   UNL     1       3.059  77.993 -30.014  1.00  0.00     0.039 C 
BRANCH  13  15
ATOM     15  C   UNL     1       1.823  75.265 -29.640  1.00  0.00     0.035 C 
BRANCH  15  16
ATOM     16  C   UNL     1       1.695  73.879 -28.999  1.00  0.00     0.079 C 
BRANCH  16  17
ATOM     17  C   UNL     1       1.055  73.958 -27.637  1.00  0.00     0.130 C 
ATOM     18  O   UNL     1       0.670  72.935 -27.093  1.00  0.00    -0.300 OA
ATOM     19  C   UNL     1       0.886  75.271 -26.932  1.00  0.00     0.087 C 
ENDBRANCH  16  17
ENDBRANCH  15  16
ENDBRANCH  13  15
ENDBRANCH  11  12
ENDBRANCH   1  11
TORSDOF 9
ENDMDL
MODEL 4
REMARK VINA RESULT:    -4.428     10.981     13.253
REMARK INTER + INTRA:          -8.752
REMARK INTER:                  -7.487
REMARK INTRA:                  -1.265
REMARK UNBOUND:                -1.994
REMARK SMILES CC(=O)CCC=C(C)CCC=C(C)CCC=C(C)C
REMARK SMILES IDX 10 1 11 2 12 3 13 4 14 5 15 6 16 7 18 8 17 9 19 10 9 11 7 12
REMARK SMILES IDX 6 13 8 14 5 15 4 16 2 17 3 18 1 19
REMARK H PARENT
REMARK Flexibility Score: inf
ROOT
ATOM      1  C   UNL     1      10.003  75.003 -30.920  1.00  0.00     0.032 C 
ENDROOT
BRANCH   1   2
ATOM      2  C   UNL     1       8.779  74.234 -30.484  1.00  0.00    -0.028 C 
ATOM      3  C   UNL     1       7.523  74.735 -30.439  1.00  0.00    -0.077 C 
ATOM      4  C   UNL     1       7.205  76.141 -30.892  1.00  0.00     0.039 C 
BRANCH   3   5
ATOM      5  C   UNL     1       6.400  73.860 -29.920  1.00  0.00     0.034 C 
BRANCH   5   6
ATOM      6  C   UNL     1       5.585  74.563 -28.825  1.00  0.00     0.032 C 
BRANCH   6   7
ATOM      7  C   UNL     1       4.106  74.288 -28.967  1.00  0.00    -0.028 C 
ATOM      8  C   UNL     1       3.639  76.457 -30.128  1.00  0.00     0.039 C 
ATOM      9  C   UNL     1       3.227  75.113 -29.576  1.00  0.00    -0.080 C 
ATOM     10  C   UNL     1       1.789  74.676 -29.683  1.00  0.00     0.039 C 
ENDBRANCH   6   7
ENDBRANCH   5   6
ENDBRANCH   3   5
ENDBRANCH   1   2
BRANCH   1  11
ATOM     11  C   UNL     1      10.793  75.513 -29.708  1.00  0.00     0.034 C 
BRANCH  11  12
ATOM     12  C   UNL     1      11.101  76.991 -29.820  1.00  0.00    -0.077 C 
ATOM     13  C   UNL     1      10.261  77.784 -30.522  1.00  0.00    -0.028 C 
ATOM     14  C   UNL     1      12.329  77.536 -29.130  1.00  0.00     0.039 C 
BRANCH  13  15
ATOM     15  C   UNL     1      10.457  79.266 -30.749  1.00  0.00     0.035 C 
BRANCH  15  16
ATOM     16  C   UNL     1       9.541  79.777 -31.865  1.00  0.00     0.079 C 
BRANCH  16  17
ATOM     17  C   UNL     1       8.260  80.345 -31.311  1.00  0.00     0.130 C 
ATOM     18  O   UNL     1       7.331  79.595 -31.055  1.00  0.00    -0.300 OA
ATOM     19  C   UNL     1       8.104  81.816 -31.062  1.00  0.00     0.087 C 
ENDBRANCH  16  17
ENDBRANCH  15  16
ENDBRANCH  13  15
ENDBRANCH  11  12
ENDBRANCH   1  11
TORSDOF 9
ENDMDL
MODEL 5
REMARK VINA RESULT:    -4.427     10.140     12.723
REMARK INTER + INTRA:          -8.751
REMARK INTER:                  -6.555
REMARK INTRA:                  -2.196
REMARK UNBOUND:                -1.994
REMARK SMILES CC(=O)CCC=C(C)CCC=C(C)CCC=C(C)C
REMARK SMILES IDX 10 1 11 2 12 3 13 4 14 5 15 6 16 7 18 8 17 9 19 10 9 11 7 12
REMARK SMILES IDX 6 13 8 14 5 15 4 16 2 17 3 18 1 19
REMARK H PARENT
REMARK Flexibility Score: inf
ROOT
ATOM      1  C   UNL     1       8.941  72.277 -30.160  1.00  0.00     0.032 C 
ENDROOT
BRANCH   1   2
ATOM      2  C   UNL     1       9.624  73.569 -30.544  1.00  0.00    -0.028 C 
ATOM      3  C   UNL     1      10.145  74.460 -29.669  1.00  0.00    -0.077 C 
ATOM      4  C   UNL     1      10.150  74.210 -28.179  1.00  0.00     0.039 C 
BRANCH   3   5
ATOM      5  C   UNL     1      10.746  75.745 -30.199  1.00  0.00     0.034 C 
BRANCH   5   6
ATOM      6  C   UNL     1       9.716  76.587 -30.964  1.00  0.00     0.032 C 
BRANCH   6   7
ATOM      7  C   UNL     1       8.782  77.315 -30.026  1.00  0.00    -0.028 C 
ATOM      8  C   UNL     1       6.854  77.259 -31.624  1.00  0.00     0.039 C 
ATOM      9  C   UNL     1       7.488  77.596 -30.295  1.00  0.00    -0.080 C 
ATOM     10  C   UNL     1       6.667  78.285 -29.236  1.00  0.00     0.039 C 
ENDBRANCH   6   7
ENDBRANCH   5   6
ENDBRANCH   3   5
ENDBRANCH   1   2
BRANCH   1  11
ATOM     11  C   UNL     1       7.523  72.211 -30.740  1.00  0.00     0.034 C 
BRANCH  11  12
ATOM     12  C   UNL     1       6.502  72.812 -29.796  1.00  0.00    -0.077 C 
ATOM     13  C   UNL     1       6.163  74.113 -29.941  1.00  0.00    -0.028 C 
ATOM     14  C   UNL     1       5.884  71.936 -28.734  1.00  0.00     0.039 C 
BRANCH  13  15
ATOM     15  C   UNL     1       5.189  74.856 -29.055  1.00  0.00     0.035 C 
BRANCH  15  16
ATOM     16  C   UNL     1       4.002  75.386 -29.867  1.00  0.00     0.079 C 
BRANCH  16  17
ATOM     17  C   UNL     1       2.717  74.702 -29.476  1.00  0.00     0.130 C 
ATOM     18  O   UNL     1       1.731  74.825 -30.185  1.00  0.00    -0.300 OA
ATOM     19  C   UNL     1       2.627  73.868 -28.233  1.00  0.00     0.087 C 
ENDBRANCH  16  17
ENDBRANCH  15  16
ENDBRANCH  13  15
ENDBRANCH  11  12
ENDBRANCH   1  11
TORSDOF 9
ENDMDL
MODEL 6
REMARK VINA RESULT:    -4.403      3.064      7.038
REMARK INTER + INTRA:          -8.714
REMARK INTER:                  -6.790
REMARK INTRA:                  -1.924
REMARK UNBOUND:                -1.994
REMARK SMILES CC(=O)CCC=C(C)CCC=C(C)CCC=C(C)C
REMARK SMILES IDX 10 1 11 2 12 3 13 4 14 5 15 6 16 7 18 8 17 9 19 10 9 11 7 12
REMARK SMILES IDX 6 13 8 14 5 15 4 16 2 17 3 18 1 19
REMARK H PARENT
REMARK Flexibility Score: inf
ROOT
ATOM      1  C   UNL     1       3.889  76.779 -15.969  1.00  0.00     0.032 C 
ENDROOT
BRANCH   1   2
ATOM      2  C   UNL     1       5.356  77.133 -15.901  1.00  0.00    -0.028 C 
ATOM      3  C   UNL     1       6.203  77.138 -16.956  1.00  0.00    -0.077 C 
ATOM      4  C   UNL     1       5.734  76.840 -18.360  1.00  0.00     0.039 C 
BRANCH   3   5
ATOM      5  C   UNL     1       7.666  77.456 -16.723  1.00  0.00     0.034 C 
BRANCH   5   6
ATOM      6  C   UNL     1       8.018  78.887 -17.153  1.00  0.00     0.032 C 
BRANCH   6   7
ATOM      7  C   UNL     1       7.137  79.907 -16.472  1.00  0.00    -0.028 C 
ATOM      8  C   UNL     1       5.948  80.544 -18.582  1.00  0.00     0.039 C 
ATOM      9  C   UNL     1       6.184  80.636 -17.093  1.00  0.00    -0.080 C 
ATOM     10  C   UNL     1       5.348  81.580 -16.267  1.00  0.00     0.039 C 
ENDBRANCH   6   7
ENDBRANCH   5   6
ENDBRANCH   3   5
ENDBRANCH   1   2
BRANCH   1  11
ATOM     11  C   UNL     1       3.017  78.040 -15.940  1.00  0.00     0.034 C 
BRANCH  11  12
ATOM     12  C   UNL     1       2.475  78.380 -17.312  1.00  0.00    -0.077 C 
ATOM     13  C   UNL     1       2.078  77.378 -18.127  1.00  0.00    -0.028 C 
ATOM     14  C   UNL     1       2.379  79.831 -17.721  1.00  0.00     0.039 C 
BRANCH  13  15
ATOM     15  C   UNL     1       1.552  77.562 -19.533  1.00  0.00     0.035 C 
BRANCH  15  16
ATOM     16  C   UNL     1       0.386  76.607 -19.812  1.00  0.00     0.079 C 
BRANCH  16  17
ATOM     17  C   UNL     1      -0.473  77.103 -20.947  1.00  0.00     0.130 C 
ATOM     18  O   UNL     1      -0.550  78.303 -21.162  1.00  0.00    -0.300 OA
ATOM     19  C   UNL     1      -1.233  76.152 -21.821  1.00  0.00     0.087 C 
ENDBRANCH  16  17
ENDBRANCH  15  16
ENDBRANCH  13  15
ENDBRANCH  11  12
ENDBRANCH   1  11
TORSDOF 9
ENDMDL
MODEL 7
REMARK VINA RESULT:    -4.370      9.608     12.377
REMARK INTER + INTRA:          -8.664
REMARK INTER:                  -7.514
REMARK INTRA:                  -1.150
REMARK UNBOUND:                -1.994
REMARK SMILES CC(=O)CCC=C(C)CCC=C(C)CCC=C(C)C
REMARK SMILES IDX 10 1 11 2 12 3 13 4 14 5 15 6 16 7 18 8 17 9 19 10 9 11 7 12
REMARK SMILES IDX 6 13 8 14 5 15 4 16 2 17 3 18 1 19
REMARK H PARENT
REMARK Flexibility Score: inf
ROOT
ATOM      1  C   UNL     1       5.908  74.558 -29.918  1.00  0.00     0.032 C 
ENDROOT
BRANCH   1   2
ATOM      2  C   UNL     1       7.410  74.453 -30.041  1.00  0.00    -0.028 C 
ATOM      3  C   UNL     1       8.084  73.325 -30.365  1.00  0.00    -0.077 C 
ATOM      4  C   UNL     1       7.374  72.037 -30.704  1.00  0.00     0.039 C 
BRANCH   3   5
ATOM      5  C   UNL     1       9.599  73.357 -30.390  1.00  0.00     0.034 C 
BRANCH   5   6
ATOM      6  C   UNL     1      10.135  74.559 -31.179  1.00  0.00     0.032 C 
BRANCH   6   7
ATOM      7  C   UNL     1      10.786  75.577 -30.274  1.00  0.00    -0.028 C 
ATOM      8  C   UNL     1       9.362  77.469 -31.089  1.00  0.00     0.039 C 
ATOM      9  C   UNL     1      10.430  76.878 -30.199  1.00  0.00    -0.080 C 
ATOM     10  C   UNL     1      11.142  77.762 -29.208  1.00  0.00     0.039 C 
ENDBRANCH   6   7
ENDBRANCH   5   6
ENDBRANCH   3   5
ENDBRANCH   1   2
BRANCH   1  11
ATOM     11  C   UNL     1       5.426  75.971 -30.267  1.00  0.00     0.034 C 
BRANCH  11  12
ATOM     12  C   UNL     1       3.936  76.128 -30.042  1.00  0.00    -0.077 C 
ATOM     13  C   UNL     1       3.189  75.025 -29.814  1.00  0.00    -0.028 C 
ATOM     14  C   UNL     1       3.336  77.514 -30.061  1.00  0.00     0.039 C 
BRANCH  13  15
ATOM     15  C   UNL     1       1.691  75.023 -29.608  1.00  0.00     0.035 C 
BRANCH  15  16
ATOM     16  C   UNL     1       1.324  74.407 -28.253  1.00  0.00     0.079 C 
BRANCH  16  17
ATOM     17  C   UNL     1       0.929  75.466 -27.255  1.00  0.00     0.130 C 
ATOM     18  O   UNL     1       0.847  76.630 -27.615  1.00  0.00    -0.300 OA
ATOM     19  C   UNL     1       0.631  75.117 -25.828  1.00  0.00     0.087 C 
ENDBRANCH  16  17
ENDBRANCH  15  16
ENDBRANCH  13  15
ENDBRANCH  11  12
ENDBRANCH   1  11
TORSDOF 9
ENDMDL
MODEL 8
REMARK VINA RESULT:    -4.335      9.756     12.177
REMARK INTER + INTRA:          -8.610
REMARK INTER:                  -6.943
REMARK INTRA:                  -1.667
REMARK UNBOUND:                -1.994
REMARK SMILES CC(=O)CCC=C(C)CCC=C(C)CCC=C(C)C
REMARK SMILES IDX 10 1 11 2 12 3 13 4 14 5 15 6 16 7 18 8 17 9 19 10 9 11 7 12
REMARK SMILES IDX 6 13 8 14 5 15 4 16 2 17 3 18 1 19
REMARK H PARENT
REMARK Flexibility Score: inf
ROOT
ATOM      1  C   UNL     1      11.320  78.400 -16.992  1.00  0.00     0.032 C 
ENDROOT
BRANCH   1   2
ATOM      2  C   UNL     1      12.026  77.920 -18.239  1.00  0.00    -0.028 C 
ATOM      3  C   UNL     1      12.288  76.626 -18.532  1.00  0.00    -0.077 C 
ATOM      4  C   UNL     1      11.832  75.495 -17.641  1.00  0.00     0.039 C 
BRANCH   3   5
ATOM      5  C   UNL     1      13.061  76.300 -19.793  1.00  0.00     0.034 C 
BRANCH   5   6
ATOM      6  C   UNL     1      12.788  77.315 -20.912  1.00  0.00     0.032 C 
BRANCH   6   7
ATOM      7  C   UNL     1      13.428  76.897 -22.214  1.00  0.00    -0.028 C 
ATOM      8  C   UNL     1      14.319  79.185 -22.710  1.00  0.00     0.039 C 
ATOM      9  C   UNL     1      14.144  77.716 -23.016  1.00  0.00    -0.080 C 
ATOM     10  C   UNL     1      14.765  77.139 -24.262  1.00  0.00     0.039 C 
ENDBRANCH   6   7
ENDBRANCH   5   6
ENDBRANCH   3   5
ENDBRANCH   1   2
BRANCH   1  11
ATOM     11  C   UNL     1       9.848  78.718 -17.282  1.00  0.00     0.034 C 
BRANCH  11  12
ATOM     12  C   UNL     1       9.701  79.939 -18.166  1.00  0.00    -0.077 C 
ATOM     13  C   UNL     1      10.116  81.138 -17.701  1.00  0.00    -0.028 C 
ATOM     14  C   UNL     1       9.111  79.775 -19.547  1.00  0.00     0.039 C 
BRANCH  13  15
ATOM     15  C   UNL     1      10.001  82.445 -18.454  1.00  0.00     0.035 C 
BRANCH  15  16
ATOM     16  C   UNL     1      11.381  82.960 -18.876  1.00  0.00     0.079 C 
BRANCH  16  17
ATOM     17  C   UNL     1      11.945  82.154 -20.017  1.00  0.00     0.130 C 
ATOM     18  O   UNL     1      11.458  82.268 -21.132  1.00  0.00    -0.300 OA
ATOM     19  C   UNL     1      13.096  81.215 -19.814  1.00  0.00     0.087 C 
ENDBRANCH  16  17
ENDBRANCH  15  16
ENDBRANCH  13  15
ENDBRANCH  11  12
ENDBRANCH   1  11
TORSDOF 9
ENDMDL
MODEL 9
REMARK VINA RESULT:    -4.325     12.429     14.998
REMARK INTER + INTRA:          -8.595
REMARK INTER:                  -7.503
REMARK INTRA:                  -1.093
REMARK UNBOUND:                -1.994
REMARK SMILES CC(=O)CCC=C(C)CCC=C(C)CCC=C(C)C
REMARK SMILES IDX 10 1 11 2 12 3 13 4 14 5 15 6 16 7 18 8 17 9 19 10 9 11 7 12
REMARK SMILES IDX 6 13 8 14 5 15 4 16 2 17 3 18 1 19
REMARK H PARENT
REMARK Flexibility Score: inf
ROOT
ATOM      1  C   UNL     1      12.226  75.045 -27.807  1.00  0.00     0.032 C 
ENDROOT
BRANCH   1   2
ATOM      2  C   UNL     1      13.075  75.336 -26.592  1.00  0.00    -0.028 C 
ATOM      3  C   UNL     1      13.771  74.410 -25.893  1.00  0.00    -0.077 C 
ATOM      4  C   UNL     1      13.818  72.960 -26.311  1.00  0.00     0.039 C 
BRANCH   3   5
ATOM      5  C   UNL     1      14.531  74.843 -24.655  1.00  0.00     0.034 C 
BRANCH   5   6
ATOM      6  C   UNL     1      15.254  76.180 -24.864  1.00  0.00     0.032 C 
BRANCH   6   7
ATOM      7  C   UNL     1      14.710  77.257 -23.956  1.00  0.00    -0.028 C 
ATOM      8  C   UNL     1      14.151  78.806 -25.842  1.00  0.00     0.039 C 
ATOM      9  C   UNL     1      14.184  78.426 -24.381  1.00  0.00    -0.080 C 
ATOM     10  C   UNL     1      13.634  79.382 -23.353  1.00  0.00     0.039 C 
ENDBRANCH   6   7
ENDBRANCH   5   6
ENDBRANCH   3   5
ENDBRANCH   1   2
BRANCH   1  11
ATOM     11  C   UNL     1      11.768  76.344 -28.482  1.00  0.00     0.034 C 
BRANCH  11  12
ATOM     12  C   UNL     1      10.721  76.085 -29.545  1.00  0.00    -0.077 C 
ATOM     13  C   UNL     1      10.355  74.811 -29.808  1.00  0.00    -0.028 C 
ATOM     14  C   UNL     1      10.106  77.261 -30.266  1.00  0.00     0.039 C 
BRANCH  13  15
ATOM     15  C   UNL     1       9.353  74.398 -30.863  1.00  0.00     0.035 C 
BRANCH  15  16
ATOM     16  C   UNL     1       8.986  72.917 -30.723  1.00  0.00     0.079 C 
BRANCH  16  17
ATOM     17  C   UNL     1       7.509  72.735 -30.481  1.00  0.00     0.130 C 
ATOM     18  O   UNL     1       7.013  71.625 -30.599  1.00  0.00    -0.300 OA
ATOM     19  C   UNL     1       6.636  73.891 -30.094  1.00  0.00     0.087 C 
ENDBRANCH  16  17
ENDBRANCH  15  16
ENDBRANCH  13  15
ENDBRANCH  11  12
ENDBRANCH   1  11
TORSDOF 9
ENDMDL
