MODEL 1
REMARK VINA RESULT:    -4.737      0.000      0.000
REMARK INTER + INTRA:          -5.034
REMARK INTER:                  -5.014
REMARK INTRA:                  -0.020
REMARK UNBOUND:                -0.020
REMARK SMILES O=C([O-])c1cccnc1
REMARK SMILES IDX 4 1 5 2 9 3 6 4 8 5 7 6 2 7 1 8 3 9
REMARK H PARENT
REMARK Flexibility Score: inf
ROOT
ATOM      1  C   UNL     1     109.152 151.386 149.840  1.00  0.00     0.016 A 
ATOM      2  C   UNL     1     108.098 152.127 150.399  1.00  0.00     0.013 A 
ATOM      3  C   UNL     1     110.259 152.083 149.328  1.00  0.00     0.120 A 
ATOM      4  C   UNL     1     108.163 153.521 150.438  1.00  0.00     0.021 A 
ATOM      5  N   UNL     1     110.299 153.441 149.378  1.00  0.00    -0.264 NA
ATOM      6  C   UNL     1     109.285 154.168 149.916  1.00  0.00     0.111 A 
ENDROOT
BRANCH   1   7
ATOM      7  C   UNL     1     109.101 149.909 149.789  1.00  0.00     0.073 C 
ATOM      8  O   UNL     1     108.736 149.245 150.796  1.00  0.00    -0.545 OA
ATOM      9  O   UNL     1     109.457 149.232 148.629  1.00  0.00    -0.545 OA
ENDBRANCH   1   7
TORSDOF 1
ENDMDL
MODEL 2
REMARK VINA RESULT:    -4.708      1.347      1.607
REMARK INTER + INTRA:          -5.003
REMARK INTER:                  -4.981
REMARK INTRA:                  -0.022
REMARK UNBOUND:                -0.020
REMARK SMILES O=C([O-])c1cccnc1
REMARK SMILES IDX 4 1 5 2 9 3 6 4 8 5 7 6 2 7 1 8 3 9
REMARK H PARENT
REMARK Flexibility Score: inf
ROOT
ATOM      1  C   UNL     1     109.942 151.781 149.470  1.00  0.00     0.016 A 
ATOM      2  C   UNL     1     108.723 151.544 150.126  1.00  0.00     0.013 A 
ATOM      3  C   UNL     1     110.323 153.111 149.229  1.00  0.00     0.120 A 
ATOM      4  C   UNL     1     107.920 152.615 150.523  1.00  0.00     0.021 A 
ATOM      5  N   UNL     1     109.524 154.137 149.625  1.00  0.00    -0.264 NA
ATOM      6  C   UNL     1     108.342 153.919 150.261  1.00  0.00     0.111 A 
ENDROOT
BRANCH   1   7
ATOM      7  C   UNL     1     110.806 150.659 149.042  1.00  0.00     0.073 C 
ATOM      8  O   UNL     1     110.793 149.565 149.666  1.00  0.00    -0.545 OA
ATOM      9  O   UNL     1     111.647 150.798 147.943  1.00  0.00    -0.545 OA
ENDBRANCH   1   7
TORSDOF 1
ENDMDL
MODEL 3
REMARK VINA RESULT:    -4.628      0.882      1.604
REMARK INTER + INTRA:          -4.918
REMARK INTER:                  -4.898
REMARK INTRA:                  -0.020
REMARK UNBOUND:                -0.020
REMARK SMILES O=C([O-])c1cccnc1
REMARK SMILES IDX 4 1 5 2 9 3 6 4 8 5 7 6 2 7 1 8 3 9
REMARK H PARENT
REMARK Flexibility Score: inf
ROOT
ATOM      1  C   UNL     1     109.232 151.341 149.777  1.00  0.00     0.016 A 
ATOM      2  C   UNL     1     110.351 151.999 149.239  1.00  0.00     0.013 A 
ATOM      3  C   UNL     1     108.204 152.120 150.334  1.00  0.00     0.120 A 
ATOM      4  C   UNL     1     110.424 153.393 149.265  1.00  0.00     0.021 A 
ATOM      5  N   UNL     1     108.299 153.476 150.347  1.00  0.00    -0.264 NA
ATOM      6  C   UNL     1     109.377 154.123 149.829  1.00  0.00     0.111 A 
ENDROOT
BRANCH   1   7
ATOM      7  C   UNL     1     109.136 149.866 149.759  1.00  0.00     0.073 C 
ATOM      8  O   UNL     1     108.733 149.238 150.775  1.00  0.00    -0.545 OA
ATOM      9  O   UNL     1     109.491 149.150 148.622  1.00  0.00    -0.545 OA
ENDBRANCH   1   7
TORSDOF 1
ENDMDL
MODEL 4
REMARK VINA RESULT:    -4.575      2.782      3.744
REMARK INTER + INTRA:          -4.863
REMARK INTER:                  -4.839
REMARK INTRA:                  -0.023
REMARK UNBOUND:                -0.020
REMARK SMILES O=C([O-])c1cccnc1
REMARK SMILES IDX 4 1 5 2 9 3 6 4 8 5 7 6 2 7 1 8 3 9
REMARK H PARENT
REMARK Flexibility Score: inf
ROOT
ATOM      1  C   UNL     1     109.699 152.298 149.569  1.00  0.00     0.016 A 
ATOM      2  C   UNL     1     108.752 151.448 150.163  1.00  0.00     0.013 A 
ATOM      3  C   UNL     1     110.852 151.725 149.007  1.00  0.00     0.120 A 
ATOM      4  C   UNL     1     108.966 150.068 150.186  1.00  0.00     0.021 A 
ATOM      5  N   UNL     1     111.037 150.379 149.041  1.00  0.00    -0.264 NA
ATOM      6  C   UNL     1     110.127 149.546 149.613  1.00  0.00     0.111 A 
ENDROOT
BRANCH   1   7
ATOM      7  C   UNL     1     109.492 153.762 149.535  1.00  0.00     0.073 C 
ATOM      8  O   UNL     1     110.242 154.500 148.843  1.00  0.00    -0.545 OA
ATOM      9  O   UNL     1     108.465 154.345 150.270  1.00  0.00    -0.545 OA
ENDBRANCH   1   7
TORSDOF 1
ENDMDL
MODEL 5
REMARK VINA RESULT:    -4.357      2.812      4.214
REMARK INTER + INTRA:          -4.632
REMARK INTER:                  -4.614
REMARK INTRA:                  -0.018
REMARK UNBOUND:                -0.020
REMARK SMILES O=C([O-])c1cccnc1
REMARK SMILES IDX 4 1 5 2 9 3 6 4 8 5 7 6 2 7 1 8 3 9
REMARK H PARENT
REMARK Flexibility Score: inf
ROOT
ATOM      1  C   UNL     1     109.320 150.018 149.429  1.00  0.00     0.016 A 
ATOM      2  C   UNL     1     108.879 149.221 150.499  1.00  0.00     0.013 A 
ATOM      3  C   UNL     1     109.365 149.448 148.146  1.00  0.00     0.120 A 
ATOM      4  C   UNL     1     108.496 147.897 150.275  1.00  0.00     0.021 A 
ATOM      5  N   UNL     1     108.987 148.156 147.954  1.00  0.00    -0.264 NA
ATOM      6  C   UNL     1     108.558 147.376 148.982  1.00  0.00     0.111 A 
ENDROOT
BRANCH   1   7
ATOM      7  C   UNL     1     109.730 151.422 149.645  1.00  0.00     0.073 C 
ATOM      8  O   UNL     1     110.885 151.809 149.323  1.00  0.00    -0.545 OA
ATOM      9  O   UNL     1     108.846 152.335 150.209  1.00  0.00    -0.545 OA
ENDBRANCH   1   7
TORSDOF 1
ENDMDL
MODEL 6
REMARK VINA RESULT:    -4.351      1.680      2.071
REMARK INTER + INTRA:          -4.626
REMARK INTER:                  -4.609
REMARK INTRA:                  -0.016
REMARK UNBOUND:                -0.020
REMARK SMILES O=C([O-])c1cccnc1
REMARK SMILES IDX 4 1 5 2 9 3 6 4 8 5 7 6 2 7 1 8 3 9
REMARK H PARENT
REMARK Flexibility Score: inf
ROOT
ATOM      1  C   UNL     1     109.382 149.601 150.070  1.00  0.00     0.016 A 
ATOM      2  C   UNL     1     108.618 150.741 150.369  1.00  0.00     0.013 A 
ATOM      3  C   UNL     1     110.591 149.771 149.376  1.00  0.00     0.120 A 
ATOM      4  C   UNL     1     109.063 152.005 149.980  1.00  0.00     0.021 A 
ATOM      5  N   UNL     1     111.003 151.013 149.008  1.00  0.00    -0.264 NA
ATOM      6  C   UNL     1     110.272 152.123 149.292  1.00  0.00     0.111 A 
ENDROOT
BRANCH   1   7
ATOM      7  C   UNL     1     108.927 148.253 150.474  1.00  0.00     0.073 C 
ATOM      8  O   UNL     1     109.304 147.749 151.566  1.00  0.00    -0.545 OA
ATOM      9  O   UNL     1     108.078 147.521 149.652  1.00  0.00    -0.545 OA
ENDBRANCH   1   7
TORSDOF 1
ENDMDL
MODEL 7
REMARK VINA RESULT:    -4.273      5.710      6.968
REMARK INTER + INTRA:          -4.542
REMARK INTER:                  -4.525
REMARK INTRA:                  -0.018
REMARK UNBOUND:                -0.020
REMARK SMILES O=C([O-])c1cccnc1
REMARK SMILES IDX 4 1 5 2 9 3 6 4 8 5 7 6 2 7 1 8 3 9
REMARK H PARENT
REMARK Flexibility Score: inf
ROOT
ATOM      1  C   UNL     1     109.357 145.820 150.224  1.00  0.00     0.016 A 
ATOM      2  C   UNL     1     109.528 144.426 150.176  1.00  0.00     0.013 A 
ATOM      3  C   UNL     1     108.964 146.403 151.440  1.00  0.00     0.120 A 
ATOM      4  C   UNL     1     109.308 143.653 151.318  1.00  0.00     0.021 A 
ATOM      5  N   UNL     1     108.757 145.628 152.538  1.00  0.00    -0.264 NA
ATOM      6  C   UNL     1     108.919 144.279 152.503  1.00  0.00     0.111 A 
ENDROOT
BRANCH   1   7
ATOM      7  C   UNL     1     109.584 146.656 149.026  1.00  0.00     0.073 C 
ATOM      8  O   UNL     1     108.647 147.342 148.536  1.00  0.00    -0.545 OA
ATOM      9  O   UNL     1     110.835 146.695 148.420  1.00  0.00    -0.545 OA
ENDBRANCH   1   7
TORSDOF 1
ENDMDL
MODEL 8
REMARK VINA RESULT:    -4.248     18.758     19.088
REMARK INTER + INTRA:          -4.517
REMARK INTER:                  -4.495
REMARK INTRA:                  -0.021
REMARK UNBOUND:                -0.020
REMARK SMILES O=C([O-])c1cccnc1
REMARK SMILES IDX 4 1 5 2 9 3 6 4 8 5 7 6 2 7 1 8 3 9
REMARK H PARENT
REMARK Flexibility Score: inf
ROOT
ATOM      1  C   UNL     1     127.635 147.442 150.537  1.00  0.00     0.016 A 
ATOM      2  C   UNL     1     127.691 148.841 150.416  1.00  0.00     0.013 A 
ATOM      3  C   UNL     1     127.831 146.873 151.806  1.00  0.00     0.120 A 
ATOM      4  C   UNL     1     127.936 149.632 151.540  1.00  0.00     0.021 A 
ATOM      5  N   UNL     1     128.069 147.666 152.885  1.00  0.00    -0.264 NA
ATOM      6  C   UNL     1     128.125 149.020 152.780  1.00  0.00     0.111 A 
ENDROOT
BRANCH   1   7
ATOM      7  C   UNL     1     127.376 146.587 149.359  1.00  0.00     0.073 C 
ATOM      8  O   UNL     1     127.856 145.423 149.294  1.00  0.00    -0.545 OA
ATOM      9  O   UNL     1     126.601 147.055 148.305  1.00  0.00    -0.545 OA
ENDBRANCH   1   7
TORSDOF 1
ENDMDL
MODEL 9
REMARK VINA RESULT:    -4.215     19.282     20.250
REMARK INTER + INTRA:          -4.481
REMARK INTER:                  -4.462
REMARK INTRA:                  -0.019
REMARK UNBOUND:                -0.020
REMARK SMILES O=C([O-])c1cccnc1
REMARK SMILES IDX 4 1 5 2 9 3 6 4 8 5 7 6 2 7 1 8 3 9
REMARK H PARENT
REMARK Flexibility Score: inf
ROOT
ATOM      1  C   UNL     1     126.024 141.465 150.017  1.00  0.00     0.016 A 
ATOM      2  C   UNL     1     127.099 142.188 150.559  1.00  0.00     0.013 A 
ATOM      3  C   UNL     1     126.013 140.069 150.171  1.00  0.00     0.120 A 
ATOM      4  C   UNL     1     128.125 141.521 151.232  1.00  0.00     0.021 A 
ATOM      5  N   UNL     1     127.023 139.443 150.831  1.00  0.00    -0.264 NA
ATOM      6  C   UNL     1     128.069 140.132 151.360  1.00  0.00     0.111 A 
ENDROOT
BRANCH   1   7
ATOM      7  C   UNL     1     124.929 142.154 149.300  1.00  0.00     0.073 C 
ATOM      8  O   UNL     1     124.514 141.718 148.193  1.00  0.00    -0.545 OA
ATOM      9  O   UNL     1     124.342 143.293 149.838  1.00  0.00    -0.545 OA
ENDBRANCH   1   7
TORSDOF 1
ENDMDL
