MODEL 1
REMARK VINA RESULT:    -1.945      0.000      0.000
REMARK INTER + INTRA:          -2.222
REMARK INTER:                  -2.115
REMARK INTRA:                  -0.107
REMARK UNBOUND:                -0.107
REMARK SMILES CC(C)(C)[C@@H]1C=C[C@H](O)CC1
REMARK SMILES IDX 5 1 11 2 10 3 8 4 7 5 6 6 2 7 1 8 3 9 4 10 9 11
REMARK H PARENT 9 12
REMARK Flexibility Score: inf
ROOT
ATOM      1  C   UNL     1     -36.918  33.768 -10.098  1.00  0.00     0.017 C 
ATOM      2  C   UNL     1     -35.600  33.059 -10.536  1.00  0.00     0.011 C 
ATOM      3  C   UNL     1     -34.818  33.835 -11.604  1.00  0.00     0.037 C 
ATOM      4  C   UNL     1     -34.491  35.246 -11.106  1.00  0.00     0.137 C 
ATOM      5  C   UNL     1     -35.716  35.949 -10.580  1.00  0.00     0.000 C 
ATOM      6  C   UNL     1     -36.772  35.287 -10.079  1.00  0.00    -0.025 C 
ENDROOT
BRANCH   1   7
ATOM      7  C   UNL     1     -38.223  33.284 -10.852  1.00  0.00    -0.032 C 
ATOM      8  C   UNL     1     -39.049  32.332  -9.951  1.00  0.00     0.011 C 
ATOM      9  C   UNL     1     -37.847  32.483 -12.125  1.00  0.00     0.011 C 
ATOM     10  C   UNL     1     -39.125  34.467 -11.258  1.00  0.00     0.011 C 
ENDBRANCH   1   7
BRANCH   4  11
ATOM     11  O   UNL     1     -33.884  36.001 -12.122  1.00  0.00    -0.389 OA
ATOM     12  H   UNL     1     -33.721  36.913 -11.762  1.00  0.00     0.211 HD
ENDBRANCH   4  11
TORSDOF 2
ENDMDL
MODEL 2
REMARK VINA RESULT:    -0.523      2.311      4.139
REMARK INTER + INTRA:          -0.676
REMARK INTER:                  -0.402
REMARK INTRA:                  -0.274
REMARK UNBOUND:                -0.107
REMARK SMILES CC(C)(C)[C@@H]1C=C[C@H](O)CC1
REMARK SMILES IDX 5 1 11 2 10 3 8 4 7 5 6 6 2 7 1 8 3 9 4 10 9 11
REMARK H PARENT 9 12
REMARK Flexibility Score: inf
ROOT
ATOM      1  C   UNL     1     -35.890  33.754 -10.367  1.00  0.00     0.017 C 
ATOM      2  C   UNL     1     -37.080  33.292  -9.472  1.00  0.00     0.011 C 
ATOM      3  C   UNL     1     -38.335  32.919 -10.272  1.00  0.00     0.037 C 
ATOM      4  C   UNL     1     -38.012  31.821 -11.289  1.00  0.00     0.137 C 
ATOM      5  C   UNL     1     -36.808  32.172 -12.125  1.00  0.00     0.000 C 
ATOM      6  C   UNL     1     -35.836  32.989 -11.686  1.00  0.00    -0.025 C 
ENDROOT
BRANCH   1   7
ATOM      7  C   UNL     1     -35.763  35.320 -10.558  1.00  0.00    -0.032 C 
ATOM      8  C   UNL     1     -36.572  35.782 -11.797  1.00  0.00     0.011 C 
ATOM      9  C   UNL     1     -34.286  35.717 -10.814  1.00  0.00     0.011 C 
ATOM     10  C   UNL     1     -36.280  36.094  -9.329  1.00  0.00     0.011 C 
ENDBRANCH   1   7
BRANCH   4  11
ATOM     11  O   UNL     1     -39.124  31.562 -12.107  1.00  0.00    -0.389 OA
ATOM     12  H   UNL     1     -39.924  31.938 -11.654  1.00  0.00     0.211 HD
ENDBRANCH   4  11
TORSDOF 2
ENDMDL
MODEL 3
REMARK VINA RESULT:     0.603      1.285      2.309
REMARK INTER + INTRA:           0.549
REMARK INTER:                   0.813
REMARK INTRA:                  -0.264
REMARK UNBOUND:                -0.107
REMARK SMILES CC(C)(C)[C@@H]1C=C[C@H](O)CC1
REMARK SMILES IDX 5 1 11 2 10 3 8 4 7 5 6 6 2 7 1 8 3 9 4 10 9 11
REMARK H PARENT 9 12
REMARK Flexibility Score: inf
ROOT
ATOM      1  C   UNL     1     -36.946  34.303 -11.853  1.00  0.00     0.017 C 
ATOM      2  C   UNL     1     -36.405  35.766 -11.845  1.00  0.00     0.011 C 
ATOM      3  C   UNL     1     -34.998  35.892 -11.247  1.00  0.00     0.037 C 
ATOM      4  C   UNL     1     -34.014  34.995 -12.003  1.00  0.00     0.137 C 
ATOM      5  C   UNL     1     -34.528  33.583 -12.125  1.00  0.00     0.000 C 
ATOM      6  C   UNL     1     -35.838  33.286 -12.115  1.00  0.00    -0.025 C 
ENDROOT
BRANCH   1   7
ATOM      7  C   UNL     1     -37.856  33.917 -10.617  1.00  0.00    -0.032 C 
ATOM      8  C   UNL     1     -38.385  35.194  -9.914  1.00  0.00     0.011 C 
ATOM      9  C   UNL     1     -37.034  33.133  -9.563  1.00  0.00     0.011 C 
ATOM     10  C   UNL     1     -39.068  33.062 -11.039  1.00  0.00     0.011 C 
ENDBRANCH   1   7
BRANCH   4  11
ATOM     11  O   UNL     1     -32.754  35.011 -11.385  1.00  0.00    -0.389 OA
ATOM     12  H   UNL     1     -32.900  35.120 -10.408  1.00  0.00     0.211 HD
ENDBRANCH   4  11
TORSDOF 2
ENDMDL
