MODEL 1
REMARK VINA RESULT:    -6.127      0.000      0.000
REMARK INTER + INTRA:          -6.849
REMARK INTER:                  -6.664
REMARK INTRA:                  -0.185
REMARK UNBOUND:                -0.185
REMARK SMILES Cc1ccc(C(C)C)c(O)c1
REMARK SMILES IDX 1 1 2 2 11 3 9 4 5 5 4 6 3 7 10 8 6 10 7 11 8 12
REMARK H PARENT 10 9
REMARK Flexibility Score: inf
ROOT
ATOM      1  C   UNL     1      25.191  37.776  26.930  1.00  0.00     0.044 C 
ATOM      2  C   UNL     1      26.689  37.862  26.928  1.00  0.00    -0.047 A 
ATOM      3  C   UNL     1      27.394  37.864  25.719  1.00  0.00     0.049 A 
ATOM      4  C   UNL     1      28.793  37.918  25.703  1.00  0.00     0.119 A 
ATOM      5  C   UNL     1      29.519  37.900  26.925  1.00  0.00    -0.004 A 
ATOM      6  C   UNL     1      28.790  37.927  28.134  1.00  0.00     0.008 A 
ATOM      7  C   UNL     1      27.395  37.892  28.135  1.00  0.00     0.004 A 
ENDROOT
BRANCH   4   8
ATOM      8  O   UNL     1      29.415  38.005  24.454  1.00  0.00    -0.508 OA
ATOM      9  H   UNL     1      29.076  37.550  23.619  1.00  0.00     0.293 HD
ENDBRANCH   4   8
BRANCH   5  10
ATOM     10  C   UNL     1      31.045  37.921  26.947  1.00  0.00     0.017 C 
ATOM     11  C   UNL     1      31.548  39.288  27.417  1.00  0.00     0.012 C 
ATOM     12  C   UNL     1      31.658  36.795  27.797  1.00  0.00     0.012 C 
ENDBRANCH   5  10
TORSDOF 2
ENDMDL
MODEL 2
REMARK VINA RESULT:    -6.054      1.601      2.100
REMARK INTER + INTRA:          -6.769
REMARK INTER:                  -6.580
REMARK INTRA:                  -0.190
REMARK UNBOUND:                -0.185
REMARK SMILES Cc1ccc(C(C)C)c(O)c1
REMARK SMILES IDX 1 1 2 2 11 3 9 4 5 5 4 6 3 7 10 8 6 10 7 11 8 12
REMARK H PARENT 10 9
REMARK Flexibility Score: inf
ROOT
ATOM      1  C   UNL     1      25.240  37.661  26.975  1.00  0.00     0.044 C 
ATOM      2  C   UNL     1      26.737  37.646  26.871  1.00  0.00    -0.047 A 
ATOM      3  C   UNL     1      27.467  36.554  27.355  1.00  0.00     0.049 A 
ATOM      4  C   UNL     1      28.865  36.537  27.288  1.00  0.00     0.119 A 
ATOM      5  C   UNL     1      29.566  37.669  26.789  1.00  0.00    -0.004 A 
ATOM      6  C   UNL     1      28.813  38.749  26.279  1.00  0.00     0.008 A 
ATOM      7  C   UNL     1      27.418  38.743  26.336  1.00  0.00     0.004 A 
ENDROOT
BRANCH   4   8
ATOM      8  O   UNL     1      29.512  35.373  27.712  1.00  0.00    -0.508 OA
ATOM      9  H   UNL     1      29.600  34.537  27.152  1.00  0.00     0.293 HD
ENDBRANCH   4   8
BRANCH   5  10
ATOM     10  C   UNL     1      31.091  37.703  26.734  1.00  0.00     0.017 C 
ATOM     11  C   UNL     1      31.580  37.301  25.340  1.00  0.00     0.012 C 
ATOM     12  C   UNL     1      31.687  39.060  27.148  1.00  0.00     0.012 C 
ENDBRANCH   5  10
TORSDOF 2
ENDMDL
MODEL 3
REMARK VINA RESULT:    -6.040      1.708      2.182
REMARK INTER + INTRA:          -6.755
REMARK INTER:                  -6.571
REMARK INTRA:                  -0.184
REMARK UNBOUND:                -0.185
REMARK SMILES Cc1ccc(C(C)C)c(O)c1
REMARK SMILES IDX 1 1 2 2 11 3 9 4 5 5 4 6 3 7 10 8 6 10 7 11 8 12
REMARK H PARENT 10 9
REMARK Flexibility Score: inf
ROOT
ATOM      1  C   UNL     1      25.358  37.646  26.997  1.00  0.00     0.044 C 
ATOM      2  C   UNL     1      26.847  37.591  27.176  1.00  0.00    -0.047 A 
ATOM      3  C   UNL     1      27.531  38.676  27.736  1.00  0.00     0.049 A 
ATOM      4  C   UNL     1      28.923  38.649  27.886  1.00  0.00     0.119 A 
ATOM      5  C   UNL     1      29.667  37.540  27.401  1.00  0.00    -0.004 A 
ATOM      6  C   UNL     1      28.959  36.442  26.866  1.00  0.00     0.008 A 
ATOM      7  C   UNL     1      27.569  36.476  26.740  1.00  0.00     0.004 A 
ENDROOT
BRANCH   4   8
ATOM      8  O   UNL     1      29.517  39.736  28.534  1.00  0.00    -0.508 OA
ATOM      9  H   UNL     1      30.499  39.790  28.765  1.00  0.00     0.293 HD
ENDBRANCH   4   8
BRANCH   5  10
ATOM     10  C   UNL     1      31.189  37.490  27.513  1.00  0.00     0.017 C 
ATOM     11  C   UNL     1      31.629  36.182  28.175  1.00  0.00     0.012 C 
ATOM     12  C   UNL     1      31.907  37.685  26.166  1.00  0.00     0.012 C 
ENDBRANCH   5  10
TORSDOF 2
ENDMDL
MODEL 4
REMARK VINA RESULT:    -5.971      2.067      3.821
REMARK INTER + INTRA:          -6.680
REMARK INTER:                  -6.529
REMARK INTRA:                  -0.151
REMARK UNBOUND:                -0.185
REMARK SMILES Cc1ccc(C(C)C)c(O)c1
REMARK SMILES IDX 1 1 2 2 11 3 9 4 5 5 4 6 3 7 10 8 6 10 7 11 8 12
REMARK H PARENT 10 9
REMARK Flexibility Score: inf
ROOT
ATOM      1  C   UNL     1      30.149  39.131  30.979  1.00  0.00     0.044 C 
ATOM      2  C   UNL     1      29.682  38.962  29.563  1.00  0.00    -0.047 A 
ATOM      3  C   UNL     1      28.316  38.860  29.278  1.00  0.00     0.049 A 
ATOM      4  C   UNL     1      27.866  38.677  27.965  1.00  0.00     0.119 A 
ATOM      5  C   UNL     1      28.804  38.520  26.909  1.00  0.00    -0.004 A 
ATOM      6  C   UNL     1      30.178  38.654  27.210  1.00  0.00     0.008 A 
ATOM      7  C   UNL     1      30.610  38.855  28.522  1.00  0.00     0.004 A 
ENDROOT
BRANCH   4   8
ATOM      8  O   UNL     1      26.484  38.673  27.756  1.00  0.00    -0.508 OA
ATOM      9  H   UNL     1      25.824  39.195  28.316  1.00  0.00     0.293 HD
ENDBRANCH   4   8
BRANCH   5  10
ATOM     10  C   UNL     1      28.354  38.281  25.470  1.00  0.00     0.017 C 
ATOM     11  C   UNL     1      29.490  38.613  24.498  1.00  0.00     0.012 C 
ATOM     12  C   UNL     1      27.826  36.858  25.223  1.00  0.00     0.012 C 
ENDBRANCH   5  10
TORSDOF 2
ENDMDL
MODEL 5
REMARK VINA RESULT:    -5.731      2.388      3.116
REMARK INTER + INTRA:          -6.418
REMARK INTER:                  -6.229
REMARK INTRA:                  -0.190
REMARK UNBOUND:                -0.185
REMARK SMILES Cc1ccc(C(C)C)c(O)c1
REMARK SMILES IDX 1 1 2 2 11 3 9 4 5 5 4 6 3 7 10 8 6 10 7 11 8 12
REMARK H PARENT 10 9
REMARK Flexibility Score: inf
ROOT
ATOM      1  C   UNL     1      28.250  34.397  26.239  1.00  0.00     0.044 C 
ATOM      2  C   UNL     1      28.689  35.647  26.942  1.00  0.00    -0.047 A 
ATOM      3  C   UNL     1      27.743  36.579  27.383  1.00  0.00     0.049 A 
ATOM      4  C   UNL     1      28.140  37.762  28.019  1.00  0.00     0.119 A 
ATOM      5  C   UNL     1      29.522  38.063  28.159  1.00  0.00    -0.004 A 
ATOM      6  C   UNL     1      30.462  37.099  27.734  1.00  0.00     0.008 A 
ATOM      7  C   UNL     1      30.050  35.915  27.119  1.00  0.00     0.004 A 
ENDROOT
BRANCH   4   8
ATOM      8  O   UNL     1      27.130  38.596  28.507  1.00  0.00    -0.508 OA
ATOM      9  H   UNL     1      26.433  39.042  27.927  1.00  0.00     0.293 HD
ENDBRANCH   4   8
BRANCH   5  10
ATOM     10  C   UNL     1      29.994  39.359  28.813  1.00  0.00     0.017 C 
ATOM     11  C   UNL     1      30.147  39.165  30.323  1.00  0.00     0.012 C 
ATOM     12  C   UNL     1      31.293  39.914  28.202  1.00  0.00     0.012 C 
ENDBRANCH   5  10
TORSDOF 2
ENDMDL
MODEL 6
REMARK VINA RESULT:    -5.728      1.732      3.817
REMARK INTER + INTRA:          -6.415
REMARK INTER:                  -6.226
REMARK INTRA:                  -0.190
REMARK UNBOUND:                -0.185
REMARK SMILES Cc1ccc(C(C)C)c(O)c1
REMARK SMILES IDX 1 1 2 2 11 3 9 4 5 5 4 6 3 7 10 8 6 10 7 11 8 12
REMARK H PARENT 10 9
REMARK Flexibility Score: inf
ROOT
ATOM      1  C   UNL     1      30.167  39.201  30.924  1.00  0.00     0.044 C 
ATOM      2  C   UNL     1      29.734  38.864  29.528  1.00  0.00    -0.047 A 
ATOM      3  C   UNL     1      30.687  38.660  28.523  1.00  0.00     0.049 A 
ATOM      4  C   UNL     1      30.297  38.371  27.210  1.00  0.00     0.119 A 
ATOM      5  C   UNL     1      28.918  38.350  26.867  1.00  0.00    -0.004 A 
ATOM      6  C   UNL     1      27.970  38.529  27.899  1.00  0.00     0.008 A 
ATOM      7  C   UNL     1      28.375  38.799  29.207  1.00  0.00     0.004 A 
ENDROOT
BRANCH   4   8
ATOM      8  O   UNL     1      31.310  38.095  26.288  1.00  0.00    -0.508 OA
ATOM      9  H   UNL     1      31.528  37.170  25.943  1.00  0.00     0.293 HD
ENDBRANCH   4   8
BRANCH   5  10
ATOM     10  C   UNL     1      28.454  38.074  25.439  1.00  0.00     0.017 C 
ATOM     11  C   UNL     1      27.231  37.154  25.448  1.00  0.00     0.012 C 
ATOM     12  C   UNL     1      28.167  39.352  24.632  1.00  0.00     0.012 C 
ENDBRANCH   5  10
TORSDOF 2
ENDMDL
MODEL 7
REMARK VINA RESULT:    -5.672      2.162      4.451
REMARK INTER + INTRA:          -6.354
REMARK INTER:                  -6.169
REMARK INTRA:                  -0.186
REMARK UNBOUND:                -0.185
REMARK SMILES Cc1ccc(C(C)C)c(O)c1
REMARK SMILES IDX 1 1 2 2 11 3 9 4 5 5 4 6 3 7 10 8 6 10 7 11 8 12
REMARK H PARENT 10 9
REMARK Flexibility Score: inf
ROOT
ATOM      1  C   UNL     1      32.217  40.569  27.762  1.00  0.00     0.044 C 
ATOM      2  C   UNL     1      31.090  39.579  27.741  1.00  0.00    -0.047 A 
ATOM      3  C   UNL     1      30.242  39.451  28.848  1.00  0.00     0.049 A 
ATOM      4  C   UNL     1      29.202  38.513  28.853  1.00  0.00     0.119 A 
ATOM      5  C   UNL     1      29.040  37.627  27.754  1.00  0.00    -0.004 A 
ATOM      6  C   UNL     1      29.886  37.789  26.634  1.00  0.00     0.008 A 
ATOM      7  C   UNL     1      30.907  38.741  26.637  1.00  0.00     0.004 A 
ENDROOT
BRANCH   4   8
ATOM      8  O   UNL     1      28.349  38.511  29.960  1.00  0.00    -0.508 OA
ATOM      9  H   UNL     1      28.514  37.980  30.803  1.00  0.00     0.293 HD
ENDBRANCH   4   8
BRANCH   5  10
ATOM     10  C   UNL     1      27.942  36.567  27.738  1.00  0.00     0.017 C 
ATOM     11  C   UNL     1      26.645  37.158  27.179  1.00  0.00     0.012 C 
ATOM     12  C   UNL     1      28.333  35.292  26.971  1.00  0.00     0.012 C 
ENDBRANCH   5  10
TORSDOF 2
ENDMDL
MODEL 8
REMARK VINA RESULT:    -5.672      1.966      4.113
REMARK INTER + INTRA:          -6.354
REMARK INTER:                  -6.168
REMARK INTRA:                  -0.186
REMARK UNBOUND:                -0.185
REMARK SMILES Cc1ccc(C(C)C)c(O)c1
REMARK SMILES IDX 1 1 2 2 11 3 9 4 5 5 4 6 3 7 10 8 6 10 7 11 8 12
REMARK H PARENT 10 9
REMARK Flexibility Score: inf
ROOT
ATOM      1  C   UNL     1      32.184  35.749  28.678  1.00  0.00     0.044 C 
ATOM      2  C   UNL     1      31.256  36.474  27.748  1.00  0.00    -0.047 A 
ATOM      3  C   UNL     1      30.150  35.815  27.200  1.00  0.00     0.049 A 
ATOM      4  C   UNL     1      29.290  36.470  26.310  1.00  0.00     0.119 A 
ATOM      5  C   UNL     1      29.575  37.800  25.898  1.00  0.00    -0.004 A 
ATOM      6  C   UNL     1      30.678  38.459  26.483  1.00  0.00     0.008 A 
ATOM      7  C   UNL     1      31.516  37.798  27.383  1.00  0.00     0.004 A 
ENDROOT
BRANCH   4   8
ATOM      8  O   UNL     1      28.161  35.769  25.878  1.00  0.00    -0.508 OA
ATOM      9  H   UNL     1      27.363  35.562  26.462  1.00  0.00     0.293 HD
ENDBRANCH   4   8
BRANCH   5  10
ATOM     10  C   UNL     1      28.681  38.536  24.902  1.00  0.00     0.017 C 
ATOM     11  C   UNL     1      27.539  39.241  25.637  1.00  0.00     0.012 C 
ATOM     12  C   UNL     1      29.448  39.528  24.011  1.00  0.00     0.012 C 
ENDBRANCH   5  10
TORSDOF 2
ENDMDL
MODEL 9
REMARK VINA RESULT:    -5.570      2.042      3.777
REMARK INTER + INTRA:          -6.244
REMARK INTER:                  -6.186
REMARK INTRA:                  -0.058
REMARK UNBOUND:                -0.185
REMARK SMILES Cc1ccc(C(C)C)c(O)c1
REMARK SMILES IDX 1 1 2 2 11 3 9 4 5 5 4 6 3 7 10 8 6 10 7 11 8 12
REMARK H PARENT 10 9
REMARK Flexibility Score: inf
ROOT
ATOM      1  C   UNL     1      31.677  37.146  24.438  1.00  0.00     0.044 C 
ATOM      2  C   UNL     1      30.987  37.582  25.697  1.00  0.00    -0.047 A 
ATOM      3  C   UNL     1      29.785  38.296  25.633  1.00  0.00     0.049 A 
ATOM      4  C   UNL     1      29.143  38.730  26.798  1.00  0.00     0.119 A 
ATOM      5  C   UNL     1      29.747  38.510  28.066  1.00  0.00    -0.004 A 
ATOM      6  C   UNL     1      30.944  37.762  28.114  1.00  0.00     0.008 A 
ATOM      7  C   UNL     1      31.563  37.320  26.944  1.00  0.00     0.004 A 
ENDROOT
BRANCH   4   8
ATOM      8  O   UNL     1      27.903  39.360  26.650  1.00  0.00    -0.508 OA
ATOM      9  H   UNL     1      27.023  38.870  26.582  1.00  0.00     0.293 HD
ENDBRANCH   4   8
BRANCH   5  10
ATOM     10  C   UNL     1      29.095  39.000  29.356  1.00  0.00     0.017 C 
ATOM     11  C   UNL     1      27.830  38.192  29.651  1.00  0.00     0.012 C 
ATOM     12  C   UNL     1      30.046  38.981  30.566  1.00  0.00     0.012 C 
ENDBRANCH   5  10
TORSDOF 2
ENDMDL
