MODEL 1
REMARK VINA RESULT:    -0.212      0.000      0.000
REMARK INTER + INTRA:          -0.722
REMARK INTER:                  -0.286
REMARK INTRA:                  -0.435
REMARK UNBOUND:                -0.435
REMARK SMILES CC[C@H](CC[C@H](C)[C@@H]1CC[C@H]2[C@@H]3CC(=O)C4=CC(=O)CC[C@]4(C)[C@@H]3CC[C@]21C)C(C)C
REMARK SMILES IDX 4 1 3 2 2 3 1 4 29 5 30 6 31 7 5 8 6 9 7 10 8 11 9 12 27 13
REMARK SMILES IDX 10 14 11 15 26 16 28 17 12 18 25 19 24 20 13 21 22 22 14 23
REMARK SMILES IDX 16 24 21 25 23 26 15 27 17 28 20 29 18 30 19 31
REMARK H PARENT
REMARK Flexibility Score: inf
ROOT
ATOM      1  C   UNL     1      28.669  57.377 138.894  1.00  0.00     0.004 C 
ENDROOT
BRANCH   1   2
ATOM      2  C   UNL     1      27.416  56.474 138.667  1.00  0.00    -0.009 C 
BRANCH   2   3
ATOM      3  C   UNL     1      27.151  55.523 139.869  1.00  0.00     0.000 C 
ATOM      4  C   UNL     1      27.384  54.046 139.553  1.00  0.00     0.004 C 
ENDBRANCH   2   3
BRANCH   2   5
ATOM      5  C   UNL     1      26.129  57.305 138.348  1.00  0.00    -0.014 C 
ATOM      6  C   UNL     1      24.918  56.849 139.180  1.00  0.00     0.007 C 
ATOM      7  C   UNL     1      25.771  57.334 136.852  1.00  0.00     0.007 C 
ENDBRANCH   2   5
ENDBRANCH   1   2
BRANCH   1   8
ATOM      8  C   UNL     1      28.333  58.810 139.384  1.00  0.00     0.004 C 
BRANCH   8   9
ATOM      9  C   UNL     1      29.390  59.422 140.358  1.00  0.00    -0.011 C 
ATOM     10  C   UNL     1      30.775  58.875 139.947  1.00  0.00     0.008 C 
BRANCH   9  11
ATOM     11  C   UNL     1      29.113  59.088 141.870  1.00  0.00    -0.002 C 
ATOM     12  C   UNL     1      29.625  57.722 142.325  1.00  0.00     0.005 C 
ATOM     13  C   UNL     1      27.616  59.163 142.403  1.00  0.00    -0.026 C 
ATOM     14  C   UNL     1      28.914  57.470 143.635  1.00  0.00     0.005 C 
ATOM     15  C   UNL     1      27.489  57.917 143.354  1.00  0.00    -0.001 C 
ATOM     16  C   UNL     1      27.400  60.522 143.141  1.00  0.00     0.007 C 
ATOM     17  C   UNL     1      26.560  59.019 141.272  1.00  0.00     0.012 C 
ATOM     18  C   UNL     1      26.625  58.037 144.650  1.00  0.00     0.004 C 
ATOM     19  C   UNL     1      26.336  60.503 144.237  1.00  0.00     0.005 C 
ATOM     20  C   UNL     1      26.688  59.443 145.307  1.00  0.00     0.003 C 
ATOM     21  C   UNL     1      25.173  57.582 144.385  1.00  0.00     0.085 C 
ATOM     22  C   UNL     1      25.851  59.520 146.654  1.00  0.00    -0.000 C 
ATOM     23  C   UNL     1      24.283  57.753 145.575  1.00  0.00     0.159 C 
ATOM     24  C   UNL     1      24.466  58.892 146.501  1.00  0.00     0.005 C 
ATOM     25  C   UNL     1      25.693  60.998 147.143  1.00  0.00     0.020 C 
ATOM     26  C   UNL     1      26.608  58.720 147.752  1.00  0.00     0.017 C 
ATOM     27  O   UNL     1      23.327  56.946 145.736  1.00  0.00    -0.295 OA
ATOM     28  C   UNL     1      23.449  59.258 147.310  1.00  0.00     0.055 C 
ATOM     29  C   UNL     1      24.859  61.124 148.423  1.00  0.00     0.081 C 
ATOM     30  C   UNL     1      23.584  60.343 148.299  1.00  0.00     0.156 C 
ATOM     31  O   UNL     1      22.622  60.603 149.068  1.00  0.00    -0.295 OA
ENDBRANCH   9  11
ENDBRANCH   8   9
ENDBRANCH   1   8
TORSDOF 6
ENDMDL
MODEL 2
REMARK VINA RESULT:     0.222      0.615      1.435
REMARK INTER + INTRA:          -0.136
REMARK INTER:                  -0.540
REMARK INTRA:                   0.404
REMARK UNBOUND:                -0.435
REMARK SMILES CC[C@H](CC[C@H](C)[C@@H]1CC[C@H]2[C@@H]3CC(=O)C4=CC(=O)CC[C@]4(C)[C@@H]3CC[C@]21C)C(C)C
REMARK SMILES IDX 4 1 3 2 2 3 1 4 29 5 30 6 31 7 5 8 6 9 7 10 8 11 9 12 27 13
REMARK SMILES IDX 10 14 11 15 26 16 28 17 12 18 25 19 24 20 13 21 22 22 14 23
REMARK SMILES IDX 16 24 21 25 23 26 15 27 17 28 20 29 18 30 19 31
REMARK H PARENT
REMARK Flexibility Score: inf
ROOT
ATOM      1  C   UNL     1      27.942  58.121 138.687  1.00  0.00     0.004 C 
ENDROOT
BRANCH   1   2
ATOM      2  C   UNL     1      26.586  57.384 138.923  1.00  0.00    -0.009 C 
BRANCH   2   3
ATOM      3  C   UNL     1      25.842  57.079 137.593  1.00  0.00     0.000 C 
ATOM      4  C   UNL     1      26.678  57.346 136.341  1.00  0.00     0.004 C 
ENDBRANCH   2   3
BRANCH   2   5
ATOM      5  C   UNL     1      26.756  56.070 139.756  1.00  0.00    -0.014 C 
ATOM      6  C   UNL     1      28.221  55.817 140.153  1.00  0.00     0.007 C 
ATOM      7  C   UNL     1      26.166  54.826 139.070  1.00  0.00     0.007 C 
ENDBRANCH   2   5
ENDBRANCH   1   2
BRANCH   1   8
ATOM      8  C   UNL     1      28.008  59.538 139.312  1.00  0.00     0.004 C 
BRANCH   8   9
ATOM      9  C   UNL     1      29.257  59.785 140.217  1.00  0.00    -0.011 C 
ATOM     10  C   UNL     1      30.424  58.958 139.637  1.00  0.00     0.008 C 
BRANCH   9  11
ATOM     11  C   UNL     1      29.024  59.396 141.723  1.00  0.00    -0.002 C 
ATOM     12  C   UNL     1      29.574  58.026 142.119  1.00  0.00     0.005 C 
ATOM     13  C   UNL     1      27.540  59.423 142.294  1.00  0.00    -0.026 C 
ATOM     14  C   UNL     1      28.901  57.715 143.437  1.00  0.00     0.005 C 
ATOM     15  C   UNL     1      27.461  58.143 143.205  1.00  0.00    -0.001 C 
ATOM     16  C   UNL     1      27.317  60.752 143.083  1.00  0.00     0.007 C 
ATOM     17  C   UNL     1      26.459  59.295 141.186  1.00  0.00     0.012 C 
ATOM     18  C   UNL     1      26.628  58.202 144.526  1.00  0.00     0.004 C 
ATOM     19  C   UNL     1      26.281  60.674 144.204  1.00  0.00     0.005 C 
ATOM     20  C   UNL     1      26.680  59.586 145.228  1.00  0.00     0.003 C 
ATOM     21  C   UNL     1      25.179  57.727 144.281  1.00  0.00     0.085 C 
ATOM     22  C   UNL     1      25.876  59.601 146.597  1.00  0.00    -0.000 C 
ATOM     23  C   UNL     1      24.316  57.840 145.497  1.00  0.00     0.159 C 
ATOM     24  C   UNL     1      24.499  58.951 146.457  1.00  0.00     0.005 C 
ATOM     25  C   UNL     1      25.702  61.059 147.140  1.00  0.00     0.020 C 
ATOM     26  C   UNL     1      26.675  58.780 147.648  1.00  0.00     0.017 C 
ATOM     27  O   UNL     1      23.379  57.009 145.654  1.00  0.00    -0.295 OA
ATOM     28  C   UNL     1      23.497  59.269 147.303  1.00  0.00     0.055 C 
ATOM     29  C   UNL     1      24.897  61.125 148.444  1.00  0.00     0.081 C 
ATOM     30  C   UNL     1      23.635  60.323 148.324  1.00  0.00     0.156 C 
ATOM     31  O   UNL     1      22.688  60.537 149.125  1.00  0.00    -0.295 OA
ENDBRANCH   9  11
ENDBRANCH   8   9
ENDBRANCH   1   8
TORSDOF 6
ENDMDL
MODEL 3
REMARK VINA RESULT:     1.357      3.380      8.528
REMARK INTER + INTRA:           1.398
REMARK INTER:                   1.750
REMARK INTRA:                  -0.352
REMARK UNBOUND:                -0.435
REMARK SMILES CC[C@H](CC[C@H](C)[C@@H]1CC[C@H]2[C@@H]3CC(=O)C4=CC(=O)CC[C@]4(C)[C@@H]3CC[C@]21C)C(C)C
REMARK SMILES IDX 4 1 3 2 2 3 1 4 29 5 30 6 31 7 5 8 6 9 7 10 8 11 9 12 27 13
REMARK SMILES IDX 10 14 11 15 26 16 28 17 12 18 25 19 24 20 13 21 22 22 14 23
REMARK SMILES IDX 16 24 21 25 23 26 15 27 17 28 20 29 18 30 19 31
REMARK H PARENT
REMARK Flexibility Score: inf
ROOT
ATOM      1  C   UNL     1      23.695  58.469 146.547  1.00  0.00     0.004 C 
ENDROOT
BRANCH   1   2
ATOM      2  C   UNL     1      22.945  58.899 147.847  1.00  0.00    -0.009 C 
BRANCH   2   3
ATOM      3  C   UNL     1      23.580  58.280 149.125  1.00  0.00     0.000 C 
ATOM      4  C   UNL     1      23.634  56.753 149.112  1.00  0.00     0.004 C 
ENDBRANCH   2   3
BRANCH   2   5
ATOM      5  C   UNL     1      22.849  60.454 147.996  1.00  0.00    -0.014 C 
ATOM      6  C   UNL     1      22.231  61.121 146.756  1.00  0.00     0.007 C 
ATOM      7  C   UNL     1      24.188  61.122 148.353  1.00  0.00     0.007 C 
ENDBRANCH   2   5
ENDBRANCH   1   2
BRANCH   1   8
ATOM      8  C   UNL     1      25.203  58.173 146.758  1.00  0.00     0.004 C 
BRANCH   8   9
ATOM      9  C   UNL     1      26.149  58.913 145.758  1.00  0.00    -0.011 C 
ATOM     10  C   UNL     1      25.832  60.422 145.846  1.00  0.00     0.008 C 
BRANCH   9  11
ATOM     11  C   UNL     1      25.997  58.421 144.273  1.00  0.00    -0.002 C 
ATOM     12  C   UNL     1      25.872  56.906 144.113  1.00  0.00     0.005 C 
ATOM     13  C   UNL     1      27.098  58.856 143.211  1.00  0.00    -0.026 C 
ATOM     14  C   UNL     1      26.139  56.657 142.646  1.00  0.00     0.005 C 
ATOM     15  C   UNL     1      27.322  57.562 142.345  1.00  0.00    -0.001 C 
ATOM     16  C   UNL     1      26.562  60.064 142.379  1.00  0.00     0.007 C 
ATOM     17  C   UNL     1      28.454  59.243 143.864  1.00  0.00     0.012 C 
ATOM     18  C   UNL     1      27.597  57.711 140.814  1.00  0.00     0.004 C 
ATOM     19  C   UNL     1      27.127  60.179 140.964  1.00  0.00     0.005 C 
ATOM     20  C   UNL     1      26.828  58.892 140.161  1.00  0.00     0.003 C 
ATOM     21  C   UNL     1      29.114  57.776 140.533  1.00  0.00     0.085 C 
ATOM     22  C   UNL     1      27.077  58.983 138.595  1.00  0.00    -0.000 C 
ATOM     23  C   UNL     1      29.429  57.999 139.088  1.00  0.00     0.159 C 
ATOM     24  C   UNL     1      28.558  58.847 138.244  1.00  0.00     0.005 C 
ATOM     25  C   UNL     1      26.532  60.329 138.010  1.00  0.00     0.020 C 
ATOM     26  C   UNL     1      26.323  57.810 137.907  1.00  0.00     0.017 C 
ATOM     27  O   UNL     1      30.492  57.510 138.618  1.00  0.00    -0.295 OA
ATOM     28  C   UNL     1      29.044  59.359 137.094  1.00  0.00     0.055 C 
ATOM     29  C   UNL     1      26.784  60.477 136.505  1.00  0.00     0.081 C 
ATOM     30  C   UNL     1      28.212  60.159 136.177  1.00  0.00     0.156 C 
ATOM     31  O   UNL     1      28.702  60.561 135.089  1.00  0.00    -0.295 OA
ENDBRANCH   9  11
ENDBRANCH   8   9
ENDBRANCH   1   8
TORSDOF 6
ENDMDL
MODEL 4
REMARK VINA RESULT:     1.930      3.049      8.456
REMARK INTER + INTRA:           2.171
REMARK INTER:                   0.012
REMARK INTRA:                   2.159
REMARK UNBOUND:                -0.435
REMARK SMILES CC[C@H](CC[C@H](C)[C@@H]1CC[C@H]2[C@@H]3CC(=O)C4=CC(=O)CC[C@]4(C)[C@@H]3CC[C@]21C)C(C)C
REMARK SMILES IDX 4 1 3 2 2 3 1 4 29 5 30 6 31 7 5 8 6 9 7 10 8 11 9 12 27 13
REMARK SMILES IDX 10 14 11 15 26 16 28 17 12 18 25 19 24 20 13 21 22 22 14 23
REMARK SMILES IDX 16 24 21 25 23 26 15 27 17 28 20 29 18 30 19 31
REMARK H PARENT
REMARK Flexibility Score: inf
ROOT
ATOM      1  C   UNL     1      23.496  60.238 146.232  1.00  0.00     0.004 C 
ENDROOT
BRANCH   1   2
ATOM      2  C   UNL     1      22.670  61.124 147.217  1.00  0.00    -0.009 C 
BRANCH   2   3
ATOM      3  C   UNL     1      21.142  61.040 146.944  1.00  0.00     0.000 C 
ATOM      4  C   UNL     1      20.784  60.898 145.465  1.00  0.00     0.004 C 
ENDBRANCH   2   3
BRANCH   2   5
ATOM      5  C   UNL     1      22.966  60.787 148.717  1.00  0.00    -0.014 C 
ATOM      6  C   UNL     1      24.413  61.125 149.116  1.00  0.00     0.007 C 
ATOM      7  C   UNL     1      22.630  59.336 149.099  1.00  0.00     0.007 C 
ENDBRANCH   2   5
ENDBRANCH   1   2
BRANCH   1   8
ATOM      8  C   UNL     1      23.687  58.775 146.709  1.00  0.00     0.004 C 
BRANCH   8   9
ATOM      9  C   UNL     1      25.178  58.313 146.786  1.00  0.00    -0.011 C 
ATOM     10  C   UNL     1      25.691  58.629 148.208  1.00  0.00     0.008 C 
BRANCH   9  11
ATOM     11  C   UNL     1      26.102  59.005 145.719  1.00  0.00    -0.002 C 
ATOM     12  C   UNL     1      25.652  60.403 145.298  1.00  0.00     0.005 C 
ATOM     13  C   UNL     1      26.394  58.240 144.355  1.00  0.00    -0.026 C 
ATOM     14  C   UNL     1      26.424  60.682 144.028  1.00  0.00     0.005 C 
ATOM     15  C   UNL     1      26.330  59.371 143.265  1.00  0.00    -0.001 C 
ATOM     16  C   UNL     1      27.792  57.549 144.441  1.00  0.00     0.007 C 
ATOM     17  C   UNL     1      25.315  57.175 144.012  1.00  0.00     0.012 C 
ATOM     18  C   UNL     1      27.308  59.308 142.048  1.00  0.00     0.004 C 
ATOM     19  C   UNL     1      28.506  57.363 143.103  1.00  0.00     0.005 C 
ATOM     20  C   UNL     1      28.704  58.728 142.406  1.00  0.00     0.003 C 
ATOM     21  C   UNL     1      26.657  58.567 140.859  1.00  0.00     0.085 C 
ATOM     22  C   UNL     1      29.697  58.732 141.167  1.00  0.00    -0.000 C 
ATOM     23  C   UNL     1      27.582  58.409 139.695  1.00  0.00     0.159 C 
ATOM     24  C   UNL     1      29.031  58.193 139.901  1.00  0.00     0.005 C 
ATOM     25  C   UNL     1      30.984  57.894 141.467  1.00  0.00     0.020 C 
ATOM     26  C   UNL     1      30.124  60.200 140.882  1.00  0.00     0.017 C 
ATOM     27  O   UNL     1      27.094  58.391 138.532  1.00  0.00    -0.295 OA
ATOM     28  C   UNL     1      29.772  57.664 138.904  1.00  0.00     0.055 C 
ATOM     29  C   UNL     1      31.957  57.839 140.283  1.00  0.00     0.081 C 
ATOM     30  C   UNL     1      31.230  57.480 139.021  1.00  0.00     0.156 C 
ATOM     31  O   UNL     1      31.878  57.038 138.038  1.00  0.00    -0.295 OA
ENDBRANCH   9  11
ENDBRANCH   8   9
ENDBRANCH   1   8
TORSDOF 6
ENDMDL
MODEL 5
REMARK VINA RESULT:     2.330      3.010      8.274
REMARK INTER + INTRA:           2.711
REMARK INTER:                   2.611
REMARK INTRA:                   0.101
REMARK UNBOUND:                -0.435
REMARK SMILES CC[C@H](CC[C@H](C)[C@@H]1CC[C@H]2[C@@H]3CC(=O)C4=CC(=O)CC[C@]4(C)[C@@H]3CC[C@]21C)C(C)C
REMARK SMILES IDX 4 1 3 2 2 3 1 4 29 5 30 6 31 7 5 8 6 9 7 10 8 11 9 12 27 13
REMARK SMILES IDX 10 14 11 15 26 16 28 17 12 18 25 19 24 20 13 21 22 22 14 23
REMARK SMILES IDX 16 24 21 25 23 26 15 27 17 28 20 29 18 30 19 31
REMARK H PARENT
REMARK Flexibility Score: inf
ROOT
ATOM      1  C   UNL     1      25.066  60.504 148.188  1.00  0.00     0.004 C 
ENDROOT
BRANCH   1   2
ATOM      2  C   UNL     1      23.525  60.359 147.982  1.00  0.00    -0.009 C 
BRANCH   2   3
ATOM      3  C   UNL     1      23.081  60.774 146.551  1.00  0.00     0.000 C 
ATOM      4  C   UNL     1      21.580  61.033 146.420  1.00  0.00     0.004 C 
ENDBRANCH   2   3
BRANCH   2   5
ATOM      5  C   UNL     1      23.012  58.916 148.306  1.00  0.00    -0.014 C 
ATOM      6  C   UNL     1      24.030  58.105 149.125  1.00  0.00     0.007 C 
ATOM      7  C   UNL     1      22.573  58.126 147.061  1.00  0.00     0.007 C 
ENDBRANCH   2   5
ENDBRANCH   1   2
BRANCH   1   8
ATOM      8  C   UNL     1      25.889  59.302 147.655  1.00  0.00     0.004 C 
BRANCH   8   9
ATOM      9  C   UNL     1      26.668  59.591 146.332  1.00  0.00    -0.011 C 
ATOM     10  C   UNL     1      26.765  61.124 146.173  1.00  0.00     0.008 C 
BRANCH   9  11
ATOM     11  C   UNL     1      25.990  58.965 145.059  1.00  0.00    -0.002 C 
ATOM     12  C   UNL     1      25.026  57.815 145.351  1.00  0.00     0.005 C 
ATOM     13  C   UNL     1      26.922  58.430 143.887  1.00  0.00    -0.026 C 
ATOM     14  C   UNL     1      24.827  57.140 144.013  1.00  0.00     0.005 C 
ATOM     15  C   UNL     1      26.230  57.094 143.430  1.00  0.00    -0.001 C 
ATOM     16  C   UNL     1      26.991  59.503 142.754  1.00  0.00     0.007 C 
ATOM     17  C   UNL     1      28.363  58.091 144.361  1.00  0.00     0.012 C 
ATOM     18  C   UNL     1      26.243  56.711 141.915  1.00  0.00     0.004 C 
ATOM     19  C   UNL     1      27.245  58.951 141.352  1.00  0.00     0.005 C 
ATOM     20  C   UNL     1      26.142  57.937 140.967  1.00  0.00     0.003 C 
ATOM     21  C   UNL     1      27.459  55.819 141.585  1.00  0.00     0.085 C 
ATOM     22  C   UNL     1      26.095  57.517 139.437  1.00  0.00    -0.000 C 
ATOM     23  C   UNL     1      27.563  55.490 140.130  1.00  0.00     0.159 C 
ATOM     24  C   UNL     1      27.159  56.473 139.100  1.00  0.00     0.005 C 
ATOM     25  C   UNL     1      26.280  58.757 138.500  1.00  0.00     0.020 C 
ATOM     26  C   UNL     1      24.707  56.883 139.141  1.00  0.00     0.017 C 
ATOM     27  O   UNL     1      28.070  54.385 139.794  1.00  0.00    -0.295 OA
ATOM     28  C   UNL     1      27.616  56.336 137.837  1.00  0.00     0.055 C 
ATOM     29  C   UNL     1      26.279  58.394 137.010  1.00  0.00     0.081 C 
ATOM     30  C   UNL     1      27.205  57.242 136.751  1.00  0.00     0.156 C 
ATOM     31  O   UNL     1      27.616  57.031 135.580  1.00  0.00    -0.295 OA
ENDBRANCH   9  11
ENDBRANCH   8   9
ENDBRANCH   1   8
TORSDOF 6
ENDMDL
