MODEL 1
REMARK VINA RESULT:    -4.313      0.000      0.000
REMARK INTER + INTRA:          -6.606
REMARK INTER:                  -6.077
REMARK INTRA:                  -0.529
REMARK UNBOUND:                -0.529
REMARK SMILES CCCCCCCCC(=O)[O-]
REMARK SMILES IDX 6 1 7 2 8 3 9 4 10 5 11 6 5 7 4 8 3 9 2 10 1 11
REMARK H PARENT
REMARK Flexibility Score: inf
ROOT
ATOM      1  C   UNL     1      47.451  33.904  15.601  1.00  0.00     0.000 C 
ENDROOT
BRANCH   1   2
ATOM      2  C   UNL     1      48.171  33.343  14.364  1.00  0.00     0.006 C 
BRANCH   2   3
ATOM      3  C   UNL     1      48.549  34.437  13.357  1.00  0.00     0.053 C 
BRANCH   3   4
ATOM      4  C   UNL     1      48.817  33.838  12.012  1.00  0.00     0.041 C 
ATOM      5  O   UNL     1      47.863  33.564  11.239  1.00  0.00    -0.550 OA
ATOM      6  O   UNL     1      50.126  33.628  11.592  1.00  0.00    -0.550 OA
ENDBRANCH   3   4
ENDBRANCH   2   3
ENDBRANCH   1   2
BRANCH   1   7
ATOM      7  C   UNL     1      48.394  34.080  16.804  1.00  0.00     0.000 C 
BRANCH   7   8
ATOM      8  C   UNL     1      48.343  32.887  17.772  1.00  0.00    -0.000 C 
BRANCH   8   9
ATOM      9  C   UNL     1      49.593  31.995  17.672  1.00  0.00    -0.000 C 
BRANCH   9  10
ATOM     10  C   UNL     1      49.292  30.630  17.035  1.00  0.00    -0.003 C 
ATOM     11  C   UNL     1      47.796  30.321  16.981  1.00  0.00     0.004 C 
ENDBRANCH   9  10
ENDBRANCH   8   9
ENDBRANCH   7   8
ENDBRANCH   1   7
TORSDOF 7
ENDMDL
MODEL 2
REMARK VINA RESULT:    -4.291      2.950      3.699
REMARK INTER + INTRA:          -6.576
REMARK INTER:                  -5.847
REMARK INTRA:                  -0.728
REMARK UNBOUND:                -0.529
REMARK SMILES CCCCCCCCC(=O)[O-]
REMARK SMILES IDX 6 1 7 2 8 3 9 4 10 5 11 6 5 7 4 8 3 9 2 10 1 11
REMARK H PARENT
REMARK Flexibility Score: inf
ROOT
ATOM      1  C   UNL     1      48.744  34.027  16.912  1.00  0.00     0.000 C 
ENDROOT
BRANCH   1   2
ATOM      2  C   UNL     1      47.218  34.201  16.980  1.00  0.00     0.006 C 
BRANCH   2   3
ATOM      3  C   UNL     1      46.570  34.264  15.591  1.00  0.00     0.053 C 
BRANCH   3   4
ATOM      4  C   UNL     1      45.339  35.114  15.628  1.00  0.00     0.041 C 
ATOM      5  O   UNL     1      44.866  35.497  16.730  1.00  0.00    -0.550 OA
ATOM      6  O   UNL     1      44.741  35.525  14.442  1.00  0.00    -0.550 OA
ENDBRANCH   3   4
ENDBRANCH   2   3
ENDBRANCH   1   2
BRANCH   1   7
ATOM      7  C   UNL     1      49.253  32.906  17.834  1.00  0.00     0.000 C 
BRANCH   7   8
ATOM      8  C   UNL     1      48.255  31.743  17.954  1.00  0.00    -0.000 C 
BRANCH   8   9
ATOM      9  C   UNL     1      48.586  30.583  16.999  1.00  0.00    -0.000 C 
BRANCH   9  10
ATOM     10  C   UNL     1      47.694  30.579  15.748  1.00  0.00    -0.003 C 
ATOM     11  C   UNL     1      48.381  31.199  14.531  1.00  0.00     0.004 C 
ENDBRANCH   9  10
ENDBRANCH   8   9
ENDBRANCH   7   8
ENDBRANCH   1   7
TORSDOF 7
ENDMDL
MODEL 3
REMARK VINA RESULT:    -4.248      3.080      5.466
REMARK INTER + INTRA:          -6.516
REMARK INTER:                  -6.158
REMARK INTRA:                  -0.358
REMARK UNBOUND:                -0.529
REMARK SMILES CCCCCCCCC(=O)[O-]
REMARK SMILES IDX 6 1 7 2 8 3 9 4 10 5 11 6 5 7 4 8 3 9 2 10 1 11
REMARK H PARENT
REMARK Flexibility Score: inf
ROOT
ATOM      1  C   UNL     1      47.733  33.112  15.135  1.00  0.00     0.000 C 
ENDROOT
BRANCH   1   2
ATOM      2  C   UNL     1      47.567  33.901  16.444  1.00  0.00     0.006 C 
BRANCH   2   3
ATOM      3  C   UNL     1      48.747  33.704  17.404  1.00  0.00     0.053 C 
BRANCH   3   4
ATOM      4  C   UNL     1      48.895  32.258  17.758  1.00  0.00     0.041 C 
ATOM      5  O   UNL     1      50.014  31.691  17.648  1.00  0.00    -0.550 OA
ATOM      6  O   UNL     1      47.809  31.548  18.256  1.00  0.00    -0.550 OA
ENDBRANCH   3   4
ENDBRANCH   2   3
ENDBRANCH   1   2
BRANCH   1   7
ATOM      7  C   UNL     1      47.670  34.012  13.889  1.00  0.00     0.000 C 
BRANCH   7   8
ATOM      8  C   UNL     1      49.061  34.467  13.419  1.00  0.00    -0.000 C 
BRANCH   8   9
ATOM      9  C   UNL     1      49.430  33.901  12.037  1.00  0.00    -0.000 C 
BRANCH   9  10
ATOM     10  C   UNL     1      48.251  33.184  11.362  1.00  0.00    -0.003 C 
ATOM     11  C   UNL     1      48.131  33.517   9.875  1.00  0.00     0.004 C 
ENDBRANCH   9  10
ENDBRANCH   8   9
ENDBRANCH   7   8
ENDBRANCH   1   7
TORSDOF 7
ENDMDL
MODEL 4
REMARK VINA RESULT:    -4.141      3.376      5.483
REMARK INTER + INTRA:          -6.364
REMARK INTER:                  -6.166
REMARK INTRA:                  -0.197
REMARK UNBOUND:                -0.529
REMARK SMILES CCCCCCCCC(=O)[O-]
REMARK SMILES IDX 6 1 7 2 8 3 9 4 10 5 11 6 5 7 4 8 3 9 2 10 1 11
REMARK H PARENT
REMARK Flexibility Score: inf
ROOT
ATOM      1  C   UNL     1      48.444  33.754  16.770  1.00  0.00     0.000 C 
ENDROOT
BRANCH   1   2
ATOM      2  C   UNL     1      49.170  32.832  17.763  1.00  0.00     0.006 C 
BRANCH   2   3
ATOM      3  C   UNL     1      49.219  31.375  17.286  1.00  0.00     0.053 C 
BRANCH   3   4
ATOM      4  C   UNL     1      48.012  30.630  17.762  1.00  0.00     0.041 C 
ATOM      5  O   UNL     1      47.558  30.832  18.919  1.00  0.00    -0.550 OA
ATOM      6  O   UNL     1      47.358  29.747  16.910  1.00  0.00    -0.550 OA
ENDBRANCH   3   4
ENDBRANCH   2   3
ENDBRANCH   1   2
BRANCH   1   7
ATOM      7  C   UNL     1      48.141  33.059  15.432  1.00  0.00     0.000 C 
BRANCH   7   8
ATOM      8  C   UNL     1      48.156  34.036  14.245  1.00  0.00    -0.000 C 
BRANCH   8   9
ATOM      9  C   UNL     1      48.496  33.342  12.915  1.00  0.00    -0.000 C 
BRANCH   9  10
ATOM     10  C   UNL     1      47.651  33.867  11.744  1.00  0.00    -0.003 C 
ATOM     11  C   UNL     1      46.587  34.871  12.188  1.00  0.00     0.004 C 
ENDBRANCH   9  10
ENDBRANCH   8   9
ENDBRANCH   7   8
ENDBRANCH   1   7
TORSDOF 7
ENDMDL
MODEL 5
REMARK VINA RESULT:    -4.062      3.728      5.223
REMARK INTER + INTRA:          -6.252
REMARK INTER:                  -5.689
REMARK INTRA:                  -0.563
REMARK UNBOUND:                -0.529
REMARK SMILES CCCCCCCCC(=O)[O-]
REMARK SMILES IDX 6 1 7 2 8 3 9 4 10 5 11 6 5 7 4 8 3 9 2 10 1 11
REMARK H PARENT
REMARK Flexibility Score: inf
ROOT
ATOM      1  C   UNL     1      47.765  30.395  17.530  1.00  0.00     0.000 C 
ENDROOT
BRANCH   1   2
ATOM      2  C   UNL     1      48.870  29.956  16.555  1.00  0.00     0.006 C 
BRANCH   2   3
ATOM      3  C   UNL     1      48.378  28.919  15.537  1.00  0.00     0.053 C 
BRANCH   3   4
ATOM      4  C   UNL     1      48.906  27.561  15.879  1.00  0.00     0.041 C 
ATOM      5  O   UNL     1      49.070  26.700  14.976  1.00  0.00    -0.550 OA
ATOM      6  O   UNL     1      49.263  27.263  17.189  1.00  0.00    -0.550 OA
ENDBRANCH   3   4
ENDBRANCH   2   3
ENDBRANCH   1   2
BRANCH   1   7
ATOM      7  C   UNL     1      48.159  31.636  18.350  1.00  0.00     0.000 C 
BRANCH   7   8
ATOM      8  C   UNL     1      49.294  32.439  17.694  1.00  0.00    -0.000 C 
BRANCH   8   9
ATOM      9  C   UNL     1      48.904  33.905  17.436  1.00  0.00    -0.000 C 
BRANCH   9  10
ATOM     10  C   UNL     1      47.689  34.035  16.505  1.00  0.00    -0.003 C 
ATOM     11  C   UNL     1      47.988  33.579  15.077  1.00  0.00     0.004 C 
ENDBRANCH   9  10
ENDBRANCH   8   9
ENDBRANCH   7   8
ENDBRANCH   1   7
TORSDOF 7
ENDMDL
MODEL 6
REMARK VINA RESULT:    -4.062      2.779      4.781
REMARK INTER + INTRA:          -6.252
REMARK INTER:                  -5.873
REMARK INTRA:                  -0.380
REMARK UNBOUND:                -0.529
REMARK SMILES CCCCCCCCC(=O)[O-]
REMARK SMILES IDX 6 1 7 2 8 3 9 4 10 5 11 6 5 7 4 8 3 9 2 10 1 11
REMARK H PARENT
REMARK Flexibility Score: inf
ROOT
ATOM      1  C   UNL     1      48.912  32.836  17.360  1.00  0.00     0.000 C 
ENDROOT
BRANCH   1   2
ATOM      2  C   UNL     1      48.306  31.423  17.385  1.00  0.00     0.006 C 
BRANCH   2   3
ATOM      3  C   UNL     1      49.071  30.439  16.490  1.00  0.00     0.053 C 
BRANCH   3   4
ATOM      4  C   UNL     1      48.121  29.503  15.813  1.00  0.00     0.041 C 
ATOM      5  O   UNL     1      48.448  28.305  15.609  1.00  0.00    -0.550 OA
ATOM      6  O   UNL     1      46.852  29.941  15.450  1.00  0.00    -0.550 OA
ENDBRANCH   3   4
ENDBRANCH   2   3
ENDBRANCH   1   2
BRANCH   1   7
ATOM      7  C   UNL     1      47.865  33.923  17.064  1.00  0.00     0.000 C 
BRANCH   7   8
ATOM      8  C   UNL     1      47.326  33.846  15.626  1.00  0.00    -0.000 C 
BRANCH   8   9
ATOM      9  C   UNL     1      48.449  33.841  14.575  1.00  0.00    -0.000 C 
BRANCH   9  10
ATOM     10  C   UNL     1      47.955  34.269  13.185  1.00  0.00    -0.003 C 
ATOM     11  C   UNL     1      48.638  33.501  12.053  1.00  0.00     0.004 C 
ENDBRANCH   9  10
ENDBRANCH   8   9
ENDBRANCH   7   8
ENDBRANCH   1   7
TORSDOF 7
ENDMDL
MODEL 7
REMARK VINA RESULT:    -4.057      2.650      3.926
REMARK INTER + INTRA:          -6.245
REMARK INTER:                  -5.701
REMARK INTRA:                  -0.544
REMARK UNBOUND:                -0.529
REMARK SMILES CCCCCCCCC(=O)[O-]
REMARK SMILES IDX 6 1 7 2 8 3 9 4 10 5 11 6 5 7 4 8 3 9 2 10 1 11
REMARK H PARENT
REMARK Flexibility Score: inf
ROOT
ATOM      1  C   UNL     1      48.127  31.501  18.105  1.00  0.00     0.000 C 
ENDROOT
BRANCH   1   2
ATOM      2  C   UNL     1      49.308  32.386  17.675  1.00  0.00     0.006 C 
BRANCH   2   3
ATOM      3  C   UNL     1      48.889  33.837  17.407  1.00  0.00     0.053 C 
BRANCH   3   4
ATOM      4  C   UNL     1      47.837  33.889  16.344  1.00  0.00     0.041 C 
ATOM      5  O   UNL     1      46.695  34.348  16.605  1.00  0.00    -0.550 OA
ATOM      6  O   UNL     1      48.134  33.475  15.051  1.00  0.00    -0.550 OA
ENDBRANCH   3   4
ENDBRANCH   2   3
ENDBRANCH   1   2
BRANCH   1   7
ATOM      7  C   UNL     1      47.878  30.335  17.134  1.00  0.00     0.000 C 
BRANCH   7   8
ATOM      8  C   UNL     1      49.058  30.103  16.176  1.00  0.00    -0.000 C 
BRANCH   8   9
ATOM      9  C   UNL     1      49.857  28.834  16.521  1.00  0.00    -0.000 C 
BRANCH   9  10
ATOM     10  C   UNL     1      48.953  27.674  16.965  1.00  0.00    -0.003 C 
ATOM     11  C   UNL     1      48.623  26.712  15.824  1.00  0.00     0.004 C 
ENDBRANCH   9  10
ENDBRANCH   8   9
ENDBRANCH   7   8
ENDBRANCH   1   7
TORSDOF 7
ENDMDL
MODEL 8
REMARK VINA RESULT:    -3.984      4.034      5.248
REMARK INTER + INTRA:          -6.144
REMARK INTER:                  -5.863
REMARK INTRA:                  -0.281
REMARK UNBOUND:                -0.529
REMARK SMILES CCCCCCCCC(=O)[O-]
REMARK SMILES IDX 6 1 7 2 8 3 9 4 10 5 11 6 5 7 4 8 3 9 2 10 1 11
REMARK H PARENT
REMARK Flexibility Score: inf
ROOT
ATOM      1  C   UNL     1      47.503  29.825  15.243  1.00  0.00     0.000 C 
ENDROOT
BRANCH   1   2
ATOM      2  C   UNL     1      48.487  31.003  15.308  1.00  0.00     0.006 C 
BRANCH   2   3
ATOM      3  C   UNL     1      47.864  32.257  15.936  1.00  0.00     0.053 C 
BRANCH   3   4
ATOM      4  C   UNL     1      48.410  32.478  17.312  1.00  0.00     0.041 C 
ATOM      5  O   UNL     1      48.085  31.708  18.253  1.00  0.00    -0.550 OA
ATOM      6  O   UNL     1      49.317  33.505  17.543  1.00  0.00    -0.550 OA
ENDBRANCH   3   4
ENDBRANCH   2   3
ENDBRANCH   1   2
BRANCH   1   7
ATOM      7  C   UNL     1      47.736  28.796  16.363  1.00  0.00     0.000 C 
BRANCH   7   8
ATOM      8  C   UNL     1      48.596  27.608  15.902  1.00  0.00    -0.000 C 
BRANCH   8   9
ATOM      9  C   UNL     1      48.121  26.272  16.498  1.00  0.00    -0.000 C 
BRANCH   9  10
ATOM     10  C   UNL     1      49.188  25.611  17.385  1.00  0.00    -0.003 C 
ATOM     11  C   UNL     1      48.772  25.539  18.854  1.00  0.00     0.004 C 
ENDBRANCH   9  10
ENDBRANCH   8   9
ENDBRANCH   7   8
ENDBRANCH   1   7
TORSDOF 7
ENDMDL
MODEL 9
REMARK VINA RESULT:    -3.946      8.133      8.974
REMARK INTER + INTRA:          -6.089
REMARK INTER:                  -5.548
REMARK INTRA:                  -0.541
REMARK UNBOUND:                -0.529
REMARK SMILES CCCCCCCCC(=O)[O-]
REMARK SMILES IDX 6 1 7 2 8 3 9 4 10 5 11 6 5 7 4 8 3 9 2 10 1 11
REMARK H PARENT
REMARK Flexibility Score: inf
ROOT
ATOM      1  C   UNL     1      48.732  25.226  20.839  1.00  0.00     0.000 C 
ENDROOT
BRANCH   1   2
ATOM      2  C   UNL     1      48.507  25.566  19.357  1.00  0.00     0.006 C 
BRANCH   2   3
ATOM      3  C   UNL     1      49.726  25.237  18.485  1.00  0.00     0.053 C 
BRANCH   3   4
ATOM      4  C   UNL     1      49.445  25.561  17.052  1.00  0.00     0.041 C 
ATOM      5  O   UNL     1      50.316  25.343  16.171  1.00  0.00    -0.550 OA
ATOM      6  O   UNL     1      48.200  26.058  16.682  1.00  0.00    -0.550 OA
ENDBRANCH   3   4
ENDBRANCH   2   3
ENDBRANCH   1   2
BRANCH   1   7
ATOM      7  C   UNL     1      48.307  26.367  21.779  1.00  0.00     0.000 C 
BRANCH   7   8
ATOM      8  C   UNL     1      49.479  26.913  22.611  1.00  0.00    -0.000 C 
BRANCH   8   9
ATOM      9  C   UNL     1      50.747  26.052  22.477  1.00  0.00    -0.000 C 
BRANCH   9  10
ATOM     10  C   UNL     1      52.013  26.898  22.275  1.00  0.00    -0.003 C 
ATOM     11  C   UNL     1      52.620  26.729  20.882  1.00  0.00     0.004 C 
ENDBRANCH   9  10
ENDBRANCH   8   9
ENDBRANCH   7   8
ENDBRANCH   1   7
TORSDOF 7
ENDMDL
