MODEL 1
REMARK VINA RESULT:    -2.774      0.000      0.000
REMARK INTER + INTRA:          -5.422
REMARK INTER:                  -5.044
REMARK INTRA:                  -0.378
REMARK UNBOUND:                -0.378
REMARK SMILES CCCCCCCCCCCCCC[C@H](C)C(=O)[O-]
REMARK SMILES IDX 9 1 10 2 11 3 12 4 13 5 14 6 15 7 16 8 17 9 18 10 19 11 8 12
REMARK SMILES IDX 7 13 6 14 5 15 4 16 3 17 2 18 1 19
REMARK H PARENT
REMARK Flexibility Score: inf
ROOT
ATOM      1  C   UNL     1       0.322  20.610  16.104  1.00  0.00     0.000 C 
ENDROOT
BRANCH   1   2
ATOM      2  C   UNL     1       1.663  19.932  16.431  1.00  0.00     0.000 C 
BRANCH   2   3
ATOM      3  C   UNL     1       2.869  20.874  16.261  1.00  0.00     0.000 C 
BRANCH   3   4
ATOM      4  C   UNL     1       4.251  20.188  16.279  1.00  0.00     0.000 C 
BRANCH   4   5
ATOM      5  C   UNL     1       5.047  20.283  14.964  1.00  0.00     0.001 C 
BRANCH   5   6
ATOM      6  C   UNL     1       6.132  21.378  14.932  1.00  0.00     0.009 C 
BRANCH   6   7
ATOM      7  C   UNL     1       7.386  20.994  14.098  1.00  0.00     0.032 C 
ATOM      8  C   UNL     1       7.089  19.875  13.089  1.00  0.00     0.014 C 
BRANCH   7   9
ATOM      9  C   UNL     1       8.510  20.558  15.001  1.00  0.00     0.044 C 
ATOM     10  O   UNL     1       8.295  20.315  16.220  1.00  0.00    -0.550 OA
ATOM     11  O   UNL     1       9.796  20.421  14.493  1.00  0.00    -0.550 OA
ENDBRANCH   7   9
ENDBRANCH   6   7
ENDBRANCH   5   6
ENDBRANCH   4   5
ENDBRANCH   3   4
ENDBRANCH   2   3
ENDBRANCH   1   2
BRANCH   1  12
ATOM     12  C   UNL     1      -0.882  19.910  16.761  1.00  0.00     0.000 C 
BRANCH  12  13
ATOM     13  C   UNL     1      -2.265  20.393  16.285  1.00  0.00    -0.000 C 
BRANCH  13  14
ATOM     14  C   UNL     1      -3.415  19.891  17.176  1.00  0.00    -0.000 C 
BRANCH  14  15
ATOM     15  C   UNL     1      -4.798  20.217  16.589  1.00  0.00    -0.000 C 
BRANCH  15  16
ATOM     16  C   UNL     1      -4.727  20.639  15.111  1.00  0.00    -0.000 C 
BRANCH  16  17
ATOM     17  C   UNL     1      -6.001  21.358  14.641  1.00  0.00    -0.000 C 
BRANCH  17  18
ATOM     18  C   UNL     1      -7.272  20.802  15.300  1.00  0.00    -0.003 C 
ATOM     19  C   UNL     1      -7.777  21.737  16.395  1.00  0.00     0.004 C 
ENDBRANCH  17  18
ENDBRANCH  16  17
ENDBRANCH  15  16
ENDBRANCH  14  15
ENDBRANCH  13  14
ENDBRANCH  12  13
ENDBRANCH   1  12
TORSDOF 14
ENDMDL
MODEL 2
REMARK VINA RESULT:    -2.745      5.490     11.809
REMARK INTER + INTRA:          -5.370
REMARK INTER:                  -4.903
REMARK INTRA:                  -0.467
REMARK UNBOUND:                -0.378
REMARK SMILES CCCCCCCCCCCCCC[C@H](C)C(=O)[O-]
REMARK SMILES IDX 9 1 10 2 11 3 12 4 13 5 14 6 15 7 16 8 17 9 18 10 19 11 8 12
REMARK SMILES IDX 7 13 6 14 5 15 4 16 3 17 2 18 1 19
REMARK H PARENT
REMARK Flexibility Score: inf
ROOT
ATOM      1  C   UNL     1      -2.017  20.641  16.986  1.00  0.00     0.000 C 
ENDROOT
BRANCH   1   2
ATOM      2  C   UNL     1      -3.190  20.075  16.168  1.00  0.00     0.000 C 
BRANCH   2   3
ATOM      3  C   UNL     1      -4.130  21.169  15.631  1.00  0.00     0.000 C 
BRANCH   3   4
ATOM      4  C   UNL     1      -5.367  20.659  14.863  1.00  0.00     0.000 C 
BRANCH   4   5
ATOM      5  C   UNL     1      -6.716  20.871  15.576  1.00  0.00     0.001 C 
BRANCH   5   6
ATOM      6  C   UNL     1      -6.665  20.780  17.114  1.00  0.00     0.009 C 
BRANCH   6   7
ATOM      7  C   UNL     1      -8.002  21.159  17.809  1.00  0.00     0.032 C 
ATOM      8  C   UNL     1      -8.416  22.609  17.517  1.00  0.00     0.014 C 
BRANCH   7   9
ATOM      9  C   UNL     1      -7.900  20.965  19.299  1.00  0.00     0.044 C 
ATOM     10  O   UNL     1      -8.936  20.784  19.994  1.00  0.00    -0.550 OA
ATOM     11  O   UNL     1      -6.656  20.985  19.918  1.00  0.00    -0.550 OA
ENDBRANCH   7   9
ENDBRANCH   6   7
ENDBRANCH   5   6
ENDBRANCH   4   5
ENDBRANCH   3   4
ENDBRANCH   2   3
ENDBRANCH   1   2
BRANCH   1  12
ATOM     12  C   UNL     1      -0.700  19.877  16.755  1.00  0.00     0.000 C 
BRANCH  12  13
ATOM     13  C   UNL     1       0.535  20.758  16.490  1.00  0.00    -0.000 C 
BRANCH  13  14
ATOM     14  C   UNL     1       1.824  19.942  16.293  1.00  0.00    -0.000 C 
BRANCH  14  15
ATOM     15  C   UNL     1       3.069  20.834  16.151  1.00  0.00    -0.000 C 
BRANCH  15  16
ATOM     16  C   UNL     1       4.361  20.017  15.975  1.00  0.00    -0.000 C 
BRANCH  16  17
ATOM     17  C   UNL     1       5.619  20.815  16.355  1.00  0.00    -0.000 C 
BRANCH  17  18
ATOM     18  C   UNL     1       6.445  21.238  15.131  1.00  0.00    -0.003 C 
ATOM     19  C   UNL     1       7.597  20.269  14.885  1.00  0.00     0.004 C 
ENDBRANCH  17  18
ENDBRANCH  16  17
ENDBRANCH  15  16
ENDBRANCH  14  15
ENDBRANCH  13  14
ENDBRANCH  12  13
ENDBRANCH   1  12
TORSDOF 14
ENDMDL
MODEL 3
REMARK VINA RESULT:    -2.713      5.687     11.601
REMARK INTER + INTRA:          -5.312
REMARK INTER:                  -4.743
REMARK INTRA:                  -0.569
REMARK UNBOUND:                -0.378
REMARK SMILES CCCCCCCCCCCCCC[C@H](C)C(=O)[O-]
REMARK SMILES IDX 9 1 10 2 11 3 12 4 13 5 14 6 15 7 16 8 17 9 18 10 19 11 8 12
REMARK SMILES IDX 7 13 6 14 5 15 4 16 3 17 2 18 1 19
REMARK H PARENT
REMARK Flexibility Score: inf
ROOT
ATOM      1  C   UNL     1       0.410  20.970  16.487  1.00  0.00     0.000 C 
ENDROOT
BRANCH   1   2
ATOM      2  C   UNL     1      -0.455  19.878  17.136  1.00  0.00     0.000 C 
BRANCH   2   3
ATOM      3  C   UNL     1      -1.920  20.312  17.335  1.00  0.00     0.000 C 
BRANCH   3   4
ATOM      4  C   UNL     1      -2.688  20.654  16.042  1.00  0.00     0.000 C 
BRANCH   4   5
ATOM      5  C   UNL     1      -4.002  19.877  15.835  1.00  0.00     0.001 C 
BRANCH   5   6
ATOM      6  C   UNL     1      -5.147  20.256  16.795  1.00  0.00     0.009 C 
BRANCH   6   7
ATOM      7  C   UNL     1      -6.496  20.544  16.079  1.00  0.00     0.032 C 
ATOM      8  C   UNL     1      -6.385  21.704  15.078  1.00  0.00     0.014 C 
BRANCH   7   9
ATOM      9  C   UNL     1      -7.572  20.860  17.084  1.00  0.00     0.044 C 
ATOM     10  O   UNL     1      -8.065  19.949  17.802  1.00  0.00    -0.550 OA
ATOM     11  O   UNL     1      -8.029  22.165  17.225  1.00  0.00    -0.550 OA
ENDBRANCH   7   9
ENDBRANCH   6   7
ENDBRANCH   5   6
ENDBRANCH   4   5
ENDBRANCH   3   4
ENDBRANCH   2   3
ENDBRANCH   1   2
BRANCH   1  12
ATOM     12  C   UNL     1       1.659  20.408  15.783  1.00  0.00     0.000 C 
BRANCH  12  13
ATOM     13  C   UNL     1       2.931  20.343  16.648  1.00  0.00    -0.000 C 
BRANCH  13  14
ATOM     14  C   UNL     1       4.170  19.880  15.862  1.00  0.00    -0.000 C 
BRANCH  14  15
ATOM     15  C   UNL     1       5.151  21.030  15.578  1.00  0.00    -0.000 C 
BRANCH  15  16
ATOM     16  C   UNL     1       6.330  21.056  16.566  1.00  0.00    -0.000 C 
BRANCH  16  17
ATOM     17  C   UNL     1       7.655  20.634  15.913  1.00  0.00    -0.000 C 
BRANCH  17  18
ATOM     18  C   UNL     1       7.636  20.781  14.385  1.00  0.00    -0.003 C 
ATOM     19  C   UNL     1       8.938  21.393  13.876  1.00  0.00     0.004 C 
ENDBRANCH  17  18
ENDBRANCH  16  17
ENDBRANCH  15  16
ENDBRANCH  14  15
ENDBRANCH  13  14
ENDBRANCH  12  13
ENDBRANCH   1  12
TORSDOF 14
ENDMDL
MODEL 4
REMARK VINA RESULT:    -2.432      4.465     11.377
REMARK INTER + INTRA:          -4.801
REMARK INTER:                  -4.099
REMARK INTRA:                  -0.702
REMARK UNBOUND:                -0.378
REMARK SMILES CCCCCCCCCCCCCC[C@H](C)C(=O)[O-]
REMARK SMILES IDX 9 1 10 2 11 3 12 4 13 5 14 6 15 7 16 8 17 9 18 10 19 11 8 12
REMARK SMILES IDX 7 13 6 14 5 15 4 16 3 17 2 18 1 19
REMARK H PARENT
REMARK Flexibility Score: inf
ROOT
ATOM      1  C   UNL     1       5.962  20.743  14.730  1.00  0.00     0.000 C 
ENDROOT
BRANCH   1   2
ATOM      2  C   UNL     1       4.768  20.295  15.587  1.00  0.00     0.000 C 
BRANCH   2   3
ATOM      3  C   UNL     1       4.471  21.257  16.753  1.00  0.00     0.000 C 
BRANCH   3   4
ATOM      4  C   UNL     1       3.008  21.271  17.243  1.00  0.00     0.000 C 
BRANCH   4   5
ATOM      5  C   UNL     1       1.963  20.834  16.199  1.00  0.00     0.001 C 
BRANCH   5   6
ATOM      6  C   UNL     1       0.756  20.060  16.765  1.00  0.00     0.009 C 
BRANCH   6   7
ATOM      7  C   UNL     1      -0.567  20.307  15.987  1.00  0.00     0.032 C 
ATOM      8  C   UNL     1      -0.601  21.693  15.328  1.00  0.00     0.014 C 
BRANCH   7   9
ATOM      9  C   UNL     1      -1.754  20.167  16.903  1.00  0.00     0.044 C 
ATOM     10  O   UNL     1      -2.920  20.082  16.431  1.00  0.00    -0.550 OA
ATOM     11  O   UNL     1      -1.570  20.130  18.280  1.00  0.00    -0.550 OA
ENDBRANCH   7   9
ENDBRANCH   6   7
ENDBRANCH   5   6
ENDBRANCH   4   5
ENDBRANCH   3   4
ENDBRANCH   2   3
ENDBRANCH   1   2
BRANCH   1  12
ATOM     12  C   UNL     1       7.301  20.150  15.208  1.00  0.00     0.000 C 
BRANCH  12  13
ATOM     13  C   UNL     1       8.531  20.537  14.365  1.00  0.00    -0.000 C 
BRANCH  13  14
ATOM     14  C   UNL     1       9.544  21.397  15.140  1.00  0.00    -0.000 C 
BRANCH  14  15
ATOM     15  C   UNL     1      10.615  22.013  14.225  1.00  0.00    -0.000 C 
BRANCH  15  16
ATOM     16  C   UNL     1      10.481  21.546  12.765  1.00  0.00    -0.000 C 
BRANCH  16  17
ATOM     17  C   UNL     1      10.716  22.683  11.758  1.00  0.00    -0.000 C 
BRANCH  17  18
ATOM     18  C   UNL     1      10.926  24.044  12.439  1.00  0.00    -0.003 C 
ATOM     19  C   UNL     1      10.328  25.173  11.606  1.00  0.00     0.004 C 
ENDBRANCH  17  18
ENDBRANCH  16  17
ENDBRANCH  15  16
ENDBRANCH  14  15
ENDBRANCH  13  14
ENDBRANCH  12  13
ENDBRANCH   1  12
TORSDOF 14
ENDMDL
MODEL 5
REMARK VINA RESULT:    -2.383      4.467     11.236
REMARK INTER + INTRA:          -4.712
REMARK INTER:                  -3.775
REMARK INTRA:                  -0.937
REMARK UNBOUND:                -0.378
REMARK SMILES CCCCCCCCCCCCCC[C@H](C)C(=O)[O-]
REMARK SMILES IDX 9 1 10 2 11 3 12 4 13 5 14 6 15 7 16 8 17 9 18 10 19 11 8 12
REMARK SMILES IDX 7 13 6 14 5 15 4 16 3 17 2 18 1 19
REMARK H PARENT
REMARK Flexibility Score: inf
ROOT
ATOM      1  C   UNL     1       6.156  20.231  14.661  1.00  0.00     0.000 C 
ENDROOT
BRANCH   1   2
ATOM      2  C   UNL     1       5.446  20.014  16.007  1.00  0.00     0.000 C 
BRANCH   2   3
ATOM      3  C   UNL     1       4.107  20.768  16.108  1.00  0.00     0.000 C 
BRANCH   3   4
ATOM      4  C   UNL     1       2.863  19.880  16.318  1.00  0.00     0.000 C 
BRANCH   4   5
ATOM      5  C   UNL     1       1.510  20.585  16.106  1.00  0.00     0.001 C 
BRANCH   5   6
ATOM      6  C   UNL     1       0.298  19.885  16.752  1.00  0.00     0.009 C 
BRANCH   6   7
ATOM      7  C   UNL     1      -1.065  20.279  16.117  1.00  0.00     0.032 C 
ATOM      8  C   UNL     1      -1.028  21.681  15.491  1.00  0.00     0.014 C 
BRANCH   7   9
ATOM      9  C   UNL     1      -2.164  20.227  17.146  1.00  0.00     0.044 C 
ATOM     10  O   UNL     1      -3.350  19.973  16.803  1.00  0.00    -0.550 OA
ATOM     11  O   UNL     1      -1.874  20.460  18.485  1.00  0.00    -0.550 OA
ENDBRANCH   7   9
ENDBRANCH   6   7
ENDBRANCH   5   6
ENDBRANCH   4   5
ENDBRANCH   3   4
ENDBRANCH   2   3
ENDBRANCH   1   2
BRANCH   1  12
ATOM     12  C   UNL     1       7.679  20.017  14.743  1.00  0.00     0.000 C 
BRANCH  12  13
ATOM     13  C   UNL     1       8.527  21.302  14.709  1.00  0.00    -0.000 C 
BRANCH  13  14
ATOM     14  C   UNL     1      10.039  21.026  14.787  1.00  0.00    -0.000 C 
BRANCH  14  15
ATOM     15  C   UNL     1      10.836  21.815  13.736  1.00  0.00    -0.000 C 
BRANCH  15  16
ATOM     16  C   UNL     1      10.003  22.135  12.483  1.00  0.00    -0.000 C 
BRANCH  16  17
ATOM     17  C   UNL     1      10.351  21.225  11.294  1.00  0.00    -0.000 C 
BRANCH  17  18
ATOM     18  C   UNL     1       9.525  19.930  11.278  1.00  0.00    -0.003 C 
ATOM     19  C   UNL     1       8.147  20.165  10.667  1.00  0.00     0.004 C 
ENDBRANCH  17  18
ENDBRANCH  16  17
ENDBRANCH  15  16
ENDBRANCH  14  15
ENDBRANCH  13  14
ENDBRANCH  12  13
ENDBRANCH   1  12
TORSDOF 14
ENDMDL
MODEL 6
REMARK VINA RESULT:    -2.329      2.541      5.286
REMARK INTER + INTRA:          -4.613
REMARK INTER:                  -4.567
REMARK INTRA:                  -0.046
REMARK UNBOUND:                -0.378
REMARK SMILES CCCCCCCCCCCCCC[C@H](C)C(=O)[O-]
REMARK SMILES IDX 9 1 10 2 11 3 12 4 13 5 14 6 15 7 16 8 17 9 18 10 19 11 8 12
REMARK SMILES IDX 7 13 6 14 5 15 4 16 3 17 2 18 1 19
REMARK H PARENT
REMARK Flexibility Score: inf
ROOT
ATOM      1  C   UNL     1       5.893  21.149  15.329  1.00  0.00     0.000 C 
ENDROOT
BRANCH   1   2
ATOM      2  C   UNL     1       7.379  21.280  15.701  1.00  0.00     0.000 C 
BRANCH   2   3
ATOM      3  C   UNL     1       8.175  19.984  15.458  1.00  0.00     0.000 C 
BRANCH   3   4
ATOM      4  C   UNL     1       9.213  20.050  14.318  1.00  0.00     0.000 C 
BRANCH   4   5
ATOM      5  C   UNL     1      10.600  20.584  14.724  1.00  0.00     0.001 C 
BRANCH   5   6
ATOM      6  C   UNL     1      11.125  21.759  13.875  1.00  0.00     0.009 C 
BRANCH   6   7
ATOM      7  C   UNL     1      10.167  22.178  12.725  1.00  0.00     0.032 C 
ATOM      8  C   UNL     1      10.032  21.083  11.656  1.00  0.00     0.014 C 
BRANCH   7   9
ATOM      9  C   UNL     1      10.645  23.448  12.073  1.00  0.00     0.044 C 
ATOM     10  O   UNL     1      10.783  24.503  12.750  1.00  0.00    -0.550 OA
ATOM     11  O   UNL     1      10.940  23.464  10.715  1.00  0.00    -0.550 OA
ENDBRANCH   7   9
ENDBRANCH   6   7
ENDBRANCH   5   6
ENDBRANCH   4   5
ENDBRANCH   3   4
ENDBRANCH   2   3
ENDBRANCH   1   2
BRANCH   1  12
ATOM     12  C   UNL     1       5.029  20.614  16.485  1.00  0.00     0.000 C 
BRANCH  12  13
ATOM     13  C   UNL     1       3.628  20.115  16.085  1.00  0.00    -0.000 C 
BRANCH  13  14
ATOM     14  C   UNL     1       2.494  20.978  16.665  1.00  0.00    -0.000 C 
BRANCH  14  15
ATOM     15  C   UNL     1       1.190  20.855  15.860  1.00  0.00    -0.000 C 
BRANCH  15  16
ATOM     16  C   UNL     1       0.100  20.079  16.620  1.00  0.00    -0.000 C 
BRANCH  16  17
ATOM     17  C   UNL     1      -1.294  20.708  16.457  1.00  0.00    -0.000 C 
BRANCH  17  18
ATOM     18  C   UNL     1      -2.401  19.875  17.120  1.00  0.00    -0.003 C 
ATOM     19  C   UNL     1      -3.680  19.901  16.289  1.00  0.00     0.004 C 
ENDBRANCH  17  18
ENDBRANCH  16  17
ENDBRANCH  15  16
ENDBRANCH  14  15
ENDBRANCH  13  14
ENDBRANCH  12  13
ENDBRANCH   1  12
TORSDOF 14
ENDMDL
MODEL 7
REMARK VINA RESULT:     0.186      6.790     12.134
REMARK INTER + INTRA:          -0.041
REMARK INTER:                   0.191
REMARK INTRA:                  -0.232
REMARK UNBOUND:                -0.378
REMARK SMILES CCCCCCCCCCCCCC[C@H](C)C(=O)[O-]
REMARK SMILES IDX 9 1 10 2 11 3 12 4 13 5 14 6 15 7 16 8 17 9 18 10 19 11 8 12
REMARK SMILES IDX 7 13 6 14 5 15 4 16 3 17 2 18 1 19
REMARK H PARENT
REMARK Flexibility Score: inf
ROOT
ATOM      1  C   UNL     1      -7.630  21.511  15.261  1.00  0.00     0.000 C 
ENDROOT
BRANCH   1   2
ATOM      2  C   UNL     1      -7.435  21.188  16.751  1.00  0.00     0.000 C 
BRANCH   2   3
ATOM      3  C   UNL     1      -8.343  20.045  17.242  1.00  0.00     0.000 C 
BRANCH   3   4
ATOM      4  C   UNL     1      -9.125  20.333  18.540  1.00  0.00     0.000 C 
BRANCH   4   5
ATOM      5  C   UNL     1      -8.978  21.764  19.090  1.00  0.00     0.001 C 
BRANCH   5   6
ATOM      6  C   UNL     1      -7.871  21.951  20.146  1.00  0.00     0.009 C 
BRANCH   6   7
ATOM      7  C   UNL     1      -8.262  22.913  21.302  1.00  0.00     0.032 C 
ATOM      8  C   UNL     1      -7.274  24.081  21.443  1.00  0.00     0.014 C 
BRANCH   7   9
ATOM      9  C   UNL     1      -8.336  22.169  22.609  1.00  0.00     0.044 C 
ATOM     10  O   UNL     1      -8.863  22.704  23.622  1.00  0.00    -0.550 OA
ATOM     11  O   UNL     1      -7.821  20.882  22.707  1.00  0.00    -0.550 OA
ENDBRANCH   7   9
ENDBRANCH   6   7
ENDBRANCH   5   6
ENDBRANCH   4   5
ENDBRANCH   3   4
ENDBRANCH   2   3
ENDBRANCH   1   2
BRANCH   1  12
ATOM     12  C   UNL     1      -6.397  21.166  14.405  1.00  0.00     0.000 C 
BRANCH  12  13
ATOM     13  C   UNL     1      -5.038  21.319  15.115  1.00  0.00    -0.000 C 
BRANCH  13  14
ATOM     14  C   UNL     1      -4.720  20.149  16.061  1.00  0.00    -0.000 C 
BRANCH  14  15
ATOM     15  C   UNL     1      -3.208  19.955  16.269  1.00  0.00    -0.000 C 
BRANCH  15  16
ATOM     16  C   UNL     1      -2.382  21.131  15.719  1.00  0.00    -0.000 C 
BRANCH  16  17
ATOM     17  C   UNL     1      -1.021  21.274  16.418  1.00  0.00    -0.000 C 
BRANCH  17  18
ATOM     18  C   UNL     1      -0.039  20.155  16.038  1.00  0.00    -0.003 C 
ATOM     19  C   UNL     1       1.391  20.530  16.414  1.00  0.00     0.004 C 
ENDBRANCH  17  18
ENDBRANCH  16  17
ENDBRANCH  15  16
ENDBRANCH  14  15
ENDBRANCH  13  14
ENDBRANCH  12  13
ENDBRANCH   1  12
TORSDOF 14
ENDMDL
