MODEL 1
REMARK VINA RESULT:    -4.576      0.000      0.000
REMARK INTER + INTRA:         -10.680
REMARK INTER:                  -8.322
REMARK INTRA:                  -2.358
REMARK UNBOUND:                -2.358
REMARK SMILES CCCCCCCCCCCCCCCC(=O)[O-]
REMARK SMILES IDX 9 1 10 2 11 3 12 4 13 5 14 6 15 7 16 8 17 9 18 10 8 11 7 12
REMARK SMILES IDX 6 13 5 14 4 15 3 16 2 17 1 18
REMARK H PARENT
REMARK Flexibility Score: inf
ROOT
ATOM      1  C   UNL     1     -20.785  60.304  31.023  1.00  0.00     0.000 C 
ENDROOT
BRANCH   1   2
ATOM      2  C   UNL     1     -21.338  61.674  31.446  1.00  0.00     0.000 C 
BRANCH   2   3
ATOM      3  C   UNL     1     -22.836  61.633  31.782  1.00  0.00     0.000 C 
BRANCH   3   4
ATOM      4  C   UNL     1     -23.643  62.478  30.785  1.00  0.00     0.000 C 
BRANCH   4   5
ATOM      5  C   UNL     1     -25.156  62.434  31.057  1.00  0.00     0.000 C 
BRANCH   5   6
ATOM      6  C   UNL     1     -25.526  61.469  32.197  1.00  0.00     0.006 C 
BRANCH   6   7
ATOM      7  C   UNL     1     -26.867  61.830  32.848  1.00  0.00     0.053 C 
BRANCH   7   8
ATOM      8  C   UNL     1     -26.998  61.243  34.220  1.00  0.00     0.041 C 
ATOM      9  O   UNL     1     -26.151  61.519  35.110  1.00  0.00    -0.550 OA
ATOM     10  O   UNL     1     -28.072  60.416  34.525  1.00  0.00    -0.550 OA
ENDBRANCH   7   8
ENDBRANCH   6   7
ENDBRANCH   5   6
ENDBRANCH   4   5
ENDBRANCH   3   4
ENDBRANCH   2   3
ENDBRANCH   1   2
BRANCH   1  11
ATOM     11  C   UNL     1     -20.346  60.269  29.549  1.00  0.00     0.000 C 
BRANCH  11  12
ATOM     12  C   UNL     1     -20.512  61.637  28.853  1.00  0.00    -0.000 C 
BRANCH  12  13
ATOM     13  C   UNL     1     -21.547  61.628  27.711  1.00  0.00    -0.000 C 
BRANCH  13  14
ATOM     14  C   UNL     1     -22.445  60.378  27.665  1.00  0.00    -0.000 C 
BRANCH  14  15
ATOM     15  C   UNL     1     -23.905  60.605  28.107  1.00  0.00    -0.000 C 
BRANCH  15  16
ATOM     16  C   UNL     1     -24.597  59.379  28.733  1.00  0.00    -0.000 C 
BRANCH  16  17
ATOM     17  C   UNL     1     -23.676  58.588  29.672  1.00  0.00    -0.003 C 
ATOM     18  C   UNL     1     -24.367  58.295  31.001  1.00  0.00     0.004 C 
ENDBRANCH  16  17
ENDBRANCH  15  16
ENDBRANCH  14  15
ENDBRANCH  13  14
ENDBRANCH  12  13
ENDBRANCH  11  12
ENDBRANCH   1  11
TORSDOF 14
ENDMDL
MODEL 2
REMARK VINA RESULT:    -4.576      3.273      5.641
REMARK INTER + INTRA:         -10.678
REMARK INTER:                  -8.374
REMARK INTRA:                  -2.305
REMARK UNBOUND:                -2.358
REMARK SMILES CCCCCCCCCCCCCCCC(=O)[O-]
REMARK SMILES IDX 9 1 10 2 11 3 12 4 13 5 14 6 15 7 16 8 17 9 18 10 8 11 7 12
REMARK SMILES IDX 6 13 5 14 4 15 3 16 2 17 1 18
REMARK H PARENT
REMARK Flexibility Score: inf
ROOT
ATOM      1  C   UNL     1     -23.500  60.122  28.146  1.00  0.00     0.000 C 
ENDROOT
BRANCH   1   2
ATOM      2  C   UNL     1     -23.626  61.650  28.254  1.00  0.00     0.000 C 
BRANCH   2   3
ATOM      3  C   UNL     1     -24.553  62.092  29.396  1.00  0.00     0.000 C 
BRANCH   3   4
ATOM      4  C   UNL     1     -23.753  62.780  30.513  1.00  0.00     0.000 C 
BRANCH   4   5
ATOM      5  C   UNL     1     -23.369  61.816  31.648  1.00  0.00     0.000 C 
BRANCH   5   6
ATOM      6  C   UNL     1     -21.947  61.250  31.489  1.00  0.00     0.006 C 
BRANCH   6   7
ATOM      7  C   UNL     1     -20.986  62.267  30.860  1.00  0.00     0.053 C 
BRANCH   7   8
ATOM      8  C   UNL     1     -20.031  61.618  29.908  1.00  0.00     0.041 C 
ATOM      9  O   UNL     1     -20.163  61.784  28.666  1.00  0.00    -0.550 OA
ATOM     10  O   UNL     1     -18.975  60.854  30.391  1.00  0.00    -0.550 OA
ENDBRANCH   7   8
ENDBRANCH   6   7
ENDBRANCH   5   6
ENDBRANCH   4   5
ENDBRANCH   3   4
ENDBRANCH   2   3
ENDBRANCH   1   2
BRANCH   1  11
ATOM     11  C   UNL     1     -24.573  59.379  28.960  1.00  0.00     0.000 C 
BRANCH  11  12
ATOM     12  C   UNL     1     -23.962  58.468  30.047  1.00  0.00    -0.000 C 
BRANCH  12  13
ATOM     13  C   UNL     1     -24.772  58.440  31.357  1.00  0.00    -0.000 C 
BRANCH  13  14
ATOM     14  C   UNL     1     -26.043  59.309  31.348  1.00  0.00    -0.000 C 
BRANCH  14  15
ATOM     15  C   UNL     1     -26.338  60.052  32.668  1.00  0.00    -0.000 C 
BRANCH  15  16
ATOM     16  C   UNL     1     -26.977  61.443  32.507  1.00  0.00    -0.000 C 
BRANCH  16  17
ATOM     17  C   UNL     1     -27.646  61.946  33.795  1.00  0.00    -0.003 C 
ATOM     18  C   UNL     1     -27.833  60.811  34.797  1.00  0.00     0.004 C 
ENDBRANCH  16  17
ENDBRANCH  15  16
ENDBRANCH  14  15
ENDBRANCH  13  14
ENDBRANCH  12  13
ENDBRANCH  11  12
ENDBRANCH   1  11
TORSDOF 14
ENDMDL
MODEL 3
REMARK VINA RESULT:    -4.542      1.443      3.351
REMARK INTER + INTRA:         -10.618
REMARK INTER:                  -8.097
REMARK INTRA:                  -2.520
REMARK UNBOUND:                -2.358
REMARK SMILES CCCCCCCCCCCCCCCC(=O)[O-]
REMARK SMILES IDX 9 1 10 2 11 3 12 4 13 5 14 6 15 7 16 8 17 9 18 10 8 11 7 12
REMARK SMILES IDX 6 13 5 14 4 15 3 16 2 17 1 18
REMARK H PARENT
REMARK Flexibility Score: inf
ROOT
ATOM      1  C   UNL     1     -24.154  62.429  31.010  1.00  0.00     0.000 C 
ENDROOT
BRANCH   1   2
ATOM      2  C   UNL     1     -22.629  62.286  31.139  1.00  0.00     0.000 C 
BRANCH   2   3
ATOM      3  C   UNL     1     -22.215  61.327  32.265  1.00  0.00     0.000 C 
BRANCH   3   4
ATOM      4  C   UNL     1     -23.429  60.552  32.797  1.00  0.00     0.000 C 
BRANCH   4   5
ATOM      5  C   UNL     1     -23.672  60.784  34.297  1.00  0.00     0.000 C 
BRANCH   5   6
ATOM      6  C   UNL     1     -25.167  60.790  34.662  1.00  0.00     0.006 C 
BRANCH   6   7
ATOM      7  C   UNL     1     -26.060  60.519  33.444  1.00  0.00     0.053 C 
BRANCH   7   8
ATOM      8  C   UNL     1     -27.205  61.482  33.366  1.00  0.00     0.041 C 
ATOM      9  O   UNL     1     -27.930  61.522  32.337  1.00  0.00    -0.550 OA
ATOM     10  O   UNL     1     -27.490  62.315  34.442  1.00  0.00    -0.550 OA
ENDBRANCH   7   8
ENDBRANCH   6   7
ENDBRANCH   5   6
ENDBRANCH   4   5
ENDBRANCH   3   4
ENDBRANCH   2   3
ENDBRANCH   1   2
BRANCH   1  11
ATOM     11  C   UNL     1     -24.672  62.036  29.616  1.00  0.00     0.000 C 
BRANCH  11  12
ATOM     12  C   UNL     1     -25.547  60.764  29.650  1.00  0.00    -0.000 C 
BRANCH  12  13
ATOM     13  C   UNL     1     -24.968  59.594  28.831  1.00  0.00    -0.000 C 
BRANCH  13  14
ATOM     14  C   UNL     1     -24.023  58.665  29.612  1.00  0.00    -0.000 C 
BRANCH  14  15
ATOM     15  C   UNL     1     -22.518  58.930  29.398  1.00  0.00    -0.000 C 
BRANCH  15  16
ATOM     16  C   UNL     1     -22.156  59.597  28.058  1.00  0.00    -0.000 C 
BRANCH  16  17
ATOM     17  C   UNL     1     -21.379  60.910  28.234  1.00  0.00    -0.003 C 
ATOM     18  C   UNL     1     -21.763  61.924  27.160  1.00  0.00     0.004 C 
ENDBRANCH  16  17
ENDBRANCH  15  16
ENDBRANCH  14  15
ENDBRANCH  13  14
ENDBRANCH  12  13
ENDBRANCH  11  12
ENDBRANCH   1  11
TORSDOF 14
ENDMDL
MODEL 4
REMARK VINA RESULT:    -4.476      1.671      3.962
REMARK INTER + INTRA:         -10.496
REMARK INTER:                  -8.910
REMARK INTRA:                  -1.587
REMARK UNBOUND:                -2.358
REMARK SMILES CCCCCCCCCCCCCCCC(=O)[O-]
REMARK SMILES IDX 9 1 10 2 11 3 12 4 13 5 14 6 15 7 16 8 17 9 18 10 8 11 7 12
REMARK SMILES IDX 6 13 5 14 4 15 3 16 2 17 1 18
REMARK H PARENT
REMARK Flexibility Score: inf
ROOT
ATOM      1  C   UNL     1     -24.162  59.910  28.644  1.00  0.00     0.000 C 
ENDROOT
BRANCH   1   2
ATOM      2  C   UNL     1     -25.425  59.829  29.517  1.00  0.00     0.000 C 
BRANCH   2   3
ATOM      3  C   UNL     1     -25.222  58.979  30.780  1.00  0.00     0.000 C 
BRANCH   3   4
ATOM      4  C   UNL     1     -26.229  59.372  31.871  1.00  0.00     0.000 C 
BRANCH   4   5
ATOM      5  C   UNL     1     -26.526  60.880  31.891  1.00  0.00     0.000 C 
BRANCH   5   6
ATOM      6  C   UNL     1     -27.794  61.225  32.691  1.00  0.00     0.006 C 
BRANCH   6   7
ATOM      7  C   UNL     1     -27.767  60.628  34.104  1.00  0.00     0.053 C 
BRANCH   7   8
ATOM      8  C   UNL     1     -26.984  61.480  35.055  1.00  0.00     0.041 C 
ATOM      9  O   UNL     1     -27.553  62.406  35.691  1.00  0.00    -0.550 OA
ATOM     10  O   UNL     1     -25.632  61.232  35.262  1.00  0.00    -0.550 OA
ENDBRANCH   7   8
ENDBRANCH   6   7
ENDBRANCH   5   6
ENDBRANCH   4   5
ENDBRANCH   3   4
ENDBRANCH   2   3
ENDBRANCH   1   2
BRANCH   1  11
ATOM     11  C   UNL     1     -23.616  61.342  28.520  1.00  0.00     0.000 C 
BRANCH  11  12
ATOM     12  C   UNL     1     -24.483  62.371  29.279  1.00  0.00    -0.000 C 
BRANCH  12  13
ATOM     13  C   UNL     1     -23.809  62.932  30.546  1.00  0.00    -0.000 C 
BRANCH  13  14
ATOM     14  C   UNL     1     -22.894  61.938  31.284  1.00  0.00    -0.000 C 
BRANCH  14  15
ATOM     15  C   UNL     1     -21.453  62.431  31.528  1.00  0.00    -0.000 C 
BRANCH  15  16
ATOM     16  C   UNL     1     -20.844  62.027  32.883  1.00  0.00    -0.000 C 
BRANCH  16  17
ATOM     17  C   UNL     1     -21.858  61.348  33.816  1.00  0.00    -0.003 C 
ATOM     18  C   UNL     1     -21.885  62.023  35.184  1.00  0.00     0.004 C 
ENDBRANCH  16  17
ENDBRANCH  15  16
ENDBRANCH  14  15
ENDBRANCH  13  14
ENDBRANCH  12  13
ENDBRANCH  11  12
ENDBRANCH   1  11
TORSDOF 14
ENDMDL
MODEL 5
REMARK VINA RESULT:    -4.435      1.379      2.941
REMARK INTER + INTRA:         -10.422
REMARK INTER:                  -8.037
REMARK INTRA:                  -2.385
REMARK UNBOUND:                -2.358
REMARK SMILES CCCCCCCCCCCCCCCC(=O)[O-]
REMARK SMILES IDX 9 1 10 2 11 3 12 4 13 5 14 6 15 7 16 8 17 9 18 10 8 11 7 12
REMARK SMILES IDX 6 13 5 14 4 15 3 16 2 17 1 18
REMARK H PARENT
REMARK Flexibility Score: inf
ROOT
ATOM      1  C   UNL     1     -21.454  60.181  28.696  1.00  0.00     0.000 C 
ENDROOT
BRANCH   1   2
ATOM      2  C   UNL     1     -22.829  60.279  28.016  1.00  0.00     0.000 C 
BRANCH   2   3
ATOM      3  C   UNL     1     -23.482  61.659  28.188  1.00  0.00     0.000 C 
BRANCH   3   4
ATOM      4  C   UNL     1     -24.470  61.653  29.365  1.00  0.00     0.000 C 
BRANCH   4   5
ATOM      5  C   UNL     1     -24.764  63.064  29.900  1.00  0.00     0.000 C 
BRANCH   5   6
ATOM      6  C   UNL     1     -25.664  63.049  31.148  1.00  0.00     0.006 C 
BRANCH   6   7
ATOM      7  C   UNL     1     -25.805  61.642  31.743  1.00  0.00     0.053 C 
BRANCH   7   8
ATOM      8  C   UNL     1     -27.057  61.501  32.553  1.00  0.00     0.041 C 
ATOM      9  O   UNL     1     -27.828  60.524  32.362  1.00  0.00    -0.550 OA
ATOM     10  O   UNL     1     -27.357  62.432  33.540  1.00  0.00    -0.550 OA
ENDBRANCH   7   8
ENDBRANCH   6   7
ENDBRANCH   5   6
ENDBRANCH   4   5
ENDBRANCH   3   4
ENDBRANCH   2   3
ENDBRANCH   1   2
BRANCH   1  11
ATOM     11  C   UNL     1     -20.686  61.513  28.675  1.00  0.00     0.000 C 
BRANCH  11  12
ATOM     12  C   UNL     1     -20.119  61.887  30.062  1.00  0.00    -0.000 C 
BRANCH  12  13
ATOM     13  C   UNL     1     -21.185  62.401  31.048  1.00  0.00    -0.000 C 
BRANCH  13  14
ATOM     14  C   UNL     1     -21.134  61.760  32.446  1.00  0.00    -0.000 C 
BRANCH  14  15
ATOM     15  C   UNL     1     -22.325  60.841  32.789  1.00  0.00    -0.000 C 
BRANCH  15  16
ATOM     16  C   UNL     1     -22.361  59.504  32.027  1.00  0.00    -0.000 C 
BRANCH  16  17
ATOM     17  C   UNL     1     -23.660  58.719  32.257  1.00  0.00    -0.003 C 
ATOM     18  C   UNL     1     -24.242  58.219  30.938  1.00  0.00     0.004 C 
ENDBRANCH  16  17
ENDBRANCH  15  16
ENDBRANCH  14  15
ENDBRANCH  13  14
ENDBRANCH  12  13
ENDBRANCH  11  12
ENDBRANCH   1  11
TORSDOF 14
ENDMDL
MODEL 6
REMARK VINA RESULT:    -4.428      1.441      2.657
REMARK INTER + INTRA:         -10.409
REMARK INTER:                  -7.943
REMARK INTRA:                  -2.466
REMARK UNBOUND:                -2.358
REMARK SMILES CCCCCCCCCCCCCCCC(=O)[O-]
REMARK SMILES IDX 9 1 10 2 11 3 12 4 13 5 14 6 15 7 16 8 17 9 18 10 8 11 7 12
REMARK SMILES IDX 6 13 5 14 4 15 3 16 2 17 1 18
REMARK H PARENT
REMARK Flexibility Score: inf
ROOT
ATOM      1  C   UNL     1     -22.457  61.595  29.887  1.00  0.00     0.000 C 
ENDROOT
BRANCH   1   2
ATOM      2  C   UNL     1     -23.264  62.506  30.827  1.00  0.00     0.000 C 
BRANCH   2   3
ATOM      3  C   UNL     1     -24.524  63.080  30.162  1.00  0.00     0.000 C 
BRANCH   3   4
ATOM      4  C   UNL     1     -25.729  62.996  31.110  1.00  0.00     0.000 C 
BRANCH   4   5
ATOM      5  C   UNL     1     -25.844  61.629  31.805  1.00  0.00     0.000 C 
BRANCH   5   6
ATOM      6  C   UNL     1     -27.172  61.460  32.564  1.00  0.00     0.006 C 
BRANCH   6   7
ATOM      7  C   UNL     1     -27.019  60.573  33.806  1.00  0.00     0.053 C 
BRANCH   7   8
ATOM      8  C   UNL     1     -26.518  61.346  34.987  1.00  0.00     0.041 C 
ATOM      9  O   UNL     1     -25.316  61.240  35.349  1.00  0.00    -0.550 OA
ATOM     10  O   UNL     1     -27.369  62.207  35.669  1.00  0.00    -0.550 OA
ENDBRANCH   7   8
ENDBRANCH   6   7
ENDBRANCH   5   6
ENDBRANCH   4   5
ENDBRANCH   3   4
ENDBRANCH   2   3
ENDBRANCH   1   2
BRANCH   1  11
ATOM     11  C   UNL     1     -23.048  61.531  28.469  1.00  0.00     0.000 C 
BRANCH  11  12
ATOM     12  C   UNL     1     -23.529  60.112  28.095  1.00  0.00    -0.000 C 
BRANCH  12  13
ATOM     13  C   UNL     1     -24.919  59.762  28.660  1.00  0.00    -0.000 C 
BRANCH  13  14
ATOM     14  C   UNL     1     -24.902  58.826  29.882  1.00  0.00    -0.000 C 
BRANCH  14  15
ATOM     15  C   UNL     1     -23.634  57.958  30.024  1.00  0.00    -0.000 C 
BRANCH  15  16
ATOM     16  C   UNL     1     -22.853  58.150  31.337  1.00  0.00    -0.000 C 
BRANCH  16  17
ATOM     17  C   UNL     1     -23.712  58.746  32.462  1.00  0.00    -0.003 C 
ATOM     18  C   UNL     1     -22.928  59.781  33.263  1.00  0.00     0.004 C 
ENDBRANCH  16  17
ENDBRANCH  15  16
ENDBRANCH  14  15
ENDBRANCH  13  14
ENDBRANCH  12  13
ENDBRANCH  11  12
ENDBRANCH   1  11
TORSDOF 14
ENDMDL
MODEL 7
REMARK VINA RESULT:    -4.379      2.542      4.778
REMARK INTER + INTRA:         -10.320
REMARK INTER:                  -8.386
REMARK INTRA:                  -1.934
REMARK UNBOUND:                -2.358
REMARK SMILES CCCCCCCCCCCCCCCC(=O)[O-]
REMARK SMILES IDX 9 1 10 2 11 3 12 4 13 5 14 6 15 7 16 8 17 9 18 10 8 11 7 12
REMARK SMILES IDX 6 13 5 14 4 15 3 16 2 17 1 18
REMARK H PARENT
REMARK Flexibility Score: inf
ROOT
ATOM      1  C   UNL     1     -25.474  59.034  30.632  1.00  0.00     0.000 C 
ENDROOT
BRANCH   1   2
ATOM      2  C   UNL     1     -26.268  59.693  31.770  1.00  0.00     0.000 C 
BRANCH   2   3
ATOM      3  C   UNL     1     -25.652  59.435  33.153  1.00  0.00     0.000 C 
BRANCH   3   4
ATOM      4  C   UNL     1     -26.262  60.372  34.206  1.00  0.00     0.000 C 
BRANCH   4   5
ATOM      5  C   UNL     1     -25.200  61.037  35.097  1.00  0.00     0.000 C 
BRANCH   5   6
ATOM      6  C   UNL     1     -23.766  60.634  34.710  1.00  0.00     0.006 C 
BRANCH   6   7
ATOM      7  C   UNL     1     -22.724  61.631  35.234  1.00  0.00     0.053 C 
BRANCH   7   8
ATOM      8  C   UNL     1     -21.394  61.449  34.571  1.00  0.00     0.041 C 
ATOM      9  O   UNL     1     -20.523  62.357  34.638  1.00  0.00    -0.550 OA
ATOM     10  O   UNL     1     -21.103  60.265  33.904  1.00  0.00    -0.550 OA
ENDBRANCH   7   8
ENDBRANCH   6   7
ENDBRANCH   5   6
ENDBRANCH   4   5
ENDBRANCH   3   4
ENDBRANCH   2   3
ENDBRANCH   1   2
BRANCH   1  11
ATOM     11  C   UNL     1     -24.967  60.050  29.594  1.00  0.00     0.000 C 
BRANCH  11  12
ATOM     12  C   UNL     1     -25.422  61.491  29.911  1.00  0.00    -0.000 C 
BRANCH  12  13
ATOM     13  C   UNL     1     -24.258  62.450  30.227  1.00  0.00    -0.000 C 
BRANCH  13  14
ATOM     14  C   UNL     1     -23.264  61.933  31.283  1.00  0.00    -0.000 C 
BRANCH  14  15
ATOM     15  C   UNL     1     -21.775  62.074  30.905  1.00  0.00    -0.000 C 
BRANCH  15  16
ATOM     16  C   UNL     1     -21.251  61.023  29.909  1.00  0.00    -0.000 C 
BRANCH  16  17
ATOM     17  C   UNL     1     -20.689  61.646  28.623  1.00  0.00    -0.003 C 
ATOM     18  C   UNL     1     -21.742  61.674  27.520  1.00  0.00     0.004 C 
ENDBRANCH  16  17
ENDBRANCH  15  16
ENDBRANCH  14  15
ENDBRANCH  13  14
ENDBRANCH  12  13
ENDBRANCH  11  12
ENDBRANCH   1  11
TORSDOF 14
ENDMDL
MODEL 8
REMARK VINA RESULT:    -4.377      1.192      3.610
REMARK INTER + INTRA:         -10.318
REMARK INTER:                  -7.757
REMARK INTRA:                  -2.561
REMARK UNBOUND:                -2.358
REMARK SMILES CCCCCCCCCCCCCCCC(=O)[O-]
REMARK SMILES IDX 9 1 10 2 11 3 12 4 13 5 14 6 15 7 16 8 17 9 18 10 8 11 7 12
REMARK SMILES IDX 6 13 5 14 4 15 3 16 2 17 1 18
REMARK H PARENT
REMARK Flexibility Score: inf
ROOT
ATOM      1  C   UNL     1     -23.474  60.839  28.851  1.00  0.00     0.000 C 
ENDROOT
BRANCH   1   2
ATOM      2  C   UNL     1     -24.275  59.544  28.643  1.00  0.00     0.000 C 
BRANCH   2   3
ATOM      3  C   UNL     1     -25.388  59.359  29.686  1.00  0.00     0.000 C 
BRANCH   3   4
ATOM      4  C   UNL     1     -24.831  58.729  30.972  1.00  0.00     0.000 C 
BRANCH   4   5
ATOM      5  C   UNL     1     -25.549  59.228  32.237  1.00  0.00     0.000 C 
BRANCH   5   6
ATOM      6  C   UNL     1     -26.624  60.285  31.930  1.00  0.00     0.006 C 
BRANCH   6   7
ATOM      7  C   UNL     1     -26.537  61.490  32.875  1.00  0.00     0.053 C 
BRANCH   7   8
ATOM      8  C   UNL     1     -26.943  61.136  34.272  1.00  0.00     0.041 C 
ATOM      9  O   UNL     1     -27.979  60.448  34.475  1.00  0.00    -0.550 OA
ATOM     10  O   UNL     1     -26.163  61.539  35.349  1.00  0.00    -0.550 OA
ENDBRANCH   7   8
ENDBRANCH   6   7
ENDBRANCH   5   6
ENDBRANCH   4   5
ENDBRANCH   3   4
ENDBRANCH   2   3
ENDBRANCH   1   2
BRANCH   1  11
ATOM     11  C   UNL     1     -24.371  62.053  29.144  1.00  0.00     0.000 C 
BRANCH  11  12
ATOM     12  C   UNL     1     -23.969  62.783  30.445  1.00  0.00    -0.000 C 
BRANCH  12  13
ATOM     13  C   UNL     1     -23.090  61.934  31.383  1.00  0.00    -0.000 C 
BRANCH  13  14
ATOM     14  C   UNL     1     -21.618  62.377  31.464  1.00  0.00    -0.000 C 
BRANCH  14  15
ATOM     15  C   UNL     1     -20.593  61.229  31.571  1.00  0.00    -0.000 C 
BRANCH  15  16
ATOM     16  C   UNL     1     -21.176  59.869  31.997  1.00  0.00    -0.000 C 
BRANCH  16  17
ATOM     17  C   UNL     1     -21.083  58.806  30.893  1.00  0.00    -0.003 C 
ATOM     18  C   UNL     1     -20.193  59.279  29.747  1.00  0.00     0.004 C 
ENDBRANCH  16  17
ENDBRANCH  15  16
ENDBRANCH  14  15
ENDBRANCH  13  14
ENDBRANCH  12  13
ENDBRANCH  11  12
ENDBRANCH   1  11
TORSDOF 14
ENDMDL
MODEL 9
REMARK VINA RESULT:    -4.370      2.762      5.833
REMARK INTER + INTRA:         -10.303
REMARK INTER:                  -8.184
REMARK INTRA:                  -2.119
REMARK UNBOUND:                -2.358
REMARK SMILES CCCCCCCCCCCCCCCC(=O)[O-]
REMARK SMILES IDX 9 1 10 2 11 3 12 4 13 5 14 6 15 7 16 8 17 9 18 10 8 11 7 12
REMARK SMILES IDX 6 13 5 14 4 15 3 16 2 17 1 18
REMARK H PARENT
REMARK Flexibility Score: inf
ROOT
ATOM      1  C   UNL     1     -25.406  59.019  30.652  1.00  0.00     0.000 C 
ENDROOT
BRANCH   1   2
ATOM      2  C   UNL     1     -25.562  60.014  29.492  1.00  0.00     0.000 C 
BRANCH   2   3
ATOM      3  C   UNL     1     -24.300  60.116  28.622  1.00  0.00     0.000 C 
BRANCH   3   4
ATOM      4  C   UNL     1     -23.847  61.578  28.485  1.00  0.00     0.000 C 
BRANCH   4   5
ATOM      5  C   UNL     1     -24.138  62.411  29.744  1.00  0.00     0.000 C 
BRANCH   5   6
ATOM      6  C   UNL     1     -22.921  62.514  30.681  1.00  0.00     0.006 C 
BRANCH   6   7
ATOM      7  C   UNL     1     -22.978  61.485  31.818  1.00  0.00     0.053 C 
BRANCH   7   8
ATOM      8  C   UNL     1     -21.898  60.455  31.693  1.00  0.00     0.041 C 
ATOM      9  O   UNL     1     -21.602  59.725  32.676  1.00  0.00    -0.550 OA
ATOM     10  O   UNL     1     -21.238  60.280  30.483  1.00  0.00    -0.550 OA
ENDBRANCH   7   8
ENDBRANCH   6   7
ENDBRANCH   5   6
ENDBRANCH   4   5
ENDBRANCH   3   4
ENDBRANCH   2   3
ENDBRANCH   1   2
BRANCH   1  11
ATOM     11  C   UNL     1     -26.207  59.431  31.899  1.00  0.00     0.000 C 
BRANCH  11  12
ATOM     12  C   UNL     1     -26.820  60.842  31.767  1.00  0.00    -0.000 C 
BRANCH  12  13
ATOM     13  C   UNL     1     -27.008  61.563  33.115  1.00  0.00    -0.000 C 
BRANCH  13  14
ATOM     14  C   UNL     1     -26.750  60.689  34.356  1.00  0.00    -0.000 C 
BRANCH  14  15
ATOM     15  C   UNL     1     -25.593  61.163  35.261  1.00  0.00    -0.000 C 
BRANCH  15  16
ATOM     16  C   UNL     1     -24.213  60.570  34.923  1.00  0.00    -0.000 C 
BRANCH  16  17
ATOM     17  C   UNL     1     -23.156  60.865  35.997  1.00  0.00    -0.003 C 
ATOM     18  C   UNL     1     -22.091  61.824  35.472  1.00  0.00     0.004 C 
ENDBRANCH  16  17
ENDBRANCH  15  16
ENDBRANCH  14  15
ENDBRANCH  13  14
ENDBRANCH  12  13
ENDBRANCH  11  12
ENDBRANCH   1  11
TORSDOF 14
ENDMDL
