MODEL 1
REMARK VINA RESULT:    -1.149      0.000      0.000
REMARK INTER + INTRA:          -4.284
REMARK INTER:                  -2.156
REMARK INTRA:                  -2.128
REMARK UNBOUND:                -2.128
REMARK SMILES O=C([O-])CCCCCCCCCCCCCCC(=O)[O-]
REMARK SMILES IDX 10 1 9 2 8 3 7 4 6 5 5 6 4 7 2 8 1 9 3 10 11 11 12 12 13 13
REMARK SMILES IDX 14 14 15 15 16 16 17 17 18 18 19 19 20 20
REMARK H PARENT
REMARK Flexibility Score: inf
ROOT
ATOM      1  C   UNL     1      27.626 -10.066  13.457  1.00  0.00     0.000 C 
ENDROOT
BRANCH   1   2
ATOM      2  C   UNL     1      26.766 -10.036  14.734  1.00  0.00     0.000 C 
BRANCH   2   3
ATOM      3  C   UNL     1      27.289  -9.044  15.786  1.00  0.00     0.000 C 
BRANCH   3   4
ATOM      4  C   UNL     1      27.997  -7.827  15.162  1.00  0.00     0.000 C 
BRANCH   4   5
ATOM      5  C   UNL     1      29.329  -7.425  15.828  1.00  0.00     0.000 C 
BRANCH   5   6
ATOM      6  C   UNL     1      29.241  -6.240  16.805  1.00  0.00     0.006 C 
BRANCH   6   7
ATOM      7  C   UNL     1      28.264  -5.155  16.338  1.00  0.00     0.053 C 
BRANCH   7   8
ATOM      8  C   UNL     1      28.957  -4.177  15.444  1.00  0.00     0.041 C 
ATOM      9  O   UNL     1      28.835  -4.264  14.193  1.00  0.00    -0.550 OA
ATOM     10  O   UNL     1      29.698  -3.137  15.991  1.00  0.00    -0.550 OA
ENDBRANCH   7   8
ENDBRANCH   6   7
ENDBRANCH   5   6
ENDBRANCH   4   5
ENDBRANCH   3   4
ENDBRANCH   2   3
ENDBRANCH   1   2
BRANCH   1  11
ATOM     11  C   UNL     1      28.808 -11.052  13.485  1.00  0.00     0.000 C 
BRANCH  11  12
ATOM     12  C   UNL     1      30.165 -10.359  13.679  1.00  0.00     0.000 C 
BRANCH  12  13
ATOM     13  C   UNL     1      30.970 -11.031  14.799  1.00  0.00     0.000 C 
BRANCH  13  14
ATOM     14  C   UNL     1      30.156 -11.094  16.099  1.00  0.00     0.000 C 
BRANCH  14  15
ATOM     15  C   UNL     1      30.864 -10.415  17.285  1.00  0.00     0.000 C 
BRANCH  15  16
ATOM     16  C   UNL     1      29.959 -10.104  18.495  1.00  0.00     0.006 C 
BRANCH  16  17
ATOM     17  C   UNL     1      30.399  -8.885  19.322  1.00  0.00     0.053 C 
BRANCH  17  18
ATOM     18  C   UNL     1      30.429  -9.183  20.789  1.00  0.00     0.041 C 
ATOM     19  O   UNL     1      29.821 -10.187  21.244  1.00  0.00    -0.550 OA
ATOM     20  O   UNL     1      31.100  -8.333  21.659  1.00  0.00    -0.550 OA
ENDBRANCH  17  18
ENDBRANCH  16  17
ENDBRANCH  15  16
ENDBRANCH  14  15
ENDBRANCH  13  14
ENDBRANCH  12  13
ENDBRANCH  11  12
ENDBRANCH   1  11
TORSDOF 15
ENDMDL
MODEL 2
REMARK VINA RESULT:    -1.147      3.156      5.824
REMARK INTER + INTRA:          -4.282
REMARK INTER:                  -1.702
REMARK INTRA:                  -2.580
REMARK UNBOUND:                -2.128
REMARK SMILES O=C([O-])CCCCCCCCCCCCCCC(=O)[O-]
REMARK SMILES IDX 10 1 9 2 8 3 7 4 6 5 5 6 4 7 2 8 1 9 3 10 11 11 12 12 13 13
REMARK SMILES IDX 14 14 15 15 16 16 17 17 18 18 19 19 20 20
REMARK H PARENT
REMARK Flexibility Score: inf
ROOT
ATOM      1  C   UNL     1      28.842  -8.404  15.514  1.00  0.00     0.000 C 
ENDROOT
BRANCH   1   2
ATOM      2  C   UNL     1      29.918  -8.591  16.600  1.00  0.00     0.000 C 
BRANCH   2   3
ATOM      3  C   UNL     1      30.458 -10.029  16.668  1.00  0.00     0.000 C 
BRANCH   3   4
ATOM      4  C   UNL     1      29.838 -10.847  17.816  1.00  0.00     0.000 C 
BRANCH   4   5
ATOM      5  C   UNL     1      29.608 -10.073  19.130  1.00  0.00     0.000 C 
BRANCH   5   6
ATOM      6  C   UNL     1      28.796 -10.825  20.199  1.00  0.00     0.006 C 
BRANCH   6   7
ATOM      7  C   UNL     1      29.126 -10.371  21.625  1.00  0.00     0.053 C 
BRANCH   7   8
ATOM      8  C   UNL     1      27.871 -10.147  22.406  1.00  0.00     0.041 C 
ATOM      9  O   UNL     1      27.870  -9.365  23.394  1.00  0.00    -0.550 OA
ATOM     10  O   UNL     1      26.688 -10.761  22.015  1.00  0.00    -0.550 OA
ENDBRANCH   7   8
ENDBRANCH   6   7
ENDBRANCH   5   6
ENDBRANCH   4   5
ENDBRANCH   3   4
ENDBRANCH   2   3
ENDBRANCH   1   2
BRANCH   1  11
ATOM     11  C   UNL     1      28.536  -9.654  14.670  1.00  0.00     0.000 C 
BRANCH  11  12
ATOM     12  C   UNL     1      27.047 -10.027  14.667  1.00  0.00     0.000 C 
BRANCH  12  13
ATOM     13  C   UNL     1      26.309  -9.353  15.830  1.00  0.00     0.000 C 
BRANCH  13  14
ATOM     14  C   UNL     1      26.204 -10.296  17.036  1.00  0.00     0.000 C 
BRANCH  14  15
ATOM     15  C   UNL     1      25.933  -9.555  18.357  1.00  0.00     0.000 C 
BRANCH  15  16
ATOM     16  C   UNL     1      26.514  -8.128  18.437  1.00  0.00     0.006 C 
BRANCH  16  17
ATOM     17  C   UNL     1      26.810  -7.639  19.864  1.00  0.00     0.053 C 
BRANCH  17  18
ATOM     18  C   UNL     1      25.556  -7.320  20.619  1.00  0.00     0.041 C 
ATOM     19  O   UNL     1      25.447  -7.641  21.831  1.00  0.00    -0.550 OA
ATOM     20  O   UNL     1      24.495  -6.696  19.974  1.00  0.00    -0.550 OA
ENDBRANCH  17  18
ENDBRANCH  16  17
ENDBRANCH  15  16
ENDBRANCH  14  15
ENDBRANCH  13  14
ENDBRANCH  12  13
ENDBRANCH  11  12
ENDBRANCH   1  11
TORSDOF 15
ENDMDL
MODEL 3
REMARK VINA RESULT:    -1.123      2.730      5.264
REMARK INTER + INTRA:          -4.236
REMARK INTER:                  -1.713
REMARK INTRA:                  -2.523
REMARK UNBOUND:                -2.128
REMARK SMILES O=C([O-])CCCCCCCCCCCCCCC(=O)[O-]
REMARK SMILES IDX 10 1 9 2 8 3 7 4 6 5 5 6 4 7 2 8 1 9 3 10 11 11 12 12 13 13
REMARK SMILES IDX 14 14 15 15 16 16 17 17 18 18 19 19 20 20
REMARK H PARENT
REMARK Flexibility Score: inf
ROOT
ATOM      1  C   UNL     1      28.478  -7.844  14.533  1.00  0.00     0.000 C 
ENDROOT
BRANCH   1   2
ATOM      2  C   UNL     1      29.370  -9.035  14.930  1.00  0.00     0.000 C 
BRANCH   2   3
ATOM      3  C   UNL     1      28.675 -10.008  15.896  1.00  0.00     0.000 C 
BRANCH   3   4
ATOM      4  C   UNL     1      29.650 -10.659  16.895  1.00  0.00     0.000 C 
BRANCH   4   5
ATOM      5  C   UNL     1      30.766  -9.735  17.424  1.00  0.00     0.000 C 
BRANCH   5   6
ATOM      6  C   UNL     1      30.814  -9.577  18.954  1.00  0.00     0.006 C 
BRANCH   6   7
ATOM      7  C   UNL     1      29.563 -10.128  19.649  1.00  0.00     0.053 C 
BRANCH   7   8
ATOM      8  C   UNL     1      29.700 -10.022  21.134  1.00  0.00     0.041 C 
ATOM      9  O   UNL     1      28.674  -9.985  21.864  1.00  0.00    -0.550 OA
ATOM     10  O   UNL     1      30.960 -10.014  21.719  1.00  0.00    -0.550 OA
ENDBRANCH   7   8
ENDBRANCH   6   7
ENDBRANCH   5   6
ENDBRANCH   4   5
ENDBRANCH   3   4
ENDBRANCH   2   3
ENDBRANCH   1   2
BRANCH   1  11
ATOM     11  C   UNL     1      27.918  -7.023  15.709  1.00  0.00     0.000 C 
BRANCH  11  12
ATOM     12  C   UNL     1      29.006  -6.275  16.492  1.00  0.00     0.000 C 
BRANCH  12  13
ATOM     13  C   UNL     1      28.923  -6.595  17.990  1.00  0.00     0.000 C 
BRANCH  13  14
ATOM     14  C   UNL     1      27.570  -7.230  18.343  1.00  0.00     0.000 C 
BRANCH  14  15
ATOM     15  C   UNL     1      27.262  -7.190  19.850  1.00  0.00     0.000 C 
BRANCH  15  16
ATOM     16  C   UNL     1      27.925  -6.030  20.622  1.00  0.00     0.006 C 
BRANCH  16  17
ATOM     17  C   UNL     1      28.838  -6.472  21.777  1.00  0.00     0.053 C 
BRANCH  17  18
ATOM     18  C   UNL     1      30.235  -5.956  21.618  1.00  0.00     0.041 C 
ATOM     19  O   UNL     1      31.125  -6.685  21.107  1.00  0.00    -0.550 OA
ATOM     20  O   UNL     1      30.562  -4.682  22.065  1.00  0.00    -0.550 OA
ENDBRANCH  17  18
ENDBRANCH  16  17
ENDBRANCH  15  16
ENDBRANCH  14  15
ENDBRANCH  13  14
ENDBRANCH  12  13
ENDBRANCH  11  12
ENDBRANCH   1  11
TORSDOF 15
ENDMDL
MODEL 4
REMARK VINA RESULT:    -1.101      2.030      2.833
REMARK INTER + INTRA:          -4.194
REMARK INTER:                  -1.617
REMARK INTRA:                  -2.578
REMARK UNBOUND:                -2.128
REMARK SMILES O=C([O-])CCCCCCCCCCCCCCC(=O)[O-]
REMARK SMILES IDX 10 1 9 2 8 3 7 4 6 5 5 6 4 7 2 8 1 9 3 10 11 11 12 12 13 13
REMARK SMILES IDX 14 14 15 15 16 16 17 17 18 18 19 19 20 20
REMARK H PARENT
REMARK Flexibility Score: inf
ROOT
ATOM      1  C   UNL     1      26.794  -9.267  18.750  1.00  0.00     0.000 C 
ENDROOT
BRANCH   1   2
ATOM      2  C   UNL     1      26.429  -8.275  17.631  1.00  0.00     0.000 C 
BRANCH   2   3
ATOM      3  C   UNL     1      26.802  -8.786  16.230  1.00  0.00     0.000 C 
BRANCH   3   4
ATOM      4  C   UNL     1      27.930  -7.968  15.575  1.00  0.00     0.000 C 
BRANCH   4   5
ATOM      5  C   UNL     1      27.765  -6.437  15.651  1.00  0.00     0.000 C 
BRANCH   5   6
ATOM      6  C   UNL     1      28.979  -5.675  16.213  1.00  0.00     0.006 C 
BRANCH   6   7
ATOM      7  C   UNL     1      28.741  -5.139  17.629  1.00  0.00     0.053 C 
BRANCH   7   8
ATOM      8  C   UNL     1      28.491  -3.664  17.594  1.00  0.00     0.041 C 
ATOM      9  O   UNL     1      29.439  -2.867  17.366  1.00  0.00    -0.550 OA
ATOM     10  O   UNL     1      27.204  -3.171  17.764  1.00  0.00    -0.550 OA
ENDBRANCH   7   8
ENDBRANCH   6   7
ENDBRANCH   5   6
ENDBRANCH   4   5
ENDBRANCH   3   4
ENDBRANCH   2   3
ENDBRANCH   1   2
BRANCH   1  11
ATOM     11  C   UNL     1      27.246 -10.660  18.271  1.00  0.00     0.000 C 
BRANCH  11  12
ATOM     12  C   UNL     1      28.675 -11.011  18.709  1.00  0.00     0.000 C 
BRANCH  12  13
ATOM     13  C   UNL     1      29.653 -10.901  17.532  1.00  0.00     0.000 C 
BRANCH  13  14
ATOM     14  C   UNL     1      30.884 -10.068  17.916  1.00  0.00     0.000 C 
BRANCH  14  15
ATOM     15  C   UNL     1      30.622  -8.552  17.868  1.00  0.00     0.000 C 
BRANCH  15  16
ATOM     16  C   UNL     1      30.943  -7.792  19.171  1.00  0.00     0.006 C 
BRANCH  16  17
ATOM     17  C   UNL     1      29.765  -7.684  20.153  1.00  0.00     0.053 C 
BRANCH  17  18
ATOM     18  C   UNL     1      29.860  -8.693  21.256  1.00  0.00     0.041 C 
ATOM     19  O   UNL     1      28.887  -8.873  22.035  1.00  0.00    -0.550 OA
ATOM     20  O   UNL     1      31.034  -9.411  21.445  1.00  0.00    -0.550 OA
ENDBRANCH  17  18
ENDBRANCH  16  17
ENDBRANCH  15  16
ENDBRANCH  14  15
ENDBRANCH  13  14
ENDBRANCH  12  13
ENDBRANCH  11  12
ENDBRANCH   1  11
TORSDOF 15
ENDMDL
MODEL 5
REMARK VINA RESULT:    -1.098      2.168      3.278
REMARK INTER + INTRA:          -4.189
REMARK INTER:                  -1.789
REMARK INTRA:                  -2.400
REMARK UNBOUND:                -2.128
REMARK SMILES O=C([O-])CCCCCCCCCCCCCCC(=O)[O-]
REMARK SMILES IDX 10 1 9 2 8 3 7 4 6 5 5 6 4 7 2 8 1 9 3 10 11 11 12 12 13 13
REMARK SMILES IDX 14 14 15 15 16 16 17 17 18 18 19 19 20 20
REMARK H PARENT
REMARK Flexibility Score: inf
ROOT
ATOM      1  C   UNL     1      27.620  -8.552  16.071  1.00  0.00     0.000 C 
ENDROOT
BRANCH   1   2
ATOM      2  C   UNL     1      28.797  -7.938  15.290  1.00  0.00     0.000 C 
BRANCH   2   3
ATOM      3  C   UNL     1      29.343  -6.657  15.940  1.00  0.00     0.000 C 
BRANCH   3   4
ATOM      4  C   UNL     1      30.674  -6.882  16.681  1.00  0.00     0.000 C 
BRANCH   4   5
ATOM      5  C   UNL     1      30.583  -6.869  18.221  1.00  0.00     0.000 C 
BRANCH   5   6
ATOM      6  C   UNL     1      29.188  -6.559  18.791  1.00  0.00     0.006 C 
BRANCH   6   7
ATOM      7  C   UNL     1      29.227  -5.552  19.946  1.00  0.00     0.053 C 
BRANCH   7   8
ATOM      8  C   UNL     1      28.654  -4.239  19.514  1.00  0.00     0.041 C 
ATOM      9  O   UNL     1      28.337  -3.374  20.372  1.00  0.00    -0.550 OA
ATOM     10  O   UNL     1      28.518  -3.949  18.163  1.00  0.00    -0.550 OA
ENDBRANCH   7   8
ENDBRANCH   6   7
ENDBRANCH   5   6
ENDBRANCH   4   5
ENDBRANCH   3   4
ENDBRANCH   2   3
ENDBRANCH   1   2
BRANCH   1  11
ATOM     11  C   UNL     1      27.882  -9.949  16.665  1.00  0.00     0.000 C 
BRANCH  11  12
ATOM     12  C   UNL     1      29.356 -10.370  16.578  1.00  0.00     0.000 C 
BRANCH  12  13
ATOM     13  C   UNL     1      29.989 -10.443  17.974  1.00  0.00     0.000 C 
BRANCH  13  14
ATOM     14  C   UNL     1      28.942 -10.811  19.034  1.00  0.00     0.000 C 
BRANCH  14  15
ATOM     15  C   UNL     1      28.962  -9.869  20.250  1.00  0.00     0.000 C 
BRANCH  15  16
ATOM     16  C   UNL     1      30.361  -9.592  20.840  1.00  0.00     0.006 C 
BRANCH  16  17
ATOM     17  C   UNL     1      30.374  -8.591  22.007  1.00  0.00     0.053 C 
BRANCH  17  18
ATOM     18  C   UNL     1      30.736  -9.245  23.304  1.00  0.00     0.041 C 
ATOM     19  O   UNL     1      30.660 -10.496  23.426  1.00  0.00    -0.550 OA
ATOM     20  O   UNL     1      31.125  -8.471  24.390  1.00  0.00    -0.550 OA
ENDBRANCH  17  18
ENDBRANCH  16  17
ENDBRANCH  15  16
ENDBRANCH  14  15
ENDBRANCH  13  14
ENDBRANCH  12  13
ENDBRANCH  11  12
ENDBRANCH   1  11
TORSDOF 15
ENDMDL
MODEL 6
REMARK VINA RESULT:    -1.092      2.660      6.330
REMARK INTER + INTRA:          -4.178
REMARK INTER:                  -2.179
REMARK INTRA:                  -1.998
REMARK UNBOUND:                -2.128
REMARK SMILES O=C([O-])CCCCCCCCCCCCCCC(=O)[O-]
REMARK SMILES IDX 10 1 9 2 8 3 7 4 6 5 5 6 4 7 2 8 1 9 3 10 11 11 12 12 13 13
REMARK SMILES IDX 14 14 15 15 16 16 17 17 18 18 19 19 20 20
REMARK H PARENT
REMARK Flexibility Score: inf
ROOT
ATOM      1  C   UNL     1      26.777  -6.721  18.432  1.00  0.00     0.000 C 
ENDROOT
BRANCH   1   2
ATOM      2  C   UNL     1      28.056  -6.519  17.599  1.00  0.00     0.000 C 
BRANCH   2   3
ATOM      3  C   UNL     1      29.323  -7.017  18.314  1.00  0.00     0.000 C 
BRANCH   3   4
ATOM      4  C   UNL     1      29.273  -6.805  19.839  1.00  0.00     0.000 C 
BRANCH   4   5
ATOM      5  C   UNL     1      30.300  -7.618  20.653  1.00  0.00     0.000 C 
BRANCH   5   6
ATOM      6  C   UNL     1      29.873  -7.958  22.092  1.00  0.00     0.006 C 
BRANCH   6   7
ATOM      7  C   UNL     1      30.566  -9.212  22.637  1.00  0.00     0.053 C 
BRANCH   7   8
ATOM      8  C   UNL     1      29.577 -10.320  22.815  1.00  0.00     0.041 C 
ATOM      9  O   UNL     1      29.351 -11.125  21.872  1.00  0.00    -0.550 OA
ATOM     10  O   UNL     1      28.942 -10.497  24.037  1.00  0.00    -0.550 OA
ENDBRANCH   7   8
ENDBRANCH   6   7
ENDBRANCH   5   6
ENDBRANCH   4   5
ENDBRANCH   3   4
ENDBRANCH   2   3
ENDBRANCH   1   2
BRANCH   1  11
ATOM     11  C   UNL     1      26.233  -8.161  18.463  1.00  0.00     0.000 C 
BRANCH  11  12
ATOM     12  C   UNL     1      26.481  -8.924  17.153  1.00  0.00     0.000 C 
BRANCH  12  13
ATOM     13  C   UNL     1      26.981 -10.347  17.432  1.00  0.00     0.000 C 
BRANCH  13  14
ATOM     14  C   UNL     1      27.949 -10.366  18.624  1.00  0.00     0.000 C 
BRANCH  14  15
ATOM     15  C   UNL     1      29.254 -11.125  18.326  1.00  0.00     0.000 C 
BRANCH  15  16
ATOM     16  C   UNL     1      30.276 -10.354  17.466  1.00  0.00     0.006 C 
BRANCH  16  17
ATOM     17  C   UNL     1      30.635 -11.038  16.136  1.00  0.00     0.053 C 
BRANCH  17  18
ATOM     18  C   UNL     1      30.014 -10.344  14.963  1.00  0.00     0.041 C 
ATOM     19  O   UNL     1      29.450  -9.229  15.112  1.00  0.00    -0.550 OA
ATOM     20  O   UNL     1      30.030 -10.945  13.710  1.00  0.00    -0.550 OA
ENDBRANCH  17  18
ENDBRANCH  16  17
ENDBRANCH  15  16
ENDBRANCH  14  15
ENDBRANCH  13  14
ENDBRANCH  12  13
ENDBRANCH  11  12
ENDBRANCH   1  11
TORSDOF 15
ENDMDL
MODEL 7
REMARK VINA RESULT:    -1.089      3.667      5.883
REMARK INTER + INTRA:          -4.173
REMARK INTER:                  -2.044
REMARK INTRA:                  -2.129
REMARK UNBOUND:                -2.128
REMARK SMILES O=C([O-])CCCCCCCCCCCCCCC(=O)[O-]
REMARK SMILES IDX 10 1 9 2 8 3 7 4 6 5 5 6 4 7 2 8 1 9 3 10 11 11 12 12 13 13
REMARK SMILES IDX 14 14 15 15 16 16 17 17 18 18 19 19 20 20
REMARK H PARENT
REMARK Flexibility Score: inf
ROOT
ATOM      1  C   UNL     1      28.840  -7.891  19.893  1.00  0.00     0.000 C 
ENDROOT
BRANCH   1   2
ATOM      2  C   UNL     1      29.066  -9.400  20.098  1.00  0.00     0.000 C 
BRANCH   2   3
ATOM      3  C   UNL     1      27.921 -10.259  19.536  1.00  0.00     0.000 C 
BRANCH   3   4
ATOM      4  C   UNL     1      28.055 -10.521  18.024  1.00  0.00     0.000 C 
BRANCH   4   5
ATOM      5  C   UNL     1      26.867 -10.042  17.164  1.00  0.00     0.000 C 
BRANCH   5   6
ATOM      6  C   UNL     1      27.068  -8.685  16.468  1.00  0.00     0.006 C 
BRANCH   6   7
ATOM      7  C   UNL     1      26.316  -7.543  17.162  1.00  0.00     0.053 C 
BRANCH   7   8
ATOM      8  C   UNL     1      24.977  -7.339  16.528  1.00  0.00     0.041 C 
ATOM      9  O   UNL     1      24.053  -6.770  17.168  1.00  0.00    -0.550 OA
ATOM     10  O   UNL     1      24.761  -7.730  15.213  1.00  0.00    -0.550 OA
ENDBRANCH   7   8
ENDBRANCH   6   7
ENDBRANCH   5   6
ENDBRANCH   4   5
ENDBRANCH   3   4
ENDBRANCH   2   3
ENDBRANCH   1   2
BRANCH   1  11
ATOM     11  C   UNL     1      30.053  -7.112  19.351  1.00  0.00     0.000 C 
BRANCH  11  12
ATOM     12  C   UNL     1      30.115  -7.091  17.817  1.00  0.00     0.000 C 
BRANCH  12  13
ATOM     13  C   UNL     1      31.116  -8.129  17.293  1.00  0.00     0.000 C 
BRANCH  13  14
ATOM     14  C   UNL     1      30.658  -8.704  15.945  1.00  0.00     0.000 C 
BRANCH  14  15
ATOM     15  C   UNL     1      30.839 -10.229  15.849  1.00  0.00     0.000 C 
BRANCH  15  16
ATOM     16  C   UNL     1      31.049 -10.774  14.421  1.00  0.00     0.006 C 
BRANCH  16  17
ATOM     17  C   UNL     1      29.750 -11.090  13.662  1.00  0.00     0.053 C 
BRANCH  17  18
ATOM     18  C   UNL     1      29.736 -10.481  12.294  1.00  0.00     0.041 C 
ATOM     19  O   UNL     1      30.782 -10.471  11.595  1.00  0.00    -0.550 OA
ATOM     20  O   UNL     1      28.575  -9.895  11.805  1.00  0.00    -0.550 OA
ENDBRANCH  17  18
ENDBRANCH  16  17
ENDBRANCH  15  16
ENDBRANCH  14  15
ENDBRANCH  13  14
ENDBRANCH  12  13
ENDBRANCH  11  12
ENDBRANCH   1  11
TORSDOF 15
ENDMDL
MODEL 8
REMARK VINA RESULT:    -1.083      2.176      5.124
REMARK INTER + INTRA:          -4.160
REMARK INTER:                  -2.189
REMARK INTRA:                  -1.972
REMARK UNBOUND:                -2.128
REMARK SMILES O=C([O-])CCCCCCCCCCCCCCC(=O)[O-]
REMARK SMILES IDX 10 1 9 2 8 3 7 4 6 5 5 6 4 7 2 8 1 9 3 10 11 11 12 12 13 13
REMARK SMILES IDX 14 14 15 15 16 16 17 17 18 18 19 19 20 20
REMARK H PARENT
REMARK Flexibility Score: inf
ROOT
ATOM      1  C   UNL     1      30.184 -10.984  14.022  1.00  0.00     0.000 C 
ENDROOT
BRANCH   1   2
ATOM      2  C   UNL     1      30.001 -11.117  15.545  1.00  0.00     0.000 C 
BRANCH   2   3
ATOM      3  C   UNL     1      31.017 -10.285  16.345  1.00  0.00     0.000 C 
BRANCH   3   4
ATOM      4  C   UNL     1      30.638 -10.146  17.832  1.00  0.00     0.000 C 
BRANCH   4   5
ATOM      5  C   UNL     1      29.156 -10.413  18.163  1.00  0.00     0.000 C 
BRANCH   5   6
ATOM      6  C   UNL     1      28.849 -10.638  19.654  1.00  0.00     0.006 C 
BRANCH   6   7
ATOM      7  C   UNL     1      29.014  -9.366  20.494  1.00  0.00     0.053 C 
BRANCH   7   8
ATOM      8  C   UNL     1      29.976  -9.601  21.615  1.00  0.00     0.041 C 
ATOM      9  O   UNL     1      30.690  -8.657  22.045  1.00  0.00    -0.550 OA
ATOM     10  O   UNL     1      30.050 -10.849  22.220  1.00  0.00    -0.550 OA
ENDBRANCH   7   8
ENDBRANCH   6   7
ENDBRANCH   5   6
ENDBRANCH   4   5
ENDBRANCH   3   4
ENDBRANCH   2   3
ENDBRANCH   1   2
BRANCH   1  11
ATOM     11  C   UNL     1      30.800  -9.655  13.547  1.00  0.00     0.000 C 
BRANCH  11  12
ATOM     12  C   UNL     1      29.745  -8.603  13.178  1.00  0.00     0.000 C 
BRANCH  12  13
ATOM     13  C   UNL     1      30.315  -7.185  13.304  1.00  0.00     0.000 C 
BRANCH  13  14
ATOM     14  C   UNL     1      30.289  -6.709  14.763  1.00  0.00     0.000 C 
BRANCH  14  15
ATOM     15  C   UNL     1      29.096  -7.270  15.557  1.00  0.00     0.000 C 
BRANCH  15  16
ATOM     16  C   UNL     1      29.014  -6.808  17.027  1.00  0.00     0.006 C 
BRANCH  16  17
ATOM     17  C   UNL     1      30.376  -6.592  17.705  1.00  0.00     0.053 C 
BRANCH  17  18
ATOM     18  C   UNL     1      30.265  -5.741  18.932  1.00  0.00     0.041 C 
ATOM     19  O   UNL     1      29.418  -6.019  19.821  1.00  0.00    -0.550 OA
ATOM     20  O   UNL     1      31.074  -4.621  19.078  1.00  0.00    -0.550 OA
ENDBRANCH  17  18
ENDBRANCH  16  17
ENDBRANCH  15  16
ENDBRANCH  14  15
ENDBRANCH  13  14
ENDBRANCH  12  13
ENDBRANCH  11  12
ENDBRANCH   1  11
TORSDOF 15
ENDMDL
MODEL 9
REMARK VINA RESULT:    -1.077      3.755      5.635
REMARK INTER + INTRA:          -4.150
REMARK INTER:                  -1.567
REMARK INTRA:                  -2.583
REMARK UNBOUND:                -2.128
REMARK SMILES O=C([O-])CCCCCCCCCCCCCCC(=O)[O-]
REMARK SMILES IDX 10 1 9 2 8 3 7 4 6 5 5 6 4 7 2 8 1 9 3 10 11 11 12 12 13 13
REMARK SMILES IDX 14 14 15 15 16 16 17 17 18 18 19 19 20 20
REMARK H PARENT
REMARK Flexibility Score: inf
ROOT
ATOM      1  C   UNL     1      30.389  -8.381  17.899  1.00  0.00     0.000 C 
ENDROOT
BRANCH   1   2
ATOM      2  C   UNL     1      30.305  -7.016  18.607  1.00  0.00     0.000 C 
BRANCH   2   3
ATOM      3  C   UNL     1      28.884  -6.428  18.609  1.00  0.00     0.000 C 
BRANCH   3   4
ATOM      4  C   UNL     1      28.183  -6.563  19.973  1.00  0.00     0.000 C 
BRANCH   4   5
ATOM      5  C   UNL     1      27.031  -7.587  20.025  1.00  0.00     0.000 C 
BRANCH   5   6
ATOM      6  C   UNL     1      26.633  -8.193  18.668  1.00  0.00     0.006 C 
BRANCH   6   7
ATOM      7  C   UNL     1      26.189  -9.657  18.777  1.00  0.00     0.053 C 
BRANCH   7   8
ATOM      8  C   UNL     1      26.359 -10.353  17.464  1.00  0.00     0.041 C 
ATOM      9  O   UNL     1      27.454 -10.282  16.845  1.00  0.00    -0.550 OA
ATOM     10  O   UNL     1      25.327 -11.125  16.946  1.00  0.00    -0.550 OA
ENDBRANCH   7   8
ENDBRANCH   6   7
ENDBRANCH   5   6
ENDBRANCH   4   5
ENDBRANCH   3   4
ENDBRANCH   2   3
ENDBRANCH   1   2
BRANCH   1  11
ATOM     11  C   UNL     1      30.836  -9.556  18.789  1.00  0.00     0.000 C 
BRANCH  11  12
ATOM     12  C   UNL     1      29.668 -10.232  19.522  1.00  0.00     0.000 C 
BRANCH  12  13
ATOM     13  C   UNL     1      29.664  -9.859  21.010  1.00  0.00     0.000 C 
BRANCH  13  14
ATOM     14  C   UNL     1      31.062  -9.424  21.472  1.00  0.00     0.000 C 
BRANCH  14  15
ATOM     15  C   UNL     1      31.069  -8.039  22.141  1.00  0.00     0.000 C 
BRANCH  15  16
ATOM     16  C   UNL     1      30.619  -8.024  23.617  1.00  0.00     0.006 C 
BRANCH  16  17
ATOM     17  C   UNL     1      29.533  -6.985  23.942  1.00  0.00     0.053 C 
BRANCH  17  18
ATOM     18  C   UNL     1      28.154  -7.549  23.794  1.00  0.00     0.041 C 
ATOM     19  O   UNL     1      27.973  -8.794  23.813  1.00  0.00    -0.550 OA
ATOM     20  O   UNL     1      27.071  -6.700  23.601  1.00  0.00    -0.550 OA
ENDBRANCH  17  18
ENDBRANCH  16  17
ENDBRANCH  15  16
ENDBRANCH  14  15
ENDBRANCH  13  14
ENDBRANCH  12  13
ENDBRANCH  11  12
ENDBRANCH   1  11
TORSDOF 15
ENDMDL
