MODEL 1
REMARK VINA RESULT:    -4.944      0.000      0.000
REMARK INTER + INTRA:          -6.617
REMARK INTER:                  -6.389
REMARK INTRA:                  -0.227
REMARK UNBOUND:                -0.227
REMARK SMILES CCO[C@H]1O[C@H](CO)[C@H](O)[C@H](O)[C@@H]1O
REMARK SMILES IDX 4 1 13 2 11 3 9 4 6 5 5 6 3 7 2 8 1 9 14 10 12 12 7 14 8 15
REMARK SMILES IDX 10 17
REMARK H PARENT 14 11 12 13 8 16 10 18
REMARK Flexibility Score: inf
ROOT
ATOM      1  C   UNL     1    -130.131 107.352  38.820  1.00  0.00     0.281 C 
ATOM      2  C   UNL     1    -129.758 105.850  38.824  1.00  0.00     0.202 C 
ATOM      3  C   UNL     1    -129.924 105.239  40.233  1.00  0.00     0.179 C 
ATOM      4  C   UNL     1    -129.278 106.127  41.313  1.00  0.00     0.177 C 
ATOM      5  C   UNL     1    -129.757 107.585  41.130  1.00  0.00     0.178 C 
ATOM      6  O   UNL     1    -129.429 108.062  39.834  1.00  0.00    -0.341 OA
ENDROOT
BRANCH   1   7
ATOM      7  O   UNL     1    -131.535 107.497  38.961  1.00  0.00    -0.350 OA
BRANCH   7   8
ATOM      8  C   UNL     1    -131.989 108.694  38.353  1.00  0.00     0.160 C 
ATOM      9  C   UNL     1    -132.026 109.823  39.376  1.00  0.00     0.035 C 
ENDBRANCH   7   8
ENDBRANCH   1   7
BRANCH   2  10
ATOM     10  O   UNL     1    -128.459 105.636  38.322  1.00  0.00    -0.385 OA
ATOM     11  H   UNL     1    -127.834 105.568  39.088  1.00  0.00     0.211 HD
ENDBRANCH   2  10
BRANCH   3  12
ATOM     12  O   UNL     1    -129.375 103.946  40.282  1.00  0.00    -0.387 OA
ATOM     13  H   UNL     1    -128.407 104.038  40.078  1.00  0.00     0.211 HD
ENDBRANCH   3  12
BRANCH   5  14
ATOM     14  C   UNL     1    -129.124 108.524  42.169  1.00  0.00     0.191 C 
BRANCH  14  15
ATOM     15  O   UNL     1    -127.904 109.039  41.706  1.00  0.00    -0.394 OA
ATOM     16  H   UNL     1    -127.453 108.303  41.215  1.00  0.00     0.210 HD
ENDBRANCH  14  15
ENDBRANCH   5  14
BRANCH   4  17
ATOM     17  O   UNL     1    -127.875 106.067  41.237  1.00  0.00    -0.387 OA
ATOM     18  H   UNL     1    -127.648 105.293  40.658  1.00  0.00     0.211 HD
ENDBRANCH   4  17
TORSDOF 7
ENDMDL
MODEL 2
REMARK VINA RESULT:    -4.733      1.692      4.182
REMARK INTER + INTRA:          -6.344
REMARK INTER:                  -6.181
REMARK INTRA:                  -0.163
REMARK UNBOUND:                -0.227
REMARK SMILES CCO[C@H]1O[C@H](CO)[C@H](O)[C@H](O)[C@@H]1O
REMARK SMILES IDX 4 1 13 2 11 3 9 4 6 5 5 6 3 7 2 8 1 9 14 10 12 12 7 14 8 15
REMARK SMILES IDX 10 17
REMARK H PARENT 14 11 12 13 8 16 10 18
REMARK Flexibility Score: inf
ROOT
ATOM      1  C   UNL     1    -129.004 108.212  41.793  1.00  0.00     0.281 C 
ATOM      2  C   UNL     1    -129.679 109.186  40.799  1.00  0.00     0.202 C 
ATOM      3  C   UNL     1    -130.764 108.468  39.966  1.00  0.00     0.179 C 
ATOM      4  C   UNL     1    -130.250 107.131  39.401  1.00  0.00     0.177 C 
ATOM      5  C   UNL     1    -129.597 106.313  40.538  1.00  0.00     0.178 C 
ATOM      6  O   UNL     1    -128.533 107.042  41.134  1.00  0.00    -0.341 OA
ENDROOT
BRANCH   1   7
ATOM      7  O   UNL     1    -129.908 107.890  42.838  1.00  0.00    -0.350 OA
BRANCH   7   8
ATOM      8  C   UNL     1    -130.071 108.981  43.727  1.00  0.00     0.160 C 
ATOM      9  C   UNL     1    -131.007 108.596  44.867  1.00  0.00     0.035 C 
ENDBRANCH   7   8
ENDBRANCH   1   7
BRANCH   2  10
ATOM     10  O   UNL     1    -128.733 109.820  39.970  1.00  0.00    -0.385 OA
ATOM     11  H   UNL     1    -127.901 109.957  40.491  1.00  0.00     0.211 HD
ENDBRANCH   2  10
BRANCH   3  12
ATOM     12  O   UNL     1    -131.213 109.291  38.920  1.00  0.00    -0.387 OA
ATOM     13  H   UNL     1    -131.039 110.229  39.199  1.00  0.00     0.211 HD
ENDBRANCH   3  12
BRANCH   5  14
ATOM     14  C   UNL     1    -129.042 104.974  40.027  1.00  0.00     0.191 C 
BRANCH  14  15
ATOM     15  O   UNL     1    -129.593 103.896  40.735  1.00  0.00    -0.394 OA
ATOM     16  H   UNL     1    -129.265 103.069  40.295  1.00  0.00     0.210 HD
ENDBRANCH  14  15
ENDBRANCH   5  14
BRANCH   4  17
ATOM     17  O   UNL     1    -129.322 107.348  38.368  1.00  0.00    -0.387 OA
ATOM     18  H   UNL     1    -129.574 106.747  37.619  1.00  0.00     0.211 HD
ENDBRANCH   4  17
TORSDOF 7
ENDMDL
MODEL 3
REMARK VINA RESULT:    -4.687      2.094      3.768
REMARK INTER + INTRA:          -6.284
REMARK INTER:                  -6.127
REMARK INTRA:                  -0.158
REMARK UNBOUND:                -0.227
REMARK SMILES CCO[C@H]1O[C@H](CO)[C@H](O)[C@H](O)[C@@H]1O
REMARK SMILES IDX 4 1 13 2 11 3 9 4 6 5 5 6 3 7 2 8 1 9 14 10 12 12 7 14 8 15
REMARK SMILES IDX 10 17
REMARK H PARENT 14 11 12 13 8 16 10 18
REMARK Flexibility Score: inf
ROOT
ATOM      1  C   UNL     1    -130.054 109.255  39.770  1.00  0.00     0.281 C 
ATOM      2  C   UNL     1    -129.497 109.202  41.212  1.00  0.00     0.202 C 
ATOM      3  C   UNL     1    -128.392 108.130  41.343  1.00  0.00     0.179 C 
ATOM      4  C   UNL     1    -128.822 106.795  40.706  1.00  0.00     0.177 C 
ATOM      5  C   UNL     1    -129.365 107.060  39.283  1.00  0.00     0.178 C 
ATOM      6  O   UNL     1    -130.458 107.966  39.323  1.00  0.00    -0.341 OA
ENDROOT
BRANCH   1   7
ATOM      7  O   UNL     1    -129.087 109.827  38.903  1.00  0.00    -0.350 OA
BRANCH   7   8
ATOM      8  C   UNL     1    -129.022 111.232  39.065  1.00  0.00     0.160 C 
ATOM      9  C   UNL     1    -128.153 111.848  37.975  1.00  0.00     0.035 C 
ENDBRANCH   7   8
ENDBRANCH   1   7
BRANCH   2  10
ATOM     10  O   UNL     1    -130.522 109.000  42.158  1.00  0.00    -0.385 OA
ATOM     11  H   UNL     1    -130.415 109.667  42.883  1.00  0.00     0.211 HD
ENDBRANCH   2  10
BRANCH   3  12
ATOM     12  O   UNL     1    -128.050 107.931  42.692  1.00  0.00    -0.387 OA
ATOM     13  H   UNL     1    -128.830 107.492  43.123  1.00  0.00     0.211 HD
ENDBRANCH   3  12
BRANCH   5  14
ATOM     14  C   UNL     1    -129.833 105.762  38.605  1.00  0.00     0.191 C 
BRANCH  14  15
ATOM     15  O   UNL     1    -129.211 105.592  37.359  1.00  0.00    -0.394 OA
ATOM     16  H   UNL     1    -128.380 105.076  37.524  1.00  0.00     0.210 HD
ENDBRANCH  14  15
ENDBRANCH   5  14
BRANCH   4  17
ATOM     17  O   UNL     1    -129.805 106.162  41.487  1.00  0.00    -0.387 OA
ATOM     18  H   UNL     1    -129.728 106.530  42.406  1.00  0.00     0.211 HD
ENDBRANCH   4  17
TORSDOF 7
ENDMDL
MODEL 4
REMARK VINA RESULT:    -4.131      7.728     10.220
REMARK INTER + INTRA:          -5.565
REMARK INTER:                  -5.268
REMARK INTRA:                  -0.297
REMARK UNBOUND:                -0.227
REMARK SMILES CCO[C@H]1O[C@H](CO)[C@H](O)[C@H](O)[C@@H]1O
REMARK SMILES IDX 4 1 13 2 11 3 9 4 6 5 5 6 3 7 2 8 1 9 14 10 12 12 7 14 8 15
REMARK SMILES IDX 10 17
REMARK H PARENT 14 11 12 13 8 16 10 18
REMARK Flexibility Score: inf
ROOT
ATOM      1  C   UNL     1    -129.551 116.159  45.416  1.00  0.00     0.281 C 
ATOM      2  C   UNL     1    -129.777 117.022  44.152  1.00  0.00     0.202 C 
ATOM      3  C   UNL     1    -130.542 116.231  43.068  1.00  0.00     0.179 C 
ATOM      4  C   UNL     1    -129.942 114.828  42.863  1.00  0.00     0.177 C 
ATOM      5  C   UNL     1    -129.777 114.137  44.235  1.00  0.00     0.178 C 
ATOM      6  O   UNL     1    -128.949 114.911  45.091  1.00  0.00    -0.341 OA
ENDROOT
BRANCH   1   7
ATOM      7  O   UNL     1    -130.782 115.978  46.100  1.00  0.00    -0.350 OA
BRANCH   7   8
ATOM      8  C   UNL     1    -130.854 116.804  47.248  1.00  0.00     0.160 C 
ATOM      9  C   UNL     1    -131.611 118.087  46.927  1.00  0.00     0.035 C 
ENDBRANCH   7   8
ENDBRANCH   1   7
BRANCH   2  10
ATOM     10  O   UNL     1    -128.565 117.537  43.652  1.00  0.00    -0.385 OA
ATOM     11  H   UNL     1    -127.888 117.503  44.375  1.00  0.00     0.211 HD
ENDBRANCH   2  10
BRANCH   3  12
ATOM     12  O   UNL     1    -130.548 116.935  41.851  1.00  0.00    -0.387 OA
ATOM     13  H   UNL     1    -130.745 116.272  41.138  1.00  0.00     0.211 HD
ENDBRANCH   3  12
BRANCH   5  14
ATOM     14  C   UNL     1    -129.157 112.738  44.094  1.00  0.00     0.191 C 
BRANCH  14  15
ATOM     15  O   UNL     1    -129.523 112.145  42.877  1.00  0.00    -0.394 OA
ATOM     16  H   UNL     1    -130.291 111.547  43.072  1.00  0.00     0.210 HD
ENDBRANCH  14  15
ENDBRANCH   5  14
BRANCH   4  17
ATOM     17  O   UNL     1    -128.699 114.906  42.209  1.00  0.00    -0.387 OA
ATOM     18  H   UNL     1    -128.219 114.058  42.395  1.00  0.00     0.211 HD
ENDBRANCH   4  17
TORSDOF 7
ENDMDL
MODEL 5
REMARK VINA RESULT:    -4.123     13.810     15.844
REMARK INTER + INTRA:          -5.556
REMARK INTER:                  -5.173
REMARK INTRA:                  -0.383
REMARK UNBOUND:                -0.227
REMARK SMILES CCO[C@H]1O[C@H](CO)[C@H](O)[C@H](O)[C@@H]1O
REMARK SMILES IDX 4 1 13 2 11 3 9 4 6 5 5 6 3 7 2 8 1 9 14 10 12 12 7 14 8 15
REMARK SMILES IDX 10 17
REMARK H PARENT 14 11 12 13 8 16 10 18
REMARK Flexibility Score: inf
ROOT
ATOM      1  C   UNL     1    -143.833 101.696  34.692  1.00  0.00     0.281 C 
ATOM      2  C   UNL     1    -144.020 101.604  33.158  1.00  0.00     0.202 C 
ATOM      3  C   UNL     1    -142.876 102.326  32.414  1.00  0.00     0.179 C 
ATOM      4  C   UNL     1    -142.608 103.722  33.007  1.00  0.00     0.177 C 
ATOM      5  C   UNL     1    -142.471 103.607  34.542  1.00  0.00     0.178 C 
ATOM      6  O   UNL     1    -143.643 103.042  35.111  1.00  0.00    -0.341 OA
ENDROOT
BRANCH   1   7
ATOM      7  O   UNL     1    -142.752 100.870  35.093  1.00  0.00    -0.350 OA
BRANCH   7   8
ATOM      8  C   UNL     1    -143.145  99.511  35.164  1.00  0.00     0.160 C 
ATOM      9  C   UNL     1    -143.333  99.093  36.617  1.00  0.00     0.035 C 
ENDBRANCH   7   8
ENDBRANCH   1   7
BRANCH   2  10
ATOM     10  O   UNL     1    -145.280 102.092  32.760  1.00  0.00    -0.385 OA
ATOM     11  H   UNL     1    -145.412 101.876  31.801  1.00  0.00     0.211 HD
ENDBRANCH   2  10
BRANCH   3  12
ATOM     12  O   UNL     1    -143.166 102.433  31.043  1.00  0.00    -0.387 OA
ATOM     13  H   UNL     1    -144.150 102.548  30.967  1.00  0.00     0.211 HD
ENDBRANCH   3  12
BRANCH   5  14
ATOM     14  C   UNL     1    -142.226 104.978  35.193  1.00  0.00     0.191 C 
BRANCH  14  15
ATOM     15  O   UNL     1    -141.457 105.802  34.358  1.00  0.00    -0.394 OA
ATOM     16  H   UNL     1    -141.359 105.321  33.496  1.00  0.00     0.210 HD
ENDBRANCH  14  15
ENDBRANCH   5  14
BRANCH   4  17
ATOM     17  O   UNL     1    -143.647 104.612  32.681  1.00  0.00    -0.387 OA
ATOM     18  H   UNL     1    -143.541 105.409  33.262  1.00  0.00     0.211 HD
ENDBRANCH   4  17
TORSDOF 7
ENDMDL
MODEL 6
REMARK VINA RESULT:    -4.012      1.331      3.566
REMARK INTER + INTRA:          -5.412
REMARK INTER:                  -5.798
REMARK INTRA:                   0.386
REMARK UNBOUND:                -0.227
REMARK SMILES CCO[C@H]1O[C@H](CO)[C@H](O)[C@H](O)[C@@H]1O
REMARK SMILES IDX 4 1 13 2 11 3 9 4 6 5 5 6 3 7 2 8 1 9 14 10 12 12 7 14 8 15
REMARK SMILES IDX 10 17
REMARK H PARENT 14 11 12 13 8 16 10 18
REMARK Flexibility Score: inf
ROOT
ATOM      1  C   UNL     1    -129.327 107.114  41.558  1.00  0.00     0.281 C 
ATOM      2  C   UNL     1    -129.304 105.879  40.626  1.00  0.00     0.202 C 
ATOM      3  C   UNL     1    -128.984 106.285  39.171  1.00  0.00     0.179 C 
ATOM      4  C   UNL     1    -129.831 107.490  38.720  1.00  0.00     0.177 C 
ATOM      5  C   UNL     1    -129.740 108.605  39.786  1.00  0.00     0.178 C 
ATOM      6  O   UNL     1    -130.183 108.131  41.049  1.00  0.00    -0.341 OA
ENDROOT
BRANCH   1   7
ATOM      7  O   UNL     1    -128.006 107.595  41.748  1.00  0.00    -0.350 OA
BRANCH   7   8
ATOM      8  C   UNL     1    -127.875 108.251  42.996  1.00  0.00     0.160 C 
ATOM      9  C   UNL     1    -129.119 109.082  43.287  1.00  0.00     0.035 C 
ENDBRANCH   7   8
ENDBRANCH   1   7
BRANCH   2  10
ATOM     10  O   UNL     1    -130.508 105.150  40.702  1.00  0.00    -0.385 OA
ATOM     11  H   UNL     1    -130.423 104.344  40.131  1.00  0.00     0.211 HD
ENDBRANCH   2  10
BRANCH   3  12
ATOM     12  O   UNL     1    -129.184 105.203  38.298  1.00  0.00    -0.387 OA
ATOM     13  H   UNL     1    -130.119 105.270  37.969  1.00  0.00     0.211 HD
ENDBRANCH   3  12
BRANCH   5  14
ATOM     14  C   UNL     1    -130.588 109.828  39.401  1.00  0.00     0.191 C 
BRANCH  14  15
ATOM     15  O   UNL     1    -131.903 109.698  39.872  1.00  0.00    -0.394 OA
ATOM     16  H   UNL     1    -131.859 109.127  40.683  1.00  0.00     0.210 HD
ENDBRANCH  14  15
ENDBRANCH   5  14
BRANCH   4  17
ATOM     17  O   UNL     1    -131.172 107.114  38.528  1.00  0.00    -0.387 OA
ATOM     18  H   UNL     1    -131.334 107.103  37.549  1.00  0.00     0.211 HD
ENDBRANCH   4  17
TORSDOF 7
ENDMDL
MODEL 7
REMARK VINA RESULT:    -3.944      1.906      3.991
REMARK INTER + INTRA:          -5.324
REMARK INTER:                  -4.940
REMARK INTRA:                  -0.383
REMARK UNBOUND:                -0.227
REMARK SMILES CCO[C@H]1O[C@H](CO)[C@H](O)[C@H](O)[C@@H]1O
REMARK SMILES IDX 4 1 13 2 11 3 9 4 6 5 5 6 3 7 2 8 1 9 14 10 12 12 7 14 8 15
REMARK SMILES IDX 10 17
REMARK H PARENT 14 11 12 13 8 16 10 18
REMARK Flexibility Score: inf
ROOT
ATOM      1  C   UNL     1    -130.362 107.670  39.728  1.00  0.00     0.281 C 
ATOM      2  C   UNL     1    -130.498 109.068  39.079  1.00  0.00     0.202 C 
ATOM      3  C   UNL     1    -129.255 109.939  39.365  1.00  0.00     0.179 C 
ATOM      4  C   UNL     1    -128.862 109.890  40.853  1.00  0.00     0.177 C 
ATOM      5  C   UNL     1    -128.797 108.417  41.317  1.00  0.00     0.178 C 
ATOM      6  O   UNL     1    -130.044 107.770  41.111  1.00  0.00    -0.341 OA
ENDROOT
BRANCH   1   7
ATOM      7  O   UNL     1    -129.391 106.909  39.026  1.00  0.00    -0.350 OA
BRANCH   7   8
ATOM      8  C   UNL     1    -129.864 105.601  38.757  1.00  0.00     0.160 C 
ATOM      9  C   UNL     1    -129.277 104.613  39.759  1.00  0.00     0.035 C 
ENDBRANCH   7   8
ENDBRANCH   1   7
BRANCH   2  10
ATOM     10  O   UNL     1    -131.682 109.715  39.485  1.00  0.00    -0.385 OA
ATOM     11  H   UNL     1    -131.837 109.514  40.443  1.00  0.00     0.211 HD
ENDBRANCH   2  10
BRANCH   3  12
ATOM     12  O   UNL     1    -129.479 111.269  38.970  1.00  0.00    -0.387 OA
ATOM     13  H   UNL     1    -128.657 111.778  39.201  1.00  0.00     0.211 HD
ENDBRANCH   3  12
BRANCH   5  14
ATOM     14  C   UNL     1    -128.432 108.307  42.806  1.00  0.00     0.191 C 
BRANCH  14  15
ATOM     15  O   UNL     1    -129.520 108.655  43.619  1.00  0.00    -0.394 OA
ATOM     16  H   UNL     1    -129.384 108.194  44.487  1.00  0.00     0.210 HD
ENDBRANCH  14  15
ENDBRANCH   5  14
BRANCH   4  17
ATOM     17  O   UNL     1    -129.786 110.603  41.638  1.00  0.00    -0.387 OA
ATOM     18  H   UNL     1    -129.703 111.560  41.389  1.00  0.00     0.211 HD
ENDBRANCH   4  17
TORSDOF 7
ENDMDL
MODEL 8
REMARK VINA RESULT:    -3.875      1.710      4.267
REMARK INTER + INTRA:          -5.235
REMARK INTER:                  -4.864
REMARK INTRA:                  -0.371
REMARK UNBOUND:                -0.227
REMARK SMILES CCO[C@H]1O[C@H](CO)[C@H](O)[C@H](O)[C@@H]1O
REMARK SMILES IDX 4 1 13 2 11 3 9 4 6 5 5 6 3 7 2 8 1 9 14 10 12 12 7 14 8 15
REMARK SMILES IDX 10 17
REMARK H PARENT 14 11 12 13 8 16 10 18
REMARK Flexibility Score: inf
ROOT
ATOM      1  C   UNL     1    -129.011 107.213  40.686  1.00  0.00     0.281 C 
ATOM      2  C   UNL     1    -128.918 107.935  42.052  1.00  0.00     0.202 C 
ATOM      3  C   UNL     1    -130.268 108.579  42.434  1.00  0.00     0.179 C 
ATOM      4  C   UNL     1    -130.869 109.373  41.259  1.00  0.00     0.177 C 
ATOM      5  C   UNL     1    -130.857 108.492  39.989  1.00  0.00     0.178 C 
ATOM      6  O   UNL     1    -129.536 108.072  39.681  1.00  0.00    -0.341 OA
ENDROOT
BRANCH   1   7
ATOM      7  O   UNL     1    -129.789 106.034  40.819  1.00  0.00    -0.350 OA
BRANCH   7   8
ATOM      8  C   UNL     1    -129.174 104.939  40.164  1.00  0.00     0.160 C 
ATOM      9  C   UNL     1    -129.735 104.786  38.756  1.00  0.00     0.035 C 
ENDBRANCH   7   8
ENDBRANCH   1   7
BRANCH   2  10
ATOM     10  O   UNL     1    -127.875 108.882  42.068  1.00  0.00    -0.385 OA
ATOM     11  H   UNL     1    -127.982 109.480  41.285  1.00  0.00     0.211 HD
ENDBRANCH   2  10
BRANCH   3  12
ATOM     12  O   UNL     1    -130.121 109.415  43.554  1.00  0.00    -0.387 OA
ATOM     13  H   UNL     1    -130.583 108.966  44.309  1.00  0.00     0.211 HD
ENDBRANCH   3  12
BRANCH   5  14
ATOM     14  C   UNL     1    -131.424 109.244  38.773  1.00  0.00     0.191 C 
BRANCH  14  15
ATOM     15  O   UNL     1    -132.453 110.116  39.155  1.00  0.00    -0.394 OA
ATOM     16  H   UNL     1    -133.306 109.626  39.021  1.00  0.00     0.210 HD
ENDBRANCH  14  15
ENDBRANCH   5  14
BRANCH   4  17
ATOM     17  O   UNL     1    -130.143 110.556  41.033  1.00  0.00    -0.387 OA
ATOM     18  H   UNL     1    -129.715 110.469  40.142  1.00  0.00     0.211 HD
ENDBRANCH   4  17
TORSDOF 7
ENDMDL
