MODEL 1
REMARK VINA RESULT:    -4.668      0.000      0.000
REMARK INTER + INTRA:          -6.774
REMARK INTER:                  -6.305
REMARK INTRA:                  -0.469
REMARK UNBOUND:                -0.469
REMARK SMILES CCCCCCC=CC(=O)[O-]
REMARK SMILES IDX 5 1 6 2 7 3 8 4 9 5 10 6 11 7 4 8 3 9 2 10 1 11
REMARK H PARENT
REMARK Flexibility Score: inf
ROOT
ATOM      1  C   UNL     1       4.120  42.685  14.652  1.00  0.00     0.004 C 
ENDROOT
BRANCH   1   2
ATOM      2  C   UNL     1       5.122  43.801  14.313  1.00  0.00     0.027 C 
BRANCH   2   3
ATOM      3  C   UNL     1       5.312  44.766  15.453  1.00  0.00    -0.025 C 
ATOM      4  C   UNL     1       6.345  44.782  16.312  1.00  0.00     0.020 C 
BRANCH   4   5
ATOM      5  C   UNL     1       7.474  43.830  16.350  1.00  0.00     0.064 C 
ATOM      6  O   UNL     1       8.457  44.022  15.589  1.00  0.00    -0.545 OA
ATOM      7  O   UNL     1       7.501  42.746  17.217  1.00  0.00    -0.545 OA
ENDBRANCH   4   5
ENDBRANCH   2   3
ENDBRANCH   1   2
BRANCH   1   8
ATOM      8  C   UNL     1       4.800  41.487  15.331  1.00  0.00     0.000 C 
BRANCH   8   9
ATOM      9  C   UNL     1       4.505  40.185  14.571  1.00  0.00    -0.000 C 
BRANCH   9  10
ATOM     10  C   UNL     1       4.657  40.343  13.050  1.00  0.00    -0.003 C 
ATOM     11  C   UNL     1       3.388  39.960  12.286  1.00  0.00     0.004 C 
ENDBRANCH   9  10
ENDBRANCH   8   9
ENDBRANCH   1   8
TORSDOF 6
ENDMDL
MODEL 2
REMARK VINA RESULT:    -4.666      1.478      2.132
REMARK INTER + INTRA:          -6.771
REMARK INTER:                  -6.395
REMARK INTRA:                  -0.376
REMARK UNBOUND:                -0.469
REMARK SMILES CCCCCCC=CC(=O)[O-]
REMARK SMILES IDX 5 1 6 2 7 3 8 4 9 5 10 6 11 7 4 8 3 9 2 10 1 11
REMARK H PARENT
REMARK Flexibility Score: inf
ROOT
ATOM      1  C   UNL     1       5.052  41.440  15.214  1.00  0.00     0.004 C 
ENDROOT
BRANCH   1   2
ATOM      2  C   UNL     1       4.161  42.618  14.783  1.00  0.00     0.027 C 
BRANCH   2   3
ATOM      3  C   UNL     1       4.957  43.863  14.495  1.00  0.00    -0.025 C 
ATOM      4  C   UNL     1       5.448  44.717  15.407  1.00  0.00     0.020 C 
BRANCH   4   5
ATOM      5  C   UNL     1       5.266  44.642  16.872  1.00  0.00     0.064 C 
ATOM      6  O   UNL     1       4.285  45.232  17.393  1.00  0.00    -0.545 OA
ATOM      7  O   UNL     1       6.124  43.919  17.689  1.00  0.00    -0.545 OA
ENDBRANCH   4   5
ENDBRANCH   2   3
ENDBRANCH   1   2
BRANCH   1   8
ATOM      8  C   UNL     1       4.676  40.137  14.493  1.00  0.00     0.000 C 
BRANCH   8   9
ATOM      9  C   UNL     1       4.686  40.331  12.969  1.00  0.00    -0.000 C 
BRANCH   9  10
ATOM     10  C   UNL     1       3.345  39.960  12.317  1.00  0.00    -0.003 C 
ATOM     11  C   UNL     1       3.495  39.545  10.853  1.00  0.00     0.004 C 
ENDBRANCH   9  10
ENDBRANCH   8   9
ENDBRANCH   1   8
TORSDOF 6
ENDMDL
MODEL 3
REMARK VINA RESULT:    -4.314     12.569     14.694
REMARK INTER + INTRA:          -6.296
REMARK INTER:                  -5.938
REMARK INTRA:                  -0.359
REMARK UNBOUND:                -0.469
REMARK SMILES CCCCCCC=CC(=O)[O-]
REMARK SMILES IDX 5 1 6 2 7 3 8 4 9 5 10 6 11 7 4 8 3 9 2 10 1 11
REMARK H PARENT
REMARK Flexibility Score: inf
ROOT
ATOM      1  C   UNL     1      -7.662  35.723  16.868  1.00  0.00     0.004 C 
ENDROOT
BRANCH   1   2
ATOM      2  C   UNL     1      -7.034  34.531  16.127  1.00  0.00     0.027 C 
BRANCH   2   3
ATOM      3  C   UNL     1      -7.870  34.076  14.960  1.00  0.00    -0.025 C 
ATOM      4  C   UNL     1      -7.589  34.273  13.661  1.00  0.00     0.020 C 
BRANCH   4   5
ATOM      5  C   UNL     1      -6.437  35.016  13.112  1.00  0.00     0.064 C 
ATOM      6  O   UNL     1      -6.443  36.273  13.164  1.00  0.00    -0.545 OA
ATOM      7  O   UNL     1      -5.333  34.375  12.566  1.00  0.00    -0.545 OA
ENDBRANCH   4   5
ENDBRANCH   2   3
ENDBRANCH   1   2
BRANCH   1   8
ATOM      8  C   UNL     1      -6.923  37.038  16.577  1.00  0.00     0.000 C 
BRANCH   8   9
ATOM      9  C   UNL     1      -6.431  37.690  17.877  1.00  0.00    -0.000 C 
BRANCH   9  10
ATOM     10  C   UNL     1      -4.942  38.065  17.823  1.00  0.00    -0.003 C 
ATOM     11  C   UNL     1      -4.633  39.364  18.568  1.00  0.00     0.004 C 
ENDBRANCH   9  10
ENDBRANCH   8   9
ENDBRANCH   1   8
TORSDOF 6
ENDMDL
MODEL 4
REMARK VINA RESULT:    -4.306      1.509      1.947
REMARK INTER + INTRA:          -6.285
REMARK INTER:                  -5.745
REMARK INTRA:                  -0.540
REMARK UNBOUND:                -0.469
REMARK SMILES CCCCCCC=CC(=O)[O-]
REMARK SMILES IDX 5 1 6 2 7 3 8 4 9 5 10 6 11 7 4 8 3 9 2 10 1 11
REMARK H PARENT
REMARK Flexibility Score: inf
ROOT
ATOM      1  C   UNL     1       4.920  43.824  14.257  1.00  0.00     0.004 C 
ENDROOT
BRANCH   1   2
ATOM      2  C   UNL     1       5.356  44.556  15.537  1.00  0.00     0.027 C 
BRANCH   2   3
ATOM      3  C   UNL     1       6.774  44.234  15.927  1.00  0.00    -0.025 C 
ATOM      4  C   UNL     1       7.159  43.306  16.818  1.00  0.00     0.020 C 
BRANCH   4   5
ATOM      5  C   UNL     1       6.274  42.449  17.635  1.00  0.00     0.064 C 
ATOM      6  O   UNL     1       6.168  41.230  17.342  1.00  0.00    -0.545 OA
ATOM      7  O   UNL     1       5.579  42.937  18.733  1.00  0.00    -0.545 OA
ENDBRANCH   4   5
ENDBRANCH   2   3
ENDBRANCH   1   2
BRANCH   1   8
ATOM      8  C   UNL     1       4.255  42.474  14.562  1.00  0.00     0.000 C 
BRANCH   8   9
ATOM      9  C   UNL     1       5.060  41.316  13.955  1.00  0.00    -0.000 C 
BRANCH   9  10
ATOM     10  C   UNL     1       4.208  40.057  13.732  1.00  0.00    -0.003 C 
ATOM     11  C   UNL     1       3.520  40.043  12.366  1.00  0.00     0.004 C 
ENDBRANCH   9  10
ENDBRANCH   8   9
ENDBRANCH   1   8
TORSDOF 6
ENDMDL
MODEL 5
REMARK VINA RESULT:    -4.195     13.795     15.713
REMARK INTER + INTRA:          -6.135
REMARK INTER:                  -5.359
REMARK INTRA:                  -0.776
REMARK UNBOUND:                -0.469
REMARK SMILES CCCCCCC=CC(=O)[O-]
REMARK SMILES IDX 5 1 6 2 7 3 8 4 9 5 10 6 11 7 4 8 3 9 2 10 1 11
REMARK H PARENT
REMARK Flexibility Score: inf
ROOT
ATOM      1  C   UNL     1      -7.601  33.785  15.289  1.00  0.00     0.004 C 
ENDROOT
BRANCH   1   2
ATOM      2  C   UNL     1      -8.966  33.989  15.966  1.00  0.00     0.027 C 
BRANCH   2   3
ATOM      3  C   UNL     1      -9.599  35.304  15.595  1.00  0.00    -0.025 C 
ATOM      4  C   UNL     1      -9.461  36.464  16.258  1.00  0.00     0.020 C 
BRANCH   4   5
ATOM      5  C   UNL     1      -8.708  36.678  17.511  1.00  0.00     0.064 C 
ATOM      6  O   UNL     1      -9.344  36.929  18.567  1.00  0.00    -0.545 OA
ATOM      7  O   UNL     1      -7.324  36.584  17.570  1.00  0.00    -0.545 OA
ENDBRANCH   4   5
ENDBRANCH   2   3
ENDBRANCH   1   2
BRANCH   1   8
ATOM      8  C   UNL     1      -7.672  34.002  13.770  1.00  0.00     0.000 C 
BRANCH   8   9
ATOM      9  C   UNL     1      -6.445  34.778  13.269  1.00  0.00    -0.000 C 
BRANCH   9  10
ATOM     10  C   UNL     1      -6.771  36.238  12.919  1.00  0.00    -0.003 C 
ATOM     11  C   UNL     1      -6.558  37.190  14.097  1.00  0.00     0.004 C 
ENDBRANCH   9  10
ENDBRANCH   8   9
ENDBRANCH   1   8
TORSDOF 6
ENDMDL
MODEL 6
REMARK VINA RESULT:    -4.181      2.850      4.688
REMARK INTER + INTRA:          -6.116
REMARK INTER:                  -5.379
REMARK INTRA:                  -0.736
REMARK UNBOUND:                -0.469
REMARK SMILES CCCCCCC=CC(=O)[O-]
REMARK SMILES IDX 5 1 6 2 7 3 8 4 9 5 10 6 11 7 4 8 3 9 2 10 1 11
REMARK H PARENT
REMARK Flexibility Score: inf
ROOT
ATOM      1  C   UNL     1       5.087  44.629  15.423  1.00  0.00     0.004 C 
ENDROOT
BRANCH   1   2
ATOM      2  C   UNL     1       4.646  43.496  14.481  1.00  0.00     0.027 C 
BRANCH   2   3
ATOM      3  C   UNL     1       5.805  42.656  14.013  1.00  0.00    -0.025 C 
ATOM      4  C   UNL     1       5.752  41.361  13.660  1.00  0.00     0.020 C 
BRANCH   4   5
ATOM      5  C   UNL     1       4.564  40.483  13.708  1.00  0.00     0.064 C 
ATOM      6  O   UNL     1       4.241  39.957  14.804  1.00  0.00    -0.545 OA
ATOM      7  O   UNL     1       3.775  40.241  12.592  1.00  0.00    -0.545 OA
ENDBRANCH   4   5
ENDBRANCH   2   3
ENDBRANCH   1   2
BRANCH   1   8
ATOM      8  C   UNL     1       6.353  44.262  16.213  1.00  0.00     0.000 C 
BRANCH   8   9
ATOM      9  C   UNL     1       6.029  44.053  17.700  1.00  0.00    -0.000 C 
BRANCH   9  10
ATOM     10  C   UNL     1       5.388  42.685  17.979  1.00  0.00    -0.003 C 
ATOM     11  C   UNL     1       6.289  41.517  17.579  1.00  0.00     0.004 C 
ENDBRANCH   9  10
ENDBRANCH   8   9
ENDBRANCH   1   8
TORSDOF 6
ENDMDL
MODEL 7
REMARK VINA RESULT:    -4.131      2.771      5.110
REMARK INTER + INTRA:          -6.049
REMARK INTER:                  -5.590
REMARK INTRA:                  -0.458
REMARK UNBOUND:                -0.469
REMARK SMILES CCCCCCC=CC(=O)[O-]
REMARK SMILES IDX 5 1 6 2 7 3 8 4 9 5 10 6 11 7 4 8 3 9 2 10 1 11
REMARK H PARENT
REMARK Flexibility Score: inf
ROOT
ATOM      1  C   UNL     1       4.563  44.042  16.093  1.00  0.00     0.004 C 
ENDROOT
BRANCH   1   2
ATOM      2  C   UNL     1       4.115  42.988  15.066  1.00  0.00     0.027 C 
BRANCH   2   3
ATOM      3  C   UNL     1       5.248  42.520  14.193  1.00  0.00    -0.025 C 
ATOM      4  C   UNL     1       5.299  41.361  13.516  1.00  0.00     0.020 C 
BRANCH   4   5
ATOM      5  C   UNL     1       4.284  40.288  13.529  1.00  0.00     0.064 C 
ATOM      6  O   UNL     1       4.177  39.564  14.553  1.00  0.00    -0.545 OA
ATOM      7  O   UNL     1       3.424  40.068  12.462  1.00  0.00    -0.545 OA
ENDBRANCH   4   5
ENDBRANCH   2   3
ENDBRANCH   1   2
BRANCH   1   8
ATOM      8  C   UNL     1       5.809  44.809  15.625  1.00  0.00     0.000 C 
BRANCH   8   9
ATOM      9  C   UNL     1       6.930  44.726  16.672  1.00  0.00    -0.000 C 
BRANCH   9  10
ATOM     10  C   UNL     1       7.921  43.587  16.387  1.00  0.00    -0.003 C 
ATOM     11  C   UNL     1       9.184  44.069  15.671  1.00  0.00     0.004 C 
ENDBRANCH   9  10
ENDBRANCH   8   9
ENDBRANCH   1   8
TORSDOF 6
ENDMDL
MODEL 8
REMARK VINA RESULT:    -3.989     14.180     15.510
REMARK INTER + INTRA:          -5.857
REMARK INTER:                  -4.937
REMARK INTRA:                  -0.919
REMARK UNBOUND:                -0.469
REMARK SMILES CCCCCCC=CC(=O)[O-]
REMARK SMILES IDX 5 1 6 2 7 3 8 4 9 5 10 6 11 7 4 8 3 9 2 10 1 11
REMARK H PARENT
REMARK Flexibility Score: inf
ROOT
ATOM      1  C   UNL     1      -9.569  34.421  15.287  1.00  0.00     0.004 C 
ENDROOT
BRANCH   1   2
ATOM      2  C   UNL     1     -10.064  35.625  16.106  1.00  0.00     0.027 C 
BRANCH   2   3
ATOM      3  C   UNL     1      -9.730  36.940  15.453  1.00  0.00    -0.025 C 
ATOM      4  C   UNL     1      -8.759  37.787  15.831  1.00  0.00     0.020 C 
BRANCH   4   5
ATOM      5  C   UNL     1      -7.857  37.633  16.992  1.00  0.00     0.064 C 
ATOM      6  O   UNL     1      -8.283  37.933  18.137  1.00  0.00    -0.545 OA
ATOM      7  O   UNL     1      -6.566  37.139  16.866  1.00  0.00    -0.545 OA
ENDBRANCH   4   5
ENDBRANCH   2   3
ENDBRANCH   1   2
BRANCH   1   8
ATOM      8  C   UNL     1      -8.312  33.785  15.899  1.00  0.00     0.000 C 
BRANCH   8   9
ATOM      9  C   UNL     1      -7.048  34.246  15.158  1.00  0.00    -0.000 C 
BRANCH   9  10
ATOM     10  C   UNL     1      -7.320  34.593  13.686  1.00  0.00    -0.003 C 
ATOM     11  C   UNL     1      -6.762  35.959  13.288  1.00  0.00     0.004 C 
ENDBRANCH   9  10
ENDBRANCH   8   9
ENDBRANCH   1   8
TORSDOF 6
ENDMDL
MODEL 9
REMARK VINA RESULT:    -3.959     13.737     15.012
REMARK INTER + INTRA:          -5.816
REMARK INTER:                  -5.112
REMARK INTRA:                  -0.704
REMARK UNBOUND:                -0.469
REMARK SMILES CCCCCCC=CC(=O)[O-]
REMARK SMILES IDX 5 1 6 2 7 3 8 4 9 5 10 6 11 7 4 8 3 9 2 10 1 11
REMARK H PARENT
REMARK Flexibility Score: inf
ROOT
ATOM      1  C   UNL     1      -6.944  36.227  13.304  1.00  0.00     0.004 C 
ENDROOT
BRANCH   1   2
ATOM      2  C   UNL     1      -6.753  36.942  14.652  1.00  0.00     0.027 C 
BRANCH   2   3
ATOM      3  C   UNL     1      -8.054  37.434  15.229  1.00  0.00    -0.025 C 
ATOM      4  C   UNL     1      -8.374  37.479  16.533  1.00  0.00     0.020 C 
BRANCH   4   5
ATOM      5  C   UNL     1      -7.544  37.010  17.661  1.00  0.00     0.064 C 
ATOM      6  O   UNL     1      -7.868  35.948  18.253  1.00  0.00    -0.545 OA
ATOM      7  O   UNL     1      -6.402  37.684  18.072  1.00  0.00    -0.545 OA
ENDBRANCH   4   5
ENDBRANCH   2   3
ENDBRANCH   1   2
BRANCH   1   8
ATOM      8  C   UNL     1      -6.564  34.740  13.380  1.00  0.00     0.000 C 
BRANCH   8   9
ATOM      9  C   UNL     1      -7.217  34.069  14.598  1.00  0.00    -0.000 C 
BRANCH   9  10
ATOM     10  C   UNL     1      -8.726  33.847  14.412  1.00  0.00    -0.003 C 
ATOM     11  C   UNL     1      -9.511  34.001  15.715  1.00  0.00     0.004 C 
ENDBRANCH   9  10
ENDBRANCH   8   9
ENDBRANCH   1   8
TORSDOF 6
ENDMDL
