MODEL 1
REMARK VINA RESULT:    -5.552      0.000      0.000
REMARK INTER + INTRA:          -9.418
REMARK INTER:                  -8.473
REMARK INTRA:                  -0.944
REMARK UNBOUND:                -0.944
REMARK SMILES CC(=O)CCC=C(C)CCC=C(C)CCC=C(C)C
REMARK SMILES IDX 10 1 11 2 12 3 13 4 14 5 15 6 16 7 18 8 17 9 19 10 9 11 7 12
REMARK SMILES IDX 6 13 8 14 5 15 4 16 2 17 3 18 1 19
REMARK H PARENT
REMARK Flexibility Score: inf
ROOT
ATOM      1  C   UNL     1     -26.247  17.350 -30.622  1.00  0.00     0.032 C 
ENDROOT
BRANCH   1   2
ATOM      2  C   UNL     1     -26.325  15.902 -30.209  1.00  0.00    -0.028 C 
ATOM      3  C   UNL     1     -25.369  14.981 -30.467  1.00  0.00    -0.077 C 
ATOM      4  C   UNL     1     -24.079  15.343 -31.167  1.00  0.00     0.039 C 
BRANCH   3   5
ATOM      5  C   UNL     1     -25.587  13.547 -30.025  1.00  0.00     0.034 C 
BRANCH   5   6
ATOM      6  C   UNL     1     -26.940  13.364 -29.322  1.00  0.00     0.032 C 
BRANCH   6   7
ATOM      7  C   UNL     1     -27.837  12.408 -30.073  1.00  0.00    -0.028 C 
ATOM      8  C   UNL     1     -29.647  12.481 -28.344  1.00  0.00     0.039 C 
ATOM      9  C   UNL     1     -29.066  12.027 -29.662  1.00  0.00    -0.080 C 
ATOM     10  C   UNL     1     -29.863  11.104 -30.548  1.00  0.00     0.039 C 
ENDBRANCH   6   7
ENDBRANCH   5   6
ENDBRANCH   3   5
ENDBRANCH   1   2
BRANCH   1  11
ATOM     11  C   UNL     1     -27.520  17.774 -31.363  1.00  0.00     0.034 C 
BRANCH  11  12
ATOM     12  C   UNL     1     -27.209  18.831 -32.399  1.00  0.00    -0.077 C 
ATOM     13  C   UNL     1     -25.918  19.157 -32.635  1.00  0.00    -0.028 C 
ATOM     14  C   UNL     1     -28.348  19.505 -33.127  1.00  0.00     0.039 C 
BRANCH  13  15
ATOM     15  C   UNL     1     -25.462  20.145 -33.682  1.00  0.00     0.035 C 
BRANCH  15  16
ATOM     16  C   UNL     1     -23.935  20.298 -33.693  1.00  0.00     0.079 C 
BRANCH  16  17
ATOM     17  C   UNL     1     -23.432  20.942 -32.427  1.00  0.00     0.130 C 
ATOM     18  O   UNL     1     -23.477  22.157 -32.309  1.00  0.00    -0.300 OA
ATOM     19  C   UNL     1     -22.838  20.118 -31.325  1.00  0.00     0.087 C 
ENDBRANCH  16  17
ENDBRANCH  15  16
ENDBRANCH  13  15
ENDBRANCH  11  12
ENDBRANCH   1  11
TORSDOF 9
ENDMDL
MODEL 2
REMARK VINA RESULT:    -5.494     10.477     13.732
REMARK INTER + INTRA:          -9.329
REMARK INTER:                  -7.368
REMARK INTRA:                  -1.960
REMARK UNBOUND:                -0.944
REMARK SMILES CC(=O)CCC=C(C)CCC=C(C)CCC=C(C)C
REMARK SMILES IDX 10 1 11 2 12 3 13 4 14 5 15 6 16 7 18 8 17 9 19 10 9 11 7 12
REMARK SMILES IDX 6 13 8 14 5 15 4 16 2 17 3 18 1 19
REMARK H PARENT
REMARK Flexibility Score: inf
ROOT
ATOM      1  C   UNL     1     -18.337  12.330 -29.249  1.00  0.00     0.032 C 
ENDROOT
BRANCH   1   2
ATOM      2  C   UNL     1     -17.480  13.571 -29.218  1.00  0.00    -0.028 C 
ATOM      3  C   UNL     1     -16.865  14.101 -30.300  1.00  0.00    -0.077 C 
ATOM      4  C   UNL     1     -17.029  13.510 -31.681  1.00  0.00     0.039 C 
BRANCH   3   5
ATOM      5  C   UNL     1     -16.001  15.335 -30.126  1.00  0.00     0.034 C 
BRANCH   5   6
ATOM      6  C   UNL     1     -14.906  15.424 -31.197  1.00  0.00     0.032 C 
BRANCH   6   7
ATOM      7  C   UNL     1     -13.524  15.434 -30.586  1.00  0.00    -0.028 C 
ATOM      8  C   UNL     1     -13.117  13.006 -31.046  1.00  0.00     0.039 C 
ATOM      9  C   UNL     1     -12.698  14.365 -30.539  1.00  0.00    -0.080 C 
ATOM     10  C   UNL     1     -11.327  14.545 -29.941  1.00  0.00     0.039 C 
ENDBRANCH   6   7
ENDBRANCH   5   6
ENDBRANCH   3   5
ENDBRANCH   1   2
BRANCH   1  11
ATOM     11  C   UNL     1     -17.468  11.068 -29.260  1.00  0.00     0.034 C 
BRANCH  11  12
ATOM     12  C   UNL     1     -16.421  11.129 -28.171  1.00  0.00    -0.077 C 
ATOM     13  C   UNL     1     -15.127  11.313 -28.516  1.00  0.00    -0.028 C 
ATOM     14  C   UNL     1     -16.847  10.965 -26.731  1.00  0.00     0.039 C 
BRANCH  13  15
ATOM     15  C   UNL     1     -13.990  11.457 -27.532  1.00  0.00     0.035 C 
BRANCH  15  16
ATOM     16  C   UNL     1     -13.594  12.926 -27.332  1.00  0.00     0.079 C 
BRANCH  16  17
ATOM     17  C   UNL     1     -12.360  13.057 -26.478  1.00  0.00     0.130 C 
ATOM     18  O   UNL     1     -12.094  14.133 -25.963  1.00  0.00    -0.300 OA
ATOM     19  C   UNL     1     -11.429  11.899 -26.284  1.00  0.00     0.087 C 
ENDBRANCH  16  17
ENDBRANCH  15  16
ENDBRANCH  13  15
ENDBRANCH  11  12
ENDBRANCH   1  11
TORSDOF 9
ENDMDL
MODEL 3
REMARK VINA RESULT:    -5.427     10.103     13.131
REMARK INTER + INTRA:          -9.226
REMARK INTER:                  -7.065
REMARK INTRA:                  -2.161
REMARK UNBOUND:                -0.944
REMARK SMILES CC(=O)CCC=C(C)CCC=C(C)CCC=C(C)C
REMARK SMILES IDX 10 1 11 2 12 3 13 4 14 5 15 6 16 7 18 8 17 9 19 10 9 11 7 12
REMARK SMILES IDX 6 13 8 14 5 15 4 16 2 17 3 18 1 19
REMARK H PARENT
REMARK Flexibility Score: inf
ROOT
ATOM      1  C   UNL     1     -14.246  15.821 -31.297  1.00  0.00     0.032 C 
ENDROOT
BRANCH   1   2
ATOM      2  C   UNL     1     -13.035  15.366 -30.519  1.00  0.00    -0.028 C 
ATOM      3  C   UNL     1     -12.067  14.562 -31.014  1.00  0.00    -0.077 C 
ATOM      4  C   UNL     1     -12.087  14.076 -32.445  1.00  0.00     0.039 C 
BRANCH   3   5
ATOM      5  C   UNL     1     -10.919  14.151 -30.115  1.00  0.00     0.034 C 
BRANCH   5   6
ATOM      6  C   UNL     1     -11.177  12.799 -29.435  1.00  0.00     0.032 C 
BRANCH   6   7
ATOM      7  C   UNL     1     -12.262  12.897 -28.388  1.00  0.00    -0.028 C 
ATOM      8  C   UNL     1     -13.876  11.487 -29.685  1.00  0.00     0.039 C 
ATOM      9  C   UNL     1     -13.466  12.289 -28.472  1.00  0.00    -0.080 C 
ATOM     10  C   UNL     1     -14.427  12.440 -27.321  1.00  0.00     0.039 C 
ENDBRANCH   6   7
ENDBRANCH   5   6
ENDBRANCH   3   5
ENDBRANCH   1   2
BRANCH   1  11
ATOM     11  C   UNL     1     -15.531  15.564 -30.502  1.00  0.00     0.034 C 
BRANCH  11  12
ATOM     12  C   UNL     1     -16.123  14.219 -30.863  1.00  0.00    -0.077 C 
ATOM     13  C   UNL     1     -16.846  13.552 -29.936  1.00  0.00    -0.028 C 
ATOM     14  C   UNL     1     -15.874  13.652 -32.241  1.00  0.00     0.039 C 
BRANCH  13  15
ATOM     15  C   UNL     1     -17.545  12.235 -30.179  1.00  0.00     0.035 C 
BRANCH  15  16
ATOM     16  C   UNL     1     -18.385  11.806 -28.969  1.00  0.00     0.079 C 
BRANCH  16  17
ATOM     17  C   UNL     1     -19.859  11.985 -29.225  1.00  0.00     0.130 C 
ATOM     18  O   UNL     1     -20.647  11.136 -28.837  1.00  0.00    -0.300 OA
ATOM     19  C   UNL     1     -20.372  13.170 -29.987  1.00  0.00     0.087 C 
ENDBRANCH  16  17
ENDBRANCH  15  16
ENDBRANCH  13  15
ENDBRANCH  11  12
ENDBRANCH   1  11
TORSDOF 9
ENDMDL
MODEL 4
REMARK VINA RESULT:    -5.400     10.388     12.911
REMARK INTER + INTRA:          -9.185
REMARK INTER:                  -7.246
REMARK INTRA:                  -1.940
REMARK UNBOUND:                -0.944
REMARK SMILES CC(=O)CCC=C(C)CCC=C(C)CCC=C(C)C
REMARK SMILES IDX 10 1 11 2 12 3 13 4 14 5 15 6 16 7 18 8 17 9 19 10 9 11 7 12
REMARK SMILES IDX 6 13 8 14 5 15 4 16 2 17 3 18 1 19
REMARK H PARENT
REMARK Flexibility Score: inf
ROOT
ATOM      1  C   UNL     1     -18.000  13.694 -29.589  1.00  0.00     0.032 C 
ENDROOT
BRANCH   1   2
ATOM      2  C   UNL     1     -17.199  13.134 -28.440  1.00  0.00    -0.028 C 
ATOM      3  C   UNL     1     -17.327  11.876 -27.962  1.00  0.00    -0.077 C 
ATOM      4  C   UNL     1     -18.273  10.876 -28.586  1.00  0.00     0.039 C 
BRANCH   3   5
ATOM      5  C   UNL     1     -16.483  11.449 -26.777  1.00  0.00     0.034 C 
BRANCH   5   6
ATOM      6  C   UNL     1     -15.022  11.194 -27.175  1.00  0.00     0.032 C 
BRANCH   6   7
ATOM      7  C   UNL     1     -14.182  12.443 -27.050  1.00  0.00    -0.028 C 
ATOM      8  C   UNL     1     -12.343  11.556 -28.500  1.00  0.00     0.039 C 
ATOM      9  C   UNL     1     -12.992  12.632 -27.663  1.00  0.00    -0.080 C 
ATOM     10  C   UNL     1     -12.294  13.955 -27.480  1.00  0.00     0.039 C 
ENDBRANCH   6   7
ENDBRANCH   5   6
ENDBRANCH   3   5
ENDBRANCH   1   2
BRANCH   1  11
ATOM     11  C   UNL     1     -17.355  13.330 -30.931  1.00  0.00     0.034 C 
BRANCH  11  12
ATOM     12  C   UNL     1     -15.857  13.534 -30.878  1.00  0.00    -0.077 C 
ATOM     13  C   UNL     1     -15.371  14.790 -30.763  1.00  0.00    -0.028 C 
ATOM     14  C   UNL     1     -14.948  12.332 -30.973  1.00  0.00     0.039 C 
BRANCH  13  15
ATOM     15  C   UNL     1     -13.906  15.133 -30.636  1.00  0.00     0.035 C 
BRANCH  15  16
ATOM     16  C   UNL     1     -13.234  15.274 -32.008  1.00  0.00     0.079 C 
BRANCH  16  17
ATOM     17  C   UNL     1     -12.046  14.356 -32.141  1.00  0.00     0.130 C 
ATOM     18  O   UNL     1     -11.927  13.664 -33.141  1.00  0.00    -0.300 OA
ATOM     19  C   UNL     1     -11.029  14.245 -31.046  1.00  0.00     0.087 C 
ENDBRANCH  16  17
ENDBRANCH  15  16
ENDBRANCH  13  15
ENDBRANCH  11  12
ENDBRANCH   1  11
TORSDOF 9
ENDMDL
MODEL 5
REMARK VINA RESULT:    -5.394      3.079      7.729
REMARK INTER + INTRA:          -9.177
REMARK INTER:                  -8.110
REMARK INTRA:                  -1.067
REMARK UNBOUND:                -0.944
REMARK SMILES CC(=O)CCC=C(C)CCC=C(C)CCC=C(C)C
REMARK SMILES IDX 10 1 11 2 12 3 13 4 14 5 15 6 16 7 18 8 17 9 19 10 9 11 7 12
REMARK SMILES IDX 6 13 8 14 5 15 4 16 2 17 3 18 1 19
REMARK H PARENT
REMARK Flexibility Score: inf
ROOT
ATOM      1  C   UNL     1     -25.622  17.868 -30.886  1.00  0.00     0.032 C 
ENDROOT
BRANCH   1   2
ATOM      2  C   UNL     1     -26.125  18.651 -32.073  1.00  0.00    -0.028 C 
ATOM      3  C   UNL     1     -25.367  19.496 -32.808  1.00  0.00    -0.077 C 
ATOM      4  C   UNL     1     -23.896  19.697 -32.528  1.00  0.00     0.039 C 
BRANCH   3   5
ATOM      5  C   UNL     1     -26.007  20.249 -33.958  1.00  0.00     0.034 C 
BRANCH   5   6
ATOM      6  C   UNL     1     -27.269  21.004 -33.518  1.00  0.00     0.032 C 
BRANCH   6   7
ATOM      7  C   UNL     1     -28.516  20.419 -34.138  1.00  0.00    -0.028 C 
ATOM      8  C   UNL     1     -29.591  19.929 -31.930  1.00  0.00     0.039 C 
ATOM      9  C   UNL     1     -29.579  19.961 -33.439  1.00  0.00    -0.080 C 
ATOM     10  C   UNL     1     -30.774  19.452 -34.204  1.00  0.00     0.039 C 
ENDBRANCH   6   7
ENDBRANCH   5   6
ENDBRANCH   3   5
ENDBRANCH   1   2
BRANCH   1  11
ATOM     11  C   UNL     1     -26.625  16.780 -30.486  1.00  0.00     0.034 C 
BRANCH  11  12
ATOM     12  C   UNL     1     -25.942  15.434 -30.384  1.00  0.00    -0.077 C 
ATOM     13  C   UNL     1     -26.599  14.409 -29.798  1.00  0.00    -0.028 C 
ATOM     14  C   UNL     1     -24.539  15.280 -30.923  1.00  0.00     0.039 C 
BRANCH  13  15
ATOM     15  C   UNL     1     -26.065  13.001 -29.686  1.00  0.00     0.035 C 
BRANCH  15  16
ATOM     16  C   UNL     1     -27.197  11.968 -29.603  1.00  0.00     0.079 C 
BRANCH  16  17
ATOM     17  C   UNL     1     -27.916  12.038 -28.282  1.00  0.00     0.130 C 
ATOM     18  O   UNL     1     -27.366  11.626 -27.272  1.00  0.00    -0.300 OA
ATOM     19  C   UNL     1     -29.316  12.566 -28.192  1.00  0.00     0.087 C 
ENDBRANCH  16  17
ENDBRANCH  15  16
ENDBRANCH  13  15
ENDBRANCH  11  12
ENDBRANCH   1  11
TORSDOF 9
ENDMDL
MODEL 6
REMARK VINA RESULT:    -5.337     10.542     13.598
REMARK INTER + INTRA:          -9.089
REMARK INTER:                  -6.966
REMARK INTRA:                  -2.124
REMARK UNBOUND:                -0.944
REMARK SMILES CC(=O)CCC=C(C)CCC=C(C)CCC=C(C)C
REMARK SMILES IDX 10 1 11 2 12 3 13 4 14 5 15 6 16 7 18 8 17 9 19 10 9 11 7 12
REMARK SMILES IDX 6 13 8 14 5 15 4 16 2 17 3 18 1 19
REMARK H PARENT
REMARK Flexibility Score: inf
ROOT
ATOM      1  C   UNL     1     -15.370  11.690 -26.754  1.00  0.00     0.032 C 
ENDROOT
BRANCH   1   2
ATOM      2  C   UNL     1     -14.377  11.358 -27.840  1.00  0.00    -0.028 C 
ATOM      3  C   UNL     1     -13.100  11.801 -27.868  1.00  0.00    -0.077 C 
ATOM      4  C   UNL     1     -12.524  12.648 -26.757  1.00  0.00     0.039 C 
BRANCH   3   5
ATOM      5  C   UNL     1     -12.213  11.420 -29.037  1.00  0.00     0.034 C 
BRANCH   5   6
ATOM      6  C   UNL     1     -11.147  12.488 -29.320  1.00  0.00     0.032 C 
BRANCH   6   7
ATOM      7  C   UNL     1     -11.322  13.106 -30.688  1.00  0.00    -0.028 C 
ATOM      8  C   UNL     1     -12.737  14.992 -29.841  1.00  0.00     0.039 C 
ATOM      9  C   UNL     1     -12.007  14.246 -30.933  1.00  0.00    -0.080 C 
ATOM     10  C   UNL     1     -12.050  14.765 -32.347  1.00  0.00     0.039 C 
ENDBRANCH   6   7
ENDBRANCH   5   6
ENDBRANCH   3   5
ENDBRANCH   1   2
BRANCH   1  11
ATOM     11  C   UNL     1     -16.767  11.176 -27.118  1.00  0.00     0.034 C 
BRANCH  11  12
ATOM     12  C   UNL     1     -17.241  11.790 -28.417  1.00  0.00    -0.077 C 
ATOM     13  C   UNL     1     -17.289  13.137 -28.526  1.00  0.00    -0.028 C 
ATOM     14  C   UNL     1     -17.664  10.882 -29.548  1.00  0.00     0.039 C 
BRANCH  13  15
ATOM     15  C   UNL     1     -17.680  13.881 -29.781  1.00  0.00     0.035 C 
BRANCH  15  16
ATOM     16  C   UNL     1     -16.472  14.567 -30.433  1.00  0.00     0.079 C 
BRANCH  16  17
ATOM     17  C   UNL     1     -16.045  13.859 -31.693  1.00  0.00     0.130 C 
ATOM     18  O   UNL     1     -16.488  14.226 -32.771  1.00  0.00    -0.300 OA
ATOM     19  C   UNL     1     -15.118  12.683 -31.641  1.00  0.00     0.087 C 
ENDBRANCH  16  17
ENDBRANCH  15  16
ENDBRANCH  13  15
ENDBRANCH  11  12
ENDBRANCH   1  11
TORSDOF 9
ENDMDL
MODEL 7
REMARK VINA RESULT:    -5.268     10.094     13.474
REMARK INTER + INTRA:          -8.984
REMARK INTER:                  -6.768
REMARK INTRA:                  -2.216
REMARK UNBOUND:                -0.944
REMARK SMILES CC(=O)CCC=C(C)CCC=C(C)CCC=C(C)C
REMARK SMILES IDX 10 1 11 2 12 3 13 4 14 5 15 6 16 7 18 8 17 9 19 10 9 11 7 12
REMARK SMILES IDX 6 13 8 14 5 15 4 16 2 17 3 18 1 19
REMARK H PARENT
REMARK Flexibility Score: inf
ROOT
ATOM      1  C   UNL     1     -14.875  11.809 -30.941  1.00  0.00     0.032 C 
ENDROOT
BRANCH   1   2
ATOM      2  C   UNL     1     -13.769  12.834 -30.913  1.00  0.00    -0.028 C 
ATOM      3  C   UNL     1     -13.949  14.145 -30.632  1.00  0.00    -0.077 C 
ATOM      4  C   UNL     1     -15.303  14.703 -30.261  1.00  0.00     0.039 C 
BRANCH   3   5
ATOM      5  C   UNL     1     -12.754  15.077 -30.670  1.00  0.00     0.034 C 
BRANCH   5   6
ATOM      6  C   UNL     1     -11.624  14.600 -29.748  1.00  0.00     0.032 C 
BRANCH   6   7
ATOM      7  C   UNL     1     -12.082  14.490 -28.312  1.00  0.00    -0.028 C 
ATOM      8  C   UNL     1     -11.592  12.038 -28.166  1.00  0.00     0.039 C 
ATOM      9  C   UNL     1     -12.045  13.354 -27.580  1.00  0.00    -0.080 C 
ATOM     10  C   UNL     1     -12.490  13.414 -26.141  1.00  0.00     0.039 C 
ENDBRANCH   6   7
ENDBRANCH   5   6
ENDBRANCH   3   5
ENDBRANCH   1   2
BRANCH   1  11
ATOM     11  C   UNL     1     -14.892  10.990 -29.646  1.00  0.00     0.034 C 
BRANCH  11  12
ATOM     12  C   UNL     1     -16.136  11.290 -28.839  1.00  0.00    -0.077 C 
ATOM     13  C   UNL     1     -17.335  10.875 -29.306  1.00  0.00    -0.028 C 
ATOM     14  C   UNL     1     -16.005  12.060 -27.546  1.00  0.00     0.039 C 
BRANCH  13  15
ATOM     15  C   UNL     1     -18.645  11.050 -28.575  1.00  0.00     0.035 C 
BRANCH  15  16
ATOM     16  C   UNL     1     -19.595  11.989 -29.330  1.00  0.00     0.079 C 
BRANCH  16  17
ATOM     17  C   UNL     1     -18.886  13.228 -29.810  1.00  0.00     0.130 C 
ATOM     18  O   UNL     1     -18.681  14.147 -29.031  1.00  0.00    -0.300 OA
ATOM     19  C   UNL     1     -18.465  13.372 -31.241  1.00  0.00     0.087 C 
ENDBRANCH  16  17
ENDBRANCH  15  16
ENDBRANCH  13  15
ENDBRANCH  11  12
ENDBRANCH   1  11
TORSDOF 9
ENDMDL
MODEL 8
REMARK VINA RESULT:    -5.263     11.281     14.116
REMARK INTER + INTRA:          -8.977
REMARK INTER:                  -7.125
REMARK INTRA:                  -1.852
REMARK UNBOUND:                -0.944
REMARK SMILES CC(=O)CCC=C(C)CCC=C(C)CCC=C(C)C
REMARK SMILES IDX 10 1 11 2 12 3 13 4 14 5 15 6 16 7 18 8 17 9 19 10 9 11 7 12
REMARK SMILES IDX 6 13 8 14 5 15 4 16 2 17 3 18 1 19
REMARK H PARENT
REMARK Flexibility Score: inf
ROOT
ATOM      1  C   UNL     1     -13.560  15.717 -30.520  1.00  0.00     0.032 C 
ENDROOT
BRANCH   1   2
ATOM      2  C   UNL     1     -12.758  14.616 -29.873  1.00  0.00    -0.028 C 
ATOM      3  C   UNL     1     -11.620  14.096 -30.386  1.00  0.00    -0.077 C 
ATOM      4  C   UNL     1     -11.007  14.624 -31.663  1.00  0.00     0.039 C 
BRANCH   3   5
ATOM      5  C   UNL     1     -10.929  12.965 -29.651  1.00  0.00     0.034 C 
BRANCH   5   6
ATOM      6  C   UNL     1     -11.923  12.103 -28.861  1.00  0.00     0.032 C 
BRANCH   6   7
ATOM      7  C   UNL     1     -11.389  11.743 -27.494  1.00  0.00    -0.028 C 
ATOM      8  C   UNL     1     -12.486  13.692 -26.366  1.00  0.00     0.039 C 
ATOM      9  C   UNL     1     -11.658  12.429 -26.360  1.00  0.00    -0.080 C 
ATOM     10  C   UNL     1     -11.092  11.916 -25.061  1.00  0.00     0.039 C 
ENDBRANCH   6   7
ENDBRANCH   5   6
ENDBRANCH   3   5
ENDBRANCH   1   2
BRANCH   1  11
ATOM     11  C   UNL     1     -14.366  15.179 -31.707  1.00  0.00     0.034 C 
BRANCH  11  12
ATOM     12  C   UNL     1     -15.347  14.122 -31.252  1.00  0.00    -0.077 C 
ATOM     13  C   UNL     1     -16.452  14.503 -30.573  1.00  0.00    -0.028 C 
ATOM     14  C   UNL     1     -15.056  12.671 -31.553  1.00  0.00     0.039 C 
BRANCH  13  15
ATOM     15  C   UNL     1     -17.543  13.564 -30.116  1.00  0.00     0.035 C 
BRANCH  15  16
ATOM     16  C   UNL     1     -17.605  13.467 -28.586  1.00  0.00     0.079 C 
BRANCH  16  17
ATOM     17  C   UNL     1     -16.960  12.203 -28.083  1.00  0.00     0.130 C 
ATOM     18  O   UNL     1     -17.653  11.227 -27.838  1.00  0.00    -0.300 OA
ATOM     19  C   UNL     1     -15.483  12.135 -27.836  1.00  0.00     0.087 C 
ENDBRANCH  16  17
ENDBRANCH  15  16
ENDBRANCH  13  15
ENDBRANCH  11  12
ENDBRANCH   1  11
TORSDOF 9
ENDMDL
MODEL 9
REMARK VINA RESULT:    -5.107     10.145     13.147
REMARK INTER + INTRA:          -8.738
REMARK INTER:                  -6.742
REMARK INTRA:                  -1.996
REMARK UNBOUND:                -0.944
REMARK SMILES CC(=O)CCC=C(C)CCC=C(C)CCC=C(C)C
REMARK SMILES IDX 10 1 11 2 12 3 13 4 14 5 15 6 16 7 18 8 17 9 19 10 9 11 7 12
REMARK SMILES IDX 6 13 8 14 5 15 4 16 2 17 3 18 1 19
REMARK H PARENT
REMARK Flexibility Score: inf
ROOT
ATOM      1  C   UNL     1     -16.872  12.452 -27.202  1.00  0.00     0.032 C 
ENDROOT
BRANCH   1   2
ATOM      2  C   UNL     1     -17.211  12.718 -28.647  1.00  0.00    -0.028 C 
ATOM      3  C   UNL     1     -18.143  12.036 -29.351  1.00  0.00    -0.077 C 
ATOM      4  C   UNL     1     -18.986  10.952 -28.719  1.00  0.00     0.039 C 
BRANCH   3   5
ATOM      5  C   UNL     1     -18.363  12.381 -30.811  1.00  0.00     0.034 C 
BRANCH   5   6
ATOM      6  C   UNL     1     -17.747  13.738 -31.177  1.00  0.00     0.032 C 
BRANCH   6   7
ATOM      7  C   UNL     1     -16.448  13.579 -31.933  1.00  0.00    -0.028 C 
ATOM      8  C   UNL     1     -15.216  15.224 -30.502  1.00  0.00     0.039 C 
ATOM      9  C   UNL     1     -15.297  14.215 -31.623  1.00  0.00    -0.080 C 
ATOM     10  C   UNL     1     -14.068  13.913 -32.441  1.00  0.00     0.039 C 
ENDBRANCH   6   7
ENDBRANCH   5   6
ENDBRANCH   3   5
ENDBRANCH   1   2
BRANCH   1  11
ATOM     11  C   UNL     1     -15.874  11.294 -27.081  1.00  0.00     0.034 C 
BRANCH  11  12
ATOM     12  C   UNL     1     -14.565  11.644 -27.752  1.00  0.00    -0.077 C 
ATOM     13  C   UNL     1     -13.688  12.441 -27.103  1.00  0.00    -0.028 C 
ATOM     14  C   UNL     1     -14.283  11.108 -29.136  1.00  0.00     0.039 C 
BRANCH  13  15
ATOM     15  C   UNL     1     -12.322  12.817 -27.626  1.00  0.00     0.035 C 
BRANCH  15  16
ATOM     16  C   UNL     1     -12.365  14.116 -28.443  1.00  0.00     0.079 C 
BRANCH  16  17
ATOM     17  C   UNL     1     -11.563  13.999 -29.713  1.00  0.00     0.130 C 
ATOM     18  O   UNL     1     -11.329  15.000 -30.373  1.00  0.00    -0.300 OA
ATOM     19  C   UNL     1     -11.082  12.667 -30.203  1.00  0.00     0.087 C 
ENDBRANCH  16  17
ENDBRANCH  15  16
ENDBRANCH  13  15
ENDBRANCH  11  12
ENDBRANCH   1  11
TORSDOF 9
ENDMDL
