MODEL 1
REMARK VINA RESULT:    -4.256      0.000      0.000
REMARK INTER + INTRA:          -4.524
REMARK INTER:                  -4.504
REMARK INTRA:                  -0.019
REMARK UNBOUND:                -0.019
REMARK SMILES O=C([O-])c1cccnc1
REMARK SMILES IDX 4 1 5 2 9 3 6 4 8 5 7 6 2 7 1 8 3 9
REMARK H PARENT
REMARK Flexibility Score: inf
ROOT
ATOM      1  C   UNL     1      -0.645   6.268   3.991  1.00  0.00     0.016 A 
ATOM      2  C   UNL     1       0.545   6.543   4.684  1.00  0.00     0.013 A 
ATOM      3  C   UNL     1      -1.862   6.691   4.557  1.00  0.00     0.120 A 
ATOM      4  C   UNL     1       0.505   7.220   5.904  1.00  0.00     0.021 A 
ATOM      5  N   UNL     1      -1.872   7.349   5.747  1.00  0.00    -0.264 NA
ATOM      6  C   UNL     1      -0.726   7.619   6.426  1.00  0.00     0.111 A 
ENDROOT
BRANCH   1   7
ATOM      7  C   UNL     1      -0.616   5.551   2.697  1.00  0.00     0.073 C 
ATOM      8  O   UNL     1      -1.281   5.976   1.714  1.00  0.00    -0.545 OA
ATOM      9  O   UNL     1       0.146   4.399   2.549  1.00  0.00    -0.545 OA
ENDBRANCH   1   7
TORSDOF 1
ENDMDL
MODEL 2
REMARK VINA RESULT:    -4.113      0.907      1.603
REMARK INTER + INTRA:          -4.372
REMARK INTER:                  -4.353
REMARK INTRA:                  -0.020
REMARK UNBOUND:                -0.019
REMARK SMILES O=C([O-])c1cccnc1
REMARK SMILES IDX 4 1 5 2 9 3 6 4 8 5 7 6 2 7 1 8 3 9
REMARK H PARENT
REMARK Flexibility Score: inf
ROOT
ATOM      1  C   UNL     1      -0.654   6.338   4.048  1.00  0.00     0.016 A 
ATOM      2  C   UNL     1      -1.875   6.761   4.599  1.00  0.00     0.013 A 
ATOM      3  C   UNL     1       0.529   6.614   4.757  1.00  0.00     0.120 A 
ATOM      4  C   UNL     1      -1.897   7.439   5.819  1.00  0.00     0.021 A 
ATOM      5  N   UNL     1       0.479   7.276   5.944  1.00  0.00    -0.264 NA
ATOM      6  C   UNL     1      -0.697   7.690   6.484  1.00  0.00     0.111 A 
ENDROOT
BRANCH   1   7
ATOM      7  C   UNL     1      -0.618   5.620   2.756  1.00  0.00     0.073 C 
ATOM      8  O   UNL     1      -1.270   6.048   1.767  1.00  0.00    -0.545 OA
ATOM      9  O   UNL     1       0.138   4.462   2.616  1.00  0.00    -0.545 OA
ENDBRANCH   1   7
TORSDOF 1
ENDMDL
MODEL 3
REMARK VINA RESULT:    -3.992      1.695      2.203
REMARK INTER + INTRA:          -4.245
REMARK INTER:                  -4.228
REMARK INTRA:                  -0.016
REMARK UNBOUND:                -0.019
REMARK SMILES O=C([O-])c1cccnc1
REMARK SMILES IDX 4 1 5 2 9 3 6 4 8 5 7 6 2 7 1 8 3 9
REMARK H PARENT
REMARK Flexibility Score: inf
ROOT
ATOM      1  C   UNL     1      -1.132   6.792   3.495  1.00  0.00     0.016 A 
ATOM      2  C   UNL     1      -1.999   6.614   4.585  1.00  0.00     0.013 A 
ATOM      3  C   UNL     1      -0.712   8.097   3.181  1.00  0.00     0.120 A 
ATOM      4  C   UNL     1      -2.426   7.716   5.329  1.00  0.00     0.021 A 
ATOM      5  N   UNL     1      -1.143   9.153   3.921  1.00  0.00    -0.264 NA
ATOM      6  C   UNL     1      -1.983   8.991   4.978  1.00  0.00     0.111 A 
ENDROOT
BRANCH   1   7
ATOM      7  C   UNL     1      -0.673   5.632   2.699  1.00  0.00     0.073 C 
ATOM      8  O   UNL     1       0.343   4.976   3.051  1.00  0.00    -0.545 OA
ATOM      9  O   UNL     1      -1.359   5.250   1.552  1.00  0.00    -0.545 OA
ENDBRANCH   1   7
TORSDOF 1
ENDMDL
MODEL 4
REMARK VINA RESULT:    -3.735     14.111     15.157
REMARK INTER + INTRA:          -3.972
REMARK INTER:                  -3.956
REMARK INTRA:                  -0.016
REMARK UNBOUND:                -0.019
REMARK SMILES O=C([O-])c1cccnc1
REMARK SMILES IDX 4 1 5 2 9 3 6 4 8 5 7 6 2 7 1 8 3 9
REMARK H PARENT
REMARK Flexibility Score: inf
ROOT
ATOM      1  C   UNL     1       7.808  -5.014   0.354  1.00  0.00     0.016 A 
ATOM      2  C   UNL     1       8.100  -6.101  -0.485  1.00  0.00     0.013 A 
ATOM      3  C   UNL     1       6.689  -5.105   1.201  1.00  0.00     0.120 A 
ATOM      4  C   UNL     1       7.289  -7.238  -0.468  1.00  0.00     0.021 A 
ATOM      5  N   UNL     1       5.916  -6.224   1.198  1.00  0.00    -0.264 NA
ATOM      6  C   UNL     1       6.190  -7.281   0.389  1.00  0.00     0.111 A 
ENDROOT
BRANCH   1   7
ATOM      7  C   UNL     1       8.659  -3.804   0.345  1.00  0.00     0.073 C 
ATOM      8  O   UNL     1       9.672  -3.728   1.090  1.00  0.00    -0.545 OA
ATOM      9  O   UNL     1       8.352  -2.734  -0.488  1.00  0.00    -0.545 OA
ENDBRANCH   1   7
TORSDOF 1
ENDMDL
MODEL 5
REMARK VINA RESULT:    -3.582     12.574     13.430
REMARK INTER + INTRA:          -3.811
REMARK INTER:                  -3.794
REMARK INTRA:                  -0.017
REMARK UNBOUND:                -0.019
REMARK SMILES O=C([O-])c1cccnc1
REMARK SMILES IDX 4 1 5 2 9 3 6 4 8 5 7 6 2 7 1 8 3 9
REMARK H PARENT
REMARK Flexibility Score: inf
ROOT
ATOM      1  C   UNL     1       7.136  -4.397   1.937  1.00  0.00     0.016 A 
ATOM      2  C   UNL     1       7.074  -3.052   1.536  1.00  0.00     0.013 A 
ATOM      3  C   UNL     1       7.418  -4.680   3.285  1.00  0.00     0.120 A 
ATOM      4  C   UNL     1       7.290  -2.033   2.466  1.00  0.00     0.021 A 
ATOM      5  N   UNL     1       7.624  -3.669   4.170  1.00  0.00    -0.264 NA
ATOM      6  C   UNL     1       7.567  -2.364   3.793  1.00  0.00     0.111 A 
ENDROOT
BRANCH   1   7
ATOM      7  C   UNL     1       6.910  -5.485   0.961  1.00  0.00     0.073 C 
ATOM      8  O   UNL     1       7.752  -5.717   0.053  1.00  0.00    -0.545 OA
ATOM      9  O   UNL     1       5.764  -6.268   1.034  1.00  0.00    -0.545 OA
ENDBRANCH   1   7
TORSDOF 1
ENDMDL
MODEL 6
REMARK VINA RESULT:    -3.528     13.636     14.645
REMARK INTER + INTRA:          -3.754
REMARK INTER:                  -3.731
REMARK INTRA:                  -0.023
REMARK UNBOUND:                -0.019
REMARK SMILES O=C([O-])c1cccnc1
REMARK SMILES IDX 4 1 5 2 9 3 6 4 8 5 7 6 2 7 1 8 3 9
REMARK H PARENT
REMARK Flexibility Score: inf
ROOT
ATOM      1  C   UNL     1       7.483  -5.099   0.557  1.00  0.00     0.016 A 
ATOM      2  C   UNL     1       7.037  -4.059   1.389  1.00  0.00     0.013 A 
ATOM      3  C   UNL     1       8.542  -4.838  -0.330  1.00  0.00     0.120 A 
ATOM      4  C   UNL     1       7.639  -2.802   1.323  1.00  0.00     0.021 A 
ATOM      5  N   UNL     1       9.112  -3.603  -0.374  1.00  0.00    -0.264 NA
ATOM      6  C   UNL     1       8.686  -2.590   0.426  1.00  0.00     0.111 A 
ENDROOT
BRANCH   1   7
ATOM      7  C   UNL     1       6.853  -6.436   0.617  1.00  0.00     0.073 C 
ATOM      8  O   UNL     1       5.680  -6.572   1.057  1.00  0.00    -0.545 OA
ATOM      9  O   UNL     1       7.547  -7.561   0.188  1.00  0.00    -0.545 OA
ENDBRANCH   1   7
TORSDOF 1
ENDMDL
MODEL 7
REMARK VINA RESULT:    -3.516     14.294     15.221
REMARK INTER + INTRA:          -3.741
REMARK INTER:                  -3.723
REMARK INTRA:                  -0.018
REMARK UNBOUND:                -0.019
REMARK SMILES O=C([O-])c1cccnc1
REMARK SMILES IDX 4 1 5 2 9 3 6 4 8 5 7 6 2 7 1 8 3 9
REMARK H PARENT
REMARK Flexibility Score: inf
ROOT
ATOM      1  C   UNL     1       7.715  -5.101   0.265  1.00  0.00     0.016 A 
ATOM      2  C   UNL     1       8.282  -6.025  -0.627  1.00  0.00     0.013 A 
ATOM      3  C   UNL     1       8.066  -3.745   0.135  1.00  0.00     0.120 A 
ATOM      4  C   UNL     1       9.172  -5.594  -1.612  1.00  0.00     0.021 A 
ATOM      5  N   UNL     1       8.936  -3.351  -0.834  1.00  0.00    -0.264 NA
ATOM      6  C   UNL     1       9.491  -4.239  -1.701  1.00  0.00     0.111 A 
ENDROOT
BRANCH   1   7
ATOM      7  C   UNL     1       6.771  -5.545   1.314  1.00  0.00     0.073 C 
ATOM      8  O   UNL     1       5.683  -6.100   1.002  1.00  0.00    -0.545 OA
ATOM      9  O   UNL     1       7.073  -5.358   2.657  1.00  0.00    -0.545 OA
ENDBRANCH   1   7
TORSDOF 1
ENDMDL
MODEL 8
REMARK VINA RESULT:    -3.394     11.321     12.027
REMARK INTER + INTRA:          -3.611
REMARK INTER:                  -3.587
REMARK INTRA:                  -0.024
REMARK UNBOUND:                -0.019
REMARK SMILES O=C([O-])c1cccnc1
REMARK SMILES IDX 4 1 5 2 9 3 6 4 8 5 7 6 2 7 1 8 3 9
REMARK H PARENT
REMARK Flexibility Score: inf
ROOT
ATOM      1  C   UNL     1      -5.710  -3.550   5.809  1.00  0.00     0.016 A 
ATOM      2  C   UNL     1      -6.615  -4.402   5.155  1.00  0.00     0.013 A 
ATOM      3  C   UNL     1      -4.501  -4.094   6.280  1.00  0.00     0.120 A 
ATOM      4  C   UNL     1      -6.308  -5.754   4.985  1.00  0.00     0.021 A 
ATOM      5  N   UNL     1      -4.227  -5.414   6.101  1.00  0.00    -0.264 NA
ATOM      6  C   UNL     1      -5.097  -6.247   5.471  1.00  0.00     0.111 A 
ENDROOT
BRANCH   1   7
ATOM      7  C   UNL     1      -6.024  -2.117   5.995  1.00  0.00     0.073 C 
ATOM      8  O   UNL     1      -7.089  -1.629   5.532  1.00  0.00    -0.545 OA
ATOM      9  O   UNL     1      -5.146  -1.288   6.684  1.00  0.00    -0.545 OA
ENDBRANCH   1   7
TORSDOF 1
ENDMDL
MODEL 9
REMARK VINA RESULT:    -3.384      3.288      4.061
REMARK INTER + INTRA:          -3.601
REMARK INTER:                  -3.583
REMARK INTRA:                  -0.018
REMARK UNBOUND:                -0.019
REMARK SMILES O=C([O-])c1cccnc1
REMARK SMILES IDX 4 1 5 2 9 3 6 4 8 5 7 6 2 7 1 8 3 9
REMARK H PARENT
REMARK Flexibility Score: inf
ROOT
ATOM      1  C   UNL     1       0.421   8.180   4.269  1.00  0.00     0.016 A 
ATOM      2  C   UNL     1      -0.554   8.312   3.267  1.00  0.00     0.013 A 
ATOM      3  C   UNL     1       0.793   6.886   4.673  1.00  0.00     0.120 A 
ATOM      4  C   UNL     1      -1.132   7.176   2.697  1.00  0.00     0.021 A 
ATOM      5  N   UNL     1       0.215   5.796   4.101  1.00  0.00    -0.264 NA
ATOM      6  C   UNL     1      -0.731   5.913   3.132  1.00  0.00     0.111 A 
ENDROOT
BRANCH   1   7
ATOM      7  C   UNL     1       1.040   9.377   4.881  1.00  0.00     0.073 C 
ATOM      8  O   UNL     1       0.327  10.248   5.446  1.00  0.00    -0.545 OA
ATOM      9  O   UNL     1       2.417   9.554   4.840  1.00  0.00    -0.545 OA
ENDBRANCH   1   7
TORSDOF 1
ENDMDL
