MODEL 1
REMARK VINA RESULT:    -6.676      0.000      0.000
REMARK INTER + INTRA:         -10.788
REMARK INTER:                  -9.018
REMARK INTRA:                  -1.769
REMARK UNBOUND:                -1.769
REMARK SMILES CC[C@H](CC[C@@H](C)[C@@H]1CC[C@@H]2[C@H]3CC(=O)C4=CC(=O)CC[C@]4(C)[C@@H]3CC[C@@]21C)C(C)C
REMARK SMILES IDX 4 1 3 2 2 3 1 4 29 5 30 6 31 7 5 8 6 9 7 10 8 11 9 12 27 13
REMARK SMILES IDX 10 14 11 15 26 16 28 17 12 18 25 19 24 20 13 21 22 22 14 23
REMARK SMILES IDX 16 24 21 25 23 26 15 27 17 28 20 29 18 30 19 31
REMARK H PARENT
REMARK Flexibility Score: inf
ROOT
ATOM      1  C   UNL     1     -30.204  20.459  23.501  1.00  0.00     0.004 C 
ENDROOT
BRANCH   1   2
ATOM      2  C   UNL     1     -28.902  19.989  24.216  1.00  0.00    -0.009 C 
BRANCH   2   3
ATOM      3  C   UNL     1     -27.630  20.704  23.660  1.00  0.00     0.000 C 
ATOM      4  C   UNL     1     -27.868  21.994  22.859  1.00  0.00     0.004 C 
ENDBRANCH   2   3
BRANCH   2   5
ATOM      5  C   UNL     1     -28.982  19.938  25.781  1.00  0.00    -0.014 C 
ATOM      6  C   UNL     1     -29.677  21.194  26.342  1.00  0.00     0.007 C 
ATOM      7  C   UNL     1     -27.594  19.827  26.438  1.00  0.00     0.007 C 
ENDBRANCH   2   5
ENDBRANCH   1   2
BRANCH   1   8
ATOM      8  C   UNL     1     -31.279  19.374  23.303  1.00  0.00     0.004 C 
BRANCH   8   9
ATOM      9  C   UNL     1     -32.247  19.188  24.504  1.00  0.00    -0.011 C 
ATOM     10  C   UNL     1     -33.455  20.139  24.401  1.00  0.00     0.008 C 
BRANCH   9  11
ATOM     11  C   UNL     1     -32.608  17.679  24.777  1.00  0.00    -0.002 C 
ATOM     12  C   UNL     1     -34.044  17.378  25.198  1.00  0.00     0.005 C 
ATOM     13  C   UNL     1     -31.726  16.913  25.812  1.00  0.00    -0.026 C 
ATOM     14  C   UNL     1     -34.011  15.925  25.635  1.00  0.00     0.005 C 
ATOM     15  C   UNL     1     -32.582  15.643  26.150  1.00  0.00    -0.001 C 
ATOM     16  C   UNL     1     -31.467  17.737  27.105  1.00  0.00     0.007 C 
ATOM     17  C   UNL     1     -30.375  16.542  25.143  1.00  0.00     0.012 C 
ATOM     18  C   UNL     1     -32.598  15.234  27.661  1.00  0.00     0.004 C 
ATOM     19  C   UNL     1     -30.805  16.935  28.248  1.00  0.00     0.005 C 
ATOM     20  C   UNL     1     -31.198  15.424  28.299  1.00  0.00     0.003 C 
ATOM     21  C   UNL     1     -33.071  13.779  27.801  1.00  0.00     0.085 C 
ATOM     22  C   UNL     1     -30.970  14.670  29.707  1.00  0.00    -0.000 C 
ATOM     23  C   UNL     1     -33.217  13.437  29.241  1.00  0.00     0.159 C 
ATOM     24  C   UNL     1     -32.240  13.966  30.218  1.00  0.00     0.005 C 
ATOM     25  C   UNL     1     -30.455  15.632  30.829  1.00  0.00     0.020 C 
ATOM     26  C   UNL     1     -29.908  13.559  29.485  1.00  0.00     0.017 C 
ATOM     27  O   UNL     1     -34.156  12.674  29.602  1.00  0.00    -0.295 OA
ATOM     28  C   UNL     1     -32.412  13.699  31.530  1.00  0.00     0.055 C 
ATOM     29  C   UNL     1     -30.241  14.938  32.179  1.00  0.00     0.081 C 
ATOM     30  C   UNL     1     -31.447  14.135  32.553  1.00  0.00     0.156 C 
ATOM     31  O   UNL     1     -31.621  13.794  33.754  1.00  0.00    -0.295 OA
ENDBRANCH   9  11
ENDBRANCH   8   9
ENDBRANCH   1   8
TORSDOF 6
ENDMDL
MODEL 2
REMARK VINA RESULT:    -6.368      3.678      7.056
REMARK INTER + INTRA:         -10.371
REMARK INTER:                  -8.703
REMARK INTRA:                  -1.668
REMARK UNBOUND:                -1.769
REMARK SMILES CC[C@H](CC[C@@H](C)[C@@H]1CC[C@@H]2[C@H]3CC(=O)C4=CC(=O)CC[C@]4(C)[C@@H]3CC[C@@]21C)C(C)C
REMARK SMILES IDX 4 1 3 2 2 3 1 4 29 5 30 6 31 7 5 8 6 9 7 10 8 11 9 12 27 13
REMARK SMILES IDX 10 14 11 15 26 16 28 17 12 18 25 19 24 20 13 21 22 22 14 23
REMARK SMILES IDX 16 24 21 25 23 26 15 27 17 28 20 29 18 30 19 31
REMARK H PARENT
REMARK Flexibility Score: inf
ROOT
ATOM      1  C   UNL     1     -33.228  14.661  24.252  1.00  0.00     0.004 C 
ENDROOT
BRANCH   1   2
ATOM      2  C   UNL     1     -32.931  14.613  25.781  1.00  0.00    -0.009 C 
BRANCH   2   3
ATOM      3  C   UNL     1     -31.450  14.221  26.084  1.00  0.00     0.000 C 
ATOM      4  C   UNL     1     -30.740  13.364  25.025  1.00  0.00     0.004 C 
ENDBRANCH   2   3
BRANCH   2   5
ATOM      5  C   UNL     1     -33.455  15.842  26.601  1.00  0.00    -0.014 C 
ATOM      6  C   UNL     1     -32.849  15.861  28.018  1.00  0.00     0.007 C 
ATOM      7  C   UNL     1     -34.989  15.847  26.738  1.00  0.00     0.007 C 
ENDBRANCH   2   5
ENDBRANCH   1   2
BRANCH   1   8
ATOM      8  C   UNL     1     -33.070  16.043  23.590  1.00  0.00     0.004 C 
BRANCH   8   9
ATOM      9  C   UNL     1     -31.632  16.370  23.099  1.00  0.00    -0.011 C 
ATOM     10  C   UNL     1     -31.312  15.642  21.781  1.00  0.00     0.008 C 
BRANCH   9  11
ATOM     11  C   UNL     1     -31.317  17.914  23.102  1.00  0.00    -0.002 C 
ATOM     12  C   UNL     1     -29.954  18.341  22.568  1.00  0.00     0.005 C 
ATOM     13  C   UNL     1     -31.460  18.666  24.462  1.00  0.00    -0.026 C 
ATOM     14  C   UNL     1     -29.846  19.809  22.939  1.00  0.00     0.005 C 
ATOM     15  C   UNL     1     -30.693  20.011  24.216  1.00  0.00    -0.001 C 
ATOM     16  C   UNL     1     -30.810  17.895  25.645  1.00  0.00     0.007 C 
ATOM     17  C   UNL     1     -32.967  18.902  24.750  1.00  0.00     0.012 C 
ATOM     18  C   UNL     1     -29.804  20.499  25.409  1.00  0.00     0.004 C 
ATOM     19  C   UNL     1     -30.717  18.704  26.957  1.00  0.00     0.005 C 
ATOM     20  C   UNL     1     -30.511  20.241  26.765  1.00  0.00     0.003 C 
ATOM     21  C   UNL     1     -29.476  21.990  25.238  1.00  0.00     0.085 C 
ATOM     22  C   UNL     1     -29.908  21.049  28.025  1.00  0.00    -0.000 C 
ATOM     23  C   UNL     1     -28.522  22.417  26.296  1.00  0.00     0.159 C 
ATOM     24  C   UNL     1     -28.657  21.870  27.663  1.00  0.00     0.005 C 
ATOM     25  C   UNL     1     -29.552  20.111  29.227  1.00  0.00     0.020 C 
ATOM     26  C   UNL     1     -30.984  22.066  28.495  1.00  0.00     0.017 C 
ATOM     27  O   UNL     1     -27.628  23.264  26.016  1.00  0.00    -0.295 OA
ATOM     28  C   UNL     1     -27.753  22.216  28.604  1.00  0.00     0.055 C 
ATOM     29  C   UNL     1     -28.970  20.858  30.432  1.00  0.00     0.081 C 
ATOM     30  C   UNL     1     -27.861  21.765  30.001  1.00  0.00     0.156 C 
ATOM     31  O   UNL     1     -27.028  22.180  30.852  1.00  0.00    -0.295 OA
ENDBRANCH   9  11
ENDBRANCH   8   9
ENDBRANCH   1   8
TORSDOF 6
ENDMDL
MODEL 3
REMARK VINA RESULT:    -6.335      5.338      8.738
REMARK INTER + INTRA:         -10.327
REMARK INTER:                  -9.060
REMARK INTRA:                  -1.267
REMARK UNBOUND:                -1.769
REMARK SMILES CC[C@H](CC[C@@H](C)[C@@H]1CC[C@@H]2[C@H]3CC(=O)C4=CC(=O)CC[C@]4(C)[C@@H]3CC[C@@]21C)C(C)C
REMARK SMILES IDX 4 1 3 2 2 3 1 4 29 5 30 6 31 7 5 8 6 9 7 10 8 11 9 12 27 13
REMARK SMILES IDX 10 14 11 15 26 16 28 17 12 18 25 19 24 20 13 21 22 22 14 23
REMARK SMILES IDX 16 24 21 25 23 26 15 27 17 28 20 29 18 30 19 31
REMARK H PARENT
REMARK Flexibility Score: inf
ROOT
ATOM      1  C   UNL     1     -32.198  23.135  32.098  1.00  0.00     0.004 C 
ENDROOT
BRANCH   1   2
ATOM      2  C   UNL     1     -33.095  24.407  32.168  1.00  0.00    -0.009 C 
BRANCH   2   3
ATOM      3  C   UNL     1     -33.118  25.190  30.817  1.00  0.00     0.000 C 
ATOM      4  C   UNL     1     -34.484  25.729  30.364  1.00  0.00     0.004 C 
ENDBRANCH   2   3
BRANCH   2   5
ATOM      5  C   UNL     1     -34.507  24.192  32.814  1.00  0.00    -0.014 C 
ATOM      6  C   UNL     1     -34.656  25.017  34.107  1.00  0.00     0.007 C 
ATOM      7  C   UNL     1     -34.780  22.716  33.156  1.00  0.00     0.007 C 
ENDBRANCH   2   5
ENDBRANCH   1   2
BRANCH   1   8
ATOM      8  C   UNL     1     -30.726  23.340  32.505  1.00  0.00     0.004 C 
BRANCH   8   9
ATOM      9  C   UNL     1     -29.686  22.770  31.501  1.00  0.00    -0.011 C 
ATOM     10  C   UNL     1     -28.307  22.595  32.163  1.00  0.00     0.008 C 
BRANCH   9  11
ATOM     11  C   UNL     1     -30.215  21.510  30.717  1.00  0.00    -0.002 C 
ATOM     12  C   UNL     1     -29.506  20.185  30.982  1.00  0.00     0.005 C 
ATOM     13  C   UNL     1     -30.280  21.617  29.161  1.00  0.00    -0.026 C 
ATOM     14  C   UNL     1     -30.045  19.249  29.915  1.00  0.00     0.005 C 
ATOM     15  C   UNL     1     -30.423  20.125  28.700  1.00  0.00    -0.001 C 
ATOM     16  C   UNL     1     -28.993  22.239  28.549  1.00  0.00     0.007 C 
ATOM     17  C   UNL     1     -31.517  22.468  28.767  1.00  0.00     0.012 C 
ATOM     18  C   UNL     1     -29.579  19.734  27.440  1.00  0.00     0.004 C 
ATOM     19  C   UNL     1     -28.912  22.146  27.009  1.00  0.00     0.005 C 
ATOM     20  C   UNL     1     -29.586  20.878  26.394  1.00  0.00     0.003 C 
ATOM     21  C   UNL     1     -30.125  18.432  26.833  1.00  0.00     0.085 C 
ATOM     22  C   UNL     1     -29.113  20.461  24.909  1.00  0.00    -0.000 C 
ATOM     23  C   UNL     1     -29.241  17.990  25.722  1.00  0.00     0.159 C 
ATOM     24  C   UNL     1     -28.640  18.999  24.823  1.00  0.00     0.005 C 
ATOM     25  C   UNL     1     -27.972  21.381  24.360  1.00  0.00     0.020 C 
ATOM     26  C   UNL     1     -30.342  20.584  23.966  1.00  0.00     0.017 C 
ATOM     27  O   UNL     1     -29.042  16.756  25.545  1.00  0.00    -0.295 OA
ATOM     28  C   UNL     1     -27.792  18.595  23.853  1.00  0.00     0.055 C 
ATOM     29  C   UNL     1     -27.501  20.997  22.952  1.00  0.00     0.081 C 
ATOM     30  C   UNL     1     -27.208  19.532  22.880  1.00  0.00     0.156 C 
ATOM     31  O   UNL     1     -26.480  19.088  21.951  1.00  0.00    -0.295 OA
ENDBRANCH   9  11
ENDBRANCH   8   9
ENDBRANCH   1   8
TORSDOF 6
ENDMDL
MODEL 4
REMARK VINA RESULT:    -6.290      3.916      7.139
REMARK INTER + INTRA:         -10.266
REMARK INTER:                  -8.480
REMARK INTRA:                  -1.786
REMARK UNBOUND:                -1.769
REMARK SMILES CC[C@H](CC[C@@H](C)[C@@H]1CC[C@@H]2[C@H]3CC(=O)C4=CC(=O)CC[C@]4(C)[C@@H]3CC[C@@]21C)C(C)C
REMARK SMILES IDX 4 1 3 2 2 3 1 4 29 5 30 6 31 7 5 8 6 9 7 10 8 11 9 12 27 13
REMARK SMILES IDX 10 14 11 15 26 16 28 17 12 18 25 19 24 20 13 21 22 22 14 23
REMARK SMILES IDX 16 24 21 25 23 26 15 27 17 28 20 29 18 30 19 31
REMARK H PARENT
REMARK Flexibility Score: inf
ROOT
ATOM      1  C   UNL     1     -33.469  14.660  24.434  1.00  0.00     0.004 C 
ENDROOT
BRANCH   1   2
ATOM      2  C   UNL     1     -32.868  14.725  25.870  1.00  0.00    -0.009 C 
BRANCH   2   3
ATOM      3  C   UNL     1     -33.965  14.919  26.963  1.00  0.00     0.000 C 
ATOM      4  C   UNL     1     -34.270  16.368  27.374  1.00  0.00     0.004 C 
ENDBRANCH   2   3
BRANCH   2   5
ATOM      5  C   UNL     1     -31.814  13.612  26.203  1.00  0.00    -0.014 C 
ATOM      6  C   UNL     1     -30.383  14.185  26.195  1.00  0.00     0.007 C 
ATOM      7  C   UNL     1     -31.864  12.438  25.208  1.00  0.00     0.007 C 
ENDBRANCH   2   5
ENDBRANCH   1   2
BRANCH   1   8
ATOM      8  C   UNL     1     -33.240  15.910  23.564  1.00  0.00     0.004 C 
BRANCH   8   9
ATOM      9  C   UNL     1     -31.751  16.222  23.249  1.00  0.00    -0.011 C 
ATOM     10  C   UNL     1     -31.259  15.428  22.025  1.00  0.00     0.008 C 
BRANCH   9  11
ATOM     11  C   UNL     1     -31.440  17.766  23.212  1.00  0.00    -0.002 C 
ATOM     12  C   UNL     1     -30.088  18.185  22.642  1.00  0.00     0.005 C 
ATOM     13  C   UNL     1     -31.559  18.548  24.558  1.00  0.00    -0.026 C 
ATOM     14  C   UNL     1     -29.977  19.661  22.979  1.00  0.00     0.005 C 
ATOM     15  C   UNL     1     -30.800  19.889  24.267  1.00  0.00    -0.001 C 
ATOM     16  C   UNL     1     -30.884  17.804  25.745  1.00  0.00     0.007 C 
ATOM     17  C   UNL     1     -33.061  18.787  24.869  1.00  0.00     0.012 C 
ATOM     18  C   UNL     1     -29.890  20.405  25.432  1.00  0.00     0.004 C 
ATOM     19  C   UNL     1     -30.767  18.643  27.037  1.00  0.00     0.005 C 
ATOM     20  C   UNL     1     -30.569  20.175  26.806  1.00  0.00     0.003 C 
ATOM     21  C   UNL     1     -29.569  21.893  25.221  1.00  0.00     0.085 C 
ATOM     22  C   UNL     1     -29.945  21.012  28.036  1.00  0.00    -0.000 C 
ATOM     23  C   UNL     1     -28.595  22.345  26.251  1.00  0.00     0.159 C 
ATOM     24  C   UNL     1     -28.703  21.828  27.632  1.00  0.00     0.005 C 
ATOM     25  C   UNL     1     -29.563  20.102  29.251  1.00  0.00     0.020 C 
ATOM     26  C   UNL     1     -31.013  22.037  28.505  1.00  0.00     0.017 C 
ATOM     27  O   UNL     1     -27.710  23.188  25.935  1.00  0.00    -0.295 OA
ATOM     28  C   UNL     1     -27.782  22.197  28.548  1.00  0.00     0.055 C 
ATOM     29  C   UNL     1     -28.959  20.877  30.429  1.00  0.00     0.081 C 
ATOM     30  C   UNL     1     -27.862  21.777  29.956  1.00  0.00     0.156 C 
ATOM     31  O   UNL     1     -27.014  22.212  30.781  1.00  0.00    -0.295 OA
ENDBRANCH   9  11
ENDBRANCH   8   9
ENDBRANCH   1   8
TORSDOF 6
ENDMDL
MODEL 5
REMARK VINA RESULT:    -6.140      4.453      7.454
REMARK INTER + INTRA:         -10.063
REMARK INTER:                  -8.361
REMARK INTRA:                  -1.702
REMARK UNBOUND:                -1.769
REMARK SMILES CC[C@H](CC[C@@H](C)[C@@H]1CC[C@@H]2[C@H]3CC(=O)C4=CC(=O)CC[C@]4(C)[C@@H]3CC[C@@]21C)C(C)C
REMARK SMILES IDX 4 1 3 2 2 3 1 4 29 5 30 6 31 7 5 8 6 9 7 10 8 11 9 12 27 13
REMARK SMILES IDX 10 14 11 15 26 16 28 17 12 18 25 19 24 20 13 21 22 22 14 23
REMARK SMILES IDX 16 24 21 25 23 26 15 27 17 28 20 29 18 30 19 31
REMARK H PARENT
REMARK Flexibility Score: inf
ROOT
ATOM      1  C   UNL     1     -29.753  22.746  27.427  1.00  0.00     0.004 C 
ENDROOT
BRANCH   1   2
ATOM      2  C   UNL     1     -30.062  22.731  28.954  1.00  0.00    -0.009 C 
BRANCH   2   3
ATOM      3  C   UNL     1     -31.574  22.975  29.254  1.00  0.00     0.000 C 
ATOM      4  C   UNL     1     -31.924  24.283  29.981  1.00  0.00     0.004 C 
ENDBRANCH   2   3
BRANCH   2   5
ATOM      5  C   UNL     1     -29.429  21.538  29.750  1.00  0.00    -0.014 C 
ATOM      6  C   UNL     1     -30.519  20.590  30.287  1.00  0.00     0.007 C 
ATOM      7  C   UNL     1     -28.579  22.012  30.944  1.00  0.00     0.007 C 
ENDBRANCH   2   5
ENDBRANCH   1   2
BRANCH   1   8
ATOM      8  C   UNL     1     -28.304  22.389  27.041  1.00  0.00     0.004 C 
BRANCH   8   9
ATOM      9  C   UNL     1     -28.122  20.971  26.434  1.00  0.00    -0.011 C 
ATOM     10  C   UNL     1     -27.252  20.082  27.342  1.00  0.00     0.008 C 
BRANCH   9  11
ATOM     11  C   UNL     1     -29.480  20.322  25.968  1.00  0.00    -0.002 C 
ATOM     12  C   UNL     1     -29.994  19.138  26.782  1.00  0.00     0.005 C 
ATOM     13  C   UNL     1     -29.568  19.847  24.484  1.00  0.00    -0.026 C 
ATOM     14  C   UNL     1     -31.138  18.579  25.954  1.00  0.00     0.005 C 
ATOM     15  C   UNL     1     -30.823  18.906  24.477  1.00  0.00    -0.001 C 
ATOM     16  C   UNL     1     -28.309  19.053  24.032  1.00  0.00     0.007 C 
ATOM     17  C   UNL     1     -29.767  21.086  23.571  1.00  0.00     0.012 C 
ATOM     18  C   UNL     1     -30.669  17.597  23.632  1.00  0.00     0.004 C 
ATOM     19  C   UNL     1     -28.452  18.363  22.658  1.00  0.00     0.005 C 
ATOM     20  C   UNL     1     -29.897  17.877  22.317  1.00  0.00     0.003 C 
ATOM     21  C   UNL     1     -32.056  17.003  23.337  1.00  0.00     0.085 C 
ATOM     22  C   UNL     1     -30.023  16.736  21.184  1.00  0.00    -0.000 C 
ATOM     23  C   UNL     1     -31.902  15.691  22.654  1.00  0.00     0.159 C 
ATOM     24  C   UNL     1     -30.823  15.509  21.659  1.00  0.00     0.005 C 
ATOM     25  C   UNL     1     -28.630  16.245  20.666  1.00  0.00     0.020 C 
ATOM     26  C   UNL     1     -30.809  17.338  19.987  1.00  0.00     0.017 C 
ATOM     27  O   UNL     1     -32.716  14.761  22.913  1.00  0.00    -0.295 OA
ATOM     28  C   UNL     1     -30.652  14.299  21.086  1.00  0.00     0.055 C 
ATOM     29  C   UNL     1     -28.726  15.154  19.593  1.00  0.00     0.081 C 
ATOM     30  C   UNL     1     -29.644  14.060  20.040  1.00  0.00     0.156 C 
ATOM     31  O   UNL     1     -29.579  12.928  19.489  1.00  0.00    -0.295 OA
ENDBRANCH   9  11
ENDBRANCH   8   9
ENDBRANCH   1   8
TORSDOF 6
ENDMDL
MODEL 6
REMARK VINA RESULT:    -6.000      6.460     10.287
REMARK INTER + INTRA:          -9.873
REMARK INTER:                  -7.539
REMARK INTRA:                  -2.334
REMARK UNBOUND:                -1.769
REMARK SMILES CC[C@H](CC[C@@H](C)[C@@H]1CC[C@@H]2[C@H]3CC(=O)C4=CC(=O)CC[C@]4(C)[C@@H]3CC[C@@]21C)C(C)C
REMARK SMILES IDX 4 1 3 2 2 3 1 4 29 5 30 6 31 7 5 8 6 9 7 10 8 11 9 12 27 13
REMARK SMILES IDX 10 14 11 15 26 16 28 17 12 18 25 19 24 20 13 21 22 22 14 23
REMARK SMILES IDX 16 24 21 25 23 26 15 27 17 28 20 29 18 30 19 31
REMARK H PARENT
REMARK Flexibility Score: inf
ROOT
ATOM      1  C   UNL     1     -29.132  17.796  25.426  1.00  0.00     0.004 C 
ENDROOT
BRANCH   1   2
ATOM      2  C   UNL     1     -30.439  18.014  24.606  1.00  0.00    -0.009 C 
BRANCH   2   3
ATOM      3  C   UNL     1     -31.486  16.882  24.848  1.00  0.00     0.000 C 
ATOM      4  C   UNL     1     -32.524  16.663  23.736  1.00  0.00     0.004 C 
ENDBRANCH   2   3
BRANCH   2   5
ATOM      5  C   UNL     1     -31.030  19.465  24.668  1.00  0.00    -0.014 C 
ATOM      6  C   UNL     1     -31.005  20.133  23.280  1.00  0.00     0.007 C 
ATOM      7  C   UNL     1     -30.263  20.372  25.648  1.00  0.00     0.007 C 
ENDBRANCH   2   5
ENDBRANCH   1   2
BRANCH   1   8
ATOM      8  C   UNL     1     -27.850  17.611  24.591  1.00  0.00     0.004 C 
BRANCH   8   9
ATOM      9  C   UNL     1     -27.879  18.288  23.194  1.00  0.00    -0.011 C 
ATOM     10  C   UNL     1     -27.074  19.602  23.192  1.00  0.00     0.008 C 
BRANCH   9  11
ATOM     11  C   UNL     1     -27.535  17.295  22.021  1.00  0.00    -0.002 C 
ATOM     12  C   UNL     1     -26.636  17.825  20.908  1.00  0.00     0.005 C 
ATOM     13  C   UNL     1     -28.736  16.633  21.275  1.00  0.00    -0.026 C 
ATOM     14  C   UNL     1     -26.706  16.761  19.827  1.00  0.00     0.005 C 
ATOM     15  C   UNL     1     -28.086  16.078  19.960  1.00  0.00    -0.001 C 
ATOM     16  C   UNL     1     -29.857  17.651  20.922  1.00  0.00     0.007 C 
ATOM     17  C   UNL     1     -29.313  15.497  22.161  1.00  0.00     0.012 C 
ATOM     18  C   UNL     1     -28.938  16.274  18.662  1.00  0.00     0.004 C 
ATOM     19  C   UNL     1     -30.948  17.095  19.980  1.00  0.00     0.005 C 
ATOM     20  C   UNL     1     -30.443  16.037  18.948  1.00  0.00     0.003 C 
ATOM     21  C   UNL     1     -28.434  15.328  17.561  1.00  0.00     0.085 C 
ATOM     22  C   UNL     1     -31.368  15.804  17.647  1.00  0.00    -0.000 C 
ATOM     23  C   UNL     1     -29.153  15.612  16.290  1.00  0.00     0.159 C 
ATOM     24  C   UNL     1     -30.590  15.959  16.327  1.00  0.00     0.005 C 
ATOM     25  C   UNL     1     -32.604  16.764  17.607  1.00  0.00     0.020 C 
ATOM     26  C   UNL     1     -31.884  14.339  17.685  1.00  0.00     0.017 C 
ATOM     27  O   UNL     1     -28.531  15.521  15.195  1.00  0.00    -0.295 OA
ATOM     28  C   UNL     1     -31.223  16.273  15.176  1.00  0.00     0.055 C 
ATOM     29  C   UNL     1     -33.492  16.566  16.373  1.00  0.00     0.081 C 
ATOM     30  C   UNL     1     -32.664  16.564  15.127  1.00  0.00     0.156 C 
ATOM     31  O   UNL     1     -33.215  16.778  14.013  1.00  0.00    -0.295 OA
ENDBRANCH   9  11
ENDBRANCH   8   9
ENDBRANCH   1   8
TORSDOF 6
ENDMDL
MODEL 7
REMARK VINA RESULT:    -6.000      1.903      3.360
REMARK INTER + INTRA:          -9.873
REMARK INTER:                  -8.749
REMARK INTRA:                  -1.124
REMARK UNBOUND:                -1.769
REMARK SMILES CC[C@H](CC[C@@H](C)[C@@H]1CC[C@@H]2[C@H]3CC(=O)C4=CC(=O)CC[C@]4(C)[C@@H]3CC[C@@]21C)C(C)C
REMARK SMILES IDX 4 1 3 2 2 3 1 4 29 5 30 6 31 7 5 8 6 9 7 10 8 11 9 12 27 13
REMARK SMILES IDX 10 14 11 15 26 16 28 17 12 18 25 19 24 20 13 21 22 22 14 23
REMARK SMILES IDX 16 24 21 25 23 26 15 27 17 28 20 29 18 30 19 31
REMARK H PARENT
REMARK Flexibility Score: inf
ROOT
ATOM      1  C   UNL     1     -28.307  20.801  25.191  1.00  0.00     0.004 C 
ENDROOT
BRANCH   1   2
ATOM      2  C   UNL     1     -28.604  20.923  26.715  1.00  0.00    -0.009 C 
BRANCH   2   3
ATOM      3  C   UNL     1     -28.093  22.273  27.311  1.00  0.00     0.000 C 
ATOM      4  C   UNL     1     -27.037  22.172  28.422  1.00  0.00     0.004 C 
ENDBRANCH   2   3
BRANCH   2   5
ATOM      5  C   UNL     1     -30.061  20.537  27.144  1.00  0.00    -0.014 C 
ATOM      6  C   UNL     1     -30.739  21.694  27.905  1.00  0.00     0.007 C 
ATOM      7  C   UNL     1     -30.100  19.288  28.043  1.00  0.00     0.007 C 
ENDBRANCH   2   5
ENDBRANCH   1   2
BRANCH   1   8
ATOM      8  C   UNL     1     -29.466  21.200  24.257  1.00  0.00     0.004 C 
BRANCH   8   9
ATOM      9  C   UNL     1     -29.810  20.153  23.161  1.00  0.00    -0.011 C 
ATOM     10  C   UNL     1     -28.638  19.182  22.928  1.00  0.00     0.008 C 
BRANCH   9  11
ATOM     11  C   UNL     1     -31.210  19.467  23.384  1.00  0.00    -0.002 C 
ATOM     12  C   UNL     1     -32.145  20.119  24.398  1.00  0.00     0.005 C 
ATOM     13  C   UNL     1     -31.207  17.954  23.768  1.00  0.00    -0.026 C 
ATOM     14  C   UNL     1     -33.264  19.110  24.583  1.00  0.00     0.005 C 
ATOM     15  C   UNL     1     -32.658  17.715  24.314  1.00  0.00    -0.001 C 
ATOM     16  C   UNL     1     -30.165  17.618  24.872  1.00  0.00     0.007 C 
ATOM     17  C   UNL     1     -30.919  17.113  22.496  1.00  0.00     0.012 C 
ATOM     18  C   UNL     1     -32.749  16.806  25.585  1.00  0.00     0.004 C 
ATOM     19  C   UNL     1     -30.289  16.191  25.450  1.00  0.00     0.005 C 
ATOM     20  C   UNL     1     -31.745  15.628  25.495  1.00  0.00     0.003 C 
ATOM     21  C   UNL     1     -34.187  16.289  25.753  1.00  0.00     0.085 C 
ATOM     22  C   UNL     1     -32.014  14.410  26.519  1.00  0.00    -0.000 C 
ATOM     23  C   UNL     1     -34.303  15.540  27.033  1.00  0.00     0.159 C 
ATOM     24  C   UNL     1     -33.182  14.686  27.482  1.00  0.00     0.005 C 
ATOM     25  C   UNL     1     -30.750  14.047  27.368  1.00  0.00     0.020 C 
ATOM     26  C   UNL     1     -32.418  13.165  25.681  1.00  0.00     0.017 C 
ATOM     27  O   UNL     1     -35.371  15.622  27.701  1.00  0.00    -0.295 OA
ATOM     28  C   UNL     1     -33.270  14.056  28.673  1.00  0.00     0.055 C 
ATOM     29  C   UNL     1     -30.985  12.896  28.353  1.00  0.00     0.081 C 
ATOM     30  C   UNL     1     -32.225  13.139  29.155  1.00  0.00     0.156 C 
ATOM     31  O   UNL     1     -32.395  12.522  30.241  1.00  0.00    -0.295 OA
ENDBRANCH   9  11
ENDBRANCH   8   9
ENDBRANCH   1   8
TORSDOF 6
ENDMDL
MODEL 8
REMARK VINA RESULT:    -5.964      3.982      5.900
REMARK INTER + INTRA:          -9.826
REMARK INTER:                  -7.955
REMARK INTRA:                  -1.871
REMARK UNBOUND:                -1.769
REMARK SMILES CC[C@H](CC[C@@H](C)[C@@H]1CC[C@@H]2[C@H]3CC(=O)C4=CC(=O)CC[C@]4(C)[C@@H]3CC[C@@]21C)C(C)C
REMARK SMILES IDX 4 1 3 2 2 3 1 4 29 5 30 6 31 7 5 8 6 9 7 10 8 11 9 12 27 13
REMARK SMILES IDX 10 14 11 15 26 16 28 17 12 18 25 19 24 20 13 21 22 22 14 23
REMARK SMILES IDX 16 24 21 25 23 26 15 27 17 28 20 29 18 30 19 31
REMARK H PARENT
REMARK Flexibility Score: inf
ROOT
ATOM      1  C   UNL     1     -28.012  17.100  19.289  1.00  0.00     0.004 C 
ENDROOT
BRANCH   1   2
ATOM      2  C   UNL     1     -28.457  15.930  18.361  1.00  0.00    -0.009 C 
BRANCH   2   3
ATOM      3  C   UNL     1     -27.850  14.561  18.802  1.00  0.00     0.000 C 
ATOM      4  C   UNL     1     -28.259  13.335  17.971  1.00  0.00     0.004 C 
ENDBRANCH   2   3
BRANCH   2   5
ATOM      5  C   UNL     1     -29.990  15.883  18.037  1.00  0.00    -0.014 C 
ATOM      6  C   UNL     1     -30.237  15.949  16.517  1.00  0.00     0.007 C 
ATOM      7  C   UNL     1     -30.768  17.037  18.697  1.00  0.00     0.007 C 
ENDBRANCH   2   5
ENDBRANCH   1   2
BRANCH   1   8
ATOM      8  C   UNL     1     -26.952  16.739  20.347  1.00  0.00     0.004 C 
BRANCH   8   9
ATOM      9  C   UNL     1     -27.408  16.934  21.820  1.00  0.00    -0.011 C 
ATOM     10  C   UNL     1     -26.561  18.006  22.530  1.00  0.00     0.008 C 
BRANCH   9  11
ATOM     11  C   UNL     1     -28.966  17.112  21.963  1.00  0.00    -0.002 C 
ATOM     12  C   UNL     1     -29.454  18.343  22.720  1.00  0.00     0.005 C 
ATOM     13  C   UNL     1     -29.763  15.924  22.590  1.00  0.00    -0.026 C 
ATOM     14  C   UNL     1     -30.939  18.101  22.918  1.00  0.00     0.005 C 
ATOM     15  C   UNL     1     -31.141  16.570  22.967  1.00  0.00    -0.001 C 
ATOM     16  C   UNL     1     -29.080  15.350  23.863  1.00  0.00     0.007 C 
ATOM     17  C   UNL     1     -29.918  14.806  21.524  1.00  0.00     0.012 C 
ATOM     18  C   UNL     1     -31.729  16.124  24.348  1.00  0.00     0.004 C 
ATOM     19  C   UNL     1     -29.946  14.340  24.648  1.00  0.00     0.005 C 
ATOM     20  C   UNL     1     -31.483  14.612  24.590  1.00  0.00     0.003 C 
ATOM     21  C   UNL     1     -33.229  16.451  24.404  1.00  0.00     0.085 C 
ATOM     22  C   UNL     1     -32.376  13.943  25.755  1.00  0.00    -0.000 C 
ATOM     23  C   UNL     1     -33.755  16.153  25.763  1.00  0.00     0.159 C 
ATOM     24  C   UNL     1     -33.257  14.968  26.494  1.00  0.00     0.005 C 
ATOM     25  C   UNL     1     -31.511  13.182  26.815  1.00  0.00     0.020 C 
ATOM     26  C   UNL     1     -33.344  12.928  25.089  1.00  0.00     0.017 C 
ATOM     27  O   UNL     1     -34.643  16.901  26.259  1.00  0.00    -0.295 OA
ATOM     28  C   UNL     1     -33.695  14.736  27.750  1.00  0.00     0.055 C 
ATOM     29  C   UNL     1     -32.340  12.545  27.937  1.00  0.00     0.081 C 
ATOM     30  C   UNL     1     -33.295  13.543  28.513  1.00  0.00     0.156 C 
ATOM     31  O   UNL     1     -33.793  13.341  29.654  1.00  0.00    -0.295 OA
ENDBRANCH   9  11
ENDBRANCH   8   9
ENDBRANCH   1   8
TORSDOF 6
ENDMDL
MODEL 9
REMARK VINA RESULT:    -5.953      4.466      7.933
REMARK INTER + INTRA:          -9.810
REMARK INTER:                  -7.558
REMARK INTRA:                  -2.252
REMARK UNBOUND:                -1.769
REMARK SMILES CC[C@H](CC[C@@H](C)[C@@H]1CC[C@@H]2[C@H]3CC(=O)C4=CC(=O)CC[C@]4(C)[C@@H]3CC[C@@]21C)C(C)C
REMARK SMILES IDX 4 1 3 2 2 3 1 4 29 5 30 6 31 7 5 8 6 9 7 10 8 11 9 12 27 13
REMARK SMILES IDX 10 14 11 15 26 16 28 17 12 18 25 19 24 20 13 21 22 22 14 23
REMARK SMILES IDX 16 24 21 25 23 26 15 27 17 28 20 29 18 30 19 31
REMARK H PARENT
REMARK Flexibility Score: inf
ROOT
ATOM      1  C   UNL     1     -30.497  21.367  28.968  1.00  0.00     0.004 C 
ENDROOT
BRANCH   1   2
ATOM      2  C   UNL     1     -29.641  21.075  30.237  1.00  0.00    -0.009 C 
BRANCH   2   3
ATOM      3  C   UNL     1     -29.375  19.549  30.433  1.00  0.00     0.000 C 
ATOM      4  C   UNL     1     -30.128  18.598  29.489  1.00  0.00     0.004 C 
ENDBRANCH   2   3
BRANCH   2   5
ATOM      5  C   UNL     1     -28.372  21.980  30.408  1.00  0.00    -0.014 C 
ATOM      6  C   UNL     1     -27.103  21.253  29.922  1.00  0.00     0.007 C 
ATOM      7  C   UNL     1     -28.147  22.407  31.870  1.00  0.00     0.007 C 
ENDBRANCH   2   5
ENDBRANCH   1   2
BRANCH   1   8
ATOM      8  C   UNL     1     -29.983  22.510  28.072  1.00  0.00     0.004 C 
BRANCH   8   9
ATOM      9  C   UNL     1     -29.410  22.056  26.701  1.00  0.00    -0.011 C 
ATOM     10  C   UNL     1     -28.240  22.955  26.259  1.00  0.00     0.008 C 
BRANCH   9  11
ATOM     11  C   UNL     1     -29.124  20.509  26.635  1.00  0.00    -0.002 C 
ATOM     12  C   UNL     1     -27.667  20.082  26.480  1.00  0.00     0.005 C 
ATOM     13  C   UNL     1     -29.892  19.689  25.551  1.00  0.00    -0.026 C 
ATOM     14  C   UNL     1     -27.740  18.594  26.184  1.00  0.00     0.005 C 
ATOM     15  C   UNL     1     -29.091  18.343  25.478  1.00  0.00    -0.001 C 
ATOM     16  C   UNL     1     -29.889  20.384  24.160  1.00  0.00     0.007 C 
ATOM     17  C   UNL     1     -31.353  19.470  26.029  1.00  0.00     0.012 C 
ATOM     18  C   UNL     1     -28.874  17.776  24.035  1.00  0.00     0.004 C 
ATOM     19  C   UNL     1     -30.426  19.505  23.009  1.00  0.00     0.005 C 
ATOM     20  C   UNL     1     -30.142  17.977  23.166  1.00  0.00     0.003 C 
ATOM     21  C   UNL     1     -28.494  16.289  24.112  1.00  0.00     0.085 C 
ATOM     22  C   UNL     1     -30.207  17.092  21.819  1.00  0.00    -0.000 C 
ATOM     23  C   UNL     1     -28.155  15.788  22.754  1.00  0.00     0.159 C 
ATOM     24  C   UNL     1     -28.929  16.265  21.587  1.00  0.00     0.005 C 
ATOM     25  C   UNL     1     -30.472  17.958  20.542  1.00  0.00     0.020 C 
ATOM     26  C   UNL     1     -31.370  16.074  21.974  1.00  0.00     0.017 C 
ATOM     27  O   UNL     1     -27.231  14.938  22.622  1.00  0.00    -0.295 OA
ATOM     28  C   UNL     1     -28.579  15.851  20.350  1.00  0.00     0.055 C 
ATOM     29  C   UNL     1     -30.529  17.137  19.248  1.00  0.00     0.081 C 
ATOM     30  C   UNL     1     -29.342  16.231  19.150  1.00  0.00     0.156 C 
ATOM     31  O   UNL     1     -29.012  15.755  18.030  1.00  0.00    -0.295 OA
ENDBRANCH   9  11
ENDBRANCH   8   9
ENDBRANCH   1   8
TORSDOF 6
ENDMDL
