MODEL 1
REMARK VINA RESULT:    -3.881      0.000      0.000
REMARK INTER + INTRA:          -5.003
REMARK INTER:                  -4.789
REMARK INTRA:                  -0.215
REMARK UNBOUND:                -0.215
REMARK SMILES CCCCCC(=O)[O-]
REMARK SMILES IDX 4 1 5 2 6 3 7 4 8 5 3 6 2 7 1 8
REMARK H PARENT
REMARK Flexibility Score: inf
ROOT
ATOM      1  C   UNL     1      -1.229   1.245   5.194  1.00  0.00     0.006 C 
ENDROOT
BRANCH   1   2
ATOM      2  C   UNL     1       0.199   0.825   5.555  1.00  0.00     0.053 C 
BRANCH   2   3
ATOM      3  C   UNL     1       0.772   1.742   6.589  1.00  0.00     0.041 C 
ATOM      4  O   UNL     1       1.055   2.932   6.292  1.00  0.00    -0.550 OA
ATOM      5  O   UNL     1       0.947   1.296   7.892  1.00  0.00    -0.550 OA
ENDBRANCH   2   3
ENDBRANCH   1   2
BRANCH   1   6
ATOM      6  C   UNL     1      -2.159   1.132   6.410  1.00  0.00     0.000 C 
BRANCH   6   7
ATOM      7  C   UNL     1      -2.176  -0.283   7.010  1.00  0.00    -0.003 C 
ATOM      8  C   UNL     1      -2.231  -0.278   8.537  1.00  0.00     0.004 C 
ENDBRANCH   6   7
ENDBRANCH   1   6
TORSDOF 4
ENDMDL
MODEL 2
REMARK VINA RESULT:    -3.855      1.928      2.542
REMARK INTER + INTRA:          -4.971
REMARK INTER:                  -4.758
REMARK INTRA:                  -0.213
REMARK UNBOUND:                -0.215
REMARK SMILES CCCCCC(=O)[O-]
REMARK SMILES IDX 4 1 5 2 6 3 7 4 8 5 3 6 2 7 1 8
REMARK H PARENT
REMARK Flexibility Score: inf
ROOT
ATOM      1  C   UNL     1       0.581   0.343   6.772  1.00  0.00     0.006 C 
ENDROOT
BRANCH   1   2
ATOM      2  C   UNL     1       0.629   0.361   5.242  1.00  0.00     0.053 C 
BRANCH   2   3
ATOM      3  C   UNL     1      -0.114   1.544   4.707  1.00  0.00     0.041 C 
ATOM      4  O   UNL     1      -1.232   1.861   5.191  1.00  0.00    -0.550 OA
ATOM      5  O   UNL     1       0.450   2.324   3.706  1.00  0.00    -0.550 OA
ENDBRANCH   2   3
ENDBRANCH   1   2
BRANCH   1   6
ATOM      6  C   UNL     1       0.258  -1.064   7.296  1.00  0.00     0.000 C 
BRANCH   6   7
ATOM      7  C   UNL     1      -1.251  -1.302   7.455  1.00  0.00    -0.003 C 
ATOM      8  C   UNL     1      -1.977  -0.109   8.076  1.00  0.00     0.004 C 
ENDBRANCH   6   7
ENDBRANCH   1   6
TORSDOF 4
ENDMDL
MODEL 3
REMARK VINA RESULT:    -3.820      1.856      2.596
REMARK INTER + INTRA:          -4.927
REMARK INTER:                  -4.658
REMARK INTRA:                  -0.270
REMARK UNBOUND:                -0.215
REMARK SMILES CCCCCC(=O)[O-]
REMARK SMILES IDX 4 1 5 2 6 3 7 4 8 5 3 6 2 7 1 8
REMARK H PARENT
REMARK Flexibility Score: inf
ROOT
ATOM      1  C   UNL     1       0.246   1.410   7.278  1.00  0.00     0.006 C 
ENDROOT
BRANCH   1   2
ATOM      2  C   UNL     1       1.104   2.109   6.219  1.00  0.00     0.053 C 
BRANCH   2   3
ATOM      3  C   UNL     1       0.874   1.501   4.871  1.00  0.00     0.041 C 
ATOM      4  O   UNL     1       1.009   0.260   4.705  1.00  0.00    -0.550 OA
ATOM      5  O   UNL     1       0.464   2.298   3.811  1.00  0.00    -0.550 OA
ENDBRANCH   2   3
ENDBRANCH   1   2
BRANCH   1   6
ATOM      6  C   UNL     1      -1.231   1.802   7.134  1.00  0.00     0.000 C 
BRANCH   6   7
ATOM      7  C   UNL     1      -2.128   0.605   6.783  1.00  0.00    -0.003 C 
ATOM      8  C   UNL     1      -2.701   0.688   5.369  1.00  0.00     0.004 C 
ENDBRANCH   6   7
ENDBRANCH   1   6
TORSDOF 4
ENDMDL
MODEL 4
REMARK VINA RESULT:    -3.819      2.520      3.135
REMARK INTER + INTRA:          -4.927
REMARK INTER:                  -4.709
REMARK INTRA:                  -0.218
REMARK UNBOUND:                -0.215
REMARK SMILES CCCCCC(=O)[O-]
REMARK SMILES IDX 4 1 5 2 6 3 7 4 8 5 3 6 2 7 1 8
REMARK H PARENT
REMARK Flexibility Score: inf
ROOT
ATOM      1  C   UNL     1       0.618   0.061   5.581  1.00  0.00     0.006 C 
ENDROOT
BRANCH   1   2
ATOM      2  C   UNL     1       0.529   0.206   7.103  1.00  0.00     0.053 C 
BRANCH   2   3
ATOM      3  C   UNL     1       0.203  -1.109   7.738  1.00  0.00     0.041 C 
ATOM      4  O   UNL     1       0.985  -1.615   8.584  1.00  0.00    -0.550 OA
ATOM      5  O   UNL     1      -0.989  -1.752   7.431  1.00  0.00    -0.550 OA
ENDBRANCH   2   3
ENDBRANCH   1   2
BRANCH   1   6
ATOM      6  C   UNL     1      -0.321   1.052   4.878  1.00  0.00     0.000 C 
BRANCH   6   7
ATOM      7  C   UNL     1      -1.542   1.418   5.736  1.00  0.00    -0.003 C 
ATOM      8  C   UNL     1      -2.788   0.615   5.366  1.00  0.00     0.004 C 
ENDBRANCH   6   7
ENDBRANCH   1   6
TORSDOF 4
ENDMDL
MODEL 5
REMARK VINA RESULT:    -3.810      1.847      3.094
REMARK INTER + INTRA:          -4.916
REMARK INTER:                  -4.698
REMARK INTRA:                  -0.218
REMARK UNBOUND:                -0.215
REMARK SMILES CCCCCC(=O)[O-]
REMARK SMILES IDX 4 1 5 2 6 3 7 4 8 5 3 6 2 7 1 8
REMARK H PARENT
REMARK Flexibility Score: inf
ROOT
ATOM      1  C   UNL     1      -1.907  -0.381   7.661  1.00  0.00     0.006 C 
ENDROOT
BRANCH   1   2
ATOM      2  C   UNL     1      -0.876  -1.496   7.469  1.00  0.00     0.053 C 
BRANCH   2   3
ATOM      3  C   UNL     1       0.444  -1.098   8.052  1.00  0.00     0.041 C 
ATOM      4  O   UNL     1       0.925   0.039   7.811  1.00  0.00    -0.550 OA
ATOM      5  O   UNL     1       1.118  -1.966   8.902  1.00  0.00    -0.550 OA
ENDBRANCH   2   3
ENDBRANCH   1   2
BRANCH   1   6
ATOM      6  C   UNL     1      -2.342   0.204   6.309  1.00  0.00     0.000 C 
BRANCH   6   7
ATOM      7  C   UNL     1      -1.562   1.474   5.937  1.00  0.00    -0.003 C 
ATOM      8  C   UNL     1      -0.549   1.240   4.816  1.00  0.00     0.004 C 
ENDBRANCH   6   7
ENDBRANCH   1   6
TORSDOF 4
ENDMDL
MODEL 6
REMARK VINA RESULT:    -3.806      1.961      2.402
REMARK INTER + INTRA:          -4.911
REMARK INTER:                  -4.694
REMARK INTRA:                  -0.217
REMARK UNBOUND:                -0.215
REMARK SMILES CCCCCC(=O)[O-]
REMARK SMILES IDX 4 1 5 2 6 3 7 4 8 5 3 6 2 7 1 8
REMARK H PARENT
REMARK Flexibility Score: inf
ROOT
ATOM      1  C   UNL     1       0.438   0.404   6.960  1.00  0.00     0.006 C 
ENDROOT
BRANCH   1   2
ATOM      2  C   UNL     1       0.595   0.578   5.447  1.00  0.00     0.053 C 
BRANCH   2   3
ATOM      3  C   UNL     1      -0.414   1.549   4.922  1.00  0.00     0.041 C 
ATOM      4  O   UNL     1      -0.072   2.432   4.092  1.00  0.00    -0.550 OA
ATOM      5  O   UNL     1      -1.743   1.448   5.311  1.00  0.00    -0.550 OA
ENDBRANCH   2   3
ENDBRANCH   1   2
BRANCH   1   6
ATOM      6  C   UNL     1       0.308  -1.080   7.332  1.00  0.00     0.000 C 
BRANCH   6   7
ATOM      7  C   UNL     1      -1.150  -1.505   7.564  1.00  0.00    -0.003 C 
ATOM      8  C   UNL     1      -1.962  -0.451   8.317  1.00  0.00     0.004 C 
ENDBRANCH   6   7
ENDBRANCH   1   6
TORSDOF 4
ENDMDL
MODEL 7
REMARK VINA RESULT:    -3.678      1.597      2.138
REMARK INTER + INTRA:          -4.753
REMARK INTER:                  -4.542
REMARK INTRA:                  -0.211
REMARK UNBOUND:                -0.215
REMARK SMILES CCCCCC(=O)[O-]
REMARK SMILES IDX 4 1 5 2 6 3 7 4 8 5 3 6 2 7 1 8
REMARK H PARENT
REMARK Flexibility Score: inf
ROOT
ATOM      1  C   UNL     1      -1.996   1.745   7.343  1.00  0.00     0.006 C 
ENDROOT
BRANCH   1   2
ATOM      2  C   UNL     1      -2.045   1.151   5.932  1.00  0.00     0.053 C 
BRANCH   2   3
ATOM      3  C   UNL     1      -0.708   1.259   5.269  1.00  0.00     0.041 C 
ATOM      4  O   UNL     1      -0.447   2.242   4.528  1.00  0.00    -0.550 OA
ATOM      5  O   UNL     1       0.266   0.299   5.509  1.00  0.00    -0.550 OA
ENDBRANCH   2   3
ENDBRANCH   1   2
BRANCH   1   6
ATOM      6  C   UNL     1      -1.962   0.636   8.405  1.00  0.00     0.000 C 
BRANCH   6   7
ATOM      7  C   UNL     1      -2.361  -0.736   7.840  1.00  0.00    -0.003 C 
ATOM      8  C   UNL     1      -1.262  -1.785   7.999  1.00  0.00     0.004 C 
ENDBRANCH   6   7
ENDBRANCH   1   6
TORSDOF 4
ENDMDL
MODEL 8
REMARK VINA RESULT:    -3.608      2.298      3.041
REMARK INTER + INTRA:          -4.666
REMARK INTER:                  -4.436
REMARK INTRA:                  -0.230
REMARK UNBOUND:                -0.215
REMARK SMILES CCCCCC(=O)[O-]
REMARK SMILES IDX 4 1 5 2 6 3 7 4 8 5 3 6 2 7 1 8
REMARK H PARENT
REMARK Flexibility Score: inf
ROOT
ATOM      1  C   UNL     1      -1.138   0.853   8.148  1.00  0.00     0.006 C 
ENDROOT
BRANCH   1   2
ATOM      2  C   UNL     1      -2.053   1.764   7.323  1.00  0.00     0.053 C 
BRANCH   2   3
ATOM      3  C   UNL     1      -1.916   1.464   5.864  1.00  0.00     0.041 C 
ATOM      4  O   UNL     1      -0.946   1.928   5.210  1.00  0.00    -0.550 OA
ATOM      5  O   UNL     1      -2.835   0.631   5.238  1.00  0.00    -0.550 OA
ENDBRANCH   2   3
ENDBRANCH   1   2
BRANCH   1   6
ATOM      6  C   UNL     1      -1.759  -0.541   8.316  1.00  0.00     0.000 C 
BRANCH   6   7
ATOM      7  C   UNL     1      -0.912  -1.646   7.667  1.00  0.00    -0.003 C 
ATOM      8  C   UNL     1       0.372  -1.114   7.032  1.00  0.00     0.004 C 
ENDBRANCH   6   7
ENDBRANCH   1   6
TORSDOF 4
ENDMDL
MODEL 9
REMARK VINA RESULT:    -3.596      1.498      1.854
REMARK INTER + INTRA:          -4.651
REMARK INTER:                  -4.388
REMARK INTRA:                  -0.263
REMARK UNBOUND:                -0.215
REMARK SMILES CCCCCC(=O)[O-]
REMARK SMILES IDX 4 1 5 2 6 3 7 4 8 5 3 6 2 7 1 8
REMARK H PARENT
REMARK Flexibility Score: inf
ROOT
ATOM      1  C   UNL     1       0.227  -1.076   7.109  1.00  0.00     0.006 C 
ENDROOT
BRANCH   1   2
ATOM      2  C   UNL     1       0.572  -0.021   6.055  1.00  0.00     0.053 C 
BRANCH   2   3
ATOM      3  C   UNL     1       0.388   1.356   6.609  1.00  0.00     0.041 C 
ATOM      4  O   UNL     1      -0.359   2.181   6.022  1.00  0.00    -0.550 OA
ATOM      5  O   UNL     1       1.004   1.712   7.802  1.00  0.00    -0.550 OA
ENDBRANCH   2   3
ENDBRANCH   1   2
BRANCH   1   6
ATOM      6  C   UNL     1      -1.266  -1.035   7.461  1.00  0.00     0.000 C 
BRANCH   6   7
ATOM      7  C   UNL     1      -1.514  -0.767   8.954  1.00  0.00    -0.003 C 
ATOM      8  C   UNL     1      -2.346   0.491   9.200  1.00  0.00     0.004 C 
ENDBRANCH   6   7
ENDBRANCH   1   6
TORSDOF 4
ENDMDL
