MODEL 1
REMARK VINA RESULT:    -4.477      0.000      0.000
REMARK INTER + INTRA:         -16.681
REMARK INTER:                 -11.804
REMARK INTRA:                  -4.877
REMARK UNBOUND:                -4.877
REMARK SMILES CCCCCCCCCCCCCCCCCCCCCCCCCCCCCC(=O)[O-]
REMARK SMILES IDX 16 1 17 2 18 3 19 4 20 5 21 6 22 7 23 8 24 9 25 10 26 11
REMARK SMILES IDX 27 12 28 13 29 14 30 15 31 16 32 17 15 18 14 19 13 20 12 21
REMARK SMILES IDX 11 22 10 23 9 24 8 25 7 26 6 27 5 28 4 29 3 30 2 31 1 32
REMARK H PARENT
REMARK Flexibility Score: inf
ROOT
ATOM      1  C   UNL     1      19.067  63.094  35.025  1.00  0.00     0.000 C 
ENDROOT
BRANCH   1   2
ATOM      2  C   UNL     1      17.715  63.082  35.763  1.00  0.00     0.000 C 
BRANCH   2   3
ATOM      3  C   UNL     1      17.813  63.561  37.226  1.00  0.00     0.000 C 
BRANCH   3   4
ATOM      4  C   UNL     1      19.255  63.740  37.743  1.00  0.00     0.000 C 
BRANCH   4   5
ATOM      5  C   UNL     1      19.390  64.391  39.132  1.00  0.00     0.000 C 
BRANCH   5   6
ATOM      6  C   UNL     1      20.265  65.660  39.185  1.00  0.00     0.000 C 
BRANCH   6   7
ATOM      7  C   UNL     1      19.569  66.904  39.770  1.00  0.00     0.000 C 
BRANCH   7   8
ATOM      8  C   UNL     1      18.099  67.022  39.334  1.00  0.00     0.000 C 
BRANCH   8   9
ATOM      9  C   UNL     1      17.774  68.399  38.721  1.00  0.00     0.000 C 
BRANCH   9  10
ATOM     10  C   UNL     1      17.609  68.387  37.188  1.00  0.00     0.000 C 
BRANCH  10  11
ATOM     11  C   UNL     1      17.767  66.993  36.549  1.00  0.00     0.000 C 
BRANCH  11  12
ATOM     12  C   UNL     1      16.641  66.679  35.548  1.00  0.00     0.000 C 
BRANCH  12  13
ATOM     13  C   UNL     1      16.060  67.942  34.887  1.00  0.00     0.006 C 
BRANCH  13  14
ATOM     14  C   UNL     1      15.482  67.710  33.482  1.00  0.00     0.053 C 
BRANCH  14  15
ATOM     15  C   UNL     1      15.626  68.920  32.611  1.00  0.00     0.041 C 
ATOM     16  O   UNL     1      16.614  69.687  32.752  1.00  0.00    -0.550 OA
ATOM     17  O   UNL     1      14.690  69.178  31.617  1.00  0.00    -0.550 OA
ENDBRANCH  14  15
ENDBRANCH  13  14
ENDBRANCH  12  13
ENDBRANCH  11  12
ENDBRANCH  10  11
ENDBRANCH   9  10
ENDBRANCH   8   9
ENDBRANCH   7   8
ENDBRANCH   6   7
ENDBRANCH   5   6
ENDBRANCH   4   5
ENDBRANCH   3   4
ENDBRANCH   2   3
ENDBRANCH   1   2
BRANCH   1  18
ATOM     18  C   UNL     1      18.912  63.062  33.495  1.00  0.00     0.000 C 
BRANCH  18  19
ATOM     19  C   UNL     1      17.824  62.082  33.023  1.00  0.00     0.000 C 
BRANCH  19  20
ATOM     20  C   UNL     1      16.940  62.674  31.909  1.00  0.00     0.000 C 
BRANCH  20  21
ATOM     21  C   UNL     1      16.306  64.040  32.240  1.00  0.00     0.000 C 
BRANCH  21  22
ATOM     22  C   UNL     1      15.095  63.987  33.195  1.00  0.00     0.000 C 
BRANCH  22  23
ATOM     23  C   UNL     1      13.765  64.469  32.588  1.00  0.00     0.000 C 
BRANCH  23  24
ATOM     24  C   UNL     1      12.537  63.821  33.247  1.00  0.00    -0.000 C 
BRANCH  24  25
ATOM     25  C   UNL     1      11.579  63.260  32.185  1.00  0.00    -0.000 C 
BRANCH  25  26
ATOM     26  C   UNL     1      12.282  62.952  30.852  1.00  0.00    -0.000 C 
BRANCH  26  27
ATOM     27  C   UNL     1      12.790  61.501  30.774  1.00  0.00    -0.000 C 
BRANCH  27  28
ATOM     28  C   UNL     1      11.937  60.531  31.608  1.00  0.00    -0.000 C 
BRANCH  28  29
ATOM     29  C   UNL     1      12.789  59.590  32.478  1.00  0.00    -0.000 C 
BRANCH  29  30
ATOM     30  C   UNL     1      14.083  60.252  32.974  1.00  0.00    -0.000 C 
BRANCH  30  31
ATOM     31  C   UNL     1      13.973  60.757  34.418  1.00  0.00    -0.003 C 
ATOM     32  C   UNL     1      15.220  60.402  35.223  1.00  0.00     0.004 C 
ENDBRANCH  30  31
ENDBRANCH  29  30
ENDBRANCH  28  29
ENDBRANCH  27  28
ENDBRANCH  26  27
ENDBRANCH  25  26
ENDBRANCH  24  25
ENDBRANCH  23  24
ENDBRANCH  22  23
ENDBRANCH  21  22
ENDBRANCH  20  21
ENDBRANCH  19  20
ENDBRANCH  18  19
ENDBRANCH   1  18
TORSDOF 28
ENDMDL
MODEL 2
REMARK VINA RESULT:    -4.454      3.855      9.202
REMARK INTER + INTRA:         -16.621
REMARK INTER:                 -12.147
REMARK INTRA:                  -4.474
REMARK UNBOUND:                -4.877
REMARK SMILES CCCCCCCCCCCCCCCCCCCCCCCCCCCCCC(=O)[O-]
REMARK SMILES IDX 16 1 17 2 18 3 19 4 20 5 21 6 22 7 23 8 24 9 25 10 26 11
REMARK SMILES IDX 27 12 28 13 29 14 30 15 31 16 32 17 15 18 14 19 13 20 12 21
REMARK SMILES IDX 11 22 10 23 9 24 8 25 7 26 6 27 5 28 4 29 3 30 2 31 1 32
REMARK H PARENT
REMARK Flexibility Score: inf
ROOT
ATOM      1  C   UNL     1      15.664  61.678  31.110  1.00  0.00     0.000 C 
ENDROOT
BRANCH   1   2
ATOM      2  C   UNL     1      14.566  62.737  30.887  1.00  0.00     0.000 C 
BRANCH   2   3
ATOM      3  C   UNL     1      13.345  62.198  30.114  1.00  0.00     0.000 C 
BRANCH   3   4
ATOM      4  C   UNL     1      11.983  62.579  30.728  1.00  0.00     0.000 C 
BRANCH   4   5
ATOM      5  C   UNL     1      12.015  63.709  31.774  1.00  0.00     0.000 C 
BRANCH   5   6
ATOM      6  C   UNL     1      11.820  63.262  33.237  1.00  0.00     0.000 C 
BRANCH   6   7
ATOM      7  C   UNL     1      12.967  62.411  33.814  1.00  0.00     0.000 C 
BRANCH   7   8
ATOM      8  C   UNL     1      12.523  60.982  34.173  1.00  0.00     0.000 C 
BRANCH   8   9
ATOM      9  C   UNL     1      13.125  59.923  33.227  1.00  0.00     0.000 C 
BRANCH   9  10
ATOM     10  C   UNL     1      12.079  59.118  32.430  1.00  0.00     0.000 C 
BRANCH  10  11
ATOM     11  C   UNL     1      10.626  59.586  32.646  1.00  0.00     0.000 C 
BRANCH  11  12
ATOM     12  C   UNL     1       9.900  59.871  31.319  1.00  0.00     0.000 C 
BRANCH  12  13
ATOM     13  C   UNL     1       8.368  59.865  31.465  1.00  0.00     0.006 C 
BRANCH  13  14
ATOM     14  C   UNL     1       7.818  58.695  32.297  1.00  0.00     0.053 C 
BRANCH  14  15
ATOM     15  C   UNL     1       6.575  59.074  33.042  1.00  0.00     0.041 C 
ATOM     16  O   UNL     1       6.092  60.230  32.919  1.00  0.00    -0.550 OA
ATOM     17  O   UNL     1       5.928  58.138  33.839  1.00  0.00    -0.550 OA
ENDBRANCH  14  15
ENDBRANCH  13  14
ENDBRANCH  12  13
ENDBRANCH  11  12
ENDBRANCH  10  11
ENDBRANCH   9  10
ENDBRANCH   8   9
ENDBRANCH   7   8
ENDBRANCH   6   7
ENDBRANCH   5   6
ENDBRANCH   4   5
ENDBRANCH   3   4
ENDBRANCH   2   3
ENDBRANCH   1   2
BRANCH   1  18
ATOM     18  C   UNL     1      16.695  62.102  32.168  1.00  0.00     0.000 C 
BRANCH  18  19
ATOM     19  C   UNL     1      16.682  61.200  33.414  1.00  0.00     0.000 C 
BRANCH  19  20
ATOM     20  C   UNL     1      16.786  62.002  34.724  1.00  0.00     0.000 C 
BRANCH  20  21
ATOM     21  C   UNL     1      16.583  63.523  34.573  1.00  0.00     0.000 C 
BRANCH  21  22
ATOM     22  C   UNL     1      17.810  64.388  34.927  1.00  0.00     0.000 C 
BRANCH  22  23
ATOM     23  C   UNL     1      18.392  64.150  36.333  1.00  0.00     0.000 C 
BRANCH  23  24
ATOM     24  C   UNL     1      17.439  64.586  37.456  1.00  0.00    -0.000 C 
BRANCH  24  25
ATOM     25  C   UNL     1      16.967  66.033  37.243  1.00  0.00    -0.000 C 
BRANCH  25  26
ATOM     26  C   UNL     1      18.134  67.022  37.086  1.00  0.00    -0.000 C 
BRANCH  26  27
ATOM     27  C   UNL     1      17.743  68.274  36.279  1.00  0.00    -0.000 C 
BRANCH  27  28
ATOM     28  C   UNL     1      16.397  68.113  35.556  1.00  0.00    -0.000 C 
BRANCH  28  29
ATOM     29  C   UNL     1      16.322  68.925  34.250  1.00  0.00    -0.000 C 
BRANCH  29  30
ATOM     30  C   UNL     1      15.444  68.252  33.185  1.00  0.00    -0.000 C 
BRANCH  30  31
ATOM     31  C   UNL     1      15.687  66.740  33.088  1.00  0.00    -0.003 C 
ATOM     32  C   UNL     1      14.416  65.957  33.405  1.00  0.00     0.004 C 
ENDBRANCH  30  31
ENDBRANCH  29  30
ENDBRANCH  28  29
ENDBRANCH  27  28
ENDBRANCH  26  27
ENDBRANCH  25  26
ENDBRANCH  24  25
ENDBRANCH  23  24
ENDBRANCH  22  23
ENDBRANCH  21  22
ENDBRANCH  20  21
ENDBRANCH  19  20
ENDBRANCH  18  19
ENDBRANCH   1  18
TORSDOF 28
ENDMDL
MODEL 3
REMARK VINA RESULT:    -4.423      1.573      4.099
REMARK INTER + INTRA:         -16.541
REMARK INTER:                 -10.792
REMARK INTRA:                  -5.750
REMARK UNBOUND:                -4.877
REMARK SMILES CCCCCCCCCCCCCCCCCCCCCCCCCCCCCC(=O)[O-]
REMARK SMILES IDX 16 1 17 2 18 3 19 4 20 5 21 6 22 7 23 8 24 9 25 10 26 11
REMARK SMILES IDX 27 12 28 13 29 14 30 15 31 16 32 17 15 18 14 19 13 20 12 21
REMARK SMILES IDX 11 22 10 23 9 24 8 25 7 26 6 27 5 28 4 29 3 30 2 31 1 32
REMARK H PARENT
REMARK Flexibility Score: inf
ROOT
ATOM      1  C   UNL     1      16.525  61.938  34.899  1.00  0.00     0.000 C 
ENDROOT
BRANCH   1   2
ATOM      2  C   UNL     1      17.793  61.062  34.875  1.00  0.00     0.000 C 
BRANCH   2   3
ATOM      3  C   UNL     1      19.086  61.865  34.624  1.00  0.00     0.000 C 
BRANCH   3   4
ATOM      4  C   UNL     1      18.944  63.386  34.841  1.00  0.00     0.000 C 
BRANCH   4   5
ATOM      5  C   UNL     1      19.671  63.955  36.073  1.00  0.00     0.000 C 
BRANCH   5   6
ATOM      6  C   UNL     1      19.337  63.269  37.413  1.00  0.00     0.000 C 
BRANCH   6   7
ATOM      7  C   UNL     1      17.923  63.550  37.953  1.00  0.00     0.000 C 
BRANCH   7   8
ATOM      8  C   UNL     1      17.908  64.637  39.042  1.00  0.00     0.000 C 
BRANCH   8   9
ATOM      9  C   UNL     1      17.205  65.929  38.576  1.00  0.00     0.000 C 
BRANCH   9  10
ATOM     10  C   UNL     1      18.137  66.941  37.881  1.00  0.00     0.000 C 
BRANCH  10  11
ATOM     11  C   UNL     1      17.645  67.400  36.495  1.00  0.00     0.000 C 
BRANCH  11  12
ATOM     12  C   UNL     1      16.830  66.311  35.773  1.00  0.00     0.000 C 
BRANCH  12  13
ATOM     13  C   UNL     1      16.646  66.601  34.273  1.00  0.00     0.006 C 
BRANCH  13  14
ATOM     14  C   UNL     1      15.466  67.532  33.951  1.00  0.00     0.053 C 
BRANCH  14  15
ATOM     15  C   UNL     1      15.905  68.751  33.199  1.00  0.00     0.041 C 
ATOM     16  O   UNL     1      15.188  69.216  32.274  1.00  0.00    -0.550 OA
ATOM     17  O   UNL     1      17.084  69.398  33.548  1.00  0.00    -0.550 OA
ENDBRANCH  14  15
ENDBRANCH  13  14
ENDBRANCH  12  13
ENDBRANCH  11  12
ENDBRANCH  10  11
ENDBRANCH   9  10
ENDBRANCH   8   9
ENDBRANCH   7   8
ENDBRANCH   6   7
ENDBRANCH   5   6
ENDBRANCH   4   5
ENDBRANCH   3   4
ENDBRANCH   2   3
ENDBRANCH   1   2
BRANCH   1  18
ATOM     18  C   UNL     1      15.229  61.111  34.909  1.00  0.00     0.000 C 
BRANCH  18  19
ATOM     19  C   UNL     1      15.073  60.227  33.659  1.00  0.00     0.000 C 
BRANCH  19  20
ATOM     20  C   UNL     1      13.671  60.336  33.031  1.00  0.00     0.000 C 
BRANCH  20  21
ATOM     21  C   UNL     1      12.824  61.521  33.536  1.00  0.00     0.000 C 
BRANCH  21  22
ATOM     22  C   UNL     1      12.459  62.571  32.465  1.00  0.00     0.000 C 
BRANCH  22  23
ATOM     23  C   UNL     1      12.978  63.994  32.744  1.00  0.00     0.000 C 
BRANCH  23  24
ATOM     24  C   UNL     1      14.511  64.090  32.706  1.00  0.00    -0.000 C 
BRANCH  24  25
ATOM     25  C   UNL     1      15.068  63.455  31.422  1.00  0.00    -0.000 C 
BRANCH  25  26
ATOM     26  C   UNL     1      16.603  63.520  31.344  1.00  0.00    -0.000 C 
BRANCH  26  27
ATOM     27  C   UNL     1      17.249  62.125  31.268  1.00  0.00    -0.000 C 
BRANCH  27  28
ATOM     28  C   UNL     1      18.750  62.187  30.943  1.00  0.00    -0.000 C 
BRANCH  28  29
ATOM     29  C   UNL     1      19.197  63.581  30.465  1.00  0.00    -0.000 C 
BRANCH  29  30
ATOM     30  C   UNL     1      20.338  64.159  31.316  1.00  0.00    -0.000 C 
BRANCH  30  31
ATOM     31  C   UNL     1      21.605  63.295  31.270  1.00  0.00    -0.003 C 
ATOM     32  C   UNL     1      22.079  62.937  32.676  1.00  0.00     0.004 C 
ENDBRANCH  30  31
ENDBRANCH  29  30
ENDBRANCH  28  29
ENDBRANCH  27  28
ENDBRANCH  26  27
ENDBRANCH  25  26
ENDBRANCH  24  25
ENDBRANCH  23  24
ENDBRANCH  22  23
ENDBRANCH  21  22
ENDBRANCH  20  21
ENDBRANCH  19  20
ENDBRANCH  18  19
ENDBRANCH   1  18
TORSDOF 28
ENDMDL
MODEL 4
REMARK VINA RESULT:    -4.416      2.999      5.614
REMARK INTER + INTRA:         -16.521
REMARK INTER:                 -12.352
REMARK INTRA:                  -4.169
REMARK UNBOUND:                -4.877
REMARK SMILES CCCCCCCCCCCCCCCCCCCCCCCCCCCCCC(=O)[O-]
REMARK SMILES IDX 16 1 17 2 18 3 19 4 20 5 21 6 22 7 23 8 24 9 25 10 26 11
REMARK SMILES IDX 27 12 28 13 29 14 30 15 31 16 32 17 15 18 14 19 13 20 12 21
REMARK SMILES IDX 11 22 10 23 9 24 8 25 7 26 6 27 5 28 4 29 3 30 2 31 1 32
REMARK H PARENT
REMARK Flexibility Score: inf
ROOT
ATOM      1  C   UNL     1      15.463  68.766  32.613  1.00  0.00     0.000 C 
ENDROOT
BRANCH   1   2
ATOM      2  C   UNL     1      16.751  69.519  32.997  1.00  0.00     0.000 C 
BRANCH   2   3
ATOM      3  C   UNL     1      16.909  69.725  34.517  1.00  0.00     0.000 C 
BRANCH   3   4
ATOM      4  C   UNL     1      18.331  69.459  35.052  1.00  0.00     0.000 C 
BRANCH   4   5
ATOM      5  C   UNL     1      18.453  69.317  36.581  1.00  0.00     0.000 C 
BRANCH   5   6
ATOM      6  C   UNL     1      18.675  67.881  37.097  1.00  0.00     0.000 C 
BRANCH   6   7
ATOM      7  C   UNL     1      17.389  67.056  37.292  1.00  0.00     0.000 C 
BRANCH   7   8
ATOM      8  C   UNL     1      17.100  66.119  36.107  1.00  0.00     0.000 C 
BRANCH   8   9
ATOM      9  C   UNL     1      17.844  64.773  36.224  1.00  0.00     0.000 C 
BRANCH   9  10
ATOM     10  C   UNL     1      17.822  64.157  37.637  1.00  0.00     0.000 C 
BRANCH  10  11
ATOM     11  C   UNL     1      19.094  63.365  37.998  1.00  0.00     0.000 C 
BRANCH  11  12
ATOM     12  C   UNL     1      19.745  63.866  39.299  1.00  0.00     0.000 C 
BRANCH  12  13
ATOM     13  C   UNL     1      20.144  65.351  39.233  1.00  0.00     0.006 C 
BRANCH  13  14
ATOM     14  C   UNL     1      19.524  66.220  40.339  1.00  0.00     0.053 C 
BRANCH  14  15
ATOM     15  C   UNL     1      20.552  66.697  41.318  1.00  0.00     0.041 C 
ATOM     16  O   UNL     1      20.745  66.065  42.390  1.00  0.00    -0.550 OA
ATOM     17  O   UNL     1      21.323  67.816  41.030  1.00  0.00    -0.550 OA
ENDBRANCH  14  15
ENDBRANCH  13  14
ENDBRANCH  12  13
ENDBRANCH  11  12
ENDBRANCH  10  11
ENDBRANCH   9  10
ENDBRANCH   8   9
ENDBRANCH   7   8
ENDBRANCH   6   7
ENDBRANCH   5   6
ENDBRANCH   4   5
ENDBRANCH   3   4
ENDBRANCH   2   3
ENDBRANCH   1   2
BRANCH   1  18
ATOM     18  C   UNL     1      15.248  67.490  33.445  1.00  0.00     0.000 C 
BRANCH  18  19
ATOM     19  C   UNL     1      14.807  66.286  32.594  1.00  0.00     0.000 C 
BRANCH  19  20
ATOM     20  C   UNL     1      15.773  65.094  32.715  1.00  0.00     0.000 C 
BRANCH  20  21
ATOM     21  C   UNL     1      15.567  63.982  31.666  1.00  0.00     0.000 C 
BRANCH  21  22
ATOM     22  C   UNL     1      15.448  62.554  32.238  1.00  0.00     0.000 C 
BRANCH  22  23
ATOM     23  C   UNL     1      15.628  62.444  33.763  1.00  0.00     0.000 C 
BRANCH  23  24
ATOM     24  C   UNL     1      14.695  61.405  34.403  1.00  0.00    -0.000 C 
BRANCH  24  25
ATOM     25  C   UNL     1      14.513  60.190  33.479  1.00  0.00    -0.000 C 
BRANCH  25  26
ATOM     26  C   UNL     1      13.036  59.811  33.280  1.00  0.00    -0.000 C 
BRANCH  26  27
ATOM     27  C   UNL     1      12.701  59.494  31.811  1.00  0.00    -0.000 C 
BRANCH  27  28
ATOM     28  C   UNL     1      11.338  60.060  31.382  1.00  0.00    -0.000 C 
BRANCH  28  29
ATOM     29  C   UNL     1      11.036  61.429  32.019  1.00  0.00    -0.000 C 
BRANCH  29  30
ATOM     30  C   UNL     1      11.628  62.598  31.217  1.00  0.00    -0.000 C 
BRANCH  30  31
ATOM     31  C   UNL     1      11.971  63.806  32.100  1.00  0.00    -0.003 C 
ATOM     32  C   UNL     1      11.889  63.446  33.580  1.00  0.00     0.004 C 
ENDBRANCH  30  31
ENDBRANCH  29  30
ENDBRANCH  28  29
ENDBRANCH  27  28
ENDBRANCH  26  27
ENDBRANCH  25  26
ENDBRANCH  24  25
ENDBRANCH  23  24
ENDBRANCH  22  23
ENDBRANCH  21  22
ENDBRANCH  20  21
ENDBRANCH  19  20
ENDBRANCH  18  19
ENDBRANCH   1  18
TORSDOF 28
ENDMDL
MODEL 5
REMARK VINA RESULT:    -4.392      2.994      5.268
REMARK INTER + INTRA:         -16.459
REMARK INTER:                 -12.613
REMARK INTRA:                  -3.846
REMARK UNBOUND:                -4.877
REMARK SMILES CCCCCCCCCCCCCCCCCCCCCCCCCCCCCC(=O)[O-]
REMARK SMILES IDX 16 1 17 2 18 3 19 4 20 5 21 6 22 7 23 8 24 9 25 10 26 11
REMARK SMILES IDX 27 12 28 13 29 14 30 15 31 16 32 17 15 18 14 19 13 20 12 21
REMARK SMILES IDX 11 22 10 23 9 24 8 25 7 26 6 27 5 28 4 29 3 30 2 31 1 32
REMARK H PARENT
REMARK Flexibility Score: inf
ROOT
ATOM      1  C   UNL     1      15.136  66.282  33.639  1.00  0.00     0.000 C 
ENDROOT
BRANCH   1   2
ATOM      2  C   UNL     1      15.051  67.506  32.707  1.00  0.00     0.000 C 
BRANCH   2   3
ATOM      3  C   UNL     1      15.695  68.774  33.303  1.00  0.00     0.000 C 
BRANCH   3   4
ATOM      4  C   UNL     1      17.149  68.585  33.784  1.00  0.00     0.000 C 
BRANCH   4   5
ATOM      5  C   UNL     1      17.359  68.626  35.308  1.00  0.00     0.000 C 
BRANCH   5   6
ATOM      6  C   UNL     1      18.516  69.523  35.793  1.00  0.00     0.000 C 
BRANCH   6   7
ATOM      7  C   UNL     1      19.258  69.008  37.041  1.00  0.00     0.000 C 
BRANCH   7   8
ATOM      8  C   UNL     1      18.739  67.641  37.518  1.00  0.00     0.000 C 
BRANCH   8   9
ATOM      9  C   UNL     1      17.877  67.749  38.792  1.00  0.00     0.000 C 
BRANCH   9  10
ATOM     10  C   UNL     1      17.190  66.432  39.205  1.00  0.00     0.000 C 
BRANCH  10  11
ATOM     11  C   UNL     1      18.000  65.166  38.866  1.00  0.00     0.000 C 
BRANCH  11  12
ATOM     12  C   UNL     1      18.717  64.583  40.098  1.00  0.00     0.000 C 
BRANCH  12  13
ATOM     13  C   UNL     1      20.143  65.135  40.274  1.00  0.00     0.006 C 
BRANCH  13  14
ATOM     14  C   UNL     1      20.400  65.796  41.637  1.00  0.00     0.053 C 
BRANCH  14  15
ATOM     15  C   UNL     1      20.799  67.232  41.497  1.00  0.00     0.041 C 
ATOM     16  O   UNL     1      22.011  67.540  41.348  1.00  0.00    -0.550 OA
ATOM     17  O   UNL     1      19.830  68.228  41.488  1.00  0.00    -0.550 OA
ENDBRANCH  14  15
ENDBRANCH  13  14
ENDBRANCH  12  13
ENDBRANCH  11  12
ENDBRANCH  10  11
ENDBRANCH   9  10
ENDBRANCH   8   9
ENDBRANCH   7   8
ENDBRANCH   6   7
ENDBRANCH   5   6
ENDBRANCH   4   5
ENDBRANCH   3   4
ENDBRANCH   2   3
ENDBRANCH   1   2
BRANCH   1  18
ATOM     18  C   UNL     1      15.982  65.141  33.049  1.00  0.00     0.000 C 
BRANCH  18  19
ATOM     19  C   UNL     1      17.062  64.631  34.020  1.00  0.00     0.000 C 
BRANCH  19  20
ATOM     20  C   UNL     1      16.989  63.108  34.236  1.00  0.00     0.000 C 
BRANCH  20  21
ATOM     21  C   UNL     1      15.786  62.414  33.566  1.00  0.00     0.000 C 
BRANCH  21  22
ATOM     22  C   UNL     1      16.147  61.323  32.537  1.00  0.00     0.000 C 
BRANCH  22  23
ATOM     23  C   UNL     1      15.393  61.414  31.197  1.00  0.00     0.000 C 
BRANCH  23  24
ATOM     24  C   UNL     1      14.617  62.730  31.036  1.00  0.00    -0.000 C 
BRANCH  24  25
ATOM     25  C   UNL     1      13.254  62.483  30.369  1.00  0.00    -0.000 C 
BRANCH  25  26
ATOM     26  C   UNL     1      12.105  63.223  31.074  1.00  0.00    -0.000 C 
BRANCH  26  27
ATOM     27  C   UNL     1      12.474  63.663  32.502  1.00  0.00    -0.000 C 
BRANCH  27  28
ATOM     28  C   UNL     1      11.728  62.859  33.579  1.00  0.00    -0.000 C 
BRANCH  28  29
ATOM     29  C   UNL     1      12.336  61.462  33.804  1.00  0.00    -0.000 C 
BRANCH  29  30
ATOM     30  C   UNL     1      11.576  60.359  33.052  1.00  0.00    -0.000 C 
BRANCH  30  31
ATOM     31  C   UNL     1      12.512  59.304  32.447  1.00  0.00    -0.003 C 
ATOM     32  C   UNL     1      13.626  58.933  33.422  1.00  0.00     0.004 C 
ENDBRANCH  30  31
ENDBRANCH  29  30
ENDBRANCH  28  29
ENDBRANCH  27  28
ENDBRANCH  26  27
ENDBRANCH  25  26
ENDBRANCH  24  25
ENDBRANCH  23  24
ENDBRANCH  22  23
ENDBRANCH  21  22
ENDBRANCH  20  21
ENDBRANCH  19  20
ENDBRANCH  18  19
ENDBRANCH   1  18
TORSDOF 28
ENDMDL
MODEL 6
REMARK VINA RESULT:    -4.392      3.867      9.313
REMARK INTER + INTRA:         -16.458
REMARK INTER:                 -13.028
REMARK INTRA:                  -3.430
REMARK UNBOUND:                -4.877
REMARK SMILES CCCCCCCCCCCCCCCCCCCCCCCCCCCCCC(=O)[O-]
REMARK SMILES IDX 16 1 17 2 18 3 19 4 20 5 21 6 22 7 23 8 24 9 25 10 26 11
REMARK SMILES IDX 27 12 28 13 29 14 30 15 31 16 32 17 15 18 14 19 13 20 12 21
REMARK SMILES IDX 11 22 10 23 9 24 8 25 7 26 6 27 5 28 4 29 3 30 2 31 1 32
REMARK H PARENT
REMARK Flexibility Score: inf
ROOT
ATOM      1  C   UNL     1      15.334  69.255  32.613  1.00  0.00     0.000 C 
ENDROOT
BRANCH   1   2
ATOM      2  C   UNL     1      14.943  67.816  32.224  1.00  0.00     0.000 C 
BRANCH   2   3
ATOM      3  C   UNL     1      15.094  66.808  33.381  1.00  0.00     0.000 C 
BRANCH   3   4
ATOM      4  C   UNL     1      14.480  65.420  33.103  1.00  0.00     0.000 C 
BRANCH   4   5
ATOM      5  C   UNL     1      15.485  64.295  32.796  1.00  0.00     0.000 C 
BRANCH   5   6
ATOM      6  C   UNL     1      15.199  63.484  31.516  1.00  0.00     0.000 C 
BRANCH   6   7
ATOM      7  C   UNL     1      14.037  62.480  31.629  1.00  0.00     0.000 C 
BRANCH   7   8
ATOM      8  C   UNL     1      13.972  61.799  33.007  1.00  0.00     0.000 C 
BRANCH   8   9
ATOM      9  C   UNL     1      12.545  61.348  33.377  1.00  0.00     0.000 C 
BRANCH   9  10
ATOM     10  C   UNL     1      12.306  59.830  33.244  1.00  0.00     0.000 C 
BRANCH  10  11
ATOM     11  C   UNL     1      10.909  59.457  32.710  1.00  0.00     0.000 C 
BRANCH  11  12
ATOM     12  C   UNL     1      10.479  60.346  31.529  1.00  0.00     0.000 C 
BRANCH  12  13
ATOM     13  C   UNL     1       9.047  60.047  31.049  1.00  0.00     0.006 C 
BRANCH  13  14
ATOM     14  C   UNL     1       8.134  59.442  32.127  1.00  0.00     0.053 C 
BRANCH  14  15
ATOM     15  C   UNL     1       6.885  58.859  31.541  1.00  0.00     0.041 C 
ATOM     16  O   UNL     1       5.890  59.596  31.313  1.00  0.00    -0.550 OA
ATOM     17  O   UNL     1       6.835  57.510  31.209  1.00  0.00    -0.550 OA
ENDBRANCH  14  15
ENDBRANCH  13  14
ENDBRANCH  12  13
ENDBRANCH  11  12
ENDBRANCH  10  11
ENDBRANCH   9  10
ENDBRANCH   8   9
ENDBRANCH   7   8
ENDBRANCH   6   7
ENDBRANCH   5   6
ENDBRANCH   4   5
ENDBRANCH   3   4
ENDBRANCH   2   3
ENDBRANCH   1   2
BRANCH   1  18
ATOM     18  C   UNL     1      16.835  69.405  32.911  1.00  0.00     0.000 C 
BRANCH  18  19
ATOM     19  C   UNL     1      17.113  70.040  34.285  1.00  0.00     0.000 C 
BRANCH  19  20
ATOM     20  C   UNL     1      17.571  69.006  35.330  1.00  0.00     0.000 C 
BRANCH  20  21
ATOM     21  C   UNL     1      18.871  69.370  36.076  1.00  0.00     0.000 C 
BRANCH  21  22
ATOM     22  C   UNL     1      18.813  69.213  37.610  1.00  0.00     0.000 C 
BRANCH  22  23
ATOM     23  C   UNL     1      19.824  68.214  38.202  1.00  0.00     0.000 C 
BRANCH  23  24
ATOM     24  C   UNL     1      19.273  67.455  39.419  1.00  0.00    -0.000 C 
BRANCH  24  25
ATOM     25  C   UNL     1      17.754  67.258  39.299  1.00  0.00    -0.000 C 
BRANCH  25  26
ATOM     26  C   UNL     1      17.375  65.870  38.758  1.00  0.00    -0.000 C 
BRANCH  26  27
ATOM     27  C   UNL     1      16.776  65.931  37.341  1.00  0.00    -0.000 C 
BRANCH  27  28
ATOM     28  C   UNL     1      17.800  65.574  36.251  1.00  0.00    -0.000 C 
BRANCH  28  29
ATOM     29  C   UNL     1      18.978  64.744  36.793  1.00  0.00    -0.000 C 
BRANCH  29  30
ATOM     30  C   UNL     1      18.845  63.248  36.470  1.00  0.00    -0.000 C 
BRANCH  30  31
ATOM     31  C   UNL     1      18.050  62.990  35.183  1.00  0.00    -0.003 C 
ATOM     32  C   UNL     1      16.863  62.067  35.445  1.00  0.00     0.004 C 
ENDBRANCH  30  31
ENDBRANCH  29  30
ENDBRANCH  28  29
ENDBRANCH  27  28
ENDBRANCH  26  27
ENDBRANCH  25  26
ENDBRANCH  24  25
ENDBRANCH  23  24
ENDBRANCH  22  23
ENDBRANCH  21  22
ENDBRANCH  20  21
ENDBRANCH  19  20
ENDBRANCH  18  19
ENDBRANCH   1  18
TORSDOF 28
ENDMDL
MODEL 7
REMARK VINA RESULT:    -4.389      1.994      5.411
REMARK INTER + INTRA:         -16.451
REMARK INTER:                 -11.289
REMARK INTRA:                  -5.163
REMARK UNBOUND:                -4.877
REMARK SMILES CCCCCCCCCCCCCCCCCCCCCCCCCCCCCC(=O)[O-]
REMARK SMILES IDX 16 1 17 2 18 3 19 4 20 5 21 6 22 7 23 8 24 9 25 10 26 11
REMARK SMILES IDX 27 12 28 13 29 14 30 15 31 16 32 17 15 18 14 19 13 20 12 21
REMARK SMILES IDX 11 22 10 23 9 24 8 25 7 26 6 27 5 28 4 29 3 30 2 31 1 32
REMARK H PARENT
REMARK Flexibility Score: inf
ROOT
ATOM      1  C   UNL     1      13.299  62.808  30.758  1.00  0.00     0.000 C 
ENDROOT
BRANCH   1   2
ATOM      2  C   UNL     1      14.747  63.213  31.094  1.00  0.00     0.000 C 
BRANCH   2   3
ATOM      3  C   UNL     1      14.838  64.430  32.037  1.00  0.00     0.000 C 
BRANCH   3   4
ATOM      4  C   UNL     1      15.209  64.082  33.493  1.00  0.00     0.000 C 
BRANCH   4   5
ATOM      5  C   UNL     1      16.610  63.478  33.700  1.00  0.00     0.000 C 
BRANCH   5   6
ATOM      6  C   UNL     1      17.115  63.461  35.157  1.00  0.00     0.000 C 
BRANCH   6   7
ATOM      7  C   UNL     1      18.585  63.883  35.340  1.00  0.00     0.000 C 
BRANCH   7   8
ATOM      8  C   UNL     1      18.842  64.567  36.693  1.00  0.00     0.000 C 
BRANCH   8   9
ATOM      9  C   UNL     1      17.604  65.325  37.216  1.00  0.00     0.000 C 
BRANCH   9  10
ATOM     10  C   UNL     1      17.864  66.806  37.552  1.00  0.00     0.000 C 
BRANCH  10  11
ATOM     11  C   UNL     1      17.162  67.799  36.605  1.00  0.00     0.000 C 
BRANCH  11  12
ATOM     12  C   UNL     1      16.232  67.093  35.602  1.00  0.00     0.000 C 
BRANCH  12  13
ATOM     13  C   UNL     1      16.555  67.445  34.139  1.00  0.00     0.006 C 
BRANCH  13  14
ATOM     14  C   UNL     1      15.335  67.882  33.312  1.00  0.00     0.053 C 
BRANCH  14  15
ATOM     15  C   UNL     1      15.627  69.093  32.480  1.00  0.00     0.041 C 
ATOM     16  O   UNL     1      16.635  69.804  32.731  1.00  0.00    -0.550 OA
ATOM     17  O   UNL     1      14.810  69.412  31.402  1.00  0.00    -0.550 OA
ENDBRANCH  14  15
ENDBRANCH  13  14
ENDBRANCH  12  13
ENDBRANCH  11  12
ENDBRANCH  10  11
ENDBRANCH   9  10
ENDBRANCH   8   9
ENDBRANCH   7   8
ENDBRANCH   6   7
ENDBRANCH   5   6
ENDBRANCH   4   5
ENDBRANCH   3   4
ENDBRANCH   2   3
ENDBRANCH   1   2
BRANCH   1  18
ATOM     18  C   UNL     1      12.257  63.572  31.592  1.00  0.00     0.000 C 
BRANCH  18  19
ATOM     19  C   UNL     1      11.414  62.650  32.490  1.00  0.00     0.000 C 
BRANCH  19  20
ATOM     20  C   UNL     1      12.117  61.313  32.787  1.00  0.00     0.000 C 
BRANCH  20  21
ATOM     21  C   UNL     1      12.913  61.277  34.107  1.00  0.00     0.000 C 
BRANCH  21  22
ATOM     22  C   UNL     1      14.261  60.529  34.041  1.00  0.00     0.000 C 
BRANCH  22  23
ATOM     23  C   UNL     1      14.637  59.984  32.651  1.00  0.00     0.000 C 
BRANCH  23  24
ATOM     24  C   UNL     1      16.150  60.007  32.389  1.00  0.00    -0.000 C 
BRANCH  24  25
ATOM     25  C   UNL     1      16.446  59.969  30.881  1.00  0.00    -0.000 C 
BRANCH  25  26
ATOM     26  C   UNL     1      17.938  60.160  30.562  1.00  0.00    -0.000 C 
BRANCH  26  27
ATOM     27  C   UNL     1      18.580  61.285  31.394  1.00  0.00    -0.000 C 
BRANCH  27  28
ATOM     28  C   UNL     1      18.361  62.675  30.776  1.00  0.00    -0.000 C 
BRANCH  28  29
ATOM     29  C   UNL     1      19.401  63.707  31.249  1.00  0.00    -0.000 C 
BRANCH  29  30
ATOM     30  C   UNL     1      20.415  64.069  30.154  1.00  0.00    -0.000 C 
BRANCH  30  31
ATOM     31  C   UNL     1      21.476  62.980  29.947  1.00  0.00    -0.003 C 
ATOM     32  C   UNL     1      21.581  62.586  28.477  1.00  0.00     0.004 C 
ENDBRANCH  30  31
ENDBRANCH  29  30
ENDBRANCH  28  29
ENDBRANCH  27  28
ENDBRANCH  26  27
ENDBRANCH  25  26
ENDBRANCH  24  25
ENDBRANCH  23  24
ENDBRANCH  22  23
ENDBRANCH  21  22
ENDBRANCH  20  21
ENDBRANCH  19  20
ENDBRANCH  18  19
ENDBRANCH   1  18
TORSDOF 28
ENDMDL
MODEL 8
REMARK VINA RESULT:    -4.339      2.668      7.820
REMARK INTER + INTRA:         -16.318
REMARK INTER:                 -12.159
REMARK INTRA:                  -4.159
REMARK UNBOUND:                -4.877
REMARK SMILES CCCCCCCCCCCCCCCCCCCCCCCCCCCCCC(=O)[O-]
REMARK SMILES IDX 16 1 17 2 18 3 19 4 20 5 21 6 22 7 23 8 24 9 25 10 26 11
REMARK SMILES IDX 27 12 28 13 29 14 30 15 31 16 32 17 15 18 14 19 13 20 12 21
REMARK SMILES IDX 11 22 10 23 9 24 8 25 7 26 6 27 5 28 4 29 3 30 2 31 1 32
REMARK H PARENT
REMARK Flexibility Score: inf
ROOT
ATOM      1  C   UNL     1      19.324  63.231  35.027  1.00  0.00     0.000 C 
ENDROOT
BRANCH   1   2
ATOM      2  C   UNL     1      20.013  61.957  34.501  1.00  0.00     0.000 C 
BRANCH   2   3
ATOM      3  C   UNL     1      21.512  62.155  34.196  1.00  0.00     0.000 C 
BRANCH   3   4
ATOM      4  C   UNL     1      21.829  63.393  33.331  1.00  0.00     0.000 C 
BRANCH   4   5
ATOM      5  C   UNL     1      22.336  63.100  31.907  1.00  0.00     0.000 C 
BRANCH   5   6
ATOM      6  C   UNL     1      21.883  61.754  31.306  1.00  0.00     0.000 C 
BRANCH   6   7
ATOM      7  C   UNL     1      20.751  61.854  30.267  1.00  0.00     0.000 C 
BRANCH   7   8
ATOM      8  C   UNL     1      20.244  63.294  30.079  1.00  0.00     0.000 C 
BRANCH   8   9
ATOM      9  C   UNL     1      18.740  63.435  30.390  1.00  0.00     0.000 C 
BRANCH   9  10
ATOM     10  C   UNL     1      18.182  62.344  31.325  1.00  0.00     0.000 C 
BRANCH  10  11
ATOM     11  C   UNL     1      16.933  62.773  32.119  1.00  0.00     0.000 C 
BRANCH  11  12
ATOM     12  C   UNL     1      15.944  63.582  31.261  1.00  0.00     0.000 C 
BRANCH  12  13
ATOM     13  C   UNL     1      14.544  62.944  31.203  1.00  0.00     0.006 C 
BRANCH  13  14
ATOM     14  C   UNL     1      13.458  63.738  31.945  1.00  0.00     0.053 C 
BRANCH  14  15
ATOM     15  C   UNL     1      13.037  63.061  33.213  1.00  0.00     0.041 C 
ATOM     16  O   UNL     1      11.892  63.270  33.692  1.00  0.00    -0.550 OA
ATOM     17  O   UNL     1      13.895  62.168  33.844  1.00  0.00    -0.550 OA
ENDBRANCH  14  15
ENDBRANCH  13  14
ENDBRANCH  12  13
ENDBRANCH  11  12
ENDBRANCH  10  11
ENDBRANCH   9  10
ENDBRANCH   8   9
ENDBRANCH   7   8
ENDBRANCH   6   7
ENDBRANCH   5   6
ENDBRANCH   4   5
ENDBRANCH   3   4
ENDBRANCH   2   3
ENDBRANCH   1   2
BRANCH   1  18
ATOM     18  C   UNL     1      19.737  63.582  36.466  1.00  0.00     0.000 C 
BRANCH  18  19
ATOM     19  C   UNL     1      19.277  64.986  36.897  1.00  0.00     0.000 C 
BRANCH  19  20
ATOM     20  C   UNL     1      17.749  65.157  36.812  1.00  0.00     0.000 C 
BRANCH  20  21
ATOM     21  C   UNL     1      17.119  65.949  37.976  1.00  0.00     0.000 C 
BRANCH  21  22
ATOM     22  C   UNL     1      17.880  65.865  39.315  1.00  0.00     0.000 C 
BRANCH  22  23
ATOM     23  C   UNL     1      18.538  67.179  39.776  1.00  0.00     0.000 C 
BRANCH  23  24
ATOM     24  C   UNL     1      17.832  68.426  39.224  1.00  0.00    -0.000 C 
BRANCH  24  25
ATOM     25  C   UNL     1      18.837  69.364  38.536  1.00  0.00    -0.000 C 
BRANCH  25  26
ATOM     26  C   UNL     1      19.418  68.769  37.243  1.00  0.00    -0.000 C 
BRANCH  26  27
ATOM     27  C   UNL     1      18.798  69.389  35.977  1.00  0.00    -0.000 C 
BRANCH  27  28
ATOM     28  C   UNL     1      17.472  68.722  35.582  1.00  0.00    -0.000 C 
BRANCH  28  29
ATOM     29  C   UNL     1      16.804  69.399  34.370  1.00  0.00    -0.000 C 
BRANCH  29  30
ATOM     30  C   UNL     1      16.082  68.397  33.458  1.00  0.00    -0.000 C 
BRANCH  30  31
ATOM     31  C   UNL     1      15.343  67.307  34.245  1.00  0.00    -0.003 C 
ATOM     32  C   UNL     1      15.866  65.919  33.887  1.00  0.00     0.004 C 
ENDBRANCH  30  31
ENDBRANCH  29  30
ENDBRANCH  28  29
ENDBRANCH  27  28
ENDBRANCH  26  27
ENDBRANCH  25  26
ENDBRANCH  24  25
ENDBRANCH  23  24
ENDBRANCH  22  23
ENDBRANCH  21  22
ENDBRANCH  20  21
ENDBRANCH  19  20
ENDBRANCH  18  19
ENDBRANCH   1  18
TORSDOF 28
ENDMDL
MODEL 9
REMARK VINA RESULT:    -4.332      2.715      5.093
REMARK INTER + INTRA:         -16.300
REMARK INTER:                 -12.093
REMARK INTRA:                  -4.207
REMARK UNBOUND:                -4.877
REMARK SMILES CCCCCCCCCCCCCCCCCCCCCCCCCCCCCC(=O)[O-]
REMARK SMILES IDX 16 1 17 2 18 3 19 4 20 5 21 6 22 7 23 8 24 9 25 10 26 11
REMARK SMILES IDX 27 12 28 13 29 14 30 15 31 16 32 17 15 18 14 19 13 20 12 21
REMARK SMILES IDX 11 22 10 23 9 24 8 25 7 26 6 27 5 28 4 29 3 30 2 31 1 32
REMARK H PARENT
REMARK Flexibility Score: inf
ROOT
ATOM      1  C   UNL     1      16.051  68.472  34.118  1.00  0.00     0.000 C 
ENDROOT
BRANCH   1   2
ATOM      2  C   UNL     1      16.826  69.758  33.770  1.00  0.00     0.000 C 
BRANCH   2   3
ATOM      3  C   UNL     1      17.814  70.193  34.872  1.00  0.00     0.000 C 
BRANCH   3   4
ATOM      4  C   UNL     1      18.288  69.049  35.791  1.00  0.00     0.000 C 
BRANCH   4   5
ATOM      5  C   UNL     1      18.497  69.424  37.270  1.00  0.00     0.000 C 
BRANCH   5   6
ATOM      6  C   UNL     1      19.682  68.727  37.968  1.00  0.00     0.000 C 
BRANCH   6   7
ATOM      7  C   UNL     1      19.329  68.006  39.282  1.00  0.00     0.000 C 
BRANCH   7   8
ATOM      8  C   UNL     1      17.821  67.742  39.427  1.00  0.00     0.000 C 
BRANCH   8   9
ATOM      9  C   UNL     1      17.461  66.254  39.235  1.00  0.00     0.000 C 
BRANCH   9  10
ATOM     10  C   UNL     1      17.085  65.875  37.789  1.00  0.00     0.000 C 
BRANCH  10  11
ATOM     11  C   UNL     1      18.293  65.536  36.893  1.00  0.00     0.000 C 
BRANCH  11  12
ATOM     12  C   UNL     1      19.211  64.475  37.527  1.00  0.00     0.000 C 
BRANCH  12  13
ATOM     13  C   UNL     1      18.906  63.050  37.030  1.00  0.00     0.006 C 
BRANCH  13  14
ATOM     14  C   UNL     1      20.152  62.176  36.820  1.00  0.00     0.053 C 
BRANCH  14  15
ATOM     15  C   UNL     1      20.669  62.266  35.417  1.00  0.00     0.041 C 
ATOM     16  O   UNL     1      20.473  61.321  34.609  1.00  0.00    -0.550 OA
ATOM     17  O   UNL     1      21.331  63.411  34.991  1.00  0.00    -0.550 OA
ENDBRANCH  14  15
ENDBRANCH  13  14
ENDBRANCH  12  13
ENDBRANCH  11  12
ENDBRANCH  10  11
ENDBRANCH   9  10
ENDBRANCH   8   9
ENDBRANCH   7   8
ENDBRANCH   6   7
ENDBRANCH   5   6
ENDBRANCH   4   5
ENDBRANCH   3   4
ENDBRANCH   2   3
ENDBRANCH   1   2
BRANCH   1  18
ATOM     18  C   UNL     1      15.266  67.908  32.922  1.00  0.00     0.000 C 
BRANCH  18  19
ATOM     19  C   UNL     1      15.271  66.370  32.873  1.00  0.00     0.000 C 
BRANCH  19  20
ATOM     20  C   UNL     1      16.094  65.747  34.016  1.00  0.00     0.000 C 
BRANCH  20  21
ATOM     21  C   UNL     1      16.396  64.244  33.854  1.00  0.00     0.000 C 
BRANCH  21  22
ATOM     22  C   UNL     1      17.877  63.895  33.595  1.00  0.00     0.000 C 
BRANCH  22  23
ATOM     23  C   UNL     1      18.199  63.439  32.161  1.00  0.00     0.000 C 
BRANCH  23  24
ATOM     24  C   UNL     1      16.963  63.413  31.249  1.00  0.00    -0.000 C 
BRANCH  24  25
ATOM     25  C   UNL     1      16.381  61.993  31.156  1.00  0.00    -0.000 C 
BRANCH  25  26
ATOM     26  C   UNL     1      14.884  61.940  31.503  1.00  0.00    -0.000 C 
BRANCH  26  27
ATOM     27  C   UNL     1      14.134  63.216  31.078  1.00  0.00    -0.000 C 
BRANCH  27  28
ATOM     28  C   UNL     1      12.754  63.338  31.744  1.00  0.00    -0.000 C 
BRANCH  28  29
ATOM     29  C   UNL     1      11.637  62.668  30.924  1.00  0.00    -0.000 C 
BRANCH  29  30
ATOM     30  C   UNL     1      10.799  61.687  31.757  1.00  0.00    -0.000 C 
BRANCH  30  31
ATOM     31  C   UNL     1      11.579  61.103  32.943  1.00  0.00    -0.003 C 
ATOM     32  C   UNL     1      12.095  59.703  32.627  1.00  0.00     0.004 C 
ENDBRANCH  30  31
ENDBRANCH  29  30
ENDBRANCH  28  29
ENDBRANCH  27  28
ENDBRANCH  26  27
ENDBRANCH  25  26
ENDBRANCH  24  25
ENDBRANCH  23  24
ENDBRANCH  22  23
ENDBRANCH  21  22
ENDBRANCH  20  21
ENDBRANCH  19  20
ENDBRANCH  18  19
ENDBRANCH   1  18
TORSDOF 28
ENDMDL
