MODEL 1
REMARK VINA RESULT:    -5.350      0.000      0.000
REMARK INTER + INTRA:          -5.819
REMARK INTER:                  -5.819
REMARK INTRA:                   0.000
REMARK UNBOUND:                 0.000
REMARK SMILES Cc1cc(O)c2c(c1)C(=O)c1cc(O)cc(O)c1C2=O
REMARK SMILES IDX 1 1 2 2 8 3 7 4 6 5 4 6 3 7 19 8 20 9 18 10 11 11 9 12 10 13
REMARK SMILES IDX 12 14 13 15 15 16 16 17 5 18 17 20 14 22
REMARK H PARENT 5 19 17 21 14 23
REMARK Flexibility Score: inf
ROOT
ATOM      1  C   UNL     1      -5.968 -25.686 -44.350  1.00  0.00     0.044 C 
ATOM      2  C   UNL     1      -4.586 -25.662 -44.931  1.00  0.00    -0.047 A 
ATOM      3  C   UNL     1      -3.542 -25.041 -44.237  1.00  0.00     0.016 A 
ATOM      4  C   UNL     1      -2.236 -25.038 -44.760  1.00  0.00     0.038 A 
ATOM      5  C   UNL     1      -1.973 -25.666 -45.997  1.00  0.00     0.076 A 
ATOM      6  C   UNL     1      -3.019 -26.365 -46.654  1.00  0.00     0.127 A 
ATOM      7  C   UNL     1      -4.313 -26.337 -46.125  1.00  0.00     0.050 A 
ATOM      8  C   UNL     1      -0.619 -25.514 -46.588  1.00  0.00     0.201 C 
ATOM      9  O   UNL     1      -0.476 -25.522 -47.840  1.00  0.00    -0.288 OA
ATOM     10  C   UNL     1       0.532 -25.167 -45.715  1.00  0.00     0.076 A 
ATOM     11  C   UNL     1       0.265 -24.541 -44.476  1.00  0.00     0.041 A 
ATOM     12  C   UNL     1      -1.134 -24.386 -44.014  1.00  0.00     0.194 C 
ATOM     13  O   UNL     1      -1.385 -23.718 -42.972  1.00  0.00    -0.289 OA
ATOM     14  C   UNL     1       1.329 -24.074 -43.685  1.00  0.00     0.059 A 
ATOM     15  C   UNL     1       2.651 -24.237 -44.108  1.00  0.00     0.120 A 
ATOM     16  C   UNL     1       2.919 -24.889 -45.311  1.00  0.00     0.093 A 
ATOM     17  C   UNL     1       1.880 -25.382 -46.106  1.00  0.00     0.131 A 
ENDROOT
BRANCH   6  18
ATOM     18  O   UNL     1      -2.811 -27.125 -47.807  1.00  0.00    -0.507 OA
ATOM     19  H   UNL     1      -2.889 -28.132 -47.834  1.00  0.00     0.293 HD
ENDBRANCH   6  18
BRANCH  17  20
ATOM     20  O   UNL     1       2.229 -26.104 -47.249  1.00  0.00    -0.507 OA
ATOM     21  H   UNL     1       1.739 -26.028 -48.129  1.00  0.00     0.293 HD
ENDBRANCH  17  20
BRANCH  15  22
ATOM     22  O   UNL     1       3.707 -23.764 -43.333  1.00  0.00    -0.508 OA
ATOM     23  H   UNL     1       4.351 -24.395 -42.871  1.00  0.00     0.293 HD
ENDBRANCH  15  22
TORSDOF 3
ENDMDL
MODEL 2
REMARK VINA RESULT:    -5.325     13.760     14.890
REMARK INTER + INTRA:          -5.792
REMARK INTER:                  -5.792
REMARK INTRA:                   0.000
REMARK UNBOUND:                 0.000
REMARK SMILES Cc1cc(O)c2c(c1)C(=O)c1cc(O)cc(O)c1C2=O
REMARK SMILES IDX 1 1 2 2 8 3 7 4 6 5 4 6 3 7 19 8 20 9 18 10 11 11 9 12 10 13
REMARK SMILES IDX 12 14 13 15 15 16 16 17 5 18 17 20 14 22
REMARK H PARENT 5 19 17 21 14 23
REMARK Flexibility Score: inf
ROOT
ATOM      1  C   UNL     1      -6.340 -12.622 -41.429  1.00  0.00     0.044 C 
ATOM      2  C   UNL     1      -5.091 -11.848 -41.731  1.00  0.00    -0.047 A 
ATOM      3  C   UNL     1      -3.858 -12.280 -41.233  1.00  0.00     0.016 A 
ATOM      4  C   UNL     1      -2.678 -11.577 -41.534  1.00  0.00     0.038 A 
ATOM      5  C   UNL     1      -2.735 -10.424 -42.347  1.00  0.00     0.076 A 
ATOM      6  C   UNL     1      -3.976 -10.040 -42.917  1.00  0.00     0.127 A 
ATOM      7  C   UNL     1      -5.139 -10.742 -42.587  1.00  0.00     0.050 A 
ATOM      8  C   UNL     1      -1.495  -9.625 -42.520  1.00  0.00     0.201 C 
ATOM      9  O   UNL     1      -1.571  -8.381 -42.708  1.00  0.00    -0.288 OA
ATOM     10  C   UNL     1      -0.171 -10.258 -42.286  1.00  0.00     0.076 A 
ATOM     11  C   UNL     1      -0.118 -11.414 -41.474  1.00  0.00     0.041 A 
ATOM     12  C   UNL     1      -1.374 -12.047 -41.009  1.00  0.00     0.194 C 
ATOM     13  O   UNL     1      -1.332 -13.001 -40.183  1.00  0.00    -0.289 OA
ATOM     14  C   UNL     1       1.126 -11.961 -41.117  1.00  0.00     0.059 A 
ATOM     15  C   UNL     1       2.314 -11.378 -41.571  1.00  0.00     0.120 A 
ATOM     16  C   UNL     1       2.264 -10.261 -42.405  1.00  0.00     0.093 A 
ATOM     17  C   UNL     1       1.038  -9.711 -42.792  1.00  0.00     0.131 A 
ENDROOT
BRANCH   6  18
ATOM     18  O   UNL     1      -4.093  -8.997 -43.838  1.00  0.00    -0.507 OA
ATOM     19  H   UNL     1      -4.968  -8.541 -44.057  1.00  0.00     0.293 HD
ENDBRANCH   6  18
BRANCH  17  20
ATOM     20  O   UNL     1       1.066  -8.651 -43.700  1.00  0.00    -0.507 OA
ATOM     21  H   UNL     1       1.281  -8.761 -44.681  1.00  0.00     0.293 HD
ENDBRANCH  17  20
BRANCH  15  22
ATOM     22  O   UNL     1       3.549 -11.910 -41.209  1.00  0.00    -0.508 OA
ATOM     23  H   UNL     1       3.843 -11.957 -40.240  1.00  0.00     0.293 HD
ENDBRANCH  15  22
TORSDOF 3
ENDMDL
MODEL 3
REMARK VINA RESULT:    -5.319     14.834     16.903
REMARK INTER + INTRA:          -5.786
REMARK INTER:                  -5.786
REMARK INTRA:                   0.000
REMARK UNBOUND:                 0.000
REMARK SMILES Cc1cc(O)c2c(c1)C(=O)c1cc(O)cc(O)c1C2=O
REMARK SMILES IDX 1 1 2 2 8 3 7 4 6 5 4 6 3 7 19 8 20 9 18 10 11 11 9 12 10 13
REMARK SMILES IDX 12 14 13 15 15 16 16 17 5 18 17 20 14 22
REMARK H PARENT 5 19 17 21 14 23
REMARK Flexibility Score: inf
ROOT
ATOM      1  C   UNL     1      -0.828 -10.889 -34.251  1.00  0.00     0.044 C 
ATOM      2  C   UNL     1      -0.938 -10.513 -35.699  1.00  0.00    -0.047 A 
ATOM      3  C   UNL     1      -1.735 -11.269 -36.564  1.00  0.00     0.016 A 
ATOM      4  C   UNL     1      -1.867 -10.908 -37.917  1.00  0.00     0.038 A 
ATOM      5  C   UNL     1      -1.188  -9.771 -38.410  1.00  0.00     0.076 A 
ATOM      6  C   UNL     1      -0.449  -8.962 -37.509  1.00  0.00     0.127 A 
ATOM      7  C   UNL     1      -0.316  -9.352 -36.173  1.00  0.00     0.050 A 
ATOM      8  C   UNL     1      -1.231  -9.507 -39.871  1.00  0.00     0.201 C 
ATOM      9  O   UNL     1      -0.263  -8.928 -40.432  1.00  0.00    -0.288 OA
ATOM     10  C   UNL     1      -2.322 -10.089 -40.694  1.00  0.00     0.076 A 
ATOM     11  C   UNL     1      -3.001 -11.225 -40.197  1.00  0.00     0.041 A 
ATOM     12  C   UNL     1      -2.721 -11.710 -38.824  1.00  0.00     0.194 C 
ATOM     13  O   UNL     1      -3.228 -12.793 -38.422  1.00  0.00    -0.289 OA
ATOM     14  C   UNL     1      -3.943 -11.886 -41.003  1.00  0.00     0.059 A 
ATOM     15  C   UNL     1      -4.225 -11.420 -42.291  1.00  0.00     0.120 A 
ATOM     16  C   UNL     1      -3.586 -10.277 -42.770  1.00  0.00     0.093 A 
ATOM     17  C   UNL     1      -2.661  -9.589 -41.979  1.00  0.00     0.131 A 
ENDROOT
BRANCH   6  18
ATOM     18  O   UNL     1       0.135  -7.751 -37.888  1.00  0.00    -0.507 OA
ATOM     19  H   UNL     1       0.702  -7.640 -38.717  1.00  0.00     0.293 HD
ENDBRANCH   6  18
BRANCH  17  20
ATOM     20  O   UNL     1      -2.131  -8.402 -42.491  1.00  0.00    -0.507 OA
ATOM     21  H   UNL     1      -1.224  -8.039 -42.237  1.00  0.00     0.293 HD
ENDBRANCH  17  20
BRANCH  15  22
ATOM     22  O   UNL     1      -5.148 -12.080 -43.098  1.00  0.00    -0.508 OA
ATOM     23  H   UNL     1      -5.356 -11.762 -44.037  1.00  0.00     0.293 HD
ENDBRANCH  15  22
TORSDOF 3
ENDMDL
MODEL 4
REMARK VINA RESULT:    -5.254     14.382     16.368
REMARK INTER + INTRA:          -5.715
REMARK INTER:                  -5.715
REMARK INTRA:                   0.000
REMARK UNBOUND:                 0.000
REMARK SMILES Cc1cc(O)c2c(c1)C(=O)c1cc(O)cc(O)c1C2=O
REMARK SMILES IDX 1 1 2 2 8 3 7 4 6 5 4 6 3 7 19 8 20 9 18 10 11 11 9 12 10 13
REMARK SMILES IDX 12 14 13 15 15 16 16 17 5 18 17 20 14 22
REMARK H PARENT 5 19 17 21 14 23
REMARK Flexibility Score: inf
ROOT
ATOM      1  C   UNL     1       0.872  -9.532 -42.079  1.00  0.00     0.044 C 
ATOM      2  C   UNL     1      -0.527 -10.068 -42.142  1.00  0.00    -0.047 A 
ATOM      3  C   UNL     1      -1.554  -9.293 -42.691  1.00  0.00     0.016 A 
ATOM      4  C   UNL     1      -2.863  -9.798 -42.779  1.00  0.00     0.038 A 
ATOM      5  C   UNL     1      -3.148 -11.100 -42.311  1.00  0.00     0.076 A 
ATOM      6  C   UNL     1      -2.086 -11.910 -41.833  1.00  0.00     0.127 A 
ATOM      7  C   UNL     1      -0.797 -11.380 -41.735  1.00  0.00     0.050 A 
ATOM      8  C   UNL     1      -4.566 -11.542 -42.284  1.00  0.00     0.201 C 
ATOM      9  O   UNL     1      -4.949 -12.367 -41.412  1.00  0.00    -0.288 OA
ATOM     10  C   UNL     1      -5.564 -10.873 -43.158  1.00  0.00     0.076 A 
ATOM     11  C   UNL     1      -5.275  -9.571 -43.628  1.00  0.00     0.041 A 
ATOM     12  C   UNL     1      -3.944  -8.973 -43.370  1.00  0.00     0.194 C 
ATOM     13  O   UNL     1      -3.724  -7.768 -43.675  1.00  0.00    -0.289 OA
ATOM     14  C   UNL     1      -6.249  -8.853 -44.341  1.00  0.00     0.059 A 
ATOM     15  C   UNL     1      -7.499  -9.423 -44.604  1.00  0.00     0.120 A 
ATOM     16  C   UNL     1      -7.773 -10.721 -44.177  1.00  0.00     0.093 A 
ATOM     17  C   UNL     1      -6.813 -11.464 -43.483  1.00  0.00     0.131 A 
ENDROOT
BRANCH   6  18
ATOM     18  O   UNL     1      -2.260 -13.251 -41.481  1.00  0.00    -0.507 OA
ATOM     19  H   UNL     1      -3.062 -13.595 -40.970  1.00  0.00     0.293 HD
ENDBRANCH   6  18
BRANCH  17  20
ATOM     20  O   UNL     1      -7.127 -12.789 -43.169  1.00  0.00    -0.507 OA
ATOM     21  H   UNL     1      -7.874 -13.052 -42.541  1.00  0.00     0.293 HD
ENDBRANCH  17  20
BRANCH  15  22
ATOM     22  O   UNL     1      -8.471  -8.708 -45.300  1.00  0.00    -0.508 OA
ATOM     23  H   UNL     1      -9.072  -8.038 -44.836  1.00  0.00     0.293 HD
ENDBRANCH  15  22
TORSDOF 3
ENDMDL
MODEL 5
REMARK VINA RESULT:    -5.244      2.074      3.340
REMARK INTER + INTRA:          -5.704
REMARK INTER:                  -5.704
REMARK INTRA:                   0.000
REMARK UNBOUND:                 0.000
REMARK SMILES Cc1cc(O)c2c(c1)C(=O)c1cc(O)cc(O)c1C2=O
REMARK SMILES IDX 1 1 2 2 8 3 7 4 6 5 4 6 3 7 19 8 20 9 18 10 11 11 9 12 10 13
REMARK SMILES IDX 12 14 13 15 15 16 16 17 5 18 17 20 14 22
REMARK H PARENT 5 19 17 21 14 23
REMARK Flexibility Score: inf
ROOT
ATOM      1  C   UNL     1      -2.805 -27.089 -47.689  1.00  0.00     0.044 C 
ATOM      2  C   UNL     1      -1.575 -26.478 -47.086  1.00  0.00    -0.047 A 
ATOM      3  C   UNL     1      -1.673 -25.701 -45.927  1.00  0.00     0.016 A 
ATOM      4  C   UNL     1      -0.522 -25.146 -45.338  1.00  0.00     0.038 A 
ATOM      5  C   UNL     1       0.745 -25.374 -45.919  1.00  0.00     0.076 A 
ATOM      6  C   UNL     1       0.844 -26.232 -47.045  1.00  0.00     0.127 A 
ATOM      7  C   UNL     1      -0.315 -26.755 -47.626  1.00  0.00     0.050 A 
ATOM      8  C   UNL     1       1.915 -24.653 -45.357  1.00  0.00     0.201 C 
ATOM      9  O   UNL     1       2.883 -24.349 -46.105  1.00  0.00    -0.288 OA
ATOM     10  C   UNL     1       1.861 -24.128 -43.968  1.00  0.00     0.076 A 
ATOM     11  C   UNL     1       0.591 -23.903 -43.388  1.00  0.00     0.041 A 
ATOM     12  C   UNL     1      -0.633 -24.331 -44.105  1.00  0.00     0.194 C 
ATOM     13  O   UNL     1      -1.770 -24.021 -43.652  1.00  0.00    -0.289 OA
ATOM     14  C   UNL     1       0.497 -23.281 -42.132  1.00  0.00     0.059 A 
ATOM     15  C   UNL     1       1.651 -22.894 -41.444  1.00  0.00     0.120 A 
ATOM     16  C   UNL     1       2.905 -23.150 -41.995  1.00  0.00     0.093 A 
ATOM     17  C   UNL     1       3.027 -23.787 -43.234  1.00  0.00     0.131 A 
ENDROOT
BRANCH   6  18
ATOM     18  O   UNL     1       2.070 -26.617 -47.594  1.00  0.00    -0.507 OA
ATOM     19  H   UNL     1       2.172 -27.373 -48.257  1.00  0.00     0.293 HD
ENDBRANCH   6  18
BRANCH  17  20
ATOM     20  O   UNL     1       4.316 -24.091 -43.678  1.00  0.00    -0.507 OA
ATOM     21  H   UNL     1       4.507 -24.639 -44.505  1.00  0.00     0.293 HD
ENDBRANCH  17  20
BRANCH  15  22
ATOM     22  O   UNL     1       1.560 -22.265 -40.204  1.00  0.00    -0.508 OA
ATOM     23  H   UNL     1       2.117 -22.566 -39.414  1.00  0.00     0.293 HD
ENDBRANCH  15  22
TORSDOF 3
ENDMDL
MODEL 6
REMARK VINA RESULT:    -5.211      2.177      5.936
REMARK INTER + INTRA:          -5.668
REMARK INTER:                  -5.668
REMARK INTRA:                   0.000
REMARK UNBOUND:                 0.000
REMARK SMILES Cc1cc(O)c2c(c1)C(=O)c1cc(O)cc(O)c1C2=O
REMARK SMILES IDX 1 1 2 2 8 3 7 4 6 5 4 6 3 7 19 8 20 9 18 10 11 11 9 12 10 13
REMARK SMILES IDX 12 14 13 15 15 16 16 17 5 18 17 20 14 22
REMARK H PARENT 5 19 17 21 14 23
REMARK Flexibility Score: inf
ROOT
ATOM      1  C   UNL     1       3.663 -21.709 -40.756  1.00  0.00     0.044 C 
ATOM      2  C   UNL     1       3.420 -22.720 -41.838  1.00  0.00    -0.047 A 
ATOM      3  C   UNL     1       2.142 -22.870 -42.386  1.00  0.00     0.016 A 
ATOM      4  C   UNL     1       1.910 -23.795 -43.419  1.00  0.00     0.038 A 
ATOM      5  C   UNL     1       2.976 -24.582 -43.911  1.00  0.00     0.076 A 
ATOM      6  C   UNL     1       4.284 -24.364 -43.409  1.00  0.00     0.127 A 
ATOM      7  C   UNL     1       4.487 -23.454 -42.367  1.00  0.00     0.050 A 
ATOM      8  C   UNL     1       2.664 -25.649 -44.896  1.00  0.00     0.201 C 
ATOM      9  O   UNL     1       3.371 -26.692 -44.935  1.00  0.00    -0.288 OA
ATOM     10  C   UNL     1       1.416 -25.571 -45.699  1.00  0.00     0.076 A 
ATOM     11  C   UNL     1       0.353 -24.781 -45.205  1.00  0.00     0.041 A 
ATOM     12  C   UNL     1       0.555 -23.942 -44.000  1.00  0.00     0.194 C 
ATOM     13  O   UNL     1      -0.424 -23.335 -43.483  1.00  0.00    -0.289 OA
ATOM     14  C   UNL     1      -0.888 -24.791 -45.863  1.00  0.00     0.059 A 
ATOM     15  C   UNL     1      -1.076 -25.565 -47.012  1.00  0.00     0.120 A 
ATOM     16  C   UNL     1      -0.018 -26.314 -47.524  1.00  0.00     0.093 A 
ATOM     17  C   UNL     1       1.234 -26.305 -46.900  1.00  0.00     0.131 A 
ENDROOT
BRANCH   6  18
ATOM     18  O   UNL     1       5.410 -25.000 -43.937  1.00  0.00    -0.507 OA
ATOM     19  H   UNL     1       5.627 -25.024 -44.924  1.00  0.00     0.293 HD
ENDBRANCH   6  18
BRANCH  17  20
ATOM     20  O   UNL     1       2.269 -27.006 -47.523  1.00  0.00    -0.507 OA
ATOM     21  H   UNL     1       2.682 -27.847 -47.143  1.00  0.00     0.293 HD
ENDBRANCH  17  20
BRANCH  15  22
ATOM     22  O   UNL     1      -2.310 -25.586 -47.659  1.00  0.00    -0.508 OA
ATOM     23  H   UNL     1      -2.810 -26.452 -47.820  1.00  0.00     0.293 HD
ENDBRANCH  15  22
TORSDOF 3
ENDMDL
MODEL 7
REMARK VINA RESULT:    -5.165     14.273     16.049
REMARK INTER + INTRA:          -5.617
REMARK INTER:                  -5.617
REMARK INTRA:                   0.000
REMARK UNBOUND:                 0.000
REMARK SMILES Cc1cc(O)c2c(c1)C(=O)c1cc(O)cc(O)c1C2=O
REMARK SMILES IDX 1 1 2 2 8 3 7 4 6 5 4 6 3 7 19 8 20 9 18 10 11 11 9 12 10 13
REMARK SMILES IDX 12 14 13 15 15 16 16 17 5 18 17 20 14 22
REMARK H PARENT 5 19 17 21 14 23
REMARK Flexibility Score: inf
ROOT
ATOM      1  C   UNL     1      -1.375 -11.000 -33.423  1.00  0.00     0.044 C 
ATOM      2  C   UNL     1      -1.634 -11.287 -34.872  1.00  0.00    -0.047 A 
ATOM      3  C   UNL     1      -1.117 -10.441 -35.860  1.00  0.00     0.016 A 
ATOM      4  C   UNL     1      -1.330 -10.717 -37.222  1.00  0.00     0.038 A 
ATOM      5  C   UNL     1      -2.072 -11.858 -37.601  1.00  0.00     0.076 A 
ATOM      6  C   UNL     1      -2.521 -12.755 -36.598  1.00  0.00     0.127 A 
ATOM      7  C   UNL     1      -2.315 -12.449 -35.249  1.00  0.00     0.050 A 
ATOM      8  C   UNL     1      -2.403 -12.035 -39.038  1.00  0.00     0.201 C 
ATOM      9  O   UNL     1      -3.462 -12.631 -39.369  1.00  0.00    -0.288 OA
ATOM     10  C   UNL     1      -1.586 -11.350 -40.073  1.00  0.00     0.076 A 
ATOM     11  C   UNL     1      -0.842 -10.210 -39.690  1.00  0.00     0.041 A 
ATOM     12  C   UNL     1      -0.772  -9.820 -38.262  1.00  0.00     0.194 C 
ATOM     13  O   UNL     1      -0.217  -8.736 -37.930  1.00  0.00    -0.289 OA
ATOM     14  C   UNL     1      -0.168  -9.455 -40.665  1.00  0.00     0.059 A 
ATOM     15  C   UNL     1      -0.215  -9.832 -42.010  1.00  0.00     0.120 A 
ATOM     16  C   UNL     1      -0.915 -10.978 -42.386  1.00  0.00     0.093 A 
ATOM     17  C   UNL     1      -1.576 -11.758 -41.432  1.00  0.00     0.131 A 
ENDROOT
BRANCH   6  18
ATOM     18  O   UNL     1      -3.140 -13.971 -36.895  1.00  0.00    -0.507 OA
ATOM     19  H   UNL     1      -3.710 -14.122 -37.716  1.00  0.00     0.293 HD
ENDBRANCH   6  18
BRANCH  17  20
ATOM     20  O   UNL     1      -2.178 -12.939 -41.871  1.00  0.00    -0.507 OA
ATOM     21  H   UNL     1      -1.662 -13.777 -42.103  1.00  0.00     0.293 HD
ENDBRANCH  17  20
BRANCH  15  22
ATOM     22  O   UNL     1       0.441  -9.078 -42.981  1.00  0.00    -0.508 OA
ATOM     23  H   UNL     1       0.632  -8.092 -42.848  1.00  0.00     0.293 HD
ENDBRANCH  15  22
TORSDOF 3
ENDMDL
MODEL 8
REMARK VINA RESULT:    -5.115     15.761     17.063
REMARK INTER + INTRA:          -5.563
REMARK INTER:                  -5.563
REMARK INTRA:                   0.000
REMARK UNBOUND:                 0.000
REMARK SMILES Cc1cc(O)c2c(c1)C(=O)c1cc(O)cc(O)c1C2=O
REMARK SMILES IDX 1 1 2 2 8 3 7 4 6 5 4 6 3 7 19 8 20 9 18 10 11 11 9 12 10 13
REMARK SMILES IDX 12 14 13 15 15 16 16 17 5 18 17 20 14 22
REMARK H PARENT 5 19 17 21 14 23
REMARK Flexibility Score: inf
ROOT
ATOM      1  C   UNL     1      -1.532  -8.444 -40.170  1.00  0.00     0.044 C 
ATOM      2  C   UNL     1      -2.710  -8.925 -40.963  1.00  0.00    -0.047 A 
ATOM      3  C   UNL     1      -2.871  -8.530 -42.295  1.00  0.00     0.016 A 
ATOM      4  C   UNL     1      -3.957  -8.998 -43.055  1.00  0.00     0.038 A 
ATOM      5  C   UNL     1      -4.897  -9.876 -42.471  1.00  0.00     0.076 A 
ATOM      6  C   UNL     1      -4.683 -10.338 -41.147  1.00  0.00     0.127 A 
ATOM      7  C   UNL     1      -3.607  -9.843 -40.404  1.00  0.00     0.050 A 
ATOM      8  C   UNL     1      -6.108 -10.230 -43.255  1.00  0.00     0.201 C 
ATOM      9  O   UNL     1      -7.187 -10.491 -42.659  1.00  0.00    -0.288 OA
ATOM     10  C   UNL     1      -6.096 -10.093 -44.734  1.00  0.00     0.076 A 
ATOM     11  C   UNL     1      -5.152  -9.216 -45.316  1.00  0.00     0.041 A 
ATOM     12  C   UNL     1      -4.115  -8.581 -44.469  1.00  0.00     0.194 C 
ATOM     13  O   UNL     1      -3.351  -7.703 -44.958  1.00  0.00    -0.289 OA
ATOM     14  C   UNL     1      -5.198  -8.955 -46.695  1.00  0.00     0.059 A 
ATOM     15  C   UNL     1      -6.162  -9.567 -47.502  1.00  0.00     0.120 A 
ATOM     16  C   UNL     1      -7.069 -10.463 -46.938  1.00  0.00     0.093 A 
ATOM     17  C   UNL     1      -7.031 -10.757 -45.571  1.00  0.00     0.131 A 
ENDROOT
BRANCH   6  18
ATOM     18  O   UNL     1      -5.487 -11.309 -40.547  1.00  0.00    -0.507 OA
ATOM     19  H   UNL     1      -6.408 -11.557 -40.884  1.00  0.00     0.293 HD
ENDBRANCH   6  18
BRANCH  17  20
ATOM     20  O   UNL     1      -7.911 -11.732 -45.097  1.00  0.00    -0.507 OA
ATOM     21  H   UNL     1      -8.905 -11.584 -44.989  1.00  0.00     0.293 HD
ENDBRANCH  17  20
BRANCH  15  22
ATOM     22  O   UNL     1      -6.218  -9.301 -48.868  1.00  0.00    -0.508 OA
ATOM     23  H   UNL     1      -5.377  -9.215 -49.427  1.00  0.00     0.293 HD
ENDBRANCH  15  22
TORSDOF 3
ENDMDL
MODEL 9
REMARK VINA RESULT:    -5.090     15.177     17.410
REMARK INTER + INTRA:          -5.536
REMARK INTER:                  -5.536
REMARK INTRA:                   0.000
REMARK UNBOUND:                 0.000
REMARK SMILES Cc1cc(O)c2c(c1)C(=O)c1cc(O)cc(O)c1C2=O
REMARK SMILES IDX 1 1 2 2 8 3 7 4 6 5 4 6 3 7 19 8 20 9 18 10 11 11 9 12 10 13
REMARK SMILES IDX 12 14 13 15 15 16 16 17 5 18 17 20 14 22
REMARK H PARENT 5 19 17 21 14 23
REMARK Flexibility Score: inf
ROOT
ATOM      1  C   UNL     1      -1.052  -9.129 -41.349  1.00  0.00     0.044 C 
ATOM      2  C   UNL     1      -1.106  -9.381 -39.871  1.00  0.00    -0.047 A 
ATOM      3  C   UNL     1      -1.583 -10.602 -39.383  1.00  0.00     0.016 A 
ATOM      4  C   UNL     1      -1.613 -10.858 -38.000  1.00  0.00     0.038 A 
ATOM      5  C   UNL     1      -1.156  -9.876 -37.094  1.00  0.00     0.076 A 
ATOM      6  C   UNL     1      -0.597  -8.675 -37.600  1.00  0.00     0.127 A 
ATOM      7  C   UNL     1      -0.597  -8.433 -38.977  1.00  0.00     0.050 A 
ATOM      8  C   UNL     1      -1.340 -10.122 -35.641  1.00  0.00     0.201 C 
ATOM      9  O   UNL     1      -1.504  -9.150 -34.856  1.00  0.00    -0.288 OA
ATOM     10  C   UNL     1      -1.518 -11.511 -35.144  1.00  0.00     0.076 A 
ATOM     11  C   UNL     1      -1.972 -12.493 -36.055  1.00  0.00     0.041 A 
ATOM     12  C   UNL     1      -2.112 -12.157 -37.492  1.00  0.00     0.194 C 
ATOM     13  O   UNL     1      -2.635 -12.988 -38.286  1.00  0.00    -0.289 OA
ATOM     14  C   UNL     1      -2.283 -13.783 -35.595  1.00  0.00     0.059 A 
ATOM     15  C   UNL     1      -2.133 -14.109 -34.243  1.00  0.00     0.120 A 
ATOM     16  C   UNL     1      -1.647 -13.156 -33.350  1.00  0.00     0.093 A 
ATOM     17  C   UNL     1      -1.311 -11.871 -33.787  1.00  0.00     0.131 A 
ENDROOT
BRANCH   6  18
ATOM     18  O   UNL     1       0.000  -7.715 -36.778  1.00  0.00    -0.507 OA
ATOM     19  H   UNL     1      -0.316  -6.757 -36.718  1.00  0.00     0.293 HD
ENDBRANCH   6  18
BRANCH  17  20
ATOM     20  O   UNL     1      -0.745 -11.000 -32.853  1.00  0.00    -0.507 OA
ATOM     21  H   UNL     1      -1.082 -10.901 -31.905  1.00  0.00     0.293 HD
ENDBRANCH  17  20
BRANCH  15  22
ATOM     22  O   UNL     1      -2.452 -15.384 -33.782  1.00  0.00    -0.508 OA
ATOM     23  H   UNL     1      -3.284 -15.870 -34.096  1.00  0.00     0.293 HD
ENDBRANCH  15  22
TORSDOF 3
ENDMDL
