MODEL 1
REMARK VINA RESULT:    -5.781      0.000      0.000
REMARK INTER + INTRA:          -7.088
REMARK INTER:                  -6.964
REMARK INTRA:                  -0.124
REMARK UNBOUND:                -0.124
REMARK SMILES O=c1ccn([C@@H]2O[C@H](CO)[C@@H](O)[C@@H]2O)c(=O)[nH]1
REMARK SMILES IDX 6 1 13 2 11 3 8 4 7 5 5 6 3 7 4 8 2 9 17 10 1 11 15 12 16 14
REMARK SMILES IDX 14 15 12 17 9 19 10 20
REMARK H PARENT 17 13 14 16 12 18 10 21
REMARK Flexibility Score: inf
ROOT
ATOM      1  C   UNL     1      28.921  58.370   0.023  1.00  0.00     0.255 C 
ATOM      2  C   UNL     1      29.525  57.365   1.016  1.00  0.00     0.196 C 
ATOM      3  C   UNL     1      30.822  58.019   1.421  1.00  0.00     0.179 C 
ATOM      4  C   UNL     1      30.523  59.494   1.191  1.00  0.00     0.178 C 
ATOM      5  O   UNL     1      29.622  59.595   0.112  1.00  0.00    -0.347 OA
ENDROOT
BRANCH   1   6
ATOM      6  N   UNL     1      28.957  57.864  -1.368  1.00  0.00    -0.271 N 
ATOM      7  C   UNL     1      30.004  57.815  -3.526  1.00  0.00     0.090 A 
ATOM      8  C   UNL     1      29.935  58.297  -2.223  1.00  0.00     0.099 A 
ATOM      9  C   UNL     1      29.070  56.873  -3.940  1.00  0.00     0.253 A 
ATOM     10  N   UNL     1      28.119  56.439  -3.072  1.00  0.00    -0.274 N 
ATOM     11  O   UNL     1      29.109  56.420  -5.115  1.00  0.00    -0.269 OA
ATOM     12  C   UNL     1      28.059  56.915  -1.797  1.00  0.00     0.330 A 
ATOM     13  H   UNL     1      27.425  55.723  -3.387  1.00  0.00     0.175 HD
ATOM     14  O   UNL     1      27.173  56.469  -1.018  1.00  0.00    -0.248 OA
ENDBRANCH   1   6
BRANCH   2  15
ATOM     15  O   UNL     1      29.747  56.106   0.435  1.00  0.00    -0.386 OA
ATOM     16  H   UNL     1      30.282  56.264  -0.387  1.00  0.00     0.211 HD
ENDBRANCH   2  15
BRANCH   3  17
ATOM     17  O   UNL     1      31.121  57.776   2.770  1.00  0.00    -0.387 OA
ATOM     18  H   UNL     1      30.263  57.536   3.209  1.00  0.00     0.211 HD
ENDBRANCH   3  17
BRANCH   4  19
ATOM     19  C   UNL     1      31.789  60.307   0.884  1.00  0.00     0.191 C 
BRANCH  19  20
ATOM     20  O   UNL     1      31.860  60.625  -0.480  1.00  0.00    -0.394 OA
ATOM     21  H   UNL     1      32.784  60.949  -0.647  1.00  0.00     0.210 HD
ENDBRANCH  19  20
ENDBRANCH   4  19
TORSDOF 5
ENDMDL
MODEL 2
REMARK VINA RESULT:    -5.694      2.322      4.751
REMARK INTER + INTRA:          -6.982
REMARK INTER:                  -6.618
REMARK INTRA:                  -0.365
REMARK UNBOUND:                -0.124
REMARK SMILES O=c1ccn([C@@H]2O[C@H](CO)[C@@H](O)[C@@H]2O)c(=O)[nH]1
REMARK SMILES IDX 6 1 13 2 11 3 8 4 7 5 5 6 3 7 4 8 2 9 17 10 1 11 15 12 16 14
REMARK SMILES IDX 14 15 12 17 9 19 10 20
REMARK H PARENT 17 13 14 16 12 18 10 21
REMARK Flexibility Score: inf
ROOT
ATOM      1  C   UNL     1      29.424  58.954  -0.438  1.00  0.00     0.255 C 
ATOM      2  C   UNL     1      28.671  58.333  -1.625  1.00  0.00     0.196 C 
ATOM      3  C   UNL     1      28.051  57.095  -1.029  1.00  0.00     0.179 C 
ATOM      4  C   UNL     1      27.934  57.471   0.441  1.00  0.00     0.178 C 
ATOM      5  O   UNL     1      29.004  58.331   0.760  1.00  0.00    -0.347 OA
ENDROOT
BRANCH   1   6
ATOM      6  N   UNL     1      30.892  58.831  -0.587  1.00  0.00    -0.271 N 
ATOM      7  C   UNL     1      32.919  57.613  -0.181  1.00  0.00     0.090 A 
ATOM      8  C   UNL     1      31.544  57.763  -0.030  1.00  0.00     0.099 A 
ATOM      9  C   UNL     1      33.617  58.561  -0.920  1.00  0.00     0.253 A 
ATOM     10  N   UNL     1      32.951  59.603  -1.482  1.00  0.00    -0.274 N 
ATOM     11  O   UNL     1      34.863  58.449  -1.071  1.00  0.00    -0.269 OA
ATOM     12  C   UNL     1      31.605  59.741  -1.332  1.00  0.00     0.330 A 
ATOM     13  H   UNL     1      33.481  60.306  -2.045  1.00  0.00     0.175 HD
ATOM     14  O   UNL     1      31.023  60.712  -1.889  1.00  0.00    -0.248 OA
ENDBRANCH   1   6
BRANCH   2  15
ATOM     15  O   UNL     1      29.527  58.014  -2.693  1.00  0.00    -0.386 OA
ATOM     16  H   UNL     1      28.943  57.801  -3.469  1.00  0.00     0.211 HD
ENDBRANCH   2  15
BRANCH   3  17
ATOM     17  O   UNL     1      26.786  56.838  -1.580  1.00  0.00    -0.387 OA
ATOM     18  H   UNL     1      26.919  56.751  -2.560  1.00  0.00     0.211 HD
ENDBRANCH   3  17
BRANCH   4  19
ATOM     19  C   UNL     1      27.966  56.243   1.363  1.00  0.00     0.191 C 
BRANCH  19  20
ATOM     20  O   UNL     1      27.105  55.242   0.891  1.00  0.00    -0.394 OA
ATOM     21  H   UNL     1      27.348  54.409   1.373  1.00  0.00     0.210 HD
ENDBRANCH  19  20
ENDBRANCH   4  19
TORSDOF 5
ENDMDL
MODEL 3
REMARK VINA RESULT:    -5.647     13.180     14.637
REMARK INTER + INTRA:          -6.926
REMARK INTER:                  -6.552
REMARK INTRA:                  -0.374
REMARK UNBOUND:                -0.124
REMARK SMILES O=c1ccn([C@@H]2O[C@H](CO)[C@@H](O)[C@@H]2O)c(=O)[nH]1
REMARK SMILES IDX 6 1 13 2 11 3 8 4 7 5 5 6 3 7 4 8 2 9 17 10 1 11 15 12 16 14
REMARK SMILES IDX 14 15 12 17 9 19 10 20
REMARK H PARENT 17 13 14 16 12 18 10 21
REMARK Flexibility Score: inf
ROOT
ATOM      1  C   UNL     1      40.559  60.316   8.482  1.00  0.00     0.255 C 
ATOM      2  C   UNL     1      39.171  59.844   8.021  1.00  0.00     0.196 C 
ATOM      3  C   UNL     1      39.423  58.431   7.563  1.00  0.00     0.179 C 
ATOM      4  C   UNL     1      40.646  58.041   8.382  1.00  0.00     0.178 C 
ATOM      5  O   UNL     1      41.421  59.200   8.590  1.00  0.00    -0.347 OA
ENDROOT
BRANCH   1   6
ATOM      6  N   UNL     1      41.138  61.318   7.558  1.00  0.00    -0.271 N 
ATOM      7  C   UNL     1      42.479  61.827   5.634  1.00  0.00     0.090 A 
ATOM      8  C   UNL     1      41.945  60.907   6.530  1.00  0.00     0.099 A 
ATOM      9  C   UNL     1      42.166  63.172   5.793  1.00  0.00     0.253 A 
ATOM     10  N   UNL     1      41.348  63.560   6.807  1.00  0.00    -0.274 N 
ATOM     11  O   UNL     1      42.636  64.027   4.996  1.00  0.00    -0.269 OA
ATOM     12  C   UNL     1      40.829  62.651   7.678  1.00  0.00     0.330 A 
ATOM     13  H   UNL     1      41.110  64.572   6.914  1.00  0.00     0.175 HD
ATOM     14  O   UNL     1      40.056  63.053   8.592  1.00  0.00    -0.248 OA
ENDBRANCH   1   6
BRANCH   2  15
ATOM     15  O   UNL     1      38.655  60.635   6.980  1.00  0.00    -0.386 OA
ATOM     16  H   UNL     1      39.173  61.482   6.986  1.00  0.00     0.211 HD
ENDBRANCH   2  15
BRANCH   3  17
ATOM     17  O   UNL     1      38.337  57.593   7.861  1.00  0.00    -0.387 OA
ATOM     18  H   UNL     1      37.535  58.176   7.899  1.00  0.00     0.211 HD
ENDBRANCH   3  17
BRANCH   4  19
ATOM     19  C   UNL     1      41.498  56.969   7.688  1.00  0.00     0.191 C 
BRANCH  19  20
ATOM     20  O   UNL     1      40.808  56.409   6.603  1.00  0.00    -0.394 OA
ATOM     21  H   UNL     1      41.046  56.951   5.806  1.00  0.00     0.210 HD
ENDBRANCH  19  20
ENDBRANCH   4  19
TORSDOF 5
ENDMDL
MODEL 4
REMARK VINA RESULT:    -5.562      2.277      4.128
REMARK INTER + INTRA:          -6.823
REMARK INTER:                  -6.561
REMARK INTRA:                  -0.262
REMARK UNBOUND:                -0.124
REMARK SMILES O=c1ccn([C@@H]2O[C@H](CO)[C@@H](O)[C@@H]2O)c(=O)[nH]1
REMARK SMILES IDX 6 1 13 2 11 3 8 4 7 5 5 6 3 7 4 8 2 9 17 10 1 11 15 12 16 14
REMARK SMILES IDX 14 15 12 17 9 19 10 20
REMARK H PARENT 17 13 14 16 12 18 10 21
REMARK Flexibility Score: inf
ROOT
ATOM      1  C   UNL     1      30.257  57.861  -0.741  1.00  0.00     0.255 C 
ATOM      2  C   UNL     1      30.781  59.120  -1.449  1.00  0.00     0.196 C 
ATOM      3  C   UNL     1      32.081  59.398  -0.739  1.00  0.00     0.179 C 
ATOM      4  C   UNL     1      32.473  58.016  -0.236  1.00  0.00     0.178 C 
ATOM      5  O   UNL     1      31.292  57.299   0.042  1.00  0.00    -0.347 OA
ENDROOT
BRANCH   1   6
ATOM      6  N   UNL     1      29.079  58.153   0.107  1.00  0.00    -0.271 N 
ATOM      7  C   UNL     1      28.157  59.083   2.118  1.00  0.00     0.090 A 
ATOM      8  C   UNL     1      29.251  58.775   1.316  1.00  0.00     0.099 A 
ATOM      9  C   UNL     1      26.883  58.760   1.664  1.00  0.00     0.253 A 
ATOM     10  N   UNL     1      26.731  58.162   0.453  1.00  0.00    -0.274 N 
ATOM     11  O   UNL     1      25.875  59.027   2.370  1.00  0.00    -0.269 OA
ATOM     12  C   UNL     1      27.807  57.865  -0.327  1.00  0.00     0.330 A 
ATOM     13  H   UNL     1      25.769  57.931   0.113  1.00  0.00     0.175 HD
ATOM     14  O   UNL     1      27.618  57.329  -1.453  1.00  0.00    -0.248 OA
ENDBRANCH   1   6
BRANCH   2  15
ATOM     15  O   UNL     1      29.895  60.205  -1.338  1.00  0.00    -0.386 OA
ATOM     16  H   UNL     1      30.454  61.026  -1.336  1.00  0.00     0.211 HD
ENDBRANCH   2  15
BRANCH   3  17
ATOM     17  O   UNL     1      33.050  59.900  -1.621  1.00  0.00    -0.387 OA
ATOM     18  H   UNL     1      33.923  59.542  -1.312  1.00  0.00     0.211 HD
ENDBRANCH   3  17
BRANCH   4  19
ATOM     19  C   UNL     1      33.347  58.079   1.025  1.00  0.00     0.191 C 
BRANCH  19  20
ATOM     20  O   UNL     1      34.286  59.116   0.931  1.00  0.00    -0.394 OA
ATOM     21  H   UNL     1      34.066  59.764   1.650  1.00  0.00     0.210 HD
ENDBRANCH  19  20
ENDBRANCH   4  19
TORSDOF 5
ENDMDL
MODEL 5
REMARK VINA RESULT:    -5.537     12.457     14.571
REMARK INTER + INTRA:          -6.794
REMARK INTER:                  -6.419
REMARK INTRA:                  -0.374
REMARK UNBOUND:                -0.124
REMARK SMILES O=c1ccn([C@@H]2O[C@H](CO)[C@@H](O)[C@@H]2O)c(=O)[nH]1
REMARK SMILES IDX 6 1 13 2 11 3 8 4 7 5 5 6 3 7 4 8 2 9 17 10 1 11 15 12 16 14
REMARK SMILES IDX 14 15 12 17 9 19 10 20
REMARK H PARENT 17 13 14 16 12 18 10 21
REMARK Flexibility Score: inf
ROOT
ATOM      1  C   UNL     1      40.883  59.942   6.031  1.00  0.00     0.255 C 
ATOM      2  C   UNL     1      41.679  59.047   6.993  1.00  0.00     0.196 C 
ATOM      3  C   UNL     1      40.612  58.197   7.635  1.00  0.00     0.179 C 
ATOM      4  C   UNL     1      39.520  58.199   6.574  1.00  0.00     0.178 C 
ATOM      5  O   UNL     1      39.570  59.432   5.895  1.00  0.00    -0.347 OA
ENDROOT
BRANCH   1   6
ATOM      6  N   UNL     1      40.836  61.348   6.494  1.00  0.00    -0.271 N 
ATOM      7  C   UNL     1      39.737  63.083   7.734  1.00  0.00     0.090 A 
ATOM      8  C   UNL     1      39.788  61.774   7.266  1.00  0.00     0.099 A 
ATOM      9  C   UNL     1      40.778  63.948   7.415  1.00  0.00     0.253 A 
ATOM     10  N   UNL     1      41.819  63.502   6.665  1.00  0.00    -0.274 N 
ATOM     11  O   UNL     1      40.756  65.138   7.826  1.00  0.00    -0.269 OA
ATOM     12  C   UNL     1      41.862  62.218   6.213  1.00  0.00     0.330 A 
ATOM     13  H   UNL     1      42.603  64.155   6.438  1.00  0.00     0.175 HD
ATOM     14  O   UNL     1      42.859  61.840   5.537  1.00  0.00    -0.248 OA
ENDBRANCH   1   6
BRANCH   2  15
ATOM     15  O   UNL     1      42.388  59.789   7.952  1.00  0.00    -0.386 OA
ATOM     16  H   UNL     1      42.028  60.714   7.916  1.00  0.00     0.211 HD
ENDBRANCH   2  15
BRANCH   3  17
ATOM     17  O   UNL     1      41.070  56.893   7.876  1.00  0.00    -0.387 OA
ATOM     18  H   UNL     1      40.790  56.348   7.095  1.00  0.00     0.211 HD
ENDBRANCH   3  17
BRANCH   4  19
ATOM     19  C   UNL     1      38.121  57.997   7.175  1.00  0.00     0.191 C 
BRANCH  19  20
ATOM     20  O   UNL     1      38.206  57.642   8.529  1.00  0.00    -0.394 OA
ATOM     21  H   UNL     1      38.973  57.017   8.611  1.00  0.00     0.210 HD
ENDBRANCH  19  20
ENDBRANCH   4  19
TORSDOF 5
ENDMDL
MODEL 6
REMARK VINA RESULT:    -5.519     13.599     14.690
REMARK INTER + INTRA:          -6.771
REMARK INTER:                  -6.610
REMARK INTRA:                  -0.162
REMARK UNBOUND:                -0.124
REMARK SMILES O=c1ccn([C@@H]2O[C@H](CO)[C@@H](O)[C@@H]2O)c(=O)[nH]1
REMARK SMILES IDX 6 1 13 2 11 3 8 4 7 5 5 6 3 7 4 8 2 9 17 10 1 11 15 12 16 14
REMARK SMILES IDX 14 15 12 17 9 19 10 20
REMARK H PARENT 17 13 14 16 12 18 10 21
REMARK Flexibility Score: inf
ROOT
ATOM      1  C   UNL     1      40.883  61.060   8.306  1.00  0.00     0.255 C 
ATOM      2  C   UNL     1      39.723  60.070   8.118  1.00  0.00     0.196 C 
ATOM      3  C   UNL     1      40.346  58.959   7.311  1.00  0.00     0.179 C 
ATOM      4  C   UNL     1      41.817  59.075   7.689  1.00  0.00     0.178 C 
ATOM      5  O   UNL     1      42.098  60.432   7.945  1.00  0.00    -0.347 OA
ENDROOT
BRANCH   1   6
ATOM      6  N   UNL     1      40.693  62.294   7.510  1.00  0.00    -0.271 N 
ATOM      7  C   UNL     1      41.044  63.520   5.477  1.00  0.00     0.090 A 
ATOM      8  C   UNL     1      41.233  62.381   6.254  1.00  0.00     0.099 A 
ATOM      9  C   UNL     1      40.285  64.563   5.994  1.00  0.00     0.253 A 
ATOM     10  N   UNL     1      39.740  64.450   7.234  1.00  0.00    -0.274 N 
ATOM     11  O   UNL     1      40.098  65.606   5.313  1.00  0.00    -0.269 OA
ATOM     12  C   UNL     1      39.928  63.331   7.987  1.00  0.00     0.330 A 
ATOM     13  H   UNL     1      39.161  65.235   7.613  1.00  0.00     0.175 HD
ATOM     14  O   UNL     1      39.385  63.260   9.124  1.00  0.00    -0.248 OA
ENDBRANCH   1   6
BRANCH   2  15
ATOM     15  O   UNL     1      38.634  60.644   7.441  1.00  0.00    -0.386 OA
ATOM     16  H   UNL     1      38.602  60.219   6.544  1.00  0.00     0.211 HD
ENDBRANCH   2  15
BRANCH   3  17
ATOM     17  O   UNL     1      39.834  57.706   7.682  1.00  0.00    -0.387 OA
ATOM     18  H   UNL     1      39.987  57.101   6.910  1.00  0.00     0.211 HD
ENDBRANCH   3  17
BRANCH   4  19
ATOM     19  C   UNL     1      42.747  58.554   6.584  1.00  0.00     0.191 C 
BRANCH  19  20
ATOM     20  O   UNL     1      43.542  57.500   7.056  1.00  0.00    -0.394 OA
ATOM     21  H   UNL     1      43.431  57.482   8.043  1.00  0.00     0.210 HD
ENDBRANCH  19  20
ENDBRANCH   4  19
TORSDOF 5
ENDMDL
MODEL 7
REMARK VINA RESULT:    -5.500     12.907     14.679
REMARK INTER + INTRA:          -6.748
REMARK INTER:                  -6.385
REMARK INTRA:                  -0.363
REMARK UNBOUND:                -0.124
REMARK SMILES O=c1ccn([C@@H]2O[C@H](CO)[C@@H](O)[C@@H]2O)c(=O)[nH]1
REMARK SMILES IDX 6 1 13 2 11 3 8 4 7 5 5 6 3 7 4 8 2 9 17 10 1 11 15 12 16 14
REMARK SMILES IDX 14 15 12 17 9 19 10 20
REMARK H PARENT 17 13 14 16 12 18 10 21
REMARK Flexibility Score: inf
ROOT
ATOM      1  C   UNL     1      40.096  62.545   6.272  1.00  0.00     0.255 C 
ATOM      2  C   UNL     1      39.421  63.259   7.453  1.00  0.00     0.196 C 
ATOM      3  C   UNL     1      40.347  64.415   7.731  1.00  0.00     0.179 C 
ATOM      4  C   UNL     1      41.005  64.632   6.375  1.00  0.00     0.178 C 
ATOM      5  O   UNL     1      41.097  63.383   5.729  1.00  0.00    -0.347 OA
ENDROOT
BRANCH   1   6
ATOM      6  N   UNL     1      40.682  61.246   6.672  1.00  0.00    -0.271 N 
ATOM      7  C   UNL     1      42.551  59.985   7.497  1.00  0.00     0.090 A 
ATOM      8  C   UNL     1      41.986  61.190   7.090  1.00  0.00     0.099 A 
ATOM      9  C   UNL     1      41.762  58.840   7.484  1.00  0.00     0.253 A 
ATOM     10  N   UNL     1      40.465  58.919   7.085  1.00  0.00    -0.274 N 
ATOM     11  O   UNL     1      42.248  57.736   7.846  1.00  0.00    -0.269 OA
ATOM     12  C   UNL     1      39.920  60.103   6.691  1.00  0.00     0.330 A 
ATOM     13  H   UNL     1      39.876  58.055   7.088  1.00  0.00     0.175 HD
ATOM     14  O   UNL     1      38.706  60.134   6.350  1.00  0.00    -0.248 OA
ENDBRANCH   1   6
BRANCH   2  15
ATOM     15  O   UNL     1      39.290  62.427   8.578  1.00  0.00    -0.386 OA
ATOM     16  H   UNL     1      39.572  62.967   9.363  1.00  0.00     0.211 HD
ENDBRANCH   2  15
BRANCH   3  17
ATOM     17  O   UNL     1      39.637  65.559   8.128  1.00  0.00    -0.387 OA
ATOM     18  H   UNL     1      40.295  66.301   8.161  1.00  0.00     0.211 HD
ENDBRANCH   3  17
BRANCH   4  19
ATOM     19  C   UNL     1      42.403  65.255   6.497  1.00  0.00     0.191 C 
BRANCH  19  20
ATOM     20  O   UNL     1      42.436  66.213   7.520  1.00  0.00    -0.394 OA
ATOM     21  H   UNL     1      42.762  65.747   8.334  1.00  0.00     0.210 HD
ENDBRANCH  19  20
ENDBRANCH   4  19
TORSDOF 5
ENDMDL
MODEL 8
REMARK VINA RESULT:    -5.498      2.286      4.103
REMARK INTER + INTRA:          -6.747
REMARK INTER:                  -6.688
REMARK INTRA:                  -0.059
REMARK UNBOUND:                -0.124
REMARK SMILES O=c1ccn([C@@H]2O[C@H](CO)[C@@H](O)[C@@H]2O)c(=O)[nH]1
REMARK SMILES IDX 6 1 13 2 11 3 8 4 7 5 5 6 3 7 4 8 2 9 17 10 1 11 15 12 16 14
REMARK SMILES IDX 14 15 12 17 9 19 10 20
REMARK H PARENT 17 13 14 16 12 18 10 21
REMARK Flexibility Score: inf
ROOT
ATOM      1  C   UNL     1      29.980  59.740  -0.978  1.00  0.00     0.255 C 
ATOM      2  C   UNL     1      31.467  59.590  -0.621  1.00  0.00     0.196 C 
ATOM      3  C   UNL     1      32.102  59.229  -1.939  1.00  0.00     0.179 C 
ATOM      4  C   UNL     1      31.132  59.841  -2.941  1.00  0.00     0.178 C 
ATOM      5  O   UNL     1      29.839  59.792  -2.385  1.00  0.00    -0.347 OA
ENDROOT
BRANCH   1   6
ATOM      6  N   UNL     1      29.164  58.635  -0.426  1.00  0.00    -0.271 N 
ATOM      7  C   UNL     1      28.034  56.541  -0.737  1.00  0.00     0.090 A 
ATOM      8  C   UNL     1      28.779  57.603  -1.240  1.00  0.00     0.099 A 
ATOM      9  C   UNL     1      27.700  56.540   0.612  1.00  0.00     0.253 A 
ATOM     10  N   UNL     1      28.108  57.562   1.409  1.00  0.00    -0.274 N 
ATOM     11  O   UNL     1      27.026  55.590   1.094  1.00  0.00    -0.269 OA
ATOM     12  C   UNL     1      28.838  58.597   0.909  1.00  0.00     0.330 A 
ATOM     13  H   UNL     1      27.861  57.549   2.425  1.00  0.00     0.175 HD
ATOM     14  O   UNL     1      29.214  59.514   1.689  1.00  0.00    -0.248 OA
ENDBRANCH   1   6
BRANCH   2  15
ATOM     15  O   UNL     1      31.688  58.593   0.343  1.00  0.00    -0.386 OA
ATOM     16  H   UNL     1      32.668  58.430   0.362  1.00  0.00     0.211 HD
ENDBRANCH   2  15
BRANCH   3  17
ATOM     17  O   UNL     1      33.377  59.800  -2.069  1.00  0.00    -0.387 OA
ATOM     18  H   UNL     1      33.980  59.278  -1.476  1.00  0.00     0.211 HD
ENDBRANCH   3  17
BRANCH   4  19
ATOM     19  C   UNL     1      31.143  59.106  -4.289  1.00  0.00     0.191 C 
BRANCH  19  20
ATOM     20  O   UNL     1      31.155  60.017  -5.355  1.00  0.00    -0.394 OA
ATOM     21  H   UNL     1      31.575  60.849  -5.012  1.00  0.00     0.210 HD
ENDBRANCH  19  20
ENDBRANCH   4  19
TORSDOF 5
ENDMDL
MODEL 9
REMARK VINA RESULT:    -5.442      1.994      2.483
REMARK INTER + INTRA:          -6.680
REMARK INTER:                  -6.315
REMARK INTRA:                  -0.364
REMARK UNBOUND:                -0.124
REMARK SMILES O=c1ccn([C@@H]2O[C@H](CO)[C@@H](O)[C@@H]2O)c(=O)[nH]1
REMARK SMILES IDX 6 1 13 2 11 3 8 4 7 5 5 6 3 7 4 8 2 9 17 10 1 11 15 12 16 14
REMARK SMILES IDX 14 15 12 17 9 19 10 20
REMARK H PARENT 17 13 14 16 12 18 10 21
REMARK Flexibility Score: inf
ROOT
ATOM      1  C   UNL     1      28.365  57.999   0.848  1.00  0.00     0.255 C 
ATOM      2  C   UNL     1      29.063  56.854   1.599  1.00  0.00     0.196 C 
ATOM      3  C   UNL     1      29.665  57.545   2.795  1.00  0.00     0.179 C 
ATOM      4  C   UNL     1      28.751  58.750   2.964  1.00  0.00     0.178 C 
ATOM      5  O   UNL     1      28.292  59.134   1.688  1.00  0.00    -0.347 OA
ENDROOT
BRANCH   1   6
ATOM      6  N   UNL     1      29.065  58.343  -0.411  1.00  0.00    -0.271 N 
ATOM      7  C   UNL     1      30.668  59.686  -1.587  1.00  0.00     0.090 A 
ATOM      8  C   UNL     1      29.979  59.363  -0.423  1.00  0.00     0.099 A 
ATOM      9  C   UNL     1      30.422  58.944  -2.736  1.00  0.00     0.253 A 
ATOM     10  N   UNL     1      29.527  57.923  -2.701  1.00  0.00    -0.274 N 
ATOM     11  O   UNL     1      31.032  59.216  -3.805  1.00  0.00    -0.269 OA
ATOM     12  C   UNL     1      28.858  57.612  -1.556  1.00  0.00     0.330 A 
ATOM     13  H   UNL     1      29.354  57.363  -3.567  1.00  0.00     0.175 HD
ATOM     14  O   UNL     1      28.052  56.641  -1.563  1.00  0.00    -0.248 OA
ENDBRANCH   1   6
BRANCH   2  15
ATOM     15  O   UNL     1      30.049  56.226   0.820  1.00  0.00    -0.386 OA
ATOM     16  H   UNL     1      29.901  56.523  -0.116  1.00  0.00     0.211 HD
ENDBRANCH   2  15
BRANCH   3  17
ATOM     17  O   UNL     1      29.625  56.726   3.935  1.00  0.00    -0.387 OA
ATOM     18  H   UNL     1      30.376  56.083   3.845  1.00  0.00     0.211 HD
ENDBRANCH   3  17
BRANCH   4  19
ATOM     19  C   UNL     1      29.462  59.934   3.635  1.00  0.00     0.191 C 
BRANCH  19  20
ATOM     20  O   UNL     1      30.372  59.486   4.603  1.00  0.00    -0.394 OA
ATOM     21  H   UNL     1      31.269  59.502   4.178  1.00  0.00     0.210 HD
ENDBRANCH  19  20
ENDBRANCH   4  19
TORSDOF 5
ENDMDL
