MODEL 1
REMARK VINA RESULT:    -5.161      0.000      0.000
REMARK INTER + INTRA:          -5.904
REMARK INTER:                  -5.765
REMARK INTRA:                  -0.139
REMARK UNBOUND:                -0.139
REMARK SMILES O=C([O-])C=Cc1ccccc1
REMARK SMILES IDX 4 1 5 2 2 3 1 4 3 5 6 6 7 7 11 8 8 9 10 10 9 11
REMARK H PARENT
REMARK Flexibility Score: inf
ROOT
ATOM      1  C   UNL     1      12.584  51.555  42.251  1.00  0.00     0.025 C 
ATOM      2  C   UNL     1      11.712  50.596  41.904  1.00  0.00     0.010 C 
ENDROOT
BRANCH   1   3
ATOM      3  C   UNL     1      13.979  51.251  42.613  1.00  0.00     0.064 C 
ATOM      4  O   UNL     1      14.711  50.550  41.864  1.00  0.00    -0.545 OA
ATOM      5  O   UNL     1      14.499  51.748  43.801  1.00  0.00    -0.545 OA
ENDBRANCH   1   3
BRANCH   2   6
ATOM      6  C   UNL     1      10.291  50.836  41.528  1.00  0.00    -0.026 A 
ATOM      7  C   UNL     1       9.637  50.146  40.484  1.00  0.00     0.008 A 
ATOM      8  C   UNL     1       9.567  51.801  42.253  1.00  0.00     0.008 A 
ATOM      9  C   UNL     1       8.299  50.421  40.182  1.00  0.00     0.001 A 
ATOM     10  C   UNL     1       8.231  52.071  41.947  1.00  0.00     0.001 A 
ATOM     11  C   UNL     1       7.597  51.381  40.913  1.00  0.00     0.000 A 
ENDBRANCH   2   6
TORSDOF 2
ENDMDL
MODEL 2
REMARK VINA RESULT:    -5.127      0.125      1.464
REMARK INTER + INTRA:          -5.866
REMARK INTER:                  -5.735
REMARK INTRA:                  -0.130
REMARK UNBOUND:                -0.139
REMARK SMILES O=C([O-])C=Cc1ccccc1
REMARK SMILES IDX 4 1 5 2 2 3 1 4 3 5 6 6 7 7 11 8 8 9 10 10 9 11
REMARK H PARENT
REMARK Flexibility Score: inf
ROOT
ATOM      1  C   UNL     1      12.524  51.564  42.278  1.00  0.00     0.025 C 
ATOM      2  C   UNL     1      11.646  50.655  41.826  1.00  0.00     0.010 C 
ENDROOT
BRANCH   1   3
ATOM      3  C   UNL     1      13.933  51.228  42.540  1.00  0.00     0.064 C 
ATOM      4  O   UNL     1      14.631  50.622  41.684  1.00  0.00    -0.545 OA
ATOM      5  O   UNL     1      14.506  51.589  43.753  1.00  0.00    -0.545 OA
ENDBRANCH   1   3
BRANCH   2   6
ATOM      6  C   UNL     1      10.210  50.929  41.542  1.00  0.00    -0.026 A 
ATOM      7  C   UNL     1       9.444  51.876  42.256  1.00  0.00     0.008 A 
ATOM      8  C   UNL     1       9.589  50.203  40.508  1.00  0.00     0.008 A 
ATOM      9  C   UNL     1       8.098  52.083  41.937  1.00  0.00     0.001 A 
ATOM     10  C   UNL     1       8.244  50.415  40.195  1.00  0.00     0.001 A 
ATOM     11  C   UNL     1       7.499  51.355  40.908  1.00  0.00     0.000 A 
ENDBRANCH   2   6
TORSDOF 2
ENDMDL
MODEL 3
REMARK VINA RESULT:    -4.844      3.915      5.636
REMARK INTER + INTRA:          -5.549
REMARK INTER:                  -5.407
REMARK INTRA:                  -0.143
REMARK UNBOUND:                -0.139
REMARK SMILES O=C([O-])C=Cc1ccccc1
REMARK SMILES IDX 4 1 5 2 2 3 1 4 3 5 6 6 7 7 11 8 8 9 10 10 9 11
REMARK H PARENT
REMARK Flexibility Score: inf
ROOT
ATOM      1  C   UNL     1       7.958  51.800  41.483  1.00  0.00     0.025 C 
ATOM      2  C   UNL     1       8.853  52.342  42.323  1.00  0.00     0.010 C 
ENDROOT
BRANCH   1   3
ATOM      3  C   UNL     1       6.532  52.165  41.516  1.00  0.00     0.064 C 
ATOM      4  O   UNL     1       5.641  51.354  41.146  1.00  0.00    -0.545 OA
ATOM      5  O   UNL     1       6.160  53.425  41.967  1.00  0.00    -0.545 OA
ENDBRANCH   1   3
BRANCH   2   6
ATOM      6  C   UNL     1      10.306  52.017  42.341  1.00  0.00    -0.026 A 
ATOM      7  C   UNL     1      11.301  52.931  42.752  1.00  0.00     0.008 A 
ATOM      8  C   UNL     1      10.703  50.732  41.926  1.00  0.00     0.008 A 
ATOM      9  C   UNL     1      12.650  52.560  42.745  1.00  0.00     0.001 A 
ATOM     10  C   UNL     1      12.053  50.368  41.921  1.00  0.00     0.001 A 
ATOM     11  C   UNL     1      13.025  51.281  42.331  1.00  0.00     0.000 A 
ENDBRANCH   2   6
TORSDOF 2
ENDMDL
MODEL 4
REMARK VINA RESULT:    -4.805      3.809      5.417
REMARK INTER + INTRA:          -5.506
REMARK INTER:                  -5.375
REMARK INTRA:                  -0.131
REMARK UNBOUND:                -0.139
REMARK SMILES O=C([O-])C=Cc1ccccc1
REMARK SMILES IDX 4 1 5 2 2 3 1 4 3 5 6 6 7 7 11 8 8 9 10 10 9 11
REMARK H PARENT
REMARK Flexibility Score: inf
ROOT
ATOM      1  C   UNL     1       8.223  51.822  41.530  1.00  0.00     0.025 C 
ATOM      2  C   UNL     1       9.158  52.354  42.331  1.00  0.00     0.010 C 
ENDROOT
BRANCH   1   3
ATOM      3  C   UNL     1       6.828  52.293  41.533  1.00  0.00     0.064 C 
ATOM      4  O   UNL     1       5.870  51.502  41.321  1.00  0.00    -0.545 OA
ATOM      5  O   UNL     1       6.561  53.634  41.776  1.00  0.00    -0.545 OA
ENDBRANCH   1   3
BRANCH   2   6
ATOM      6  C   UNL     1      10.583  51.924  42.377  1.00  0.00    -0.026 A 
ATOM      7  C   UNL     1      11.019  50.638  41.992  1.00  0.00     0.008 A 
ATOM      8  C   UNL     1      11.541  52.852  42.829  1.00  0.00     0.008 A 
ATOM      9  C   UNL     1      12.374  50.299  42.060  1.00  0.00     0.001 A 
ATOM     10  C   UNL     1      12.893  52.507  42.895  1.00  0.00     0.001 A 
ATOM     11  C   UNL     1      13.310  51.232  42.510  1.00  0.00     0.000 A 
ENDBRANCH   2   6
TORSDOF 2
ENDMDL
MODEL 5
REMARK VINA RESULT:    -4.708      3.690      5.152
REMARK INTER + INTRA:          -5.398
REMARK INTER:                  -5.271
REMARK INTRA:                  -0.127
REMARK UNBOUND:                -0.139
REMARK SMILES O=C([O-])C=Cc1ccccc1
REMARK SMILES IDX 4 1 5 2 2 3 1 4 3 5 6 6 7 7 11 8 8 9 10 10 9 11
REMARK H PARENT
REMARK Flexibility Score: inf
ROOT
ATOM      1  C   UNL     1      15.335  53.815  45.037  1.00  0.00     0.025 C 
ATOM      2  C   UNL     1      14.923  53.919  43.764  1.00  0.00     0.010 C 
ENDROOT
BRANCH   1   3
ATOM      3  C   UNL     1      16.015  54.919  45.734  1.00  0.00     0.064 C 
ATOM      4  O   UNL     1      15.467  55.522  46.695  1.00  0.00    -0.545 OA
ATOM      5  O   UNL     1      17.286  55.303  45.326  1.00  0.00    -0.545 OA
ENDBRANCH   1   3
BRANCH   2   6
ATOM      6  C   UNL     1      14.232  52.843  43.003  1.00  0.00    -0.026 A 
ATOM      7  C   UNL     1      14.912  51.885  42.220  1.00  0.00     0.008 A 
ATOM      8  C   UNL     1      12.827  52.781  43.071  1.00  0.00     0.008 A 
ATOM      9  C   UNL     1      14.200  50.899  41.529  1.00  0.00     0.001 A 
ATOM     10  C   UNL     1      12.121  51.793  42.379  1.00  0.00     0.001 A 
ATOM     11  C   UNL     1      12.807  50.853  41.609  1.00  0.00     0.000 A 
ENDBRANCH   2   6
TORSDOF 2
ENDMDL
MODEL 6
REMARK VINA RESULT:    -4.695      3.676      5.218
REMARK INTER + INTRA:          -5.384
REMARK INTER:                  -5.256
REMARK INTRA:                  -0.127
REMARK UNBOUND:                -0.139
REMARK SMILES O=C([O-])C=Cc1ccccc1
REMARK SMILES IDX 4 1 5 2 2 3 1 4 3 5 6 6 7 7 11 8 8 9 10 10 9 11
REMARK H PARENT
REMARK Flexibility Score: inf
ROOT
ATOM      1  C   UNL     1      15.312  53.846  45.057  1.00  0.00     0.025 C 
ATOM      2  C   UNL     1      14.920  53.940  43.777  1.00  0.00     0.010 C 
ENDROOT
BRANCH   1   3
ATOM      3  C   UNL     1      16.049  54.927  45.732  1.00  0.00     0.064 C 
ATOM      4  O   UNL     1      17.175  55.310  45.316  1.00  0.00    -0.545 OA
ATOM      5  O   UNL     1      15.491  55.539  46.848  1.00  0.00    -0.545 OA
ENDBRANCH   1   3
BRANCH   2   6
ATOM      6  C   UNL     1      14.175  52.886  43.037  1.00  0.00    -0.026 A 
ATOM      7  C   UNL     1      12.766  52.783  43.039  1.00  0.00     0.008 A 
ATOM      8  C   UNL     1      14.916  51.944  42.298  1.00  0.00     0.008 A 
ATOM      9  C   UNL     1      12.129  51.766  42.321  1.00  0.00     0.001 A 
ATOM     10  C   UNL     1      14.272  50.930  41.583  1.00  0.00     0.001 A 
ATOM     11  C   UNL     1      12.880  50.842  41.594  1.00  0.00     0.000 A 
ENDBRANCH   2   6
TORSDOF 2
ENDMDL
MODEL 7
REMARK VINA RESULT:    -4.665     13.390     15.418
REMARK INTER + INTRA:          -5.350
REMARK INTER:                  -5.219
REMARK INTRA:                  -0.132
REMARK UNBOUND:                -0.139
REMARK SMILES O=C([O-])C=Cc1ccccc1
REMARK SMILES IDX 4 1 5 2 2 3 1 4 3 5 6 6 7 7 11 8 8 9 10 10 9 11
REMARK H PARENT
REMARK Flexibility Score: inf
ROOT
ATOM      1  C   UNL     1      16.693  62.386  44.880  1.00  0.00     0.025 C 
ATOM      2  C   UNL     1      17.701  63.138  44.413  1.00  0.00     0.010 C 
ENDROOT
BRANCH   1   3
ATOM      3  C   UNL     1      16.035  61.359  44.055  1.00  0.00     0.064 C 
ATOM      4  O   UNL     1      16.696  60.633  43.265  1.00  0.00    -0.545 OA
ATOM      5  O   UNL     1      14.660  61.185  44.151  1.00  0.00    -0.545 OA
ENDBRANCH   1   3
BRANCH   2   6
ATOM      6  C   UNL     1      18.408  64.191  45.194  1.00  0.00    -0.026 A 
ATOM      7  C   UNL     1      18.243  65.574  44.960  1.00  0.00     0.008 A 
ATOM      8  C   UNL     1      19.285  63.782  46.216  1.00  0.00     0.008 A 
ATOM      9  C   UNL     1      18.938  66.511  45.731  1.00  0.00     0.001 A 
ATOM     10  C   UNL     1      19.977  64.724  46.982  1.00  0.00     0.001 A 
ATOM     11  C   UNL     1      19.804  66.087  46.741  1.00  0.00     0.000 A 
ENDBRANCH   2   6
TORSDOF 2
ENDMDL
MODEL 8
REMARK VINA RESULT:    -4.657      3.989      5.625
REMARK INTER + INTRA:          -5.341
REMARK INTER:                  -5.212
REMARK INTRA:                  -0.129
REMARK UNBOUND:                -0.139
REMARK SMILES O=C([O-])C=Cc1ccccc1
REMARK SMILES IDX 4 1 5 2 2 3 1 4 3 5 6 6 7 7 11 8 8 9 10 10 9 11
REMARK H PARENT
REMARK Flexibility Score: inf
ROOT
ATOM      1  C   UNL     1      10.634  54.759  42.554  1.00  0.00     0.025 C 
ATOM      2  C   UNL     1      10.864  53.493  42.936  1.00  0.00     0.010 C 
ENDROOT
BRANCH   1   3
ATOM      3  C   UNL     1       9.379  55.458  42.875  1.00  0.00     0.064 C 
ATOM      4  O   UNL     1       8.905  55.448  44.043  1.00  0.00    -0.545 OA
ATOM      5  O   UNL     1       8.705  56.145  41.873  1.00  0.00    -0.545 OA
ENDBRANCH   1   3
BRANCH   2   6
ATOM      6  C   UNL     1      12.109  52.731  42.644  1.00  0.00    -0.026 A 
ATOM      7  C   UNL     1      13.405  53.241  42.875  1.00  0.00     0.008 A 
ATOM      8  C   UNL     1      11.982  51.434  42.110  1.00  0.00     0.008 A 
ATOM      9  C   UNL     1      14.533  52.471  42.577  1.00  0.00     0.001 A 
ATOM     10  C   UNL     1      13.114  50.670  41.816  1.00  0.00     0.001 A 
ATOM     11  C   UNL     1      14.389  51.187  42.049  1.00  0.00     0.000 A 
ENDBRANCH   2   6
TORSDOF 2
ENDMDL
MODEL 9
REMARK VINA RESULT:    -4.564      2.266      3.452
REMARK INTER + INTRA:          -5.237
REMARK INTER:                  -5.090
REMARK INTRA:                  -0.147
REMARK UNBOUND:                -0.139
REMARK SMILES O=C([O-])C=Cc1ccccc1
REMARK SMILES IDX 4 1 5 2 2 3 1 4 3 5 6 6 7 7 11 8 8 9 10 10 9 11
REMARK H PARENT
REMARK Flexibility Score: inf
ROOT
ATOM      1  C   UNL     1      14.987  53.497  43.000  1.00  0.00     0.025 C 
ATOM      2  C   UNL     1      14.588  52.288  42.577  1.00  0.00     0.010 C 
ENDROOT
BRANCH   1   3
ATOM      3  C   UNL     1      16.411  53.851  43.129  1.00  0.00     0.064 C 
ATOM      4  O   UNL     1      16.779  55.052  43.229  1.00  0.00    -0.545 OA
ATOM      5  O   UNL     1      17.366  52.843  43.144  1.00  0.00    -0.545 OA
ENDBRANCH   1   3
BRANCH   2   6
ATOM      6  C   UNL     1      13.168  51.867  42.425  1.00  0.00    -0.026 A 
ATOM      7  C   UNL     1      12.781  50.575  42.005  1.00  0.00     0.008 A 
ATOM      8  C   UNL     1      12.163  52.809  42.715  1.00  0.00     0.008 A 
ATOM      9  C   UNL     1      11.428  50.246  41.883  1.00  0.00     0.001 A 
ATOM     10  C   UNL     1      10.812  52.473  42.591  1.00  0.00     0.001 A 
ATOM     11  C   UNL     1      10.445  51.192  42.176  1.00  0.00     0.000 A 
ENDBRANCH   2   6
TORSDOF 2
ENDMDL
