MODEL 1
REMARK VINA RESULT:    -5.806      0.000      0.000
REMARK INTER + INTRA:         -10.577
REMARK INTER:                  -8.861
REMARK INTRA:                  -1.716
REMARK UNBOUND:                -1.716
REMARK SMILES OC[C@H]1O[C@@H](O[C@@]2(CO)O[C@H](CO)[C@H](O)[C@@H]2O)[C@@H](O)[C@H](O)[C@@H]1O
REMARK SMILES IDX 6 1 5 2 3 3 22 4 4 5 20 6 18 7 2 8 1 9 23 11 21 13 19 15
REMARK SMILES IDX 7 17 16 18 10 19 14 20 11 21 8 22 9 23 17 25 15 27 12 29
REMARK SMILES IDX 13 30
REMARK H PARENT 1 10 23 12 21 14 19 16 9 24 17 26 15 28 13 31
REMARK Flexibility Score: inf
ROOT
ATOM      1  O   UNL     1       2.818  46.424  10.447  1.00  0.00    -0.313 OA
ENDROOT
BRANCH   1   2
ATOM      2  C   UNL     1       3.147  45.272   9.678  1.00  0.00     0.285 C 
ATOM      3  C   UNL     1       1.294  43.905  10.356  1.00  0.00     0.178 C 
ATOM      4  C   UNL     1       2.209  42.996  11.223  1.00  0.00     0.177 C 
ATOM      5  O   UNL     1       1.971  44.572   9.293  1.00  0.00    -0.341 OA
ATOM      6  C   UNL     1       3.511  43.704  11.634  1.00  0.00     0.179 C 
ATOM      7  C   UNL     1       4.157  44.373  10.420  1.00  0.00     0.202 C 
BRANCH   3   8
ATOM      8  C   UNL     1       0.363  44.833  11.168  1.00  0.00     0.191 C 
BRANCH   8   9
ATOM      9  O   UNL     1      -0.322  45.739  10.351  1.00  0.00    -0.394 OA
ATOM     10  H   UNL     1      -0.688  45.209   9.596  1.00  0.00     0.210 HD
ENDBRANCH   8   9
ENDBRANCH   3   8
BRANCH   4  11
ATOM     11  O   UNL     1       2.484  41.784  10.561  1.00  0.00    -0.387 OA
ATOM     12  H   UNL     1       3.379  41.468  10.851  1.00  0.00     0.211 HD
ENDBRANCH   4  11
BRANCH   6  13
ATOM     13  O   UNL     1       4.391  42.765  12.198  1.00  0.00    -0.387 OA
ATOM     14  H   UNL     1       5.230  42.797  11.668  1.00  0.00     0.211 HD
ENDBRANCH   6  13
BRANCH   7  15
ATOM     15  O   UNL     1       5.263  45.128  10.839  1.00  0.00    -0.385 OA
ATOM     16  H   UNL     1       6.048  44.521  10.827  1.00  0.00     0.211 HD
ENDBRANCH   7  15
ENDBRANCH   1   2
BRANCH   1  17
ATOM     17  C   UNL     1       3.119  47.663   9.797  1.00  0.00     0.224 C 
ATOM     18  C   UNL     1       3.963  47.350   8.530  1.00  0.00     0.208 C 
ATOM     19  O   UNL     1       3.893  48.522  10.630  1.00  0.00    -0.337 OA
ATOM     20  C   UNL     1       5.148  48.290   8.629  1.00  0.00     0.180 C 
ATOM     21  C   UNL     1       5.205  48.571  10.126  1.00  0.00     0.179 C 
BRANCH  17  22
ATOM     22  C   UNL     1       1.794  48.393   9.461  1.00  0.00     0.225 C 
BRANCH  22  23
ATOM     23  O   UNL     1       0.914  47.559   8.754  1.00  0.00    -0.391 OA
ATOM     24  H   UNL     1       0.371  48.142   8.163  1.00  0.00     0.210 HD
ENDBRANCH  22  23
ENDBRANCH  17  22
BRANCH  18  25
ATOM     25  O   UNL     1       3.258  47.523   7.324  1.00  0.00    -0.385 OA
ATOM     26  H   UNL     1       2.562  46.815   7.298  1.00  0.00     0.211 HD
ENDBRANCH  18  25
BRANCH  20  27
ATOM     27  O   UNL     1       4.971  49.457   7.859  1.00  0.00    -0.387 OA
ATOM     28  H   UNL     1       5.034  49.211   6.900  1.00  0.00     0.211 HD
ENDBRANCH  20  27
BRANCH  21  29
ATOM     29  C   UNL     1       5.864  49.912  10.481  1.00  0.00     0.191 C 
BRANCH  29  30
ATOM     30  O   UNL     1       4.968  50.967  10.260  1.00  0.00    -0.394 OA
ATOM     31  H   UNL     1       4.893  51.075   9.276  1.00  0.00     0.210 HD
ENDBRANCH  29  30
ENDBRANCH  21  29
ENDBRANCH   1  17
TORSDOF 13
ENDMDL
MODEL 2
REMARK VINA RESULT:    -5.672      1.226      2.504
REMARK INTER + INTRA:         -10.372
REMARK INTER:                  -8.746
REMARK INTRA:                  -1.626
REMARK UNBOUND:                -1.716
REMARK SMILES OC[C@H]1O[C@@H](O[C@@]2(CO)O[C@H](CO)[C@H](O)[C@@H]2O)[C@@H](O)[C@H](O)[C@@H]1O
REMARK SMILES IDX 6 1 5 2 3 3 22 4 4 5 20 6 18 7 2 8 1 9 23 11 21 13 19 15
REMARK SMILES IDX 7 17 16 18 10 19 14 20 11 21 8 22 9 23 17 25 15 27 12 29
REMARK SMILES IDX 13 30
REMARK H PARENT 1 10 23 12 21 14 19 16 9 24 17 26 15 28 13 31
REMARK Flexibility Score: inf
ROOT
ATOM      1  O   UNL     1       3.176  46.685  10.188  1.00  0.00    -0.313 OA
ENDROOT
BRANCH   1   2
ATOM      2  C   UNL     1       3.455  45.485   9.475  1.00  0.00     0.285 C 
ATOM      3  C   UNL     1       1.388  44.357   9.939  1.00  0.00     0.178 C 
ATOM      4  C   UNL     1       2.080  43.370  10.918  1.00  0.00     0.177 C 
ATOM      5  O   UNL     1       2.259  44.917   8.958  1.00  0.00    -0.341 OA
ATOM      6  C   UNL     1       3.399  43.931  11.476  1.00  0.00     0.179 C 
ATOM      7  C   UNL     1       4.258  44.492  10.341  1.00  0.00     0.202 C 
BRANCH   3   8
ATOM      8  C   UNL     1       0.483  45.406  10.625  1.00  0.00     0.191 C 
BRANCH   8   9
ATOM      9  O   UNL     1       0.271  46.529   9.816  1.00  0.00    -0.394 OA
ATOM     10  H   UNL     1      -0.713  46.612   9.712  1.00  0.00     0.210 HD
ENDBRANCH   8   9
ENDBRANCH   3   8
BRANCH   4  11
ATOM     11  O   UNL     1       2.286  42.118  10.305  1.00  0.00    -0.387 OA
ATOM     12  H   UNL     1       3.082  42.189   9.716  1.00  0.00     0.211 HD
ENDBRANCH   4  11
BRANCH   6  13
ATOM     13  O   UNL     1       4.090  42.910  12.150  1.00  0.00    -0.387 OA
ATOM     14  H   UNL     1       4.549  42.364  11.459  1.00  0.00     0.211 HD
ENDBRANCH   6  13
BRANCH   7  15
ATOM     15  O   UNL     1       5.388  45.124  10.883  1.00  0.00    -0.385 OA
ATOM     16  H   UNL     1       5.703  45.780  10.208  1.00  0.00     0.211 HD
ENDBRANCH   7  15
ENDBRANCH   1   2
BRANCH   1  17
ATOM     17  C   UNL     1       3.586  47.875   9.506  1.00  0.00     0.224 C 
ATOM     18  C   UNL     1       3.567  49.046  10.527  1.00  0.00     0.208 C 
ATOM     19  O   UNL     1       2.693  48.210   8.448  1.00  0.00    -0.337 OA
ATOM     20  C   UNL     1       2.784  50.139   9.828  1.00  0.00     0.180 C 
ATOM     21  C   UNL     1       1.951  49.343   8.831  1.00  0.00     0.179 C 
BRANCH  17  22
ATOM     22  C   UNL     1       4.990  47.648   8.890  1.00  0.00     0.225 C 
BRANCH  22  23
ATOM     23  O   UNL     1       5.343  48.691   8.021  1.00  0.00    -0.391 OA
ATOM     24  H   UNL     1       5.408  49.516   8.566  1.00  0.00     0.210 HD
ENDBRANCH  22  23
ENDBRANCH  17  22
BRANCH  18  25
ATOM     25  O   UNL     1       4.849  49.484  10.908  1.00  0.00    -0.385 OA
ATOM     26  H   UNL     1       4.801  49.695  11.878  1.00  0.00     0.211 HD
ENDBRANCH  18  25
BRANCH  20  27
ATOM     27  O   UNL     1       3.624  51.086   9.208  1.00  0.00    -0.387 OA
ATOM     28  H   UNL     1       3.062  51.835   8.881  1.00  0.00     0.211 HD
ENDBRANCH  20  27
BRANCH  21  29
ATOM     29  C   UNL     1       1.529  50.148   7.593  1.00  0.00     0.191 C 
BRANCH  29  30
ATOM     30  O   UNL     1       2.626  50.344   6.742  1.00  0.00    -0.394 OA
ATOM     31  H   UNL     1       2.297  50.206   5.816  1.00  0.00     0.210 HD
ENDBRANCH  29  30
ENDBRANCH  21  29
ENDBRANCH   1  17
TORSDOF 13
ENDMDL
MODEL 3
REMARK VINA RESULT:    -5.616      1.539      5.541
REMARK INTER + INTRA:         -10.287
REMARK INTER:                  -8.961
REMARK INTRA:                  -1.326
REMARK UNBOUND:                -1.716
REMARK SMILES OC[C@H]1O[C@@H](O[C@@]2(CO)O[C@H](CO)[C@H](O)[C@@H]2O)[C@@H](O)[C@H](O)[C@@H]1O
REMARK SMILES IDX 6 1 5 2 3 3 22 4 4 5 20 6 18 7 2 8 1 9 23 11 21 13 19 15
REMARK SMILES IDX 7 17 16 18 10 19 14 20 11 21 8 22 9 23 17 25 15 27 12 29
REMARK SMILES IDX 13 30
REMARK H PARENT 1 10 23 12 21 14 19 16 9 24 17 26 15 28 13 31
REMARK Flexibility Score: inf
ROOT
ATOM      1  O   UNL     1       2.878  45.342   9.323  1.00  0.00    -0.313 OA
ENDROOT
BRANCH   1   2
ATOM      2  C   UNL     1       3.275  46.289  10.309  1.00  0.00     0.285 C 
ATOM      3  C   UNL     1       3.280  48.229   8.896  1.00  0.00     0.178 C 
ATOM      4  C   UNL     1       4.833  48.296   8.898  1.00  0.00     0.177 C 
ATOM      5  O   UNL     1       2.721  47.568  10.030  1.00  0.00    -0.341 OA
ATOM      6  C   UNL     1       5.473  46.938   9.231  1.00  0.00     0.179 C 
ATOM      7  C   UNL     1       4.809  46.326  10.466  1.00  0.00     0.202 C 
BRANCH   3   8
ATOM      8  C   UNL     1       2.664  47.772   7.555  1.00  0.00     0.191 C 
BRANCH   8   9
ATOM      9  O   UNL     1       1.302  47.472   7.675  1.00  0.00    -0.394 OA
ATOM     10  H   UNL     1       1.110  47.445   8.649  1.00  0.00     0.210 HD
ENDBRANCH   8   9
ENDBRANCH   3   8
BRANCH   4  11
ATOM     11  O   UNL     1       5.290  49.296   9.778  1.00  0.00    -0.387 OA
ATOM     12  H   UNL     1       4.886  49.133  10.670  1.00  0.00     0.211 HD
ENDBRANCH   4  11
BRANCH   6  13
ATOM     13  O   UNL     1       6.849  47.117   9.457  1.00  0.00    -0.387 OA
ATOM     14  H   UNL     1       7.073  48.042   9.174  1.00  0.00     0.211 HD
ENDBRANCH   6  13
BRANCH   7  15
ATOM     15  O   UNL     1       5.308  45.031  10.669  1.00  0.00    -0.385 OA
ATOM     16  H   UNL     1       5.329  44.588   9.781  1.00  0.00     0.211 HD
ENDBRANCH   7  15
ENDBRANCH   1   2
BRANCH   1  17
ATOM     17  C   UNL     1       2.144  44.230   9.846  1.00  0.00     0.224 C 
ATOM     18  C   UNL     1       1.463  44.681  11.169  1.00  0.00     0.208 C 
ATOM     19  O   UNL     1       2.998  43.132  10.153  1.00  0.00    -0.337 OA
ATOM     20  C   UNL     1       1.829  43.598  12.165  1.00  0.00     0.180 C 
ATOM     21  C   UNL     1       3.098  43.019  11.551  1.00  0.00     0.179 C 
BRANCH  17  22
ATOM     22  C   UNL     1       1.120  43.755   8.784  1.00  0.00     0.225 C 
BRANCH  22  23
ATOM     23  O   UNL     1       0.691  44.818   7.974  1.00  0.00    -0.391 OA
ATOM     24  H   UNL     1      -0.244  44.624   7.710  1.00  0.00     0.210 HD
ENDBRANCH  22  23
ENDBRANCH  17  22
BRANCH  18  25
ATOM     25  O   UNL     1       0.070  44.843  11.060  1.00  0.00    -0.385 OA
ATOM     26  H   UNL     1      -0.325  43.932  11.088  1.00  0.00     0.211 HD
ENDBRANCH  18  25
BRANCH  20  27
ATOM     27  O   UNL     1       0.805  42.641  12.312  1.00  0.00    -0.387 OA
ATOM     28  H   UNL     1       0.135  42.786  11.595  1.00  0.00     0.211 HD
ENDBRANCH  20  27
BRANCH  21  29
ATOM     29  C   UNL     1       3.372  41.562  11.952  1.00  0.00     0.191 C 
BRANCH  29  30
ATOM     30  O   UNL     1       4.708  41.409  12.347  1.00  0.00    -0.394 OA
ATOM     31  H   UNL     1       5.246  41.348  11.514  1.00  0.00     0.210 HD
ENDBRANCH  29  30
ENDBRANCH  21  29
ENDBRANCH   1  17
TORSDOF 13
ENDMDL
MODEL 4
REMARK VINA RESULT:    -5.525      1.526      5.757
REMARK INTER + INTRA:         -10.148
REMARK INTER:                  -8.210
REMARK INTRA:                  -1.938
REMARK UNBOUND:                -1.716
REMARK SMILES OC[C@H]1O[C@@H](O[C@@]2(CO)O[C@H](CO)[C@H](O)[C@@H]2O)[C@@H](O)[C@H](O)[C@@H]1O
REMARK SMILES IDX 6 1 5 2 3 3 22 4 4 5 20 6 18 7 2 8 1 9 23 11 21 13 19 15
REMARK SMILES IDX 7 17 16 18 10 19 14 20 11 21 8 22 9 23 17 25 15 27 12 29
REMARK SMILES IDX 13 30
REMARK H PARENT 1 10 23 12 21 14 19 16 9 24 17 26 15 28 13 31
REMARK Flexibility Score: inf
ROOT
ATOM      1  O   UNL     1       4.043  46.617   9.639  1.00  0.00    -0.313 OA
ENDROOT
BRANCH   1   2
ATOM      2  C   UNL     1       4.689  47.567  10.479  1.00  0.00     0.285 C 
ATOM      3  C   UNL     1       3.387  49.482   9.846  1.00  0.00     0.178 C 
ATOM      4  C   UNL     1       4.572  50.095   9.050  1.00  0.00     0.177 C 
ATOM      5  O   UNL     1       3.780  48.584  10.882  1.00  0.00    -0.341 OA
ATOM      6  C   UNL     1       5.599  49.033   8.624  1.00  0.00     0.179 C 
ATOM      7  C   UNL     1       5.958  48.136   9.811  1.00  0.00     0.202 C 
BRANCH   3   8
ATOM      8  C   UNL     1       2.242  48.936   8.963  1.00  0.00     0.191 C 
BRANCH   8   9
ATOM      9  O   UNL     1       1.373  48.106   9.681  1.00  0.00    -0.394 OA
ATOM     10  H   UNL     1       0.469  48.255   9.298  1.00  0.00     0.210 HD
ENDBRANCH   8   9
ENDBRANCH   3   8
BRANCH   4  11
ATOM     11  O   UNL     1       5.190  51.125   9.786  1.00  0.00    -0.387 OA
ATOM     12  H   UNL     1       4.497  51.793  10.027  1.00  0.00     0.211 HD
ENDBRANCH   4  11
BRANCH   6  13
ATOM     13  O   UNL     1       6.751  49.672   8.133  1.00  0.00    -0.387 OA
ATOM     14  H   UNL     1       6.590  49.865   7.172  1.00  0.00     0.211 HD
ENDBRANCH   6  13
BRANCH   7  15
ATOM     15  O   UNL     1       6.785  47.091   9.370  1.00  0.00    -0.385 OA
ATOM     16  H   UNL     1       6.872  46.454  10.126  1.00  0.00     0.211 HD
ENDBRANCH   7  15
ENDBRANCH   1   2
BRANCH   1  17
ATOM     17  C   UNL     1       3.649  45.418  10.314  1.00  0.00     0.224 C 
ATOM     18  C   UNL     1       3.593  44.271   9.266  1.00  0.00     0.208 C 
ATOM     19  O   UNL     1       2.352  45.539  10.891  1.00  0.00    -0.337 OA
ATOM     20  C   UNL     1       2.239  43.627   9.489  1.00  0.00     0.180 C 
ATOM     21  C   UNL     1       1.454  44.759  10.140  1.00  0.00     0.179 C 
BRANCH  17  22
ATOM     22  C   UNL     1       4.654  45.127  11.457  1.00  0.00     0.225 C 
BRANCH  22  23
ATOM     23  O   UNL     1       4.281  43.991  12.191  1.00  0.00    -0.391 OA
ATOM     24  H   UNL     1       3.383  43.719  11.872  1.00  0.00     0.210 HD
ENDBRANCH  22  23
ENDBRANCH  17  22
BRANCH  18  25
ATOM     25  O   UNL     1       4.642  43.341   9.389  1.00  0.00    -0.385 OA
ATOM     26  H   UNL     1       4.746  43.157  10.360  1.00  0.00     0.211 HD
ENDBRANCH  18  25
BRANCH  20  27
ATOM     27  O   UNL     1       2.322  42.478  10.302  1.00  0.00    -0.387 OA
ATOM     28  H   UNL     1       1.883  41.727   9.825  1.00  0.00     0.211 HD
ENDBRANCH  20  27
BRANCH  21  29
ATOM     29  C   UNL     1       0.294  44.279  11.026  1.00  0.00     0.191 C 
BRANCH  29  30
ATOM     30  O   UNL     1       0.781  43.812  12.255  1.00  0.00    -0.394 OA
ATOM     31  H   UNL     1       0.086  44.015  12.933  1.00  0.00     0.210 HD
ENDBRANCH  29  30
ENDBRANCH  21  29
ENDBRANCH   1  17
TORSDOF 13
ENDMDL
MODEL 5
REMARK VINA RESULT:    -5.286      1.767      6.053
REMARK INTER + INTRA:          -9.783
REMARK INTER:                  -8.752
REMARK INTRA:                  -1.031
REMARK UNBOUND:                -1.716
REMARK SMILES OC[C@H]1O[C@@H](O[C@@]2(CO)O[C@H](CO)[C@H](O)[C@@H]2O)[C@@H](O)[C@H](O)[C@@H]1O
REMARK SMILES IDX 6 1 5 2 3 3 22 4 4 5 20 6 18 7 2 8 1 9 23 11 21 13 19 15
REMARK SMILES IDX 7 17 16 18 10 19 14 20 11 21 8 22 9 23 17 25 15 27 12 29
REMARK SMILES IDX 13 30
REMARK H PARENT 1 10 23 12 21 14 19 16 9 24 17 26 15 28 13 31
REMARK Flexibility Score: inf
ROOT
ATOM      1  O   UNL     1       2.326  46.556   9.931  1.00  0.00    -0.313 OA
ENDROOT
BRANCH   1   2
ATOM      2  C   UNL     1       2.815  46.965   8.658  1.00  0.00     0.285 C 
ATOM      3  C   UNL     1       3.180  49.277   9.192  1.00  0.00     0.178 C 
ATOM      4  C   UNL     1       1.965  49.726   8.335  1.00  0.00     0.177 C 
ATOM      5  O   UNL     1       3.748  48.029   8.796  1.00  0.00    -0.341 OA
ATOM      6  C   UNL     1       0.946  48.592   8.131  1.00  0.00     0.179 C 
ATOM      7  C   UNL     1       1.659  47.309   7.697  1.00  0.00     0.202 C 
BRANCH   3   8
ATOM      8  C   UNL     1       2.962  49.394  10.717  1.00  0.00     0.191 C 
BRANCH   8   9
ATOM      9  O   UNL     1       4.008  48.815  11.446  1.00  0.00    -0.394 OA
ATOM     10  H   UNL     1       3.739  48.862  12.400  1.00  0.00     0.210 HD
ENDBRANCH   8   9
ENDBRANCH   3   8
BRANCH   4  11
ATOM     11  O   UNL     1       2.390  50.247   7.097  1.00  0.00    -0.387 OA
ATOM     12  H   UNL     1       2.602  49.486   6.496  1.00  0.00     0.211 HD
ENDBRANCH   4  11
BRANCH   6  13
ATOM     13  O   UNL     1       0.008  48.980   7.158  1.00  0.00    -0.387 OA
ATOM     14  H   UNL     1       0.284  48.558   6.303  1.00  0.00     0.211 HD
ENDBRANCH   6  13
BRANCH   7  15
ATOM     15  O   UNL     1       0.733  46.255   7.654  1.00  0.00    -0.385 OA
ATOM     16  H   UNL     1       1.253  45.421   7.519  1.00  0.00     0.211 HD
ENDBRANCH   7  15
ENDBRANCH   1   2
BRANCH   1  17
ATOM     17  C   UNL     1       2.873  45.316  10.393  1.00  0.00     0.224 C 
ATOM     18  C   UNL     1       2.666  44.253   9.278  1.00  0.00     0.208 C 
ATOM     19  O   UNL     1       2.207  44.850  11.563  1.00  0.00    -0.337 OA
ATOM     20  C   UNL     1       2.045  43.073   9.998  1.00  0.00     0.180 C 
ATOM     21  C   UNL     1       1.416  43.740  11.215  1.00  0.00     0.179 C 
BRANCH  17  22
ATOM     22  C   UNL     1       4.368  45.522  10.745  1.00  0.00     0.225 C 
BRANCH  22  23
ATOM     23  O   UNL     1       4.963  44.326  11.175  1.00  0.00    -0.391 OA
ATOM     24  H   UNL     1       5.766  44.182  10.612  1.00  0.00     0.210 HD
ENDBRANCH  22  23
ENDBRANCH  17  22
BRANCH  18  25
ATOM     25  O   UNL     1       3.853  43.894   8.613  1.00  0.00    -0.385 OA
ATOM     26  H   UNL     1       3.810  42.913   8.464  1.00  0.00     0.211 HD
ENDBRANCH  18  25
BRANCH  20  27
ATOM     27  O   UNL     1       3.000  42.094  10.342  1.00  0.00    -0.387 OA
ATOM     28  H   UNL     1       2.793  41.265   9.837  1.00  0.00     0.211 HD
ENDBRANCH  20  27
BRANCH  21  29
ATOM     29  C   UNL     1       1.252  42.803  12.421  1.00  0.00     0.191 C 
BRANCH  29  30
ATOM     30  O   UNL     1      -0.050  42.894  12.934  1.00  0.00    -0.394 OA
ATOM     31  H   UNL     1      -0.483  43.661  12.477  1.00  0.00     0.210 HD
ENDBRANCH  29  30
ENDBRANCH  21  29
ENDBRANCH   1  17
TORSDOF 13
ENDMDL
MODEL 6
REMARK VINA RESULT:    -5.214      1.726      5.717
REMARK INTER + INTRA:          -9.674
REMARK INTER:                  -8.131
REMARK INTRA:                  -1.543
REMARK UNBOUND:                -1.716
REMARK SMILES OC[C@H]1O[C@@H](O[C@@]2(CO)O[C@H](CO)[C@H](O)[C@@H]2O)[C@@H](O)[C@H](O)[C@@H]1O
REMARK SMILES IDX 6 1 5 2 3 3 22 4 4 5 20 6 18 7 2 8 1 9 23 11 21 13 19 15
REMARK SMILES IDX 7 17 16 18 10 19 14 20 11 21 8 22 9 23 17 25 15 27 12 29
REMARK SMILES IDX 13 30
REMARK H PARENT 1 10 23 12 21 14 19 16 9 24 17 26 15 28 13 31
REMARK Flexibility Score: inf
ROOT
ATOM      1  O   UNL     1       3.152  45.652   9.504  1.00  0.00    -0.313 OA
ENDROOT
BRANCH   1   2
ATOM      2  C   UNL     1       3.179  47.019   9.900  1.00  0.00     0.285 C 
ATOM      3  C   UNL     1       1.202  47.721   8.733  1.00  0.00     0.178 C 
ATOM      4  C   UNL     1       2.033  48.508   7.682  1.00  0.00     0.177 C 
ATOM      5  O   UNL     1       1.860  47.543   9.986  1.00  0.00    -0.341 OA
ATOM      6  C   UNL     1       3.480  47.995   7.582  1.00  0.00     0.179 C 
ATOM      7  C   UNL     1       4.091  47.853   8.977  1.00  0.00     0.202 C 
BRANCH   3   8
ATOM      8  C   UNL     1       0.553  46.427   8.193  1.00  0.00     0.191 C 
BRANCH   8   9
ATOM      9  O   UNL     1       0.027  45.633   9.218  1.00  0.00    -0.394 OA
ATOM     10  H   UNL     1      -0.790  45.208   8.848  1.00  0.00     0.210 HD
ENDBRANCH   8   9
ENDBRANCH   3   8
BRANCH   4  11
ATOM     11  O   UNL     1       2.009  49.889   7.956  1.00  0.00    -0.387 OA
ATOM     12  H   UNL     1       1.374  50.046   8.702  1.00  0.00     0.211 HD
ENDBRANCH   4  11
BRANCH   6  13
ATOM     13  O   UNL     1       4.237  48.891   6.808  1.00  0.00    -0.387 OA
ATOM     14  H   UNL     1       4.178  48.584   5.866  1.00  0.00     0.211 HD
ENDBRANCH   6  13
BRANCH   7  15
ATOM     15  O   UNL     1       5.355  47.253   8.873  1.00  0.00    -0.385 OA
ATOM     16  H   UNL     1       5.655  47.051   9.796  1.00  0.00     0.211 HD
ENDBRANCH   7  15
ENDBRANCH   1   2
BRANCH   1  17
ATOM     17  C   UNL     1       3.318  44.730  10.585  1.00  0.00     0.224 C 
ATOM     18  C   UNL     1       3.624  43.330   9.983  1.00  0.00     0.208 C 
ATOM     19  O   UNL     1       2.132  44.614  11.366  1.00  0.00    -0.337 OA
ATOM     20  C   UNL     1       2.654  42.401  10.686  1.00  0.00     0.180 C 
ATOM     21  C   UNL     1       1.549  43.360  11.110  1.00  0.00     0.179 C 
BRANCH  17  22
ATOM     22  C   UNL     1       4.452  45.236  11.513  1.00  0.00     0.225 C 
BRANCH  22  23
ATOM     23  O   UNL     1       4.533  44.472  12.687  1.00  0.00    -0.391 OA
ATOM     24  H   UNL     1       5.410  44.671  13.105  1.00  0.00     0.210 HD
ENDBRANCH  22  23
ENDBRANCH  17  22
BRANCH  18  25
ATOM     25  O   UNL     1       4.959  42.920  10.156  1.00  0.00    -0.385 OA
ATOM     26  H   UNL     1       5.525  43.719   9.993  1.00  0.00     0.211 HD
ENDBRANCH  18  25
BRANCH  20  27
ATOM     27  O   UNL     1       3.249  41.733  11.775  1.00  0.00    -0.387 OA
ATOM     28  H   UNL     1       4.172  41.477  11.518  1.00  0.00     0.211 HD
ENDBRANCH  20  27
BRANCH  21  29
ATOM     29  C   UNL     1       0.749  42.883  12.332  1.00  0.00     0.191 C 
BRANCH  29  30
ATOM     30  O   UNL     1      -0.364  43.710  12.538  1.00  0.00    -0.394 OA
ATOM     31  H   UNL     1      -0.152  44.583  12.115  1.00  0.00     0.210 HD
ENDBRANCH  29  30
ENDBRANCH  21  29
ENDBRANCH   1  17
TORSDOF 13
ENDMDL
MODEL 7
REMARK VINA RESULT:    -5.096      2.251      5.874
REMARK INTER + INTRA:          -9.493
REMARK INTER:                  -8.169
REMARK INTRA:                  -1.324
REMARK UNBOUND:                -1.716
REMARK SMILES OC[C@H]1O[C@@H](O[C@@]2(CO)O[C@H](CO)[C@H](O)[C@@H]2O)[C@@H](O)[C@H](O)[C@@H]1O
REMARK SMILES IDX 6 1 5 2 3 3 22 4 4 5 20 6 18 7 2 8 1 9 23 11 21 13 19 15
REMARK SMILES IDX 7 17 16 18 10 19 14 20 11 21 8 22 9 23 17 25 15 27 12 29
REMARK SMILES IDX 13 30
REMARK H PARENT 1 10 23 12 21 14 19 16 9 24 17 26 15 28 13 31
REMARK Flexibility Score: inf
ROOT
ATOM      1  O   UNL     1       2.396  45.415   9.494  1.00  0.00    -0.313 OA
ENDROOT
BRANCH   1   2
ATOM      2  C   UNL     1       1.390  46.335   9.902  1.00  0.00     0.285 C 
ATOM      3  C   UNL     1      -0.285  45.695   8.307  1.00  0.00     0.178 C 
ATOM      4  C   UNL     1      -0.093  47.005   7.495  1.00  0.00     0.177 C 
ATOM      5  O   UNL     1       0.094  45.796   9.679  1.00  0.00    -0.341 OA
ATOM      6  C   UNL     1       1.286  47.642   7.735  1.00  0.00     0.179 C 
ATOM      7  C   UNL     1       1.585  47.712   9.234  1.00  0.00     0.202 C 
BRANCH   3   8
ATOM      8  C   UNL     1       0.261  44.428   7.612  1.00  0.00     0.191 C 
BRANCH   8   9
ATOM      9  O   UNL     1       0.027  44.442   6.232  1.00  0.00    -0.394 OA
ATOM     10  H   UNL     1      -0.385  43.566   6.012  1.00  0.00     0.210 HD
ENDBRANCH   8   9
ENDBRANCH   3   8
BRANCH   4  11
ATOM     11  O   UNL     1      -1.125  47.923   7.772  1.00  0.00    -0.387 OA
ATOM     12  H   UNL     1      -1.462  47.743   8.688  1.00  0.00     0.211 HD
ENDBRANCH   4  11
BRANCH   6  13
ATOM     13  O   UNL     1       1.306  48.931   7.175  1.00  0.00    -0.387 OA
ATOM     14  H   UNL     1       1.550  48.830   6.218  1.00  0.00     0.211 HD
ENDBRANCH   6  13
BRANCH   7  15
ATOM     15  O   UNL     1       2.900  48.163   9.426  1.00  0.00    -0.385 OA
ATOM     16  H   UNL     1       3.102  48.058  10.391  1.00  0.00     0.211 HD
ENDBRANCH   7  15
ENDBRANCH   1   2
BRANCH   1  17
ATOM     17  C   UNL     1       2.938  44.633  10.564  1.00  0.00     0.224 C 
ATOM     18  C   UNL     1       3.441  43.287   9.971  1.00  0.00     0.208 C 
ATOM     19  O   UNL     1       1.952  44.330  11.547  1.00  0.00    -0.337 OA
ATOM     20  C   UNL     1       2.829  42.231  10.870  1.00  0.00     0.180 C 
ATOM     21  C   UNL     1       1.626  42.965  11.448  1.00  0.00     0.179 C 
BRANCH  17  22
ATOM     22  C   UNL     1       4.069  45.435  11.255  1.00  0.00     0.225 C 
BRANCH  22  23
ATOM     23  O   UNL     1       4.565  44.758  12.380  1.00  0.00    -0.391 OA
ATOM     24  H   UNL     1       4.764  45.443  13.068  1.00  0.00     0.210 HD
ENDBRANCH  22  23
ENDBRANCH  17  22
BRANCH  18  25
ATOM     25  O   UNL     1       4.843  43.181   9.919  1.00  0.00    -0.385 OA
ATOM     26  H   UNL     1       5.051  42.218   9.796  1.00  0.00     0.211 HD
ENDBRANCH  18  25
BRANCH  20  27
ATOM     27  O   UNL     1       3.728  41.788  11.861  1.00  0.00    -0.387 OA
ATOM     28  H   UNL     1       3.599  42.345  12.672  1.00  0.00     0.211 HD
ENDBRANCH  20  27
BRANCH  21  29
ATOM     29  C   UNL     1       1.164  42.426  12.810  1.00  0.00     0.191 C 
BRANCH  29  30
ATOM     30  O   UNL     1       1.292  41.030  12.848  1.00  0.00    -0.394 OA
ATOM     31  H   UNL     1       0.693  40.670  12.142  1.00  0.00     0.210 HD
ENDBRANCH  29  30
ENDBRANCH  21  29
ENDBRANCH   1  17
TORSDOF 13
ENDMDL
MODEL 8
REMARK VINA RESULT:    -4.899      1.742      3.731
REMARK INTER + INTRA:          -9.192
REMARK INTER:                  -7.757
REMARK INTRA:                  -1.435
REMARK UNBOUND:                -1.716
REMARK SMILES OC[C@H]1O[C@@H](O[C@@]2(CO)O[C@H](CO)[C@H](O)[C@@H]2O)[C@@H](O)[C@H](O)[C@@H]1O
REMARK SMILES IDX 6 1 5 2 3 3 22 4 4 5 20 6 18 7 2 8 1 9 23 11 21 13 19 15
REMARK SMILES IDX 7 17 16 18 10 19 14 20 11 21 8 22 9 23 17 25 15 27 12 29
REMARK SMILES IDX 13 30
REMARK H PARENT 1 10 23 12 21 14 19 16 9 24 17 26 15 28 13 31
REMARK Flexibility Score: inf
ROOT
ATOM      1  O   UNL     1       3.629  46.793   9.084  1.00  0.00    -0.313 OA
ENDROOT
BRANCH   1   2
ATOM      2  C   UNL     1       2.533  46.785   9.992  1.00  0.00     0.285 C 
ATOM      3  C   UNL     1       2.789  44.529  10.771  1.00  0.00     0.178 C 
ATOM      4  C   UNL     1       1.529  44.058   9.995  1.00  0.00     0.177 C 
ATOM      5  O   UNL     1       2.795  45.920  11.089  1.00  0.00    -0.341 OA
ATOM      6  C   UNL     1       1.188  44.987   8.818  1.00  0.00     0.179 C 
ATOM      7  C   UNL     1       1.211  46.449   9.272  1.00  0.00     0.202 C 
BRANCH   3   8
ATOM      8  C   UNL     1       4.126  44.031  10.178  1.00  0.00     0.191 C 
BRANCH   8   9
ATOM      9  O   UNL     1       5.225  44.726  10.698  1.00  0.00    -0.394 OA
ATOM     10  H   UNL     1       5.785  44.050  11.162  1.00  0.00     0.210 HD
ENDBRANCH   8   9
ENDBRANCH   3   8
BRANCH   4  11
ATOM     11  O   UNL     1       0.427  43.922  10.862  1.00  0.00    -0.387 OA
ATOM     12  H   UNL     1      -0.208  43.275  10.458  1.00  0.00     0.211 HD
ENDBRANCH   4  11
BRANCH   6  13
ATOM     13  O   UNL     1      -0.081  44.654   8.315  1.00  0.00    -0.387 OA
ATOM     14  H   UNL     1      -0.556  44.154   9.030  1.00  0.00     0.211 HD
ENDBRANCH   6  13
BRANCH   7  15
ATOM     15  O   UNL     1       1.038  47.284   8.158  1.00  0.00    -0.385 OA
ATOM     16  H   UNL     1       0.442  46.803   7.526  1.00  0.00     0.211 HD
ENDBRANCH   7  15
ENDBRANCH   1   2
BRANCH   1  17
ATOM     17  C   UNL     1       4.329  48.041   9.028  1.00  0.00     0.224 C 
ATOM     18  C   UNL     1       4.023  48.824  10.335  1.00  0.00     0.208 C 
ATOM     19  O   UNL     1       3.894  48.841   7.933  1.00  0.00    -0.337 OA
ATOM     20  C   UNL     1       3.610  50.202   9.856  1.00  0.00     0.180 C 
ATOM     21  C   UNL     1       3.139  49.916   8.436  1.00  0.00     0.179 C 
BRANCH  17  22
ATOM     22  C   UNL     1       5.843  47.764   8.844  1.00  0.00     0.225 C 
BRANCH  22  23
ATOM     23  O   UNL     1       6.558  48.951   8.625  1.00  0.00    -0.391 OA
ATOM     24  H   UNL     1       6.188  49.367   7.805  1.00  0.00     0.210 HD
ENDBRANCH  22  23
ENDBRANCH  17  22
BRANCH  18  25
ATOM     25  O   UNL     1       5.110  48.884  11.226  1.00  0.00    -0.385 OA
ATOM     26  H   UNL     1       5.592  48.020  11.144  1.00  0.00     0.211 HD
ENDBRANCH  18  25
BRANCH  20  27
ATOM     27  O   UNL     1       4.674  51.125   9.905  1.00  0.00    -0.387 OA
ATOM     28  H   UNL     1       4.418  51.866  10.513  1.00  0.00     0.211 HD
ENDBRANCH  20  27
BRANCH  21  29
ATOM     29  C   UNL     1       3.236  51.125   7.494  1.00  0.00     0.191 C 
BRANCH  29  30
ATOM     30  O   UNL     1       2.261  51.040   6.491  1.00  0.00    -0.394 OA
ATOM     31  H   UNL     1       1.656  50.294   6.743  1.00  0.00     0.210 HD
ENDBRANCH  29  30
ENDBRANCH  21  29
ENDBRANCH   1  17
TORSDOF 13
ENDMDL
MODEL 9
REMARK VINA RESULT:    -4.814      1.673      6.020
REMARK INTER + INTRA:          -9.063
REMARK INTER:                  -7.609
REMARK INTRA:                  -1.454
REMARK UNBOUND:                -1.716
REMARK SMILES OC[C@H]1O[C@@H](O[C@@]2(CO)O[C@H](CO)[C@H](O)[C@@H]2O)[C@@H](O)[C@H](O)[C@@H]1O
REMARK SMILES IDX 6 1 5 2 3 3 22 4 4 5 20 6 18 7 2 8 1 9 23 11 21 13 19 15
REMARK SMILES IDX 7 17 16 18 10 19 14 20 11 21 8 22 9 23 17 25 15 27 12 29
REMARK SMILES IDX 13 30
REMARK H PARENT 1 10 23 12 21 14 19 16 9 24 17 26 15 28 13 31
REMARK Flexibility Score: inf
ROOT
ATOM      1  O   UNL     1       1.711  47.003   9.390  1.00  0.00    -0.313 OA
ENDROOT
BRANCH   1   2
ATOM      2  C   UNL     1       2.350  47.467   8.205  1.00  0.00     0.285 C 
ATOM      3  C   UNL     1       3.902  48.968   9.254  1.00  0.00     0.178 C 
ATOM      4  C   UNL     1       3.126  50.215   8.748  1.00  0.00     0.177 C 
ATOM      5  O   UNL     1       3.709  47.797   8.462  1.00  0.00    -0.341 OA
ATOM      6  C   UNL     1       1.657  49.894   8.424  1.00  0.00     0.179 C 
ATOM      7  C   UNL     1       1.567  48.631   7.564  1.00  0.00     0.202 C 
BRANCH   3   8
ATOM      8  C   UNL     1       3.774  48.709  10.772  1.00  0.00     0.191 C 
BRANCH   8   9
ATOM      9  O   UNL     1       4.161  47.410  11.120  1.00  0.00    -0.394 OA
ATOM     10  H   UNL     1       4.027  46.855  10.308  1.00  0.00     0.210 HD
ENDBRANCH   8   9
ENDBRANCH   3   8
BRANCH   4  11
ATOM     11  O   UNL     1       3.770  50.790   7.636  1.00  0.00    -0.387 OA
ATOM     12  H   UNL     1       4.137  50.057   7.077  1.00  0.00     0.211 HD
ENDBRANCH   4  11
BRANCH   6  13
ATOM     13  O   UNL     1       1.081  50.984   7.749  1.00  0.00    -0.387 OA
ATOM     14  H   UNL     1       0.620  51.539   8.431  1.00  0.00     0.211 HD
ENDBRANCH   6  13
BRANCH   7  15
ATOM     15  O   UNL     1       0.219  48.277   7.399  1.00  0.00    -0.385 OA
ATOM     16  H   UNL     1      -0.175  48.930   6.764  1.00  0.00     0.211 HD
ENDBRANCH   7  15
ENDBRANCH   1   2
BRANCH   1  17
ATOM     17  C   UNL     1       1.620  45.578   9.482  1.00  0.00     0.224 C 
ATOM     18  C   UNL     1       1.051  45.220  10.883  1.00  0.00     0.208 C 
ATOM     19  O   UNL     1       2.898  44.959   9.364  1.00  0.00    -0.337 OA
ATOM     20  C   UNL     1       2.006  44.172  11.418  1.00  0.00     0.180 C 
ATOM     21  C   UNL     1       3.275  44.467  10.627  1.00  0.00     0.179 C 
BRANCH  17  22
ATOM     22  C   UNL     1       0.729  45.052   8.328  1.00  0.00     0.225 C 
BRANCH  22  23
ATOM     23  O   UNL     1       0.930  43.681   8.108  1.00  0.00    -0.391 OA
ATOM     24  H   UNL     1       0.445  43.444   7.277  1.00  0.00     0.210 HD
ENDBRANCH  22  23
ENDBRANCH  17  22
BRANCH  18  25
ATOM     25  O   UNL     1      -0.275  44.751  10.851  1.00  0.00    -0.385 OA
ATOM     26  H   UNL     1      -0.821  45.469  10.435  1.00  0.00     0.211 HD
ENDBRANCH  18  25
BRANCH  20  27
ATOM     27  O   UNL     1       1.528  42.861  11.217  1.00  0.00    -0.387 OA
ATOM     28  H   UNL     1       0.711  42.739  11.767  1.00  0.00     0.211 HD
ENDBRANCH  20  27
BRANCH  21  29
ATOM     29  C   UNL     1       4.206  43.255  10.472  1.00  0.00     0.191 C 
BRANCH  29  30
ATOM     30  O   UNL     1       4.316  42.568  11.689  1.00  0.00    -0.394 OA
ATOM     31  H   UNL     1       3.405  42.537  12.082  1.00  0.00     0.210 HD
ENDBRANCH  29  30
ENDBRANCH  21  29
ENDBRANCH   1  17
TORSDOF 13
ENDMDL
