MODEL 1
REMARK VINA RESULT:    -7.727      0.000      0.000
REMARK INTER + INTRA:          -9.901
REMARK INTER:                  -9.534
REMARK INTRA:                  -0.367
REMARK UNBOUND:                -0.367
REMARK SMILES Oc1cc(O)c2cc(O)c(-c3cc(O)c(O)c(O)c3)[o+]c2c1
REMARK SMILES IDX 10 1 20 2 21 3 22 4 2 5 3 6 4 7 6 8 7 9 8 10 11 11 12 12
REMARK SMILES IDX 13 13 19 14 15 15 17 16 14 17 16 19 18 21 9 23 1 25 5 27
REMARK H PARENT 14 18 16 20 18 22 9 24 1 26 5 28
REMARK Flexibility Score: inf
ROOT
ATOM      1  C   UNL     1      22.271  58.639  36.349  1.00  0.00     0.402 A 
ATOM      2  O   UNL     1      22.029  57.636  35.508  1.00  0.00    -0.202 OA
ATOM      3  C   UNL     1      22.661  57.487  34.348  1.00  0.00     0.368 A 
ATOM      4  C   UNL     1      22.339  56.399  33.534  1.00  0.00     0.162 A 
ATOM      5  C   UNL     1      22.990  56.217  32.310  1.00  0.00     0.128 A 
ATOM      6  C   UNL     1      23.965  57.129  31.899  1.00  0.00     0.093 A 
ATOM      7  C   UNL     1      24.305  58.229  32.697  1.00  0.00     0.136 A 
ATOM      8  C   UNL     1      23.646  58.418  33.939  1.00  0.00     0.125 A 
ATOM      9  C   UNL     1      23.911  59.498  34.797  1.00  0.00     0.078 A 
ATOM     10  C   UNL     1      23.217  59.621  36.004  1.00  0.00     0.223 A 
ENDROOT
BRANCH   1  11
ATOM     11  C   UNL     1      21.509  58.688  37.617  1.00  0.00     0.091 A 
ATOM     12  C   UNL     1      22.098  58.202  38.795  1.00  0.00     0.068 A 
ATOM     13  C   UNL     1      21.409  58.255  40.014  1.00  0.00     0.162 A 
ATOM     14  C   UNL     1      20.228  59.264  37.681  1.00  0.00     0.068 A 
ATOM     15  C   UNL     1      20.119  58.813  40.064  1.00  0.00     0.200 A 
ATOM     16  C   UNL     1      19.534  59.322  38.897  1.00  0.00     0.162 A 
BRANCH  13  17
ATOM     17  O   UNL     1      21.998  57.755  41.175  1.00  0.00    -0.504 OA
ATOM     18  H   UNL     1      22.081  58.319  42.013  1.00  0.00     0.293 HD
ENDBRANCH  13  17
BRANCH  15  19
ATOM     19  O   UNL     1      19.412  58.875  41.264  1.00  0.00    -0.502 OA
ATOM     20  H   UNL     1      19.839  59.189  42.127  1.00  0.00     0.293 HD
ENDBRANCH  15  19
BRANCH  16  21
ATOM     21  O   UNL     1      18.262  59.887  38.955  1.00  0.00    -0.504 OA
ATOM     22  H   UNL     1      18.056  60.777  38.518  1.00  0.00     0.293 HD
ENDBRANCH  16  21
ENDBRANCH   1  11
BRANCH  10  23
ATOM     23  O   UNL     1      23.446  60.719  36.833  1.00  0.00    -0.500 OA
ATOM     24  H   UNL     1      22.981  60.817  37.728  1.00  0.00     0.294 HD
ENDBRANCH  10  23
BRANCH   5  25
ATOM     25  O   UNL     1      22.675  55.134  31.492  1.00  0.00    -0.507 OA
ATOM     26  H   UNL     1      22.939  54.187  31.742  1.00  0.00     0.293 HD
ENDBRANCH   5  25
BRANCH   7  27
ATOM     27  O   UNL     1      25.292  59.092  32.215  1.00  0.00    -0.507 OA
ATOM     28  H   UNL     1      26.233  59.142  32.578  1.00  0.00     0.293 HD
ENDBRANCH   7  27
TORSDOF 7
ENDMDL
MODEL 2
REMARK VINA RESULT:    -7.499      2.124      6.700
REMARK INTER + INTRA:          -9.619
REMARK INTER:                  -9.236
REMARK INTRA:                  -0.383
REMARK UNBOUND:                -0.367
REMARK SMILES Oc1cc(O)c2cc(O)c(-c3cc(O)c(O)c(O)c3)[o+]c2c1
REMARK SMILES IDX 10 1 20 2 21 3 22 4 2 5 3 6 4 7 6 8 7 9 8 10 11 11 12 12
REMARK SMILES IDX 13 13 19 14 15 15 17 16 14 17 16 19 18 21 9 23 1 25 5 27
REMARK H PARENT 14 18 16 20 18 22 9 24 1 26 5 28
REMARK Flexibility Score: inf
ROOT
ATOM      1  C   UNL     1      22.289  58.375  36.493  1.00  0.00     0.402 A 
ATOM      2  O   UNL     1      21.918  57.517  37.441  1.00  0.00    -0.202 OA
ATOM      3  C   UNL     1      21.993  57.788  38.740  1.00  0.00     0.368 A 
ATOM      4  C   UNL     1      21.576  56.822  39.660  1.00  0.00     0.162 A 
ATOM      5  C   UNL     1      21.643  57.081  41.033  1.00  0.00     0.128 A 
ATOM      6  C   UNL     1      22.128  58.310  41.486  1.00  0.00     0.093 A 
ATOM      7  C   UNL     1      22.552  59.294  40.583  1.00  0.00     0.136 A 
ATOM      8  C   UNL     1      22.489  59.035  39.189  1.00  0.00     0.125 A 
ATOM      9  C   UNL     1      22.905  59.956  38.214  1.00  0.00     0.078 A 
ATOM     10  C   UNL     1      22.817  59.627  36.858  1.00  0.00     0.223 A 
ENDROOT
BRANCH   1  11
ATOM     11  C   UNL     1      22.146  57.961  35.079  1.00  0.00     0.091 A 
ATOM     12  C   UNL     1      23.133  57.153  34.493  1.00  0.00     0.068 A 
ATOM     13  C   UNL     1      23.013  56.730  33.162  1.00  0.00     0.162 A 
ATOM     14  C   UNL     1      21.013  58.313  34.324  1.00  0.00     0.068 A 
ATOM     15  C   UNL     1      21.887  57.105  32.408  1.00  0.00     0.200 A 
ATOM     16  C   UNL     1      20.887  57.891  32.994  1.00  0.00     0.162 A 
BRANCH  13  17
ATOM     17  O   UNL     1      24.007  55.940  32.587  1.00  0.00    -0.504 OA
ATOM     18  H   UNL     1      24.408  56.165  31.683  1.00  0.00     0.293 HD
ENDBRANCH  13  17
BRANCH  15  19
ATOM     19  O   UNL     1      21.747  56.698  31.081  1.00  0.00    -0.502 OA
ATOM     20  H   UNL     1      21.111  55.959  30.807  1.00  0.00     0.293 HD
ENDBRANCH  15  19
BRANCH  16  21
ATOM     21  O   UNL     1      19.766  58.248  32.246  1.00  0.00    -0.504 OA
ATOM     22  H   UNL     1      19.553  57.800  31.363  1.00  0.00     0.293 HD
ENDBRANCH  16  21
ENDBRANCH   1  11
BRANCH  10  23
ATOM     23  O   UNL     1      23.275  60.522  35.890  1.00  0.00    -0.500 OA
ATOM     24  H   UNL     1      23.556  60.211  34.968  1.00  0.00     0.294 HD
ENDBRANCH  10  23
BRANCH   5  25
ATOM     25  O   UNL     1      21.229  56.125  41.956  1.00  0.00    -0.507 OA
ATOM     26  H   UNL     1      21.897  55.557  42.467  1.00  0.00     0.293 HD
ENDBRANCH   5  25
BRANCH   7  27
ATOM     27  O   UNL     1      23.022  60.497  41.118  1.00  0.00    -0.507 OA
ATOM     28  H   UNL     1      23.965  60.840  41.009  1.00  0.00     0.293 HD
ENDBRANCH   7  27
TORSDOF 7
ENDMDL
MODEL 3
REMARK VINA RESULT:    -7.419     12.481     13.446
REMARK INTER + INTRA:          -9.521
REMARK INTER:                  -9.488
REMARK INTRA:                  -0.033
REMARK UNBOUND:                -0.367
REMARK SMILES Oc1cc(O)c2cc(O)c(-c3cc(O)c(O)c(O)c3)[o+]c2c1
REMARK SMILES IDX 10 1 20 2 21 3 22 4 2 5 3 6 4 7 6 8 7 9 8 10 11 11 12 12
REMARK SMILES IDX 13 13 19 14 15 15 17 16 14 17 16 19 18 21 9 23 1 25 5 27
REMARK H PARENT 14 18 16 20 18 22 9 24 1 26 5 28
REMARK Flexibility Score: inf
ROOT
ATOM      1  C   UNL     1      34.398  56.377  31.096  1.00  0.00     0.402 A 
ATOM      2  O   UNL     1      33.533  55.559  30.501  1.00  0.00    -0.202 OA
ATOM      3  C   UNL     1      33.436  55.434  29.182  1.00  0.00     0.368 A 
ATOM      4  C   UNL     1      32.497  54.546  28.651  1.00  0.00     0.162 A 
ATOM      5  C   UNL     1      32.375  54.393  27.267  1.00  0.00     0.128 A 
ATOM      6  C   UNL     1      33.195  55.132  26.411  1.00  0.00     0.093 A 
ATOM      7  C   UNL     1      34.143  56.029  26.918  1.00  0.00     0.136 A 
ATOM      8  C   UNL     1      34.269  56.189  28.323  1.00  0.00     0.125 A 
ATOM      9  C   UNL     1      35.182  57.075  28.919  1.00  0.00     0.078 A 
ATOM     10  C   UNL     1      35.245  57.182  30.312  1.00  0.00     0.223 A 
ENDROOT
BRANCH   1  11
ATOM     11  C   UNL     1      34.419  56.419  32.576  1.00  0.00     0.091 A 
ATOM     12  C   UNL     1      34.314  57.655  33.232  1.00  0.00     0.068 A 
ATOM     13  C   UNL     1      34.311  57.723  34.632  1.00  0.00     0.162 A 
ATOM     14  C   UNL     1      34.486  55.242  33.341  1.00  0.00     0.068 A 
ATOM     15  C   UNL     1      34.399  56.542  35.390  1.00  0.00     0.200 A 
ATOM     16  C   UNL     1      34.481  55.303  34.741  1.00  0.00     0.162 A 
BRANCH  13  17
ATOM     17  O   UNL     1      34.221  58.958  35.274  1.00  0.00    -0.504 OA
ATOM     18  H   UNL     1      33.766  59.057  36.174  1.00  0.00     0.293 HD
ENDBRANCH  13  17
BRANCH  15  19
ATOM     19  O   UNL     1      34.401  56.584  36.784  1.00  0.00    -0.502 OA
ATOM     20  H   UNL     1      33.794  55.996  37.342  1.00  0.00     0.293 HD
ENDBRANCH  15  19
BRANCH  16  21
ATOM     21  O   UNL     1      34.555  54.134  35.496  1.00  0.00    -0.504 OA
ATOM     22  H   UNL     1      35.430  53.641  35.628  1.00  0.00     0.293 HD
ENDBRANCH  16  21
ENDBRANCH   1  11
BRANCH  10  23
ATOM     23  O   UNL     1      36.116  58.097  30.904  1.00  0.00    -0.500 OA
ATOM     24  H   UNL     1      35.868  59.073  31.017  1.00  0.00     0.294 HD
ENDBRANCH  10  23
BRANCH   5  25
ATOM     25  O   UNL     1      31.442  53.509  26.730  1.00  0.00    -0.507 OA
ATOM     26  H   UNL     1      30.492  53.463  27.081  1.00  0.00     0.293 HD
ENDBRANCH   5  25
BRANCH   7  27
ATOM     27  O   UNL     1      34.926  56.728  25.995  1.00  0.00    -0.507 OA
ATOM     28  H   UNL     1      35.543  56.292  25.326  1.00  0.00     0.293 HD
ENDBRANCH   7  27
TORSDOF 7
ENDMDL
MODEL 4
REMARK VINA RESULT:    -7.382     12.385     13.308
REMARK INTER + INTRA:          -9.476
REMARK INTER:                  -9.393
REMARK INTRA:                  -0.083
REMARK UNBOUND:                -0.367
REMARK SMILES Oc1cc(O)c2cc(O)c(-c3cc(O)c(O)c(O)c3)[o+]c2c1
REMARK SMILES IDX 10 1 20 2 21 3 22 4 2 5 3 6 4 7 6 8 7 9 8 10 11 11 12 12
REMARK SMILES IDX 13 13 19 14 15 15 17 16 14 17 16 19 18 21 9 23 1 25 5 27
REMARK H PARENT 14 18 16 20 18 22 9 24 1 26 5 28
REMARK Flexibility Score: inf
ROOT
ATOM      1  C   UNL     1      34.221  56.377  30.975  1.00  0.00     0.402 A 
ATOM      2  O   UNL     1      33.319  55.599  30.382  1.00  0.00    -0.202 OA
ATOM      3  C   UNL     1      33.229  55.460  29.063  1.00  0.00     0.368 A 
ATOM      4  C   UNL     1      32.248  54.617  28.534  1.00  0.00     0.162 A 
ATOM      5  C   UNL     1      32.133  54.450  27.151  1.00  0.00     0.128 A 
ATOM      6  C   UNL     1      33.001  55.130  26.294  1.00  0.00     0.093 A 
ATOM      7  C   UNL     1      33.993  55.981  26.800  1.00  0.00     0.136 A 
ATOM      8  C   UNL     1      34.112  56.155  28.203  1.00  0.00     0.125 A 
ATOM      9  C   UNL     1      35.066  56.997  28.798  1.00  0.00     0.078 A 
ATOM     10  C   UNL     1      35.119  57.122  30.189  1.00  0.00     0.223 A 
ENDROOT
BRANCH   1  11
ATOM     11  C   UNL     1      34.228  56.439  32.454  1.00  0.00     0.091 A 
ATOM     12  C   UNL     1      34.351  55.253  33.194  1.00  0.00     0.068 A 
ATOM     13  C   UNL     1      34.381  55.285  34.595  1.00  0.00     0.162 A 
ATOM     14  C   UNL     1      34.172  57.668  33.135  1.00  0.00     0.068 A 
ATOM     15  C   UNL     1      34.303  56.517  35.268  1.00  0.00     0.200 A 
ATOM     16  C   UNL     1      34.204  57.706  34.535  1.00  0.00     0.162 A 
BRANCH  13  17
ATOM     17  O   UNL     1      34.487  54.099  35.320  1.00  0.00    -0.504 OA
ATOM     18  H   UNL     1      35.285  53.911  35.917  1.00  0.00     0.293 HD
ENDBRANCH  13  17
BRANCH  15  19
ATOM     19  O   UNL     1      34.328  56.573  36.662  1.00  0.00    -0.502 OA
ATOM     20  H   UNL     1      33.589  57.011  37.198  1.00  0.00     0.293 HD
ENDBRANCH  15  19
BRANCH  16  21
ATOM     21  O   UNL     1      34.141  58.925  35.207  1.00  0.00    -0.504 OA
ATOM     22  H   UNL     1      34.811  59.171  35.926  1.00  0.00     0.293 HD
ENDBRANCH  16  21
ENDBRANCH   1  11
BRANCH  10  23
ATOM     23  O   UNL     1      36.034  57.996  30.778  1.00  0.00    -0.500 OA
ATOM     24  H   UNL     1      35.831  58.982  30.891  1.00  0.00     0.294 HD
ENDBRANCH  10  23
BRANCH   5  25
ATOM     25  O   UNL     1      31.158  53.611  26.616  1.00  0.00    -0.507 OA
ATOM     26  H   UNL     1      30.178  53.871  26.615  1.00  0.00     0.293 HD
ENDBRANCH   5  25
BRANCH   7  27
ATOM     27  O   UNL     1      34.823  56.621  25.875  1.00  0.00    -0.507 OA
ATOM     28  H   UNL     1      35.789  56.860  26.046  1.00  0.00     0.293 HD
ENDBRANCH   7  27
TORSDOF 7
ENDMDL
MODEL 5
REMARK VINA RESULT:    -7.061      2.058      6.875
REMARK INTER + INTRA:          -9.079
REMARK INTER:                  -9.145
REMARK INTRA:                   0.066
REMARK UNBOUND:                -0.367
REMARK SMILES Oc1cc(O)c2cc(O)c(-c3cc(O)c(O)c(O)c3)[o+]c2c1
REMARK SMILES IDX 10 1 20 2 21 3 22 4 2 5 3 6 4 7 6 8 7 9 8 10 11 11 12 12
REMARK SMILES IDX 13 13 19 14 15 15 17 16 14 17 16 19 18 21 9 23 1 25 5 27
REMARK H PARENT 14 18 16 20 18 22 9 24 1 26 5 28
REMARK Flexibility Score: inf
ROOT
ATOM      1  C   UNL     1      22.567  57.654  36.609  1.00  0.00     0.402 A 
ATOM      2  O   UNL     1      22.494  56.398  37.043  1.00  0.00    -0.202 OA
ATOM      3  C   UNL     1      21.973  56.061  38.218  1.00  0.00     0.368 A 
ATOM      4  C   UNL     1      21.940  54.713  38.584  1.00  0.00     0.162 A 
ATOM      5  C   UNL     1      21.395  54.330  39.814  1.00  0.00     0.128 A 
ATOM      6  C   UNL     1      20.883  55.299  40.679  1.00  0.00     0.093 A 
ATOM      7  C   UNL     1      20.905  56.657  40.335  1.00  0.00     0.136 A 
ATOM      8  C   UNL     1      21.459  57.050  39.089  1.00  0.00     0.125 A 
ATOM      9  C   UNL     1      21.536  58.388  38.667  1.00  0.00     0.078 A 
ATOM     10  C   UNL     1      22.101  58.700  37.427  1.00  0.00     0.223 A 
ENDROOT
BRANCH   1  11
ATOM     11  C   UNL     1      23.159  57.901  35.275  1.00  0.00     0.091 A 
ATOM     12  C   UNL     1      24.085  58.945  35.114  1.00  0.00     0.068 A 
ATOM     13  C   UNL     1      24.677  59.189  33.867  1.00  0.00     0.162 A 
ATOM     14  C   UNL     1      22.859  57.079  34.175  1.00  0.00     0.068 A 
ATOM     15  C   UNL     1      24.354  58.374  32.768  1.00  0.00     0.200 A 
ATOM     16  C   UNL     1      23.448  57.316  32.927  1.00  0.00     0.162 A 
BRANCH  13  17
ATOM     17  O   UNL     1      25.583  60.237  33.715  1.00  0.00    -0.504 OA
ATOM     18  H   UNL     1      25.807  60.618  32.803  1.00  0.00     0.293 HD
ENDBRANCH  13  17
BRANCH  15  19
ATOM     19  O   UNL     1      24.928  58.598  31.517  1.00  0.00    -0.502 OA
ATOM     20  H   UNL     1      24.430  58.417  30.654  1.00  0.00     0.293 HD
ENDBRANCH  15  19
BRANCH  16  21
ATOM     21  O   UNL     1      23.143  56.503  31.838  1.00  0.00    -0.504 OA
ATOM     22  H   UNL     1      23.064  56.878  30.900  1.00  0.00     0.293 HD
ENDBRANCH  16  21
ENDBRANCH   1  11
BRANCH  10  23
ATOM     23  O   UNL     1      22.222  60.031  37.029  1.00  0.00    -0.500 OA
ATOM     24  H   UNL     1      22.705  60.290  36.176  1.00  0.00     0.294 HD
ENDBRANCH  10  23
BRANCH   5  25
ATOM     25  O   UNL     1      21.357  52.989  40.187  1.00  0.00    -0.507 OA
ATOM     26  H   UNL     1      21.864  52.649  40.997  1.00  0.00     0.293 HD
ENDBRANCH   5  25
BRANCH   7  27
ATOM     27  O   UNL     1      20.370  57.563  41.255  1.00  0.00    -0.507 OA
ATOM     28  H   UNL     1      19.693  57.322  41.964  1.00  0.00     0.293 HD
ENDBRANCH   7  27
TORSDOF 7
ENDMDL
MODEL 6
REMARK VINA RESULT:    -6.870     12.328     14.601
REMARK INTER + INTRA:          -8.843
REMARK INTER:                  -8.724
REMARK INTRA:                  -0.118
REMARK UNBOUND:                -0.367
REMARK SMILES Oc1cc(O)c2cc(O)c(-c3cc(O)c(O)c(O)c3)[o+]c2c1
REMARK SMILES IDX 10 1 20 2 21 3 22 4 2 5 3 6 4 7 6 8 7 9 8 10 11 11 12 12
REMARK SMILES IDX 13 13 19 14 15 15 17 16 14 17 16 19 18 21 9 23 1 25 5 27
REMARK H PARENT 14 18 16 20 18 22 9 24 1 26 5 28
REMARK Flexibility Score: inf
ROOT
ATOM      1  C   UNL     1      33.863  55.746  30.108  1.00  0.00     0.402 A 
ATOM      2  O   UNL     1      33.522  55.588  31.384  1.00  0.00    -0.202 OA
ATOM      3  C   UNL     1      34.062  56.287  32.377  1.00  0.00     0.368 A 
ATOM      4  C   UNL     1      33.636  56.051  33.686  1.00  0.00     0.162 A 
ATOM      5  C   UNL     1      34.186  56.774  34.749  1.00  0.00     0.128 A 
ATOM      6  C   UNL     1      35.167  57.737  34.500  1.00  0.00     0.093 A 
ATOM      7  C   UNL     1      35.612  57.992  33.196  1.00  0.00     0.136 A 
ATOM      8  C   UNL     1      35.057  57.259  32.115  1.00  0.00     0.125 A 
ATOM      9  C   UNL     1      35.452  57.438  30.779  1.00  0.00     0.078 A 
ATOM     10  C   UNL     1      34.864  56.675  29.767  1.00  0.00     0.223 A 
ENDROOT
BRANCH   1  11
ATOM     11  C   UNL     1      33.180  54.915  29.092  1.00  0.00     0.091 A 
ATOM     12  C   UNL     1      33.079  53.529  29.289  1.00  0.00     0.068 A 
ATOM     13  C   UNL     1      32.420  52.720  28.353  1.00  0.00     0.162 A 
ATOM     14  C   UNL     1      32.578  55.489  27.958  1.00  0.00     0.068 A 
ATOM     15  C   UNL     1      31.840  53.301  27.211  1.00  0.00     0.200 A 
ATOM     16  C   UNL     1      31.917  54.687  27.020  1.00  0.00     0.162 A 
BRANCH  13  17
ATOM     17  O   UNL     1      32.339  51.342  28.551  1.00  0.00    -0.504 OA
ATOM     18  H   UNL     1      31.473  50.896  28.830  1.00  0.00     0.293 HD
ENDBRANCH  13  17
BRANCH  15  19
ATOM     19  O   UNL     1      31.181  52.517  26.265  1.00  0.00    -0.502 OA
ATOM     20  H   UNL     1      31.678  52.015  25.539  1.00  0.00     0.293 HD
ENDBRANCH  15  19
BRANCH  16  21
ATOM     21  O   UNL     1      31.328  55.259  25.894  1.00  0.00    -0.504 OA
ATOM     22  H   UNL     1      30.333  55.184  25.719  1.00  0.00     0.293 HD
ENDBRANCH  16  21
ENDBRANCH   1  11
BRANCH  10  23
ATOM     23  O   UNL     1      35.290  56.817  28.446  1.00  0.00    -0.500 OA
ATOM     24  H   UNL     1      36.220  57.151  28.219  1.00  0.00     0.294 HD
ENDBRANCH  10  23
BRANCH   5  25
ATOM     25  O   UNL     1      33.766  56.544  36.057  1.00  0.00    -0.507 OA
ATOM     26  H   UNL     1      33.388  55.648  36.342  1.00  0.00     0.293 HD
ENDBRANCH   5  25
BRANCH   7  27
ATOM     27  O   UNL     1      36.593  58.974  33.033  1.00  0.00    -0.507 OA
ATOM     28  H   UNL     1      37.220  59.280  33.763  1.00  0.00     0.293 HD
ENDBRANCH   7  27
TORSDOF 7
ENDMDL
MODEL 7
REMARK VINA RESULT:    -6.503     12.156     13.949
REMARK INTER + INTRA:          -8.390
REMARK INTER:                  -8.041
REMARK INTRA:                  -0.349
REMARK UNBOUND:                -0.367
REMARK SMILES Oc1cc(O)c2cc(O)c(-c3cc(O)c(O)c(O)c3)[o+]c2c1
REMARK SMILES IDX 10 1 20 2 21 3 22 4 2 5 3 6 4 7 6 8 7 9 8 10 11 11 12 12
REMARK SMILES IDX 13 13 19 14 15 15 17 16 14 17 16 19 18 21 9 23 1 25 5 27
REMARK H PARENT 14 18 16 20 18 22 9 24 1 26 5 28
REMARK Flexibility Score: inf
ROOT
ATOM      1  C   UNL     1      33.330  53.457  30.678  1.00  0.00     0.402 A 
ATOM      2  O   UNL     1      33.647  54.524  29.949  1.00  0.00    -0.202 OA
ATOM      3  C   UNL     1      33.333  54.649  28.664  1.00  0.00     0.368 A 
ATOM      4  C   UNL     1      33.707  55.810  27.983  1.00  0.00     0.162 A 
ATOM      5  C   UNL     1      33.387  55.969  26.631  1.00  0.00     0.128 A 
ATOM      6  C   UNL     1      32.691  54.961  25.958  1.00  0.00     0.093 A 
ATOM      7  C   UNL     1      32.306  53.788  26.619  1.00  0.00     0.136 A 
ATOM      8  C   UNL     1      32.630  53.622  27.990  1.00  0.00     0.125 A 
ATOM      9  C   UNL     1      32.296  52.474  28.729  1.00  0.00     0.078 A 
ATOM     10  C   UNL     1      32.654  52.380  30.076  1.00  0.00     0.223 A 
ENDROOT
BRANCH   1  11
ATOM     11  C   UNL     1      33.726  53.441  32.105  1.00  0.00     0.091 A 
ATOM     12  C   UNL     1      32.917  54.087  33.052  1.00  0.00     0.068 A 
ATOM     13  C   UNL     1      33.257  54.071  34.412  1.00  0.00     0.162 A 
ATOM     14  C   UNL     1      34.866  52.743  32.541  1.00  0.00     0.068 A 
ATOM     15  C   UNL     1      34.410  53.388  34.837  1.00  0.00     0.200 A 
ATOM     16  C   UNL     1      35.210  52.721  33.899  1.00  0.00     0.162 A 
BRANCH  13  17
ATOM     17  O   UNL     1      32.453  54.729  35.343  1.00  0.00    -0.504 OA
ATOM     18  H   UNL     1      32.842  55.137  36.185  1.00  0.00     0.293 HD
ENDBRANCH  13  17
BRANCH  15  19
ATOM     19  O   UNL     1      34.770  53.360  36.184  1.00  0.00    -0.502 OA
ATOM     20  H   UNL     1      34.599  54.141  36.805  1.00  0.00     0.293 HD
ENDBRANCH  15  19
BRANCH  16  21
ATOM     21  O   UNL     1      36.344  52.035  34.327  1.00  0.00    -0.504 OA
ATOM     22  H   UNL     1      37.226  52.107  33.833  1.00  0.00     0.293 HD
ENDBRANCH  16  21
ENDBRANCH   1  11
BRANCH  10  23
ATOM     23  O   UNL     1      32.365  51.221  30.797  1.00  0.00    -0.500 OA
ATOM     24  H   UNL     1      32.904  50.953  31.613  1.00  0.00     0.294 HD
ENDBRANCH  10  23
BRANCH   5  25
ATOM     25  O   UNL     1      33.756  57.123  25.945  1.00  0.00    -0.507 OA
ATOM     26  H   UNL     1      33.098  57.625  25.359  1.00  0.00     0.293 HD
ENDBRANCH   5  25
BRANCH   7  27
ATOM     27  O   UNL     1      31.610  52.831  25.875  1.00  0.00    -0.507 OA
ATOM     28  H   UNL     1      31.513  51.862  26.141  1.00  0.00     0.293 HD
ENDBRANCH   7  27
TORSDOF 7
ENDMDL
MODEL 8
REMARK VINA RESULT:    -6.452     11.921     14.181
REMARK INTER + INTRA:          -8.328
REMARK INTER:                  -8.002
REMARK INTRA:                  -0.326
REMARK UNBOUND:                -0.367
REMARK SMILES Oc1cc(O)c2cc(O)c(-c3cc(O)c(O)c(O)c3)[o+]c2c1
REMARK SMILES IDX 10 1 20 2 21 3 22 4 2 5 3 6 4 7 6 8 7 9 8 10 11 11 12 12
REMARK SMILES IDX 13 13 19 14 15 15 17 16 14 17 16 19 18 21 9 23 1 25 5 27
REMARK H PARENT 14 18 16 20 18 22 9 24 1 26 5 28
REMARK Flexibility Score: inf
ROOT
ATOM      1  C   UNL     1      33.018  53.654  29.684  1.00  0.00     0.402 A 
ATOM      2  O   UNL     1      33.813  54.613  30.151  1.00  0.00    -0.202 OA
ATOM      3  C   UNL     1      34.264  55.615  29.404  1.00  0.00     0.368 A 
ATOM      4  C   UNL     1      35.093  56.577  29.986  1.00  0.00     0.162 A 
ATOM      5  C   UNL     1      35.580  57.643  29.223  1.00  0.00     0.128 A 
ATOM      6  C   UNL     1      35.237  57.746  27.874  1.00  0.00     0.093 A 
ATOM      7  C   UNL     1      34.407  56.794  27.266  1.00  0.00     0.136 A 
ATOM      8  C   UNL     1      33.913  55.710  28.036  1.00  0.00     0.125 A 
ATOM      9  C   UNL     1      33.088  54.702  27.509  1.00  0.00     0.078 A 
ATOM     10  C   UNL     1      32.643  53.661  28.328  1.00  0.00     0.223 A 
ENDROOT
BRANCH   1  11
ATOM     11  C   UNL     1      32.572  52.596  30.620  1.00  0.00     0.091 A 
ATOM     12  C   UNL     1      33.194  51.339  30.587  1.00  0.00     0.068 A 
ATOM     13  C   UNL     1      32.806  50.326  31.474  1.00  0.00     0.162 A 
ATOM     14  C   UNL     1      31.575  52.841  31.581  1.00  0.00     0.068 A 
ATOM     15  C   UNL     1      31.794  50.573  32.418  1.00  0.00     0.200 A 
ATOM     16  C   UNL     1      31.184  51.833  32.472  1.00  0.00     0.162 A 
BRANCH  13  17
ATOM     17  O   UNL     1      33.422  49.075  31.422  1.00  0.00    -0.504 OA
ATOM     18  H   UNL     1      32.881  48.219  31.386  1.00  0.00     0.293 HD
ENDBRANCH  13  17
BRANCH  15  19
ATOM     19  O   UNL     1      31.388  49.580  33.309  1.00  0.00    -0.502 OA
ATOM     20  H   UNL     1      32.038  49.114  33.931  1.00  0.00     0.293 HD
ENDBRANCH  15  19
BRANCH  16  21
ATOM     21  O   UNL     1      30.191  52.077  33.418  1.00  0.00    -0.504 OA
ATOM     22  H   UNL     1      29.368  52.623  33.195  1.00  0.00     0.293 HD
ENDBRANCH  16  21
ENDBRANCH   1  11
BRANCH  10  23
ATOM     23  O   UNL     1      31.864  52.634  27.793  1.00  0.00    -0.500 OA
ATOM     24  H   UNL     1      32.248  51.958  27.143  1.00  0.00     0.294 HD
ENDBRANCH  10  23
BRANCH   5  25
ATOM     25  O   UNL     1      36.407  58.607  29.796  1.00  0.00    -0.507 OA
ATOM     26  H   UNL     1      36.820  59.348  29.241  1.00  0.00     0.293 HD
ENDBRANCH   5  25
BRANCH   7  27
ATOM     27  O   UNL     1      34.109  56.972  25.913  1.00  0.00    -0.507 OA
ATOM     28  H   UNL     1      33.336  56.529  25.436  1.00  0.00     0.293 HD
ENDBRANCH   7  27
TORSDOF 7
ENDMDL
MODEL 9
REMARK VINA RESULT:    -6.428     12.636     13.734
REMARK INTER + INTRA:          -8.299
REMARK INTER:                  -8.033
REMARK INTRA:                  -0.266
REMARK UNBOUND:                -0.367
REMARK SMILES Oc1cc(O)c2cc(O)c(-c3cc(O)c(O)c(O)c3)[o+]c2c1
REMARK SMILES IDX 10 1 20 2 21 3 22 4 2 5 3 6 4 7 6 8 7 9 8 10 11 11 12 12
REMARK SMILES IDX 13 13 19 14 15 15 17 16 14 17 16 19 18 21 9 23 1 25 5 27
REMARK H PARENT 14 18 16 20 18 22 9 24 1 26 5 28
REMARK Flexibility Score: inf
ROOT
ATOM      1  C   UNL     1      34.134  55.697  31.637  1.00  0.00     0.402 A 
ATOM      2  O   UNL     1      34.499  56.377  30.553  1.00  0.00    -0.202 OA
ATOM      3  C   UNL     1      34.076  56.081  29.328  1.00  0.00     0.368 A 
ATOM      4  C   UNL     1      34.515  56.857  28.252  1.00  0.00     0.162 A 
ATOM      5  C   UNL     1      34.083  56.569  26.954  1.00  0.00     0.128 A 
ATOM      6  C   UNL     1      33.211  55.501  26.732  1.00  0.00     0.093 A 
ATOM      7  C   UNL     1      32.758  54.708  27.794  1.00  0.00     0.136 A 
ATOM      8  C   UNL     1      33.194  54.995  29.114  1.00  0.00     0.125 A 
ATOM      9  C   UNL     1      32.803  54.247  30.236  1.00  0.00     0.078 A 
ATOM     10  C   UNL     1      33.280  54.587  31.505  1.00  0.00     0.223 A 
ENDROOT
BRANCH   1  11
ATOM     11  C   UNL     1      34.665  56.132  32.949  1.00  0.00     0.091 A 
ATOM     12  C   UNL     1      35.627  55.344  33.599  1.00  0.00     0.068 A 
ATOM     13  C   UNL     1      36.161  55.742  34.833  1.00  0.00     0.162 A 
ATOM     14  C   UNL     1      34.267  57.347  33.534  1.00  0.00     0.068 A 
ATOM     15  C   UNL     1      35.742  56.948  35.420  1.00  0.00     0.200 A 
ATOM     16  C   UNL     1      34.799  57.751  34.765  1.00  0.00     0.162 A 
BRANCH  13  17
ATOM     17  O   UNL     1      37.106  54.944  35.477  1.00  0.00    -0.504 OA
ATOM     18  H   UNL     1      37.644  55.288  36.264  1.00  0.00     0.293 HD
ENDBRANCH  13  17
BRANCH  15  19
ATOM     19  O   UNL     1      36.258  57.364  36.648  1.00  0.00    -0.502 OA
ATOM     20  H   UNL     1      36.286  56.755  37.455  1.00  0.00     0.293 HD
ENDBRANCH  15  19
BRANCH  16  21
ATOM     21  O   UNL     1      34.398  58.953  35.345  1.00  0.00    -0.504 OA
ATOM     22  H   UNL     1      34.984  59.778  35.317  1.00  0.00     0.293 HD
ENDBRANCH  16  21
ENDBRANCH   1  11
BRANCH  10  23
ATOM     23  O   UNL     1      32.930  53.815  32.613  1.00  0.00    -0.500 OA
ATOM     24  H   UNL     1      33.467  53.843  33.472  1.00  0.00     0.294 HD
ENDBRANCH  10  23
BRANCH   5  25
ATOM     25  O   UNL     1      34.515  57.337  25.875  1.00  0.00    -0.507 OA
ATOM     26  H   UNL     1      35.393  57.843  25.903  1.00  0.00     0.293 HD
ENDBRANCH   5  25
BRANCH   7  27
ATOM     27  O   UNL     1      31.884  53.661  27.488  1.00  0.00    -0.507 OA
ATOM     28  H   UNL     1      31.639  52.918  28.126  1.00  0.00     0.293 HD
ENDBRANCH   7  27
TORSDOF 7
ENDMDL
