MODEL 1
REMARK VINA RESULT:    -3.369      0.000      0.000
REMARK INTER + INTRA:          -4.779
REMARK INTER:                  -4.551
REMARK INTRA:                  -0.227
REMARK UNBOUND:                -0.227
REMARK SMILES CCCCCCCC(=O)[O-]
REMARK SMILES IDX 5 1 6 2 7 3 8 4 9 5 10 6 4 7 3 8 2 9 1 10
REMARK H PARENT
REMARK Flexibility Score: inf
ROOT
ATOM      1  C   UNL     1      29.423  20.254  14.663  1.00  0.00     0.000 C 
ENDROOT
BRANCH   1   2
ATOM      2  C   UNL     1      30.057  21.283  13.708  1.00  0.00     0.006 C 
BRANCH   2   3
ATOM      3  C   UNL     1      29.032  22.256  13.114  1.00  0.00     0.053 C 
BRANCH   3   4
ATOM      4  C   UNL     1      29.436  22.659  11.731  1.00  0.00     0.041 C 
ATOM      5  O   UNL     1      29.133  21.937  10.746  1.00  0.00    -0.550 OA
ATOM      6  O   UNL     1      30.105  23.859  11.524  1.00  0.00    -0.550 OA
ENDBRANCH   3   4
ENDBRANCH   2   3
ENDBRANCH   1   2
BRANCH   1   7
ATOM      7  C   UNL     1      27.989  20.585  15.116  1.00  0.00     0.000 C 
BRANCH   7   8
ATOM      8  C   UNL     1      27.820  20.819  16.628  1.00  0.00    -0.000 C 
BRANCH   8   9
ATOM      9  C   UNL     1      26.381  20.589  17.137  1.00  0.00    -0.003 C 
ATOM     10  C   UNL     1      25.454  20.040  16.054  1.00  0.00     0.004 C 
ENDBRANCH   8   9
ENDBRANCH   7   8
ENDBRANCH   1   7
TORSDOF 6
ENDMDL
MODEL 2
REMARK VINA RESULT:    -3.300      1.557      2.288
REMARK INTER + INTRA:          -4.685
REMARK INTER:                  -4.437
REMARK INTRA:                  -0.248
REMARK UNBOUND:                -0.227
REMARK SMILES CCCCCCCC(=O)[O-]
REMARK SMILES IDX 5 1 6 2 7 3 8 4 9 5 10 6 4 7 3 8 2 9 1 10
REMARK H PARENT
REMARK Flexibility Score: inf
ROOT
ATOM      1  C   UNL     1      29.375  22.511  13.653  1.00  0.00     0.000 C 
ENDROOT
BRANCH   1   2
ATOM      2  C   UNL     1      28.785  22.779  12.256  1.00  0.00     0.006 C 
BRANCH   2   3
ATOM      3  C   UNL     1      29.635  22.186  11.126  1.00  0.00     0.053 C 
BRANCH   3   4
ATOM      4  C   UNL     1      28.858  21.149  10.377  1.00  0.00     0.041 C 
ATOM      5  O   UNL     1      29.048  20.984   9.143  1.00  0.00    -0.550 OA
ATOM      6  O   UNL     1      27.960  20.332  11.049  1.00  0.00    -0.550 OA
ENDBRANCH   3   4
ENDBRANCH   2   3
ENDBRANCH   1   2
BRANCH   1   7
ATOM      7  C   UNL     1      29.163  21.082  14.185  1.00  0.00     0.000 C 
BRANCH   7   8
ATOM      8  C   UNL     1      27.798  20.829  14.852  1.00  0.00    -0.000 C 
BRANCH   8   9
ATOM      9  C   UNL     1      27.850  20.823  16.395  1.00  0.00    -0.003 C 
ATOM     10  C   UNL     1      26.477  20.610  17.030  1.00  0.00     0.004 C 
ENDBRANCH   8   9
ENDBRANCH   7   8
ENDBRANCH   1   7
TORSDOF 6
ENDMDL
MODEL 3
REMARK VINA RESULT:    -3.211      1.360      1.728
REMARK INTER + INTRA:          -4.564
REMARK INTER:                  -4.278
REMARK INTRA:                  -0.287
REMARK UNBOUND:                -0.227
REMARK SMILES CCCCCCCC(=O)[O-]
REMARK SMILES IDX 5 1 6 2 7 3 8 4 9 5 10 6 4 7 3 8 2 9 1 10
REMARK H PARENT
REMARK Flexibility Score: inf
ROOT
ATOM      1  C   UNL     1      27.135  20.492  12.863  1.00  0.00     0.000 C 
ENDROOT
BRANCH   1   2
ATOM      2  C   UNL     1      28.544  20.600  12.250  1.00  0.00     0.006 C 
BRANCH   2   3
ATOM      3  C   UNL     1      28.738  21.879  11.426  1.00  0.00     0.053 C 
BRANCH   3   4
ATOM      4  C   UNL     1      29.651  22.826  12.140  1.00  0.00     0.041 C 
ATOM      5  O   UNL     1      30.125  22.522  13.265  1.00  0.00    -0.550 OA
ATOM      6  O   UNL     1      30.017  24.023  11.539  1.00  0.00    -0.550 OA
ENDBRANCH   3   4
ENDBRANCH   2   3
ENDBRANCH   1   2
BRANCH   1   7
ATOM      7  C   UNL     1      27.100  20.055  14.339  1.00  0.00     0.000 C 
BRANCH   7   8
ATOM      8  C   UNL     1      27.869  20.971  15.309  1.00  0.00    -0.000 C 
BRANCH   8   9
ATOM      9  C   UNL     1      27.252  21.041  16.722  1.00  0.00    -0.003 C 
ATOM     10  C   UNL     1      25.858  20.416  16.787  1.00  0.00     0.004 C 
ENDBRANCH   8   9
ENDBRANCH   7   8
ENDBRANCH   1   7
TORSDOF 6
ENDMDL
MODEL 4
REMARK VINA RESULT:    -3.069      1.753      2.860
REMARK INTER + INTRA:          -4.373
REMARK INTER:                  -4.145
REMARK INTRA:                  -0.228
REMARK UNBOUND:                -0.227
REMARK SMILES CCCCCCCC(=O)[O-]
REMARK SMILES IDX 5 1 6 2 7 3 8 4 9 5 10 6 4 7 3 8 2 9 1 10
REMARK H PARENT
REMARK Flexibility Score: inf
ROOT
ATOM      1  C   UNL     1      27.138  21.209  16.238  1.00  0.00     0.000 C 
ENDROOT
BRANCH   1   2
ATOM      2  C   UNL     1      28.195  20.654  15.265  1.00  0.00     0.006 C 
BRANCH   2   3
ATOM      3  C   UNL     1      28.662  21.692  14.237  1.00  0.00     0.053 C 
BRANCH   3   4
ATOM      4  C   UNL     1      28.191  21.318  12.867  1.00  0.00     0.041 C 
ATOM      5  O   UNL     1      28.118  22.190  11.962  1.00  0.00    -0.550 OA
ATOM      6  O   UNL     1      27.879  19.996  12.576  1.00  0.00    -0.550 OA
ENDBRANCH   3   4
ENDBRANCH   2   3
ENDBRANCH   1   2
BRANCH   1   7
ATOM      7  C   UNL     1      25.971  20.252  16.544  1.00  0.00     0.000 C 
BRANCH   7   8
ATOM      8  C   UNL     1      25.099  19.876  15.331  1.00  0.00    -0.000 C 
BRANCH   8   9
ATOM      9  C   UNL     1      23.594  20.148  15.538  1.00  0.00    -0.003 C 
ATOM     10  C   UNL     1      22.829  20.258  14.220  1.00  0.00     0.004 C 
ENDBRANCH   8   9
ENDBRANCH   7   8
ENDBRANCH   1   7
TORSDOF 6
ENDMDL
MODEL 5
REMARK VINA RESULT:    -3.069      3.871      5.540
REMARK INTER + INTRA:          -4.373
REMARK INTER:                  -3.925
REMARK INTRA:                  -0.448
REMARK UNBOUND:                -0.227
REMARK SMILES CCCCCCCC(=O)[O-]
REMARK SMILES IDX 5 1 6 2 7 3 8 4 9 5 10 6 4 7 3 8 2 9 1 10
REMARK H PARENT
REMARK Flexibility Score: inf
ROOT
ATOM      1  C   UNL     1      26.166  21.043  16.483  1.00  0.00     0.000 C 
ENDROOT
BRANCH   1   2
ATOM      2  C   UNL     1      25.205  19.876  16.192  1.00  0.00     0.006 C 
BRANCH   2   3
ATOM      3  C   UNL     1      24.688  19.875  14.749  1.00  0.00     0.053 C 
BRANCH   3   4
ATOM      4  C   UNL     1      23.224  20.185  14.718  1.00  0.00     0.041 C 
ATOM      5  O   UNL     1      22.679  20.766  15.694  1.00  0.00    -0.550 OA
ATOM      6  O   UNL     1      22.472  19.879  13.593  1.00  0.00    -0.550 OA
ENDBRANCH   3   4
ENDBRANCH   2   3
ENDBRANCH   1   2
BRANCH   1   7
ATOM      7  C   UNL     1      27.613  20.629  16.808  1.00  0.00     0.000 C 
BRANCH   7   8
ATOM      8  C   UNL     1      28.477  20.264  15.587  1.00  0.00    -0.000 C 
BRANCH   8   9
ATOM      9  C   UNL     1      28.614  21.405  14.557  1.00  0.00    -0.003 C 
ATOM     10  C   UNL     1      28.197  20.981  13.149  1.00  0.00     0.004 C 
ENDBRANCH   8   9
ENDBRANCH   7   8
ENDBRANCH   1   7
TORSDOF 6
ENDMDL
MODEL 6
REMARK VINA RESULT:    -3.030      3.438      5.258
REMARK INTER + INTRA:          -4.320
REMARK INTER:                  -3.944
REMARK INTRA:                  -0.376
REMARK UNBOUND:                -0.227
REMARK SMILES CCCCCCCC(=O)[O-]
REMARK SMILES IDX 5 1 6 2 7 3 8 4 9 5 10 6 4 7 3 8 2 9 1 10
REMARK H PARENT
REMARK Flexibility Score: inf
ROOT
ATOM      1  C   UNL     1      29.319  20.343  14.949  1.00  0.00     0.000 C 
ENDROOT
BRANCH   1   2
ATOM      2  C   UNL     1      28.016  20.983  15.464  1.00  0.00     0.006 C 
BRANCH   2   3
ATOM      3  C   UNL     1      26.762  20.223  15.017  1.00  0.00     0.053 C 
BRANCH   3   4
ATOM      4  C   UNL     1      25.750  20.191  16.119  1.00  0.00     0.041 C 
ATOM      5  O   UNL     1      26.108  20.371  17.312  1.00  0.00    -0.550 OA
ATOM      6  O   UNL     1      24.405  20.013  15.823  1.00  0.00    -0.550 OA
ENDBRANCH   3   4
ENDBRANCH   2   3
ENDBRANCH   1   2
BRANCH   1   7
ATOM      7  C   UNL     1      29.914  21.001  13.691  1.00  0.00     0.000 C 
BRANCH   7   8
ATOM      8  C   UNL     1      29.527  22.476  13.481  1.00  0.00    -0.000 C 
BRANCH   8   9
ATOM      9  C   UNL     1      28.724  22.732  12.188  1.00  0.00    -0.003 C 
ATOM     10  C   UNL     1      29.059  21.734  11.080  1.00  0.00     0.004 C 
ENDBRANCH   8   9
ENDBRANCH   7   8
ENDBRANCH   1   7
TORSDOF 6
ENDMDL
MODEL 7
REMARK VINA RESULT:    -2.756      3.367      5.497
REMARK INTER + INTRA:          -3.950
REMARK INTER:                  -3.592
REMARK INTRA:                  -0.358
REMARK UNBOUND:                -0.227
REMARK SMILES CCCCCCCC(=O)[O-]
REMARK SMILES IDX 5 1 6 2 7 3 8 4 9 5 10 6 4 7 3 8 2 9 1 10
REMARK H PARENT
REMARK Flexibility Score: inf
ROOT
ATOM      1  C   UNL     1      27.254  20.883  12.684  1.00  0.00     0.000 C 
ENDROOT
BRANCH   1   2
ATOM      2  C   UNL     1      27.583  20.031  13.925  1.00  0.00     0.006 C 
BRANCH   2   3
ATOM      3  C   UNL     1      27.858  20.878  15.173  1.00  0.00     0.053 C 
BRANCH   3   4
ATOM      4  C   UNL     1      26.845  20.586  16.236  1.00  0.00     0.041 C 
ATOM      5  O   UNL     1      27.094  20.859  17.439  1.00  0.00    -0.550 OA
ATOM      6  O   UNL     1      25.608  20.059  15.891  1.00  0.00    -0.550 OA
ENDBRANCH   3   4
ENDBRANCH   2   3
ENDBRANCH   1   2
BRANCH   1   7
ATOM      7  C   UNL     1      27.854  20.366  11.364  1.00  0.00     0.000 C 
BRANCH   7   8
ATOM      8  C   UNL     1      28.900  21.291  10.715  1.00  0.00    -0.000 C 
BRANCH   8   9
ATOM      9  C   UNL     1      29.876  21.932  11.724  1.00  0.00    -0.003 C 
ATOM     10  C   UNL     1      29.782  23.457  11.748  1.00  0.00     0.004 C 
ENDBRANCH   8   9
ENDBRANCH   7   8
ENDBRANCH   1   7
TORSDOF 6
ENDMDL
MODEL 8
REMARK VINA RESULT:    -2.480     16.531     18.258
REMARK INTER + INTRA:          -3.577
REMARK INTER:                  -3.205
REMARK INTRA:                  -0.372
REMARK UNBOUND:                -0.227
REMARK SMILES CCCCCCCC(=O)[O-]
REMARK SMILES IDX 5 1 6 2 7 3 8 4 9 5 10 6 4 7 3 8 2 9 1 10
REMARK H PARENT
REMARK Flexibility Score: inf
ROOT
ATOM      1  C   UNL     1      10.908  22.548  20.762  1.00  0.00     0.000 C 
ENDROOT
BRANCH   1   2
ATOM      2  C   UNL     1      10.647  21.287  19.917  1.00  0.00     0.006 C 
BRANCH   2   3
ATOM      3  C   UNL     1      11.277  21.364  18.522  1.00  0.00     0.053 C 
BRANCH   3   4
ATOM      4  C   UNL     1      12.594  20.653  18.503  1.00  0.00     0.041 C 
ATOM      5  O   UNL     1      13.331  20.712  17.485  1.00  0.00    -0.550 OA
ATOM      6  O   UNL     1      13.030  19.967  19.629  1.00  0.00    -0.550 OA
ENDBRANCH   3   4
ENDBRANCH   2   3
ENDBRANCH   1   2
BRANCH   1   7
ATOM      7  C   UNL     1      10.887  22.326  22.285  1.00  0.00     0.000 C 
BRANCH   7   8
ATOM      8  C   UNL     1      12.092  21.550  22.849  1.00  0.00    -0.000 C 
BRANCH   8   9
ATOM      9  C   UNL     1      11.704  20.274  23.624  1.00  0.00    -0.003 C 
ATOM     10  C   UNL     1      10.203  20.184  23.898  1.00  0.00     0.004 C 
ENDBRANCH   8   9
ENDBRANCH   7   8
ENDBRANCH   1   7
TORSDOF 6
ENDMDL
