MODEL 1
REMARK VINA RESULT:    -3.406      0.000      0.000
REMARK INTER + INTRA:          -5.405
REMARK INTER:                  -5.198
REMARK INTRA:                  -0.207
REMARK UNBOUND:                -0.207
REMARK SMILES CC(=O)CCC=C(C)CCC=C(C)CCC=C(C)C
REMARK SMILES IDX 10 1 11 2 12 3 13 4 14 5 15 6 16 7 18 8 17 9 19 10 9 11 7 12
REMARK SMILES IDX 6 13 8 14 5 15 4 16 2 17 3 18 1 19
REMARK H PARENT
REMARK Flexibility Score: inf
ROOT
ATOM      1  C   UNL     1      23.895 -11.725   5.173  1.00  0.00     0.032 C 
ENDROOT
BRANCH   1   2
ATOM      2  C   UNL     1      22.689 -11.625   6.073  1.00  0.00    -0.028 C 
ATOM      3  C   UNL     1      22.645 -12.055   7.356  1.00  0.00    -0.077 C 
ATOM      4  C   UNL     1      21.365 -11.869   8.128  1.00  0.00     0.039 C 
BRANCH   3   5
ATOM      5  C   UNL     1      23.801 -12.772   8.025  1.00  0.00     0.034 C 
BRANCH   5   6
ATOM      6  C   UNL     1      25.129 -12.401   7.357  1.00  0.00     0.032 C 
BRANCH   6   7
ATOM      7  C   UNL     1      25.995 -11.578   8.280  1.00  0.00    -0.028 C 
ATOM      8  C   UNL     1      25.379  -9.458   7.115  1.00  0.00     0.039 C 
ATOM      9  C   UNL     1      26.115 -10.238   8.178  1.00  0.00    -0.080 C 
ATOM     10  C   UNL     1      27.006  -9.514   9.153  1.00  0.00     0.039 C 
ENDBRANCH   6   7
ENDBRANCH   5   6
ENDBRANCH   3   5
ENDBRANCH   1   2
BRANCH   1  11
ATOM     11  C   UNL     1      23.550 -11.274   3.750  1.00  0.00     0.034 C 
BRANCH  11  12
ATOM     12  C   UNL     1      23.676 -12.432   2.780  1.00  0.00    -0.077 C 
ATOM     13  C   UNL     1      24.829 -13.114   2.591  1.00  0.00    -0.028 C 
ATOM     14  C   UNL     1      22.484 -12.793   1.931  1.00  0.00     0.039 C 
BRANCH  13  15
ATOM     15  C   UNL     1      26.105 -12.877   3.357  1.00  0.00     0.035 C 
BRANCH  15  16
ATOM     16  C   UNL     1      27.110 -12.089   2.508  1.00  0.00     0.079 C 
BRANCH  16  17
ATOM     17  C   UNL     1      27.024 -10.617   2.815  1.00  0.00     0.130 C 
ATOM     18  O   UNL     1      26.861  -9.821   1.903  1.00  0.00    -0.300 OA
ATOM     19  C   UNL     1      27.122 -10.104   4.221  1.00  0.00     0.087 C 
ENDBRANCH  16  17
ENDBRANCH  15  16
ENDBRANCH  13  15
ENDBRANCH  11  12
ENDBRANCH   1  11
TORSDOF 9
ENDMDL
MODEL 2
REMARK VINA RESULT:    -2.641      1.881      5.220
REMARK INTER + INTRA:          -4.237
REMARK INTER:                  -3.890
REMARK INTRA:                  -0.347
REMARK UNBOUND:                -0.207
REMARK SMILES CC(=O)CCC=C(C)CCC=C(C)CCC=C(C)C
REMARK SMILES IDX 10 1 11 2 12 3 13 4 14 5 15 6 16 7 18 8 17 9 19 10 9 11 7 12
REMARK SMILES IDX 6 13 8 14 5 15 4 16 2 17 3 18 1 19
REMARK H PARENT
REMARK Flexibility Score: inf
ROOT
ATOM      1  C   UNL     1      24.214 -11.031   5.842  1.00  0.00     0.032 C 
ENDROOT
BRANCH   1   2
ATOM      2  C   UNL     1      24.779  -9.702   6.277  1.00  0.00    -0.028 C 
ATOM      3  C   UNL     1      26.063  -9.313   6.099  1.00  0.00    -0.077 C 
ATOM      4  C   UNL     1      26.467  -7.943   6.578  1.00  0.00     0.039 C 
BRANCH   3   5
ATOM      5  C   UNL     1      27.123 -10.217   5.500  1.00  0.00     0.034 C 
BRANCH   5   6
ATOM      6  C   UNL     1      27.047 -10.202   3.970  1.00  0.00     0.032 C 
BRANCH   6   7
ATOM      7  C   UNL     1      26.507 -11.506   3.435  1.00  0.00    -0.028 C 
ATOM      8  C   UNL     1      24.651 -10.351   2.231  1.00  0.00     0.039 C 
ATOM      9  C   UNL     1      25.418 -11.585   2.643  1.00  0.00    -0.080 C 
ATOM     10  C   UNL     1      24.966 -12.939   2.164  1.00  0.00     0.039 C 
ENDBRANCH   6   7
ENDBRANCH   5   6
ENDBRANCH   3   5
ENDBRANCH   1   2
BRANCH   1  11
ATOM     11  C   UNL     1      22.684 -11.026   5.926  1.00  0.00     0.034 C 
BRANCH  11  12
ATOM     12  C   UNL     1      22.218 -11.721   7.189  1.00  0.00    -0.077 C 
ATOM     13  C   UNL     1      22.942 -12.675   7.817  1.00  0.00    -0.028 C 
ATOM     14  C   UNL     1      20.851 -11.390   7.730  1.00  0.00     0.039 C 
BRANCH  13  15
ATOM     15  C   UNL     1      24.322 -13.121   7.404  1.00  0.00     0.035 C 
BRANCH  15  16
ATOM     16  C   UNL     1      25.277 -13.115   8.603  1.00  0.00     0.079 C 
BRANCH  16  17
ATOM     17  C   UNL     1      26.541 -12.365   8.272  1.00  0.00     0.130 C 
ATOM     18  O   UNL     1      27.125 -12.603   7.226  1.00  0.00    -0.300 OA
ATOM     19  C   UNL     1      27.094 -11.320   9.195  1.00  0.00     0.087 C 
ENDBRANCH  16  17
ENDBRANCH  15  16
ENDBRANCH  13  15
ENDBRANCH  11  12
ENDBRANCH   1  11
TORSDOF 9
ENDMDL
MODEL 3
REMARK VINA RESULT:    -2.247      1.916      5.137
REMARK INTER + INTRA:          -3.637
REMARK INTER:                  -3.949
REMARK INTRA:                   0.313
REMARK UNBOUND:                -0.207
REMARK SMILES CC(=O)CCC=C(C)CCC=C(C)CCC=C(C)C
REMARK SMILES IDX 10 1 11 2 12 3 13 4 14 5 15 6 16 7 18 8 17 9 19 10 9 11 7 12
REMARK SMILES IDX 6 13 8 14 5 15 4 16 2 17 3 18 1 19
REMARK H PARENT
REMARK Flexibility Score: inf
ROOT
ATOM      1  C   UNL     1      25.114 -12.847   7.482  1.00  0.00     0.032 C 
ENDROOT
BRANCH   1   2
ATOM      2  C   UNL     1      23.748 -12.656   8.090  1.00  0.00    -0.028 C 
ATOM      3  C   UNL     1      22.689 -12.105   7.452  1.00  0.00    -0.077 C 
ATOM      4  C   UNL     1      21.383 -11.999   8.196  1.00  0.00     0.039 C 
BRANCH   3   5
ATOM      5  C   UNL     1      22.776 -11.535   6.049  1.00  0.00     0.034 C 
BRANCH   5   6
ATOM      6  C   UNL     1      23.423 -12.543   5.094  1.00  0.00     0.032 C 
BRANCH   6   7
ATOM      7  C   UNL     1      23.755 -11.905   3.767  1.00  0.00    -0.028 C 
ATOM      8  C   UNL     1      26.125 -12.678   3.885  1.00  0.00     0.039 C 
ATOM      9  C   UNL     1      24.981 -11.961   3.208  1.00  0.00    -0.080 C 
ATOM     10  C   UNL     1      25.203 -11.290   1.878  1.00  0.00     0.039 C 
ENDBRANCH   6   7
ENDBRANCH   5   6
ENDBRANCH   3   5
ENDBRANCH   1   2
BRANCH   1  11
ATOM     11  C   UNL     1      26.160 -13.122   8.568  1.00  0.00     0.034 C 
BRANCH  11  12
ATOM     12  C   UNL     1      26.774 -11.826   9.056  1.00  0.00    -0.077 C 
ATOM     13  C   UNL     1      27.119 -10.814   8.227  1.00  0.00    -0.028 C 
ATOM     14  C   UNL     1      27.085 -11.685  10.524  1.00  0.00     0.039 C 
BRANCH  13  15
ATOM     15  C   UNL     1      26.877 -10.799   6.739  1.00  0.00     0.035 C 
BRANCH  15  16
ATOM     16  C   UNL     1      26.587  -9.376   6.250  1.00  0.00     0.079 C 
BRANCH  16  17
ATOM     17  C   UNL     1      25.314  -8.853   6.860  1.00  0.00     0.130 C 
ATOM     18  O   UNL     1      25.367  -8.179   7.878  1.00  0.00    -0.300 OA
ATOM     19  C   UNL     1      23.977  -9.130   6.238  1.00  0.00     0.087 C 
ENDBRANCH  16  17
ENDBRANCH  15  16
ENDBRANCH  13  15
ENDBRANCH  11  12
ENDBRANCH   1  11
TORSDOF 9
ENDMDL
MODEL 4
REMARK VINA RESULT:    -1.856     20.770     23.784
REMARK INTER + INTRA:          -3.039
REMARK INTER:                  -2.170
REMARK INTRA:                  -0.869
REMARK UNBOUND:                -0.207
REMARK SMILES CC(=O)CCC=C(C)CCC=C(C)CCC=C(C)C
REMARK SMILES IDX 10 1 11 2 12 3 13 4 14 5 15 6 16 7 18 8 17 9 19 10 9 11 7 12
REMARK SMILES IDX 6 13 8 14 5 15 4 16 2 17 3 18 1 19
REMARK H PARENT
REMARK Flexibility Score: inf
ROOT
ATOM      1  C   UNL     1      23.050   5.586  19.891  1.00  0.00     0.032 C 
ENDROOT
BRANCH   1   2
ATOM      2  C   UNL     1      24.311   6.397  19.732  1.00  0.00    -0.028 C 
ATOM      3  C   UNL     1      25.451   6.196  20.433  1.00  0.00    -0.077 C 
ATOM      4  C   UNL     1      26.633   7.086  20.145  1.00  0.00     0.039 C 
BRANCH   3   5
ATOM      5  C   UNL     1      25.570   5.163  21.536  1.00  0.00     0.034 C 
BRANCH   5   6
ATOM      6  C   UNL     1      27.026   4.718  21.708  1.00  0.00     0.032 C 
BRANCH   6   7
ATOM      7  C   UNL     1      27.111   3.267  22.117  1.00  0.00    -0.028 C 
ATOM      8  C   UNL     1      26.834   2.493  19.760  1.00  0.00     0.039 C 
ATOM      9  C   UNL     1      27.026   2.248  21.238  1.00  0.00    -0.080 C 
ATOM     10  C   UNL     1      27.125   0.836  21.754  1.00  0.00     0.039 C 
ENDBRANCH   6   7
ENDBRANCH   5   6
ENDBRANCH   3   5
ENDBRANCH   1   2
BRANCH   1  11
ATOM     11  C   UNL     1      21.815   6.428  19.549  1.00  0.00     0.034 C 
BRANCH  11  12
ATOM     12  C   UNL     1      21.047   6.779  20.807  1.00  0.00    -0.077 C 
ATOM     13  C   UNL     1      19.736   7.112  20.803  1.00  0.00    -0.028 C 
ATOM     14  C   UNL     1      21.795   6.834  22.115  1.00  0.00     0.039 C 
BRANCH  13  15
ATOM     15  C   UNL     1      18.850   7.107  19.583  1.00  0.00     0.035 C 
BRANCH  15  16
ATOM     16  C   UNL     1      17.856   5.942  19.638  1.00  0.00     0.079 C 
BRANCH  16  17
ATOM     17  C   UNL     1      17.176   5.886  20.980  1.00  0.00     0.130 C 
ATOM     18  O   UNL     1      17.438   4.973  21.749  1.00  0.00    -0.300 OA
ATOM     19  C   UNL     1      16.191   6.935  21.402  1.00  0.00     0.087 C 
ENDBRANCH  16  17
ENDBRANCH  15  16
ENDBRANCH  13  15
ENDBRANCH  11  12
ENDBRANCH   1  11
TORSDOF 9
ENDMDL
MODEL 5
REMARK VINA RESULT:    -1.846      1.624      3.907
REMARK INTER + INTRA:          -3.024
REMARK INTER:                  -4.161
REMARK INTRA:                   1.137
REMARK UNBOUND:                -0.207
REMARK SMILES CC(=O)CCC=C(C)CCC=C(C)CCC=C(C)C
REMARK SMILES IDX 10 1 11 2 12 3 13 4 14 5 15 6 16 7 18 8 17 9 19 10 9 11 7 12
REMARK SMILES IDX 6 13 8 14 5 15 4 16 2 17 3 18 1 19
REMARK H PARENT
REMARK Flexibility Score: inf
ROOT
ATOM      1  C   UNL     1      24.896 -10.633   6.086  1.00  0.00     0.032 C 
ENDROOT
BRANCH   1   2
ATOM      2  C   UNL     1      25.606 -10.061   7.288  1.00  0.00    -0.028 C 
ATOM      3  C   UNL     1      25.996 -10.778   8.367  1.00  0.00    -0.077 C 
ATOM      4  C   UNL     1      26.711 -10.058   9.482  1.00  0.00     0.039 C 
BRANCH   3   5
ATOM      5  C   UNL     1      25.689 -12.253   8.533  1.00  0.00     0.034 C 
BRANCH   5   6
ATOM      6  C   UNL     1      24.500 -12.661   7.655  1.00  0.00     0.032 C 
BRANCH   6   7
ATOM      7  C   UNL     1      23.324 -13.096   8.495  1.00  0.00    -0.028 C 
ATOM      8  C   UNL     1      21.774 -11.561   7.282  1.00  0.00     0.039 C 
ATOM      9  C   UNL     1      22.079 -12.602   8.333  1.00  0.00    -0.080 C 
ATOM     10  C   UNL     1      20.976 -13.108   9.225  1.00  0.00     0.039 C 
ENDBRANCH   6   7
ENDBRANCH   5   6
ENDBRANCH   3   5
ENDBRANCH   1   2
BRANCH   1  11
ATOM     11  C   UNL     1      25.802 -10.596   4.850  1.00  0.00     0.034 C 
BRANCH  11  12
ATOM     12  C   UNL     1      26.559 -11.901   4.708  1.00  0.00    -0.077 C 
ATOM     13  C   UNL     1      26.696 -12.551   3.529  1.00  0.00    -0.028 C 
ATOM     14  C   UNL     1      27.122 -12.545   5.949  1.00  0.00     0.039 C 
BRANCH  13  15
ATOM     15  C   UNL     1      26.192 -12.042   2.202  1.00  0.00     0.035 C 
BRANCH  15  16
ATOM     16  C   UNL     1      24.814 -12.632   1.882  1.00  0.00     0.079 C 
BRANCH  16  17
ATOM     17  C   UNL     1      23.725 -11.830   2.545  1.00  0.00     0.130 C 
ATOM     18  O   UNL     1      23.246 -12.221   3.598  1.00  0.00    -0.300 OA
ATOM     19  C   UNL     1      23.222 -10.550   1.946  1.00  0.00     0.087 C 
ENDBRANCH  16  17
ENDBRANCH  15  16
ENDBRANCH  13  15
ENDBRANCH  11  12
ENDBRANCH   1  11
TORSDOF 9
ENDMDL
