MODEL 1
REMARK VINA RESULT:    -4.185      0.000      0.000
REMARK INTER + INTRA:          -6.542
REMARK INTER:                  -6.143
REMARK INTRA:                  -0.399
REMARK UNBOUND:                -0.399
REMARK SMILES O=C([O-])CCCCCCCC(=O)[O-]
REMARK SMILES IDX 7 1 6 2 5 3 4 4 2 5 1 6 3 7 8 8 9 9 10 10 11 11 12 12 13 13
REMARK H PARENT
REMARK Flexibility Score: inf
ROOT
ATOM      1  C   UNL     1      17.868  12.612 -14.952  1.00  0.00     0.000 C 
ENDROOT
BRANCH   1   2
ATOM      2  C   UNL     1      18.434  11.772 -13.801  1.00  0.00     0.000 C 
BRANCH   2   3
ATOM      3  C   UNL     1      19.922  12.069 -13.583  1.00  0.00     0.006 C 
BRANCH   3   4
ATOM      4  C   UNL     1      20.311  13.414 -14.202  1.00  0.00     0.053 C 
BRANCH   4   5
ATOM      5  C   UNL     1      21.637  13.869 -13.678  1.00  0.00     0.041 C 
ATOM      6  O   UNL     1      22.158  14.930 -14.110  1.00  0.00    -0.550 OA
ATOM      7  O   UNL     1      22.274  13.146 -12.678  1.00  0.00    -0.550 OA
ENDBRANCH   4   5
ENDBRANCH   3   4
ENDBRANCH   2   3
ENDBRANCH   1   2
BRANCH   1   8
ATOM      8  C   UNL     1      16.353  12.405 -15.091  1.00  0.00     0.000 C 
BRANCH   8   9
ATOM      9  C   UNL     1      15.630  12.353 -13.732  1.00  0.00     0.006 C 
BRANCH   9  10
ATOM     10  C   UNL     1      14.402  11.430 -13.704  1.00  0.00     0.053 C 
BRANCH  10  11
ATOM     11  C   UNL     1      14.620  10.179 -14.499  1.00  0.00     0.041 C 
ATOM     12  O   UNL     1      15.420   9.298 -14.085  1.00  0.00    -0.550 OA
ATOM     13  O   UNL     1      13.966  10.001 -15.711  1.00  0.00    -0.550 OA
ENDBRANCH  10  11
ENDBRANCH   9  10
ENDBRANCH   8   9
ENDBRANCH   1   8
TORSDOF 8
ENDMDL
MODEL 2
REMARK VINA RESULT:    -4.146      0.419      6.650
REMARK INTER + INTRA:          -6.484
REMARK INTER:                  -5.980
REMARK INTRA:                  -0.504
REMARK UNBOUND:                -0.399
REMARK SMILES O=C([O-])CCCCCCCC(=O)[O-]
REMARK SMILES IDX 7 1 6 2 5 3 4 4 2 5 1 6 3 7 8 8 9 9 10 10 11 11 12 12 13 13
REMARK H PARENT
REMARK Flexibility Score: inf
ROOT
ATOM      1  C   UNL     1      17.675  12.448 -15.155  1.00  0.00     0.000 C 
ENDROOT
BRANCH   1   2
ATOM      2  C   UNL     1      16.145  12.551 -15.134  1.00  0.00     0.000 C 
BRANCH   2   3
ATOM      3  C   UNL     1      15.592  12.257 -13.734  1.00  0.00     0.006 C 
BRANCH   3   4
ATOM      4  C   UNL     1      14.335  11.385 -13.812  1.00  0.00     0.053 C 
BRANCH   4   5
ATOM      5  C   UNL     1      14.620  10.119 -14.557  1.00  0.00     0.041 C 
ATOM      6  O   UNL     1      15.449   9.289 -14.101  1.00  0.00    -0.550 OA
ATOM      7  O   UNL     1      13.933   9.833 -15.729  1.00  0.00    -0.550 OA
ENDBRANCH   4   5
ENDBRANCH   3   4
ENDBRANCH   2   3
ENDBRANCH   1   2
BRANCH   1   8
ATOM      8  C   UNL     1      18.193  11.712 -13.910  1.00  0.00     0.000 C 
BRANCH   8   9
ATOM      9  C   UNL     1      19.644  12.088 -13.556  1.00  0.00     0.006 C 
BRANCH   9  10
ATOM     10  C   UNL     1      20.161  13.351 -14.261  1.00  0.00     0.053 C 
BRANCH  10  11
ATOM     11  C   UNL     1      21.604  13.613 -13.958  1.00  0.00     0.041 C 
ATOM     12  O   UNL     1      22.392  13.957 -14.880  1.00  0.00    -0.550 OA
ATOM     13  O   UNL     1      22.087  13.445 -12.667  1.00  0.00    -0.550 OA
ENDBRANCH  10  11
ENDBRANCH   9  10
ENDBRANCH   8   9
ENDBRANCH   1   8
TORSDOF 8
ENDMDL
MODEL 3
REMARK VINA RESULT:    -4.018      1.452      2.129
REMARK INTER + INTRA:          -6.296
REMARK INTER:                  -5.815
REMARK INTRA:                  -0.482
REMARK UNBOUND:                -0.399
REMARK SMILES O=C([O-])CCCCCCCC(=O)[O-]
REMARK SMILES IDX 7 1 6 2 5 3 4 4 2 5 1 6 3 7 8 8 9 9 10 10 11 11 12 12 13 13
REMARK H PARENT
REMARK Flexibility Score: inf
ROOT
ATOM      1  C   UNL     1      18.615  11.652 -13.422  1.00  0.00     0.000 C 
ENDROOT
BRANCH   1   2
ATOM      2  C   UNL     1      18.760  12.605 -14.614  1.00  0.00     0.000 C 
BRANCH   2   3
ATOM      3  C   UNL     1      20.072  13.395 -14.531  1.00  0.00     0.006 C 
BRANCH   3   4
ATOM      4  C   UNL     1      21.023  12.774 -13.504  1.00  0.00     0.053 C 
BRANCH   4   5
ATOM      5  C   UNL     1      22.127  13.726 -13.169  1.00  0.00     0.041 C 
ATOM      6  O   UNL     1      22.947  13.449 -12.255  1.00  0.00    -0.550 OA
ATOM      7  O   UNL     1      22.281  14.897 -13.900  1.00  0.00    -0.550 OA
ENDBRANCH   4   5
ENDBRANCH   3   4
ENDBRANCH   2   3
ENDBRANCH   1   2
BRANCH   1   8
ATOM      8  C   UNL     1      18.267  10.232 -13.892  1.00  0.00     0.000 C 
BRANCH   8   9
ATOM      9  C   UNL     1      17.248  10.217 -15.046  1.00  0.00     0.006 C 
BRANCH   9  10
ATOM     10  C   UNL     1      15.792  10.008 -14.603  1.00  0.00     0.053 C 
BRANCH  10  11
ATOM     11  C   UNL     1      15.066  11.306 -14.426  1.00  0.00     0.041 C 
ATOM     12  O   UNL     1      14.337  11.491 -13.415  1.00  0.00    -0.550 OA
ATOM     13  O   UNL     1      15.167  12.298 -15.393  1.00  0.00    -0.550 OA
ENDBRANCH  10  11
ENDBRANCH   9  10
ENDBRANCH   8   9
ENDBRANCH   1   8
TORSDOF 8
ENDMDL
MODEL 4
REMARK VINA RESULT:    -3.978      1.819      2.245
REMARK INTER + INTRA:          -6.237
REMARK INTER:                  -5.602
REMARK INTRA:                  -0.635
REMARK UNBOUND:                -0.399
REMARK SMILES O=C([O-])CCCCCCCC(=O)[O-]
REMARK SMILES IDX 7 1 6 2 5 3 4 4 2 5 1 6 3 7 8 8 9 9 10 10 11 11 12 12 13 13
REMARK H PARENT
REMARK Flexibility Score: inf
ROOT
ATOM      1  C   UNL     1      18.172   9.800 -14.918  1.00  0.00     0.000 C 
ENDROOT
BRANCH   1   2
ATOM      2  C   UNL     1      19.165  10.339 -13.881  1.00  0.00     0.000 C 
BRANCH   2   3
ATOM      3  C   UNL     1      18.821  11.779 -13.484  1.00  0.00     0.006 C 
BRANCH   3   4
ATOM      4  C   UNL     1      19.163  12.756 -14.612  1.00  0.00     0.053 C 
BRANCH   4   5
ATOM      5  C   UNL     1      20.402  13.527 -14.282  1.00  0.00     0.041 C 
ATOM      6  O   UNL     1      20.720  14.537 -14.962  1.00  0.00    -0.550 OA
ATOM      7  O   UNL     1      21.178  13.159 -13.190  1.00  0.00    -0.550 OA
ENDBRANCH   4   5
ENDBRANCH   3   4
ENDBRANCH   2   3
ENDBRANCH   1   2
BRANCH   1   8
ATOM      8  C   UNL     1      16.911   9.249 -14.236  1.00  0.00     0.000 C 
BRANCH   8   9
ATOM      9  C   UNL     1      15.627   9.526 -15.040  1.00  0.00     0.006 C 
BRANCH   9  10
ATOM     10  C   UNL     1      14.667  10.525 -14.375  1.00  0.00     0.053 C 
BRANCH  10  11
ATOM     11  C   UNL     1      15.205  11.923 -14.398  1.00  0.00     0.041 C 
ATOM     12  O   UNL     1      15.409  12.540 -13.319  1.00  0.00    -0.550 OA
ATOM     13  O   UNL     1      15.451  12.555 -15.611  1.00  0.00    -0.550 OA
ENDBRANCH  10  11
ENDBRANCH   9  10
ENDBRANCH   8   9
ENDBRANCH   1   8
TORSDOF 8
ENDMDL
MODEL 5
REMARK VINA RESULT:    -3.940      1.497      6.597
REMARK INTER + INTRA:          -6.181
REMARK INTER:                  -5.704
REMARK INTRA:                  -0.477
REMARK UNBOUND:                -0.399
REMARK SMILES O=C([O-])CCCCCCCC(=O)[O-]
REMARK SMILES IDX 7 1 6 2 5 3 4 4 2 5 1 6 3 7 8 8 9 9 10 10 11 11 12 12 13 13
REMARK H PARENT
REMARK Flexibility Score: inf
ROOT
ATOM      1  C   UNL     1      18.669  11.744 -13.403  1.00  0.00     0.000 C 
ENDROOT
BRANCH   1   2
ATOM      2  C   UNL     1      18.424  10.318 -13.909  1.00  0.00     0.000 C 
BRANCH   2   3
ATOM      3  C   UNL     1      17.366  10.300 -15.019  1.00  0.00     0.006 C 
BRANCH   3   4
ATOM      4  C   UNL     1      15.972  10.033 -14.444  1.00  0.00     0.053 C 
BRANCH   4   5
ATOM      5  C   UNL     1      15.124  11.263 -14.532  1.00  0.00     0.041 C 
ATOM      6  O   UNL     1      14.087  11.368 -13.827  1.00  0.00    -0.550 OA
ATOM      7  O   UNL     1      15.507  12.314 -15.355  1.00  0.00    -0.550 OA
ENDBRANCH   4   5
ENDBRANCH   3   4
ENDBRANCH   2   3
ENDBRANCH   1   2
BRANCH   1   8
ATOM      8  C   UNL     1      18.974  12.697 -14.568  1.00  0.00     0.000 C 
BRANCH   8   9
ATOM      9  C   UNL     1      20.336  13.400 -14.423  1.00  0.00     0.006 C 
BRANCH   9  10
ATOM     10  C   UNL     1      21.293  12.727 -13.427  1.00  0.00     0.053 C 
BRANCH  10  11
ATOM     11  C   UNL     1      22.363  13.663 -12.955  1.00  0.00     0.041 C 
ATOM     12  O   UNL     1      23.066  13.367 -11.952  1.00  0.00    -0.550 OA
ATOM     13  O   UNL     1      22.562  14.876 -13.602  1.00  0.00    -0.550 OA
ENDBRANCH  10  11
ENDBRANCH   9  10
ENDBRANCH   8   9
ENDBRANCH   1   8
TORSDOF 8
ENDMDL
MODEL 6
REMARK VINA RESULT:    -3.920      1.814      5.913
REMARK INTER + INTRA:          -6.152
REMARK INTER:                  -5.451
REMARK INTRA:                  -0.700
REMARK UNBOUND:                -0.399
REMARK SMILES O=C([O-])CCCCCCCC(=O)[O-]
REMARK SMILES IDX 7 1 6 2 5 3 4 4 2 5 1 6 3 7 8 8 9 9 10 10 11 11 12 12 13 13
REMARK H PARENT
REMARK Flexibility Score: inf
ROOT
ATOM      1  C   UNL     1      18.288  10.051 -15.253  1.00  0.00     0.000 C 
ENDROOT
BRANCH   1   2
ATOM      2  C   UNL     1      16.945   9.345 -15.471  1.00  0.00     0.000 C 
BRANCH   2   3
ATOM      3  C   UNL     1      16.022   9.530 -14.260  1.00  0.00     0.006 C 
BRANCH   3   4
ATOM      4  C   UNL     1      14.806  10.387 -14.622  1.00  0.00     0.053 C 
BRANCH   4   5
ATOM      5  C   UNL     1      15.152  11.841 -14.560  1.00  0.00     0.041 C 
ATOM      6  O   UNL     1      15.386  12.391 -13.452  1.00  0.00    -0.550 OA
ATOM      7  O   UNL     1      15.266  12.578 -15.732  1.00  0.00    -0.550 OA
ENDBRANCH   4   5
ENDBRANCH   3   4
ENDBRANCH   2   3
ENDBRANCH   1   2
BRANCH   1   8
ATOM      8  C   UNL     1      18.557  10.273 -13.757  1.00  0.00     0.000 C 
BRANCH   8   9
ATOM      9  C   UNL     1      18.788  11.754 -13.406  1.00  0.00     0.006 C 
BRANCH   9  10
ATOM     10  C   UNL     1      19.244  12.622 -14.589  1.00  0.00     0.053 C 
BRANCH  10  11
ATOM     11  C   UNL     1      20.425  13.474 -14.238  1.00  0.00     0.041 C 
ATOM     12  O   UNL     1      20.701  14.489 -14.931  1.00  0.00    -0.550 OA
ATOM     13  O   UNL     1      21.240  13.129 -13.167  1.00  0.00    -0.550 OA
ENDBRANCH  10  11
ENDBRANCH   9  10
ENDBRANCH   8   9
ENDBRANCH   1   8
TORSDOF 8
ENDMDL
MODEL 7
REMARK VINA RESULT:    -3.832      1.620      6.334
REMARK INTER + INTRA:          -6.023
REMARK INTER:                  -5.565
REMARK INTRA:                  -0.458
REMARK UNBOUND:                -0.399
REMARK SMILES O=C([O-])CCCCCCCC(=O)[O-]
REMARK SMILES IDX 7 1 6 2 5 3 4 4 2 5 1 6 3 7 8 8 9 9 10 10 11 11 12 12 13 13
REMARK H PARENT
REMARK Flexibility Score: inf
ROOT
ATOM      1  C   UNL     1      16.975  11.804 -14.209  1.00  0.00     0.000 C 
ENDROOT
BRANCH   1   2
ATOM      2  C   UNL     1      15.638  12.348 -13.693  1.00  0.00     0.000 C 
BRANCH   2   3
ATOM      3  C   UNL     1      14.531  11.293 -13.813  1.00  0.00     0.006 C 
BRANCH   3   4
ATOM      4  C   UNL     1      14.578  10.600 -15.177  1.00  0.00     0.053 C 
BRANCH   4   5
ATOM      5  C   UNL     1      14.595   9.113 -15.009  1.00  0.00     0.041 C 
ATOM      6  O   UNL     1      15.251   8.589 -14.071  1.00  0.00    -0.550 OA
ATOM      7  O   UNL     1      13.846   8.310 -15.858  1.00  0.00    -0.550 OA
ENDBRANCH   4   5
ENDBRANCH   3   4
ENDBRANCH   2   3
ENDBRANCH   1   2
BRANCH   1   8
ATOM      8  C   UNL     1      17.599  12.760 -15.237  1.00  0.00     0.000 C 
BRANCH   8   9
ATOM      9  C   UNL     1      19.098  13.007 -14.989  1.00  0.00     0.006 C 
BRANCH   9  10
ATOM     10  C   UNL     1      19.676  12.244 -13.787  1.00  0.00     0.053 C 
BRANCH  10  11
ATOM     11  C   UNL     1      20.624  11.164 -14.209  1.00  0.00     0.041 C 
ATOM     12  O   UNL     1      20.186  10.031 -14.542  1.00  0.00    -0.550 OA
ATOM     13  O   UNL     1      21.993  11.399 -14.205  1.00  0.00    -0.550 OA
ENDBRANCH  10  11
ENDBRANCH   9  10
ENDBRANCH   8   9
ENDBRANCH   1   8
TORSDOF 8
ENDMDL
MODEL 8
REMARK VINA RESULT:    -3.783      1.459      2.106
REMARK INTER + INTRA:          -5.951
REMARK INTER:                  -5.434
REMARK INTRA:                  -0.517
REMARK UNBOUND:                -0.399
REMARK SMILES O=C([O-])CCCCCCCC(=O)[O-]
REMARK SMILES IDX 7 1 6 2 5 3 4 4 2 5 1 6 3 7 8 8 9 9 10 10 11 11 12 12 13 13
REMARK H PARENT
REMARK Flexibility Score: inf
ROOT
ATOM      1  C   UNL     1      16.252  12.469 -15.313  1.00  0.00     0.000 C 
ENDROOT
BRANCH   1   2
ATOM      2  C   UNL     1      17.741  12.828 -15.250  1.00  0.00     0.000 C 
BRANCH   2   3
ATOM      3  C   UNL     1      18.502  11.866 -14.330  1.00  0.00     0.006 C 
BRANCH   3   4
ATOM      4  C   UNL     1      19.792  12.506 -13.812  1.00  0.00     0.053 C 
BRANCH   4   5
ATOM      5  C   UNL     1      20.974  11.654 -14.152  1.00  0.00     0.041 C 
ATOM      6  O   UNL     1      22.141  12.083 -13.955  1.00  0.00    -0.550 OA
ATOM      7  O   UNL     1      20.786  10.367 -14.638  1.00  0.00    -0.550 OA
ENDBRANCH   4   5
ENDBRANCH   3   4
ENDBRANCH   2   3
ENDBRANCH   1   2
BRANCH   1   8
ATOM      8  C   UNL     1      15.677  12.258 -13.904  1.00  0.00     0.000 C 
BRANCH   8   9
ATOM      9  C   UNL     1      14.523  11.239 -13.877  1.00  0.00     0.006 C 
BRANCH   9  10
ATOM     10  C   UNL     1      14.536  10.237 -15.042  1.00  0.00     0.053 C 
BRANCH  10  11
ATOM     11  C   UNL     1      15.357   9.024 -14.730  1.00  0.00     0.041 C 
ATOM     12  O   UNL     1      14.886   8.110 -14.001  1.00  0.00    -0.550 OA
ATOM     13  O   UNL     1      16.654   8.917 -15.216  1.00  0.00    -0.550 OA
ENDBRANCH  10  11
ENDBRANCH   9  10
ENDBRANCH   8   9
ENDBRANCH   1   8
TORSDOF 8
ENDMDL
MODEL 9
REMARK VINA RESULT:    -3.627      1.828      5.945
REMARK INTER + INTRA:          -5.722
REMARK INTER:                  -5.044
REMARK INTRA:                  -0.678
REMARK UNBOUND:                -0.399
REMARK SMILES O=C([O-])CCCCCCCC(=O)[O-]
REMARK SMILES IDX 7 1 6 2 5 3 4 4 2 5 1 6 3 7 8 8 9 9 10 10 11 11 12 12 13 13
REMARK H PARENT
REMARK Flexibility Score: inf
ROOT
ATOM      1  C   UNL     1      18.254  13.709 -16.030  1.00  0.00     0.000 C 
ENDROOT
BRANCH   1   2
ATOM      2  C   UNL     1      17.410  12.429 -16.000  1.00  0.00     0.000 C 
BRANCH   2   3
ATOM      3  C   UNL     1      16.888  12.147 -14.587  1.00  0.00     0.006 C 
BRANCH   3   4
ATOM      4  C   UNL     1      16.649  10.649 -14.379  1.00  0.00     0.053 C 
BRANCH   4   5
ATOM      5  C   UNL     1      15.185  10.361 -14.266  1.00  0.00     0.041 C 
ATOM      6  O   UNL     1      14.756   9.189 -14.428  1.00  0.00    -0.550 OA
ATOM      7  O   UNL     1      14.301  11.378 -13.931  1.00  0.00    -0.550 OA
ENDBRANCH   4   5
ENDBRANCH   3   4
ENDBRANCH   2   3
ENDBRANCH   1   2
BRANCH   1   8
ATOM      8  C   UNL     1      19.752  13.383 -15.950  1.00  0.00     0.000 C 
BRANCH   8   9
ATOM      9  C   UNL     1      20.371  13.748 -14.588  1.00  0.00     0.006 C 
BRANCH   9  10
ATOM     10  C   UNL     1      20.442  12.580 -13.591  1.00  0.00     0.053 C 
BRANCH  10  11
ATOM     11  C   UNL     1      21.005  11.341 -14.217  1.00  0.00     0.041 C 
ATOM     12  O   UNL     1      22.226  11.283 -14.518  1.00  0.00    -0.550 OA
ATOM     13  O   UNL     1      20.174  10.264 -14.498  1.00  0.00    -0.550 OA
ENDBRANCH  10  11
ENDBRANCH   9  10
ENDBRANCH   8   9
ENDBRANCH   1   8
TORSDOF 8
ENDMDL
