MODEL 1
REMARK VINA RESULT:    -6.178      0.000      0.000
REMARK INTER + INTRA:          -7.989
REMARK INTER:                  -7.622
REMARK INTRA:                  -0.367
REMARK UNBOUND:                -0.367
REMARK SMILES COc1cc(-c2oc3cc(O)cc(O)c3c(=O)c2O)ccc1O
REMARK SMILES IDX 6 1 18 2 16 3 17 4 15 5 13 6 12 7 10 8 9 9 8 10 7 11 5 12
REMARK SMILES IDX 3 13 22 14 4 15 21 16 20 17 2 18 1 19 23 20 19 22 14 24
REMARK SMILES IDX 11 26
REMARK H PARENT 23 21 19 23 14 25 11 27
REMARK Flexibility Score: inf
ROOT
ATOM      1  C   UNL     1      18.525  -1.653 -16.738  1.00  0.00     0.180 A 
ATOM      2  C   UNL     1      17.718  -0.873 -15.891  1.00  0.00     0.208 A 
ATOM      3  C   UNL     1      16.958  -1.512 -14.898  1.00  0.00     0.238 A 
ATOM      4  O   UNL     1      16.280  -0.804 -14.109  1.00  0.00    -0.285 OA
ATOM      5  C   UNL     1      17.001  -2.921 -14.775  1.00  0.00     0.111 A 
ATOM      6  C   UNL     1      16.241  -3.675 -13.831  1.00  0.00     0.134 A 
ATOM      7  C   UNL     1      16.461  -5.053 -13.710  1.00  0.00     0.093 A 
ATOM      8  C   UNL     1      17.366  -5.713 -14.545  1.00  0.00     0.123 A 
ATOM      9  C   UNL     1      18.069  -4.995 -15.509  1.00  0.00     0.094 A 
ATOM     10  C   UNL     1      17.897  -3.614 -15.628  1.00  0.00     0.146 A 
ATOM     11  O   UNL     1      18.594  -2.966 -16.554  1.00  0.00    -0.452 OA
ENDROOT
BRANCH   1  12
ATOM     12  C   UNL     1      19.336  -1.056 -17.823  1.00  0.00     0.025 A 
ATOM     13  C   UNL     1      21.397   0.046 -18.542  1.00  0.00     0.161 A 
ATOM     14  C   UNL     1      20.935   0.035 -19.865  1.00  0.00     0.157 A 
ATOM     15  C   UNL     1      20.595  -0.508 -17.525  1.00  0.00     0.062 A 
ATOM     16  C   UNL     1      19.690  -0.529 -20.169  1.00  0.00     0.051 A 
ATOM     17  C   UNL     1      18.898  -1.077 -19.158  1.00  0.00     0.016 A 
BRANCH  13  18
ATOM     18  O   UNL     1      22.655   0.612 -18.279  1.00  0.00    -0.493 OA
ATOM     19  C   UNL     1      23.282   0.624 -17.000  1.00  0.00     0.278 C 
ENDBRANCH  13  18
BRANCH  14  20
ATOM     20  O   UNL     1      21.724   0.583 -20.876  1.00  0.00    -0.504 OA
ATOM     21  H   UNL     1      22.707   0.352 -20.964  1.00  0.00     0.293 HD
ENDBRANCH  14  20
ENDBRANCH   1  12
BRANCH   2  22
ATOM     22  O   UNL     1      17.707   0.518 -16.017  1.00  0.00    -0.502 OA
ATOM     23  H   UNL     1      17.693   1.137 -15.215  1.00  0.00     0.293 HD
ENDBRANCH   2  22
BRANCH   6  24
ATOM     24  O   UNL     1      15.246  -3.129 -13.015  1.00  0.00    -0.507 OA
ATOM     25  H   UNL     1      14.299  -2.946 -13.308  1.00  0.00     0.293 HD
ENDBRANCH   6  24
BRANCH   8  26
ATOM     26  O   UNL     1      17.567  -7.087 -14.429  1.00  0.00    -0.508 OA
ATOM     27  H   UNL     1      17.541  -7.697 -15.238  1.00  0.00     0.293 HD
ENDBRANCH   8  26
TORSDOF 6
ENDMDL
MODEL 2
REMARK VINA RESULT:    -5.946      8.302     12.272
REMARK INTER + INTRA:          -7.704
REMARK INTER:                  -8.099
REMARK INTRA:                   0.395
REMARK UNBOUND:                -0.367
REMARK SMILES COc1cc(-c2oc3cc(O)cc(O)c3c(=O)c2O)ccc1O
REMARK SMILES IDX 6 1 18 2 16 3 17 4 15 5 13 6 12 7 10 8 9 9 8 10 7 11 5 12
REMARK SMILES IDX 3 13 22 14 4 15 21 16 20 17 2 18 1 19 23 20 19 22 14 24
REMARK SMILES IDX 11 26
REMARK H PARENT 23 21 19 23 14 25 11 27
REMARK Flexibility Score: inf
ROOT
ATOM      1  C   UNL     1      10.764  -6.825  -9.232  1.00  0.00     0.180 A 
ATOM      2  C   UNL     1       9.866  -7.899  -9.364  1.00  0.00     0.208 A 
ATOM      3  C   UNL     1       8.843  -8.051  -8.414  1.00  0.00     0.238 A 
ATOM      4  O   UNL     1       8.010  -8.982  -8.567  1.00  0.00    -0.285 OA
ATOM      5  C   UNL     1       8.742  -7.139  -7.336  1.00  0.00     0.111 A 
ATOM      6  C   UNL     1       7.769  -7.221  -6.294  1.00  0.00     0.134 A 
ATOM      7  C   UNL     1       7.679  -6.190  -5.351  1.00  0.00     0.093 A 
ATOM      8  C   UNL     1       8.568  -5.113  -5.374  1.00  0.00     0.123 A 
ATOM      9  C   UNL     1       9.558  -5.054  -6.351  1.00  0.00     0.094 A 
ATOM     10  C   UNL     1       9.650  -6.049  -7.327  1.00  0.00     0.146 A 
ATOM     11  O   UNL     1      10.602  -5.949  -8.247  1.00  0.00    -0.452 OA
ENDROOT
BRANCH   1  12
ATOM     12  C   UNL     1      11.882  -6.612 -10.179  1.00  0.00     0.025 A 
ATOM     13  C   UNL     1      13.685  -5.187 -11.015  1.00  0.00     0.161 A 
ATOM     14  C   UNL     1      14.051  -6.192 -11.921  1.00  0.00     0.157 A 
ATOM     15  C   UNL     1      12.601  -5.407 -10.141  1.00  0.00     0.062 A 
ATOM     16  C   UNL     1      13.350  -7.403 -11.947  1.00  0.00     0.051 A 
ATOM     17  C   UNL     1      12.277  -7.616 -11.080  1.00  0.00     0.016 A 
BRANCH  13  18
ATOM     18  O   UNL     1      14.418  -3.990 -11.012  1.00  0.00    -0.493 OA
ATOM     19  C   UNL     1      15.625  -3.786 -10.285  1.00  0.00     0.278 C 
ENDBRANCH  13  18
BRANCH  14  20
ATOM     20  O   UNL     1      15.121  -5.980 -12.789  1.00  0.00    -0.504 OA
ATOM     21  H   UNL     1      15.593  -5.084 -12.840  1.00  0.00     0.293 HD
ENDBRANCH  14  20
ENDBRANCH   1  12
BRANCH   2  22
ATOM     22  O   UNL     1       9.973  -8.775 -10.447  1.00  0.00    -0.502 OA
ATOM     23  H   UNL     1       9.248  -9.444 -10.679  1.00  0.00     0.293 HD
ENDBRANCH   2  22
BRANCH   6  24
ATOM     24  O   UNL     1       6.895  -8.299  -6.126  1.00  0.00    -0.507 OA
ATOM     25  H   UNL     1       5.892  -8.220  -6.058  1.00  0.00     0.293 HD
ENDBRANCH   6  24
BRANCH   8  26
ATOM     26  O   UNL     1       8.481  -4.099  -4.422  1.00  0.00    -0.508 OA
ATOM     27  H   UNL     1       8.754  -3.146  -4.636  1.00  0.00     0.293 HD
ENDBRANCH   8  26
TORSDOF 6
ENDMDL
MODEL 3
REMARK VINA RESULT:    -5.878      1.209      2.793
REMARK INTER + INTRA:          -7.619
REMARK INTER:                  -7.383
REMARK INTRA:                  -0.236
REMARK UNBOUND:                -0.367
REMARK SMILES COc1cc(-c2oc3cc(O)cc(O)c3c(=O)c2O)ccc1O
REMARK SMILES IDX 6 1 18 2 16 3 17 4 15 5 13 6 12 7 10 8 9 9 8 10 7 11 5 12
REMARK SMILES IDX 3 13 22 14 4 15 21 16 20 17 2 18 1 19 23 20 19 22 14 24
REMARK SMILES IDX 11 26
REMARK H PARENT 23 21 19 23 14 25 11 27
REMARK Flexibility Score: inf
ROOT
ATOM      1  C   UNL     1      18.876  -2.411 -17.409  1.00  0.00     0.180 A 
ATOM      2  C   UNL     1      18.800  -3.799 -17.621  1.00  0.00     0.208 A 
ATOM      3  C   UNL     1      18.132  -4.596 -16.677  1.00  0.00     0.238 A 
ATOM      4  O   UNL     1      18.020  -5.829 -16.900  1.00  0.00    -0.285 OA
ATOM      5  C   UNL     1      17.563  -3.998 -15.527  1.00  0.00     0.111 A 
ATOM      6  C   UNL     1      16.898  -4.715 -14.487  1.00  0.00     0.134 A 
ATOM      7  C   UNL     1      16.259  -4.007 -13.461  1.00  0.00     0.093 A 
ATOM      8  C   UNL     1      16.317  -2.613 -13.403  1.00  0.00     0.123 A 
ATOM      9  C   UNL     1      17.014  -1.908 -14.381  1.00  0.00     0.094 A 
ATOM     10  C   UNL     1      17.631  -2.584 -15.437  1.00  0.00     0.146 A 
ATOM     11  O   UNL     1      18.276  -1.873 -16.354  1.00  0.00    -0.452 OA
ENDROOT
BRANCH   1  12
ATOM     12  C   UNL     1      19.584  -1.509 -18.346  1.00  0.00     0.025 A 
ATOM     13  C   UNL     1      21.482  -0.041 -18.817  1.00  0.00     0.161 A 
ATOM     14  C   UNL     1      20.992   0.165 -20.115  1.00  0.00     0.157 A 
ATOM     15  C   UNL     1      20.775  -0.886 -17.939  1.00  0.00     0.062 A 
ATOM     16  C   UNL     1      19.816  -0.470 -20.531  1.00  0.00     0.051 A 
ATOM     17  C   UNL     1      19.119  -1.307 -19.656  1.00  0.00     0.016 A 
BRANCH  13  18
ATOM     18  O   UNL     1      22.669   0.607 -18.440  1.00  0.00    -0.493 OA
ATOM     19  C   UNL     1      23.181   0.643 -17.112  1.00  0.00     0.278 C 
ENDBRANCH  13  18
BRANCH  14  20
ATOM     20  O   UNL     1      21.686   1.001 -20.988  1.00  0.00    -0.504 OA
ATOM     21  H   UNL     1      21.219   1.748 -21.490  1.00  0.00     0.293 HD
ENDBRANCH  14  20
ENDBRANCH   1  12
BRANCH   2  22
ATOM     22  O   UNL     1      19.351  -4.365 -18.773  1.00  0.00    -0.502 OA
ATOM     23  H   UNL     1      20.247  -4.838 -18.773  1.00  0.00     0.293 HD
ENDBRANCH   2  22
BRANCH   6  24
ATOM     24  O   UNL     1      16.861  -6.109 -14.400  1.00  0.00    -0.507 OA
ATOM     25  H   UNL     1      17.635  -6.688 -14.113  1.00  0.00     0.293 HD
ENDBRANCH   6  24
BRANCH   8  26
ATOM     26  O   UNL     1      15.692  -1.918 -12.370  1.00  0.00    -0.508 OA
ATOM     27  H   UNL     1      16.032  -1.967 -11.416  1.00  0.00     0.293 HD
ENDBRANCH   8  26
TORSDOF 6
ENDMDL
MODEL 4
REMARK VINA RESULT:    -5.789      6.857      8.799
REMARK INTER + INTRA:          -7.510
REMARK INTER:                  -7.130
REMARK INTRA:                  -0.380
REMARK UNBOUND:                -0.367
REMARK SMILES COc1cc(-c2oc3cc(O)cc(O)c3c(=O)c2O)ccc1O
REMARK SMILES IDX 6 1 18 2 16 3 17 4 15 5 13 6 12 7 10 8 9 9 8 10 7 11 5 12
REMARK SMILES IDX 3 13 22 14 4 15 21 16 20 17 2 18 1 19 23 20 19 22 14 24
REMARK SMILES IDX 11 26
REMARK H PARENT 23 21 19 23 14 25 11 27
REMARK Flexibility Score: inf
ROOT
ATOM      1  C   UNL     1      18.289  -2.136  -8.646  1.00  0.00     0.180 A 
ATOM      2  C   UNL     1      17.603  -0.910  -8.697  1.00  0.00     0.208 A 
ATOM      3  C   UNL     1      16.526  -0.769  -9.586  1.00  0.00     0.238 A 
ATOM      4  O   UNL     1      15.882   0.312  -9.588  1.00  0.00    -0.285 OA
ATOM      5  C   UNL     1      16.159  -1.849 -10.424  1.00  0.00     0.111 A 
ATOM      6  C   UNL     1      15.109  -1.804 -11.390  1.00  0.00     0.134 A 
ATOM      7  C   UNL     1      14.747  -2.973 -12.072  1.00  0.00     0.093 A 
ATOM      8  C   UNL     1      15.440  -4.168 -11.869  1.00  0.00     0.123 A 
ATOM      9  C   UNL     1      16.505  -4.208 -10.972  1.00  0.00     0.094 A 
ATOM     10  C   UNL     1      16.865  -3.067 -10.251  1.00  0.00     0.146 A 
ATOM     11  O   UNL     1      17.879  -3.151  -9.398  1.00  0.00    -0.452 OA
ENDROOT
BRANCH   1  12
ATOM     12  C   UNL     1      19.450  -2.353  -7.752  1.00  0.00     0.025 A 
ATOM     13  C   UNL     1      21.871  -2.336  -7.413  1.00  0.00     0.161 A 
ATOM     14  C   UNL     1      21.680  -2.696  -6.072  1.00  0.00     0.157 A 
ATOM     15  C   UNL     1      20.750  -2.159  -8.248  1.00  0.00     0.062 A 
ATOM     16  C   UNL     1      20.385  -2.870  -5.570  1.00  0.00     0.051 A 
ATOM     17  C   UNL     1      19.277  -2.694  -6.400  1.00  0.00     0.016 A 
BRANCH  13  18
ATOM     18  O   UNL     1      23.185  -2.162  -7.877  1.00  0.00    -0.493 OA
ATOM     19  C   UNL     1      23.930  -3.152  -8.579  1.00  0.00     0.278 C 
ENDBRANCH  13  18
BRANCH  14  20
ATOM     20  O   UNL     1      22.785  -2.874  -5.242  1.00  0.00    -0.504 OA
ATOM     21  H   UNL     1      23.712  -3.034  -5.621  1.00  0.00     0.293 HD
ENDBRANCH  14  20
ENDBRANCH   1  12
BRANCH   2  22
ATOM     22  O   UNL     1      17.970   0.136  -7.846  1.00  0.00    -0.502 OA
ATOM     23  H   UNL     1      18.132   1.079  -8.181  1.00  0.00     0.293 HD
ENDBRANCH   2  22
BRANCH   6  24
ATOM     24  O   UNL     1      14.415  -0.640 -11.736  1.00  0.00    -0.507 OA
ATOM     25  H   UNL     1      14.804   0.125 -12.264  1.00  0.00     0.293 HD
ENDBRANCH   6  24
BRANCH   8  26
ATOM     26  O   UNL     1      15.084  -5.323 -12.563  1.00  0.00    -0.508 OA
ATOM     27  H   UNL     1      15.302  -5.439 -13.546  1.00  0.00     0.293 HD
ENDBRANCH   8  26
TORSDOF 6
ENDMDL
MODEL 5
REMARK VINA RESULT:    -5.708      7.758     11.559
REMARK INTER + INTRA:          -7.410
REMARK INTER:                  -7.013
REMARK INTRA:                  -0.397
REMARK UNBOUND:                -0.367
REMARK SMILES COc1cc(-c2oc3cc(O)cc(O)c3c(=O)c2O)ccc1O
REMARK SMILES IDX 6 1 18 2 16 3 17 4 15 5 13 6 12 7 10 8 9 9 8 10 7 11 5 12
REMARK SMILES IDX 3 13 22 14 4 15 21 16 20 17 2 18 1 19 23 20 19 22 14 24
REMARK SMILES IDX 11 26
REMARK H PARENT 23 21 19 23 14 25 11 27
REMARK Flexibility Score: inf
ROOT
ATOM      1  C   UNL     1      10.856  -5.761 -10.034  1.00  0.00     0.180 A 
ATOM      2  C   UNL     1      10.225  -6.875 -10.614  1.00  0.00     0.208 A 
ATOM      3  C   UNL     1       9.246  -7.562  -9.878  1.00  0.00     0.238 A 
ATOM      4  O   UNL     1       8.646  -8.525 -10.423  1.00  0.00    -0.285 OA
ATOM      5  C   UNL     1       8.922  -7.137  -8.568  1.00  0.00     0.111 A 
ATOM      6  C   UNL     1       7.974  -7.783  -7.718  1.00  0.00     0.134 A 
ATOM      7  C   UNL     1       7.637  -7.199  -6.490  1.00  0.00     0.093 A 
ATOM      8  C   UNL     1       8.262  -6.028  -6.054  1.00  0.00     0.123 A 
ATOM      9  C   UNL     1       9.231  -5.423  -6.850  1.00  0.00     0.094 A 
ATOM     10  C   UNL     1       9.562  -5.962  -8.096  1.00  0.00     0.146 A 
ATOM     11  O   UNL     1      10.483  -5.348  -8.828  1.00  0.00    -0.452 OA
ENDROOT
BRANCH   1  12
ATOM     12  C   UNL     1      11.915  -5.001 -10.737  1.00  0.00     0.025 A 
ATOM     13  C   UNL     1      12.557  -3.113 -12.152  1.00  0.00     0.161 A 
ATOM     14  C   UNL     1      13.902  -3.493 -12.038  1.00  0.00     0.157 A 
ATOM     15  C   UNL     1      11.567  -3.869 -11.492  1.00  0.00     0.062 A 
ATOM     16  C   UNL     1      14.253  -4.609 -11.269  1.00  0.00     0.051 A 
ATOM     17  C   UNL     1      13.269  -5.355 -10.617  1.00  0.00     0.016 A 
BRANCH  13  18
ATOM     18  O   UNL     1      12.245  -1.984 -12.925  1.00  0.00    -0.493 OA
ATOM     19  C   UNL     1      10.939  -1.432 -13.056  1.00  0.00     0.278 C 
ENDBRANCH  13  18
BRANCH  14  20
ATOM     20  O   UNL     1      14.885  -2.751 -12.690  1.00  0.00    -0.504 OA
ATOM     21  H   UNL     1      14.647  -2.035 -13.368  1.00  0.00     0.293 HD
ENDBRANCH  14  20
ENDBRANCH   1  12
BRANCH   2  22
ATOM     22  O   UNL     1      10.545  -7.265 -11.917  1.00  0.00    -0.502 OA
ATOM     23  H   UNL     1      10.052  -8.007 -12.400  1.00  0.00     0.293 HD
ENDBRANCH   2  22
BRANCH   6  24
ATOM     24  O   UNL     1       7.362  -9.003  -8.016  1.00  0.00    -0.507 OA
ATOM     25  H   UNL     1       7.853  -9.843  -8.283  1.00  0.00     0.293 HD
ENDBRANCH   6  24
BRANCH   8  26
ATOM     26  O   UNL     1       7.932  -5.462  -4.824  1.00  0.00    -0.508 OA
ATOM     27  H   UNL     1       8.204  -5.898  -3.950  1.00  0.00     0.293 HD
ENDBRANCH   8  26
TORSDOF 6
ENDMDL
MODEL 6
REMARK VINA RESULT:    -5.570      1.805      7.050
REMARK INTER + INTRA:          -7.239
REMARK INTER:                  -6.838
REMARK INTRA:                  -0.401
REMARK UNBOUND:                -0.367
REMARK SMILES COc1cc(-c2oc3cc(O)cc(O)c3c(=O)c2O)ccc1O
REMARK SMILES IDX 6 1 18 2 16 3 17 4 15 5 13 6 12 7 10 8 9 9 8 10 7 11 5 12
REMARK SMILES IDX 3 13 22 14 4 15 21 16 20 17 2 18 1 19 23 20 19 22 14 24
REMARK SMILES IDX 11 26
REMARK H PARENT 23 21 19 23 14 25 11 27
REMARK Flexibility Score: inf
ROOT
ATOM      1  C   UNL     1      18.458  -0.651 -15.851  1.00  0.00     0.180 A 
ATOM      2  C   UNL     1      19.593  -0.032 -15.296  1.00  0.00     0.208 A 
ATOM      3  C   UNL     1      20.678   0.273 -16.134  1.00  0.00     0.238 A 
ATOM      4  O   UNL     1      21.668   0.876 -15.643  1.00  0.00    -0.285 OA
ATOM      5  C   UNL     1      20.623  -0.060 -17.508  1.00  0.00     0.111 A 
ATOM      6  C   UNL     1      21.681   0.167 -18.439  1.00  0.00     0.134 A 
ATOM      7  C   UNL     1      21.467  -0.082 -19.801  1.00  0.00     0.093 A 
ATOM      8  C   UNL     1      20.256  -0.610 -20.255  1.00  0.00     0.123 A 
ATOM      9  C   UNL     1      19.239  -0.890 -19.346  1.00  0.00     0.094 A 
ATOM     10  C   UNL     1      19.410  -0.618 -17.987  1.00  0.00     0.146 A 
ATOM     11  O   UNL     1      18.411  -0.890 -17.155  1.00  0.00    -0.452 OA
ENDROOT
BRANCH   1  12
ATOM     12  C   UNL     1      17.284  -1.025 -15.028  1.00  0.00     0.025 A 
ATOM     13  C   UNL     1      16.147  -2.663 -13.614  1.00  0.00     0.161 A 
ATOM     14  C   UNL     1      15.101  -1.752 -13.410  1.00  0.00     0.157 A 
ATOM     15  C   UNL     1      17.242  -2.289 -14.420  1.00  0.00     0.062 A 
ATOM     16  C   UNL     1      15.151  -0.483 -13.999  1.00  0.00     0.051 A 
ATOM     17  C   UNL     1      16.236  -0.117 -14.797  1.00  0.00     0.016 A 
BRANCH  13  18
ATOM     18  O   UNL     1      16.066  -3.922 -12.999  1.00  0.00    -0.493 OA
ATOM     19  C   UNL     1      16.899  -4.352 -11.927  1.00  0.00     0.278 C 
ENDBRANCH  13  18
BRANCH  14  20
ATOM     20  O   UNL     1      14.016  -2.116 -12.615  1.00  0.00    -0.504 OA
ATOM     21  H   UNL     1      13.416  -1.420 -12.187  1.00  0.00     0.293 HD
ENDBRANCH  14  20
ENDBRANCH   1  12
BRANCH   2  22
ATOM     22  O   UNL     1      19.617   0.306 -13.941  1.00  0.00    -0.502 OA
ATOM     23  H   UNL     1      20.250  -0.133 -13.282  1.00  0.00     0.293 HD
ENDBRANCH   2  22
BRANCH   6  24
ATOM     24  O   UNL     1      22.959   0.604 -18.078  1.00  0.00    -0.507 OA
ATOM     25  H   UNL     1      23.148   1.392 -17.479  1.00  0.00     0.293 HD
ENDBRANCH   6  24
BRANCH   8  26
ATOM     26  O   UNL     1      20.058  -0.869 -21.610  1.00  0.00    -0.508 OA
ATOM     27  H   UNL     1      20.248  -0.168 -22.317  1.00  0.00     0.293 HD
ENDBRANCH   8  26
TORSDOF 6
ENDMDL
MODEL 7
REMARK VINA RESULT:    -5.488     10.549     12.050
REMARK INTER + INTRA:          -7.139
REMARK INTER:                  -6.731
REMARK INTRA:                  -0.408
REMARK UNBOUND:                -0.367
REMARK SMILES COc1cc(-c2oc3cc(O)cc(O)c3c(=O)c2O)ccc1O
REMARK SMILES IDX 6 1 18 2 16 3 17 4 15 5 13 6 12 7 10 8 9 9 8 10 7 11 5 12
REMARK SMILES IDX 3 13 22 14 4 15 21 16 20 17 2 18 1 19 23 20 19 22 14 24
REMARK SMILES IDX 11 26
REMARK H PARENT 23 21 19 23 14 25 11 27
REMARK Flexibility Score: inf
ROOT
ATOM      1  C   UNL     1       9.436   3.539 -18.848  1.00  0.00     0.180 A 
ATOM      2  C   UNL     1       8.942   2.773 -19.919  1.00  0.00     0.208 A 
ATOM      3  C   UNL     1       7.567   2.495 -19.979  1.00  0.00     0.238 A 
ATOM      4  O   UNL     1       7.123   1.855 -20.968  1.00  0.00    -0.285 OA
ATOM      5  C   UNL     1       6.707   2.972 -18.961  1.00  0.00     0.111 A 
ATOM      6  C   UNL     1       5.304   2.717 -18.902  1.00  0.00     0.134 A 
ATOM      7  C   UNL     1       4.528   3.348 -17.921  1.00  0.00     0.093 A 
ATOM      8  C   UNL     1       5.116   4.173 -16.959  1.00  0.00     0.123 A 
ATOM      9  C   UNL     1       6.492   4.382 -16.974  1.00  0.00     0.094 A 
ATOM     10  C   UNL     1       7.287   3.794 -17.962  1.00  0.00     0.146 A 
ATOM     11  O   UNL     1       8.594   4.028 -17.945  1.00  0.00    -0.452 OA
ENDROOT
BRANCH   1  12
ATOM     12  C   UNL     1      10.876   3.854 -18.702  1.00  0.00     0.025 A 
ATOM     13  C   UNL     1      12.726   5.422 -19.015  1.00  0.00     0.161 A 
ATOM     14  C   UNL     1      13.593   4.514 -18.391  1.00  0.00     0.157 A 
ATOM     15  C   UNL     1      11.364   5.088 -19.162  1.00  0.00     0.062 A 
ATOM     16  C   UNL     1      13.105   3.292 -17.913  1.00  0.00     0.051 A 
ATOM     17  C   UNL     1      11.756   2.965 -18.061  1.00  0.00     0.016 A 
BRANCH  13  18
ATOM     18  O   UNL     1      13.250   6.641 -19.472  1.00  0.00    -0.493 OA
ATOM     19  C   UNL     1      13.143   7.877 -18.775  1.00  0.00     0.278 C 
ENDBRANCH  13  18
BRANCH  14  20
ATOM     20  O   UNL     1      14.940   4.839 -18.244  1.00  0.00    -0.504 OA
ATOM     21  H   UNL     1      15.571   4.853 -19.037  1.00  0.00     0.293 HD
ENDBRANCH  14  20
ENDBRANCH   1  12
BRANCH   2  22
ATOM     22  O   UNL     1       9.807   2.330 -20.923  1.00  0.00    -0.502 OA
ATOM     23  H   UNL     1       9.490   2.130 -21.864  1.00  0.00     0.293 HD
ENDBRANCH   2  22
BRANCH   6  24
ATOM     24  O   UNL     1       4.633   1.837 -19.756  1.00  0.00    -0.507 OA
ATOM     25  H   UNL     1       4.890   0.873 -19.905  1.00  0.00     0.293 HD
ENDBRANCH   6  24
BRANCH   8  26
ATOM     26  O   UNL     1       4.339   4.785 -15.977  1.00  0.00    -0.508 OA
ATOM     27  H   UNL     1       4.739   5.444 -15.319  1.00  0.00     0.293 HD
ENDBRANCH   8  26
TORSDOF 6
ENDMDL
MODEL 8
REMARK VINA RESULT:    -5.456      2.124      7.075
REMARK INTER + INTRA:          -7.099
REMARK INTER:                  -6.703
REMARK INTRA:                  -0.396
REMARK UNBOUND:                -0.367
REMARK SMILES COc1cc(-c2oc3cc(O)cc(O)c3c(=O)c2O)ccc1O
REMARK SMILES IDX 6 1 18 2 16 3 17 4 15 5 13 6 12 7 10 8 9 9 8 10 7 11 5 12
REMARK SMILES IDX 3 13 22 14 4 15 21 16 20 17 2 18 1 19 23 20 19 22 14 24
REMARK SMILES IDX 11 26
REMARK H PARENT 23 21 19 23 14 25 11 27
REMARK Flexibility Score: inf
ROOT
ATOM      1  C   UNL     1      18.496  -0.676 -15.831  1.00  0.00     0.180 A 
ATOM      2  C   UNL     1      19.627  -0.043 -15.287  1.00  0.00     0.208 A 
ATOM      3  C   UNL     1      20.701   0.275 -16.133  1.00  0.00     0.238 A 
ATOM      4  O   UNL     1      21.688   0.890 -15.652  1.00  0.00    -0.285 OA
ATOM      5  C   UNL     1      20.638  -0.059 -17.507  1.00  0.00     0.111 A 
ATOM      6  C   UNL     1      21.685   0.180 -18.448  1.00  0.00     0.134 A 
ATOM      7  C   UNL     1      21.463  -0.072 -19.807  1.00  0.00     0.093 A 
ATOM      8  C   UNL     1      20.255  -0.615 -20.251  1.00  0.00     0.123 A 
ATOM      9  C   UNL     1      19.249  -0.907 -19.333  1.00  0.00     0.094 A 
ATOM     10  C   UNL     1      19.428  -0.633 -17.975  1.00  0.00     0.146 A 
ATOM     11  O   UNL     1      18.440  -0.916 -17.135  1.00  0.00    -0.452 OA
ENDROOT
BRANCH   1  12
ATOM     12  C   UNL     1      17.334  -1.064 -14.998  1.00  0.00     0.025 A 
ATOM     13  C   UNL     1      15.131  -0.524 -14.085  1.00  0.00     0.161 A 
ATOM     14  C   UNL     1      15.081  -1.786 -13.475  1.00  0.00     0.157 A 
ATOM     15  C   UNL     1      16.259  -0.172 -14.853  1.00  0.00     0.062 A 
ATOM     16  C   UNL     1      16.142  -2.685 -13.636  1.00  0.00     0.051 A 
ATOM     17  C   UNL     1      17.258  -2.332 -14.396  1.00  0.00     0.016 A 
BRANCH  13  18
ATOM     18  O   UNL     1      14.044   0.347 -13.908  1.00  0.00    -0.493 OA
ATOM     19  C   UNL     1      13.912   1.612 -14.548  1.00  0.00     0.278 C 
ENDBRANCH  13  18
BRANCH  14  20
ATOM     20  O   UNL     1      13.968  -2.139 -12.714  1.00  0.00    -0.504 OA
ATOM     21  H   UNL     1      13.373  -2.917 -12.976  1.00  0.00     0.293 HD
ENDBRANCH  14  20
ENDBRANCH   1  12
BRANCH   2  22
ATOM     22  O   UNL     1      19.659   0.296 -13.932  1.00  0.00    -0.502 OA
ATOM     23  H   UNL     1      19.358  -0.342 -13.204  1.00  0.00     0.293 HD
ENDBRANCH   2  22
BRANCH   6  24
ATOM     24  O   UNL     1      22.961   0.633 -18.098  1.00  0.00    -0.507 OA
ATOM     25  H   UNL     1      23.179   1.577 -17.818  1.00  0.00     0.293 HD
ENDBRANCH   6  24
BRANCH   8  26
ATOM     26  O   UNL     1      20.047  -0.877 -21.604  1.00  0.00    -0.508 OA
ATOM     27  H   UNL     1      20.794  -0.779 -22.283  1.00  0.00     0.293 HD
ENDBRANCH   8  26
TORSDOF 6
ENDMDL
MODEL 9
REMARK VINA RESULT:    -5.455      6.881      9.461
REMARK INTER + INTRA:          -7.098
REMARK INTER:                  -6.842
REMARK INTRA:                  -0.256
REMARK UNBOUND:                -0.367
REMARK SMILES COc1cc(-c2oc3cc(O)cc(O)c3c(=O)c2O)ccc1O
REMARK SMILES IDX 6 1 18 2 16 3 17 4 15 5 13 6 12 7 10 8 9 9 8 10 7 11 5 12
REMARK SMILES IDX 3 13 22 14 4 15 21 16 20 17 2 18 1 19 23 20 19 22 14 24
REMARK SMILES IDX 11 26
REMARK H PARENT 23 21 19 23 14 25 11 27
REMARK Flexibility Score: inf
ROOT
ATOM      1  C   UNL     1      18.720  -1.693  -8.635  1.00  0.00     0.180 A 
ATOM      2  C   UNL     1      17.679  -2.574  -8.974  1.00  0.00     0.208 A 
ATOM      3  C   UNL     1      16.653  -2.122  -9.819  1.00  0.00     0.238 A 
ATOM      4  O   UNL     1      15.753  -2.931 -10.163  1.00  0.00    -0.285 OA
ATOM      5  C   UNL     1      16.673  -0.791 -10.301  1.00  0.00     0.111 A 
ATOM      6  C   UNL     1      15.665  -0.215 -11.131  1.00  0.00     0.134 A 
ATOM      7  C   UNL     1      15.853   1.070 -11.656  1.00  0.00     0.093 A 
ATOM      8  C   UNL     1      16.982   1.824 -11.327  1.00  0.00     0.123 A 
ATOM      9  C   UNL     1      17.943   1.293 -10.470  1.00  0.00     0.094 A 
ATOM     10  C   UNL     1      17.800  -0.000  -9.960  1.00  0.00     0.146 A 
ATOM     11  O   UNL     1      18.745  -0.472  -9.155  1.00  0.00    -0.452 OA
ENDROOT
BRANCH   1  12
ATOM     12  C   UNL     1      19.824  -2.089  -7.730  1.00  0.00     0.025 A 
ATOM     13  C   UNL     1      22.218  -2.417  -7.355  1.00  0.00     0.161 A 
ATOM     14  C   UNL     1      21.954  -2.776  -6.025  1.00  0.00     0.157 A 
ATOM     15  C   UNL     1      21.146  -2.068  -8.201  1.00  0.00     0.062 A 
ATOM     16  C   UNL     1      20.639  -2.778  -5.546  1.00  0.00     0.051 A 
ATOM     17  C   UNL     1      19.581  -2.431  -6.388  1.00  0.00     0.016 A 
BRANCH  13  18
ATOM     18  O   UNL     1      23.550  -2.419  -7.796  1.00  0.00    -0.493 OA
ATOM     19  C   UNL     1      24.079  -3.319  -8.764  1.00  0.00     0.278 C 
ENDBRANCH  13  18
BRANCH  14  20
ATOM     20  O   UNL     1      23.009  -3.124  -5.184  1.00  0.00    -0.504 OA
ATOM     21  H   UNL     1      23.633  -2.423  -4.799  1.00  0.00     0.293 HD
ENDBRANCH  14  20
ENDBRANCH   1  12
BRANCH   2  22
ATOM     22  O   UNL     1      17.690  -3.890  -8.503  1.00  0.00    -0.502 OA
ATOM     23  H   UNL     1      16.893  -4.508  -8.596  1.00  0.00     0.293 HD
ENDBRANCH   2  22
BRANCH   6  24
ATOM     24  O   UNL     1      14.457  -0.846 -11.445  1.00  0.00    -0.507 OA
ATOM     25  H   UNL     1      14.378  -1.739 -11.907  1.00  0.00     0.293 HD
ENDBRANCH   6  24
BRANCH   8  26
ATOM     26  O   UNL     1      17.154   3.107 -11.841  1.00  0.00    -0.508 OA
ATOM     27  H   UNL     1      18.011   3.628 -11.691  1.00  0.00     0.293 HD
ENDBRANCH   8  26
TORSDOF 6
ENDMDL
