MODEL 1
REMARK VINA RESULT:    -4.082      0.000      0.000
REMARK INTER + INTRA:         -10.435
REMARK INTER:                  -7.662
REMARK INTRA:                  -2.773
REMARK UNBOUND:                -2.773
REMARK SMILES CCCCCCCCC=CCCCCCCCC(=O)[O-]
REMARK SMILES IDX 10 1 9 2 11 3 12 4 13 5 14 6 15 7 16 8 17 9 18 10 19 11
REMARK SMILES IDX 20 12 8 13 7 14 6 15 5 16 4 17 3 18 2 19 1 20
REMARK H PARENT
REMARK Flexibility Score: inf
ROOT
ATOM      1  C   UNL     1      29.940   7.478  30.392  1.00  0.00    -0.031 C 
ATOM      2  C   UNL     1      30.157   8.104  29.220  1.00  0.00    -0.031 C 
ENDROOT
BRANCH   1   3
ATOM      3  C   UNL     1      30.939   6.589  31.086  1.00  0.00     0.027 C 
BRANCH   3   4
ATOM      4  C   UNL     1      31.816   7.404  32.048  1.00  0.00     0.004 C 
BRANCH   4   5
ATOM      5  C   UNL     1      31.038   8.525  32.758  1.00  0.00     0.000 C 
BRANCH   5   6
ATOM      6  C   UNL     1      31.522   9.955  32.443  1.00  0.00     0.000 C 
BRANCH   6   7
ATOM      7  C   UNL     1      30.450  10.898  31.870  1.00  0.00     0.000 C 
BRANCH   7   8
ATOM      8  C   UNL     1      30.892  11.582  30.565  1.00  0.00     0.006 C 
BRANCH   8   9
ATOM      9  C   UNL     1      29.771  12.429  29.947  1.00  0.00     0.053 C 
BRANCH   9  10
ATOM     10  C   UNL     1      28.932  11.634  28.995  1.00  0.00     0.041 C 
ATOM     11  O   UNL     1      27.769  11.278  29.320  1.00  0.00    -0.550 OA
ATOM     12  O   UNL     1      29.444  11.260  27.758  1.00  0.00    -0.550 OA
ENDBRANCH   9  10
ENDBRANCH   8   9
ENDBRANCH   7   8
ENDBRANCH   6   7
ENDBRANCH   5   6
ENDBRANCH   4   5
ENDBRANCH   3   4
ENDBRANCH   1   3
BRANCH   2  13
ATOM     13  C   UNL     1      31.397   7.936  28.374  1.00  0.00     0.027 C 
BRANCH  13  14
ATOM     14  C   UNL     1      32.439   9.035  28.648  1.00  0.00     0.004 C 
BRANCH  14  15
ATOM     15  C   UNL     1      33.751   8.530  29.282  1.00  0.00     0.000 C 
BRANCH  15  16
ATOM     16  C   UNL     1      34.444   9.525  30.230  1.00  0.00     0.000 C 
BRANCH  16  17
ATOM     17  C   UNL     1      35.712   8.949  30.878  1.00  0.00    -0.000 C 
BRANCH  17  18
ATOM     18  C   UNL     1      35.498   7.490  31.298  1.00  0.00    -0.000 C 
BRANCH  18  19
ATOM     19  C   UNL     1      36.086   7.227  32.689  1.00  0.00    -0.003 C 
ATOM     20  C   UNL     1      35.026   6.678  33.640  1.00  0.00     0.004 C 
ENDBRANCH  18  19
ENDBRANCH  17  18
ENDBRANCH  16  17
ENDBRANCH  15  16
ENDBRANCH  14  15
ENDBRANCH  13  14
ENDBRANCH   2  13
TORSDOF 15
ENDMDL
MODEL 2
REMARK VINA RESULT:    -4.053      1.315      2.932
REMARK INTER + INTRA:         -10.380
REMARK INTER:                  -7.617
REMARK INTRA:                  -2.762
REMARK UNBOUND:                -2.773
REMARK SMILES CCCCCCCCC=CCCCCCCCC(=O)[O-]
REMARK SMILES IDX 10 1 9 2 11 3 12 4 13 5 14 6 15 7 16 8 17 9 18 10 19 11
REMARK SMILES IDX 20 12 8 13 7 14 6 15 5 16 4 17 3 18 2 19 1 20
REMARK H PARENT
REMARK Flexibility Score: inf
ROOT
ATOM      1  C   UNL     1      30.919   9.241  32.410  1.00  0.00    -0.031 C 
ATOM      2  C   UNL     1      31.821  10.218  32.193  1.00  0.00    -0.031 C 
ENDROOT
BRANCH   1   3
ATOM      3  C   UNL     1      31.267   7.810  32.730  1.00  0.00     0.027 C 
BRANCH   3   4
ATOM      4  C   UNL     1      31.348   6.971  31.447  1.00  0.00     0.004 C 
BRANCH   4   5
ATOM      5  C   UNL     1      30.091   7.101  30.570  1.00  0.00     0.000 C 
BRANCH   5   6
ATOM      6  C   UNL     1      30.364   7.348  29.072  1.00  0.00     0.000 C 
BRANCH   6   7
ATOM      7  C   UNL     1      31.577   8.245  28.767  1.00  0.00     0.000 C 
BRANCH   7   8
ATOM      8  C   UNL     1      31.208   9.486  27.937  1.00  0.00     0.006 C 
BRANCH   8   9
ATOM      9  C   UNL     1      30.489  10.551  28.777  1.00  0.00     0.053 C 
BRANCH   9  10
ATOM     10  C   UNL     1      29.156  10.911  28.198  1.00  0.00     0.041 C 
ATOM     11  O   UNL     1      29.017  11.029  26.952  1.00  0.00    -0.550 OA
ATOM     12  O   UNL     1      28.072  11.144  29.035  1.00  0.00    -0.550 OA
ENDBRANCH   9  10
ENDBRANCH   8   9
ENDBRANCH   7   8
ENDBRANCH   6   7
ENDBRANCH   5   6
ENDBRANCH   4   5
ENDBRANCH   3   4
ENDBRANCH   1   3
BRANCH   2  13
ATOM     13  C   UNL     1      33.316  10.011  32.144  1.00  0.00     0.027 C 
BRANCH  13  14
ATOM     14  C   UNL     1      33.901  10.331  30.757  1.00  0.00     0.004 C 
BRANCH  14  15
ATOM     15  C   UNL     1      34.827   9.239  30.184  1.00  0.00     0.000 C 
BRANCH  15  16
ATOM     16  C   UNL     1      34.753   7.879  30.901  1.00  0.00     0.000 C 
BRANCH  16  17
ATOM     17  C   UNL     1      36.131   7.357  31.335  1.00  0.00    -0.000 C 
BRANCH  17  18
ATOM     18  C   UNL     1      37.250   8.276  30.829  1.00  0.00    -0.000 C 
BRANCH  18  19
ATOM     19  C   UNL     1      38.124   8.768  31.988  1.00  0.00    -0.003 C 
ATOM     20  C   UNL     1      37.544  10.032  32.616  1.00  0.00     0.004 C 
ENDBRANCH  18  19
ENDBRANCH  17  18
ENDBRANCH  16  17
ENDBRANCH  15  16
ENDBRANCH  14  15
ENDBRANCH  13  14
ENDBRANCH   2  13
TORSDOF 15
ENDMDL
MODEL 3
REMARK VINA RESULT:    -3.999      3.315      6.167
REMARK INTER + INTRA:         -10.280
REMARK INTER:                  -7.435
REMARK INTRA:                  -2.844
REMARK UNBOUND:                -2.773
REMARK SMILES CCCCCCCCC=CCCCCCCCC(=O)[O-]
REMARK SMILES IDX 10 1 9 2 11 3 12 4 13 5 14 6 15 7 16 8 17 9 18 10 19 11
REMARK SMILES IDX 20 12 8 13 7 14 6 15 5 16 4 17 3 18 2 19 1 20
REMARK H PARENT
REMARK Flexibility Score: inf
ROOT
ATOM      1  C   UNL     1      31.449   7.806  32.027  1.00  0.00    -0.031 C 
ATOM      2  C   UNL     1      31.100   7.033  30.981  1.00  0.00    -0.031 C 
ENDROOT
BRANCH   1   3
ATOM      3  C   UNL     1      30.733   9.068  32.436  1.00  0.00     0.027 C 
BRANCH   3   4
ATOM      4  C   UNL     1      31.698  10.261  32.448  1.00  0.00     0.004 C 
BRANCH   4   5
ATOM      5  C   UNL     1      33.166   9.841  32.262  1.00  0.00     0.000 C 
BRANCH   5   6
ATOM      6  C   UNL     1      33.908  10.556  31.114  1.00  0.00     0.000 C 
BRANCH   6   7
ATOM      7  C   UNL     1      34.927   9.690  30.353  1.00  0.00     0.000 C 
BRANCH   7   8
ATOM      8  C   UNL     1      34.791   8.191  30.670  1.00  0.00     0.006 C 
BRANCH   8   9
ATOM      9  C   UNL     1      36.154   7.490  30.749  1.00  0.00     0.053 C 
BRANCH   9  10
ATOM     10  C   UNL     1      36.650   7.392  32.159  1.00  0.00     0.041 C 
ATOM     11  O   UNL     1      35.875   7.635  33.121  1.00  0.00    -0.550 OA
ATOM     12  O   UNL     1      37.976   7.060  32.410  1.00  0.00    -0.550 OA
ENDBRANCH   9  10
ENDBRANCH   8   9
ENDBRANCH   7   8
ENDBRANCH   6   7
ENDBRANCH   5   6
ENDBRANCH   4   5
ENDBRANCH   3   4
ENDBRANCH   1   3
BRANCH   2  13
ATOM     13  C   UNL     1      29.997   7.359  30.003  1.00  0.00     0.027 C 
BRANCH  13  14
ATOM     14  C   UNL     1      30.547   7.782  28.629  1.00  0.00     0.004 C 
BRANCH  14  15
ATOM     15  C   UNL     1      31.550   8.953  28.672  1.00  0.00     0.000 C 
BRANCH  15  16
ATOM     16  C   UNL     1      30.915  10.352  28.771  1.00  0.00     0.000 C 
BRANCH  16  17
ATOM     17  C   UNL     1      29.751  10.551  27.789  1.00  0.00    -0.000 C 
BRANCH  17  18
ATOM     18  C   UNL     1      28.497  11.049  28.519  1.00  0.00    -0.000 C 
BRANCH  18  19
ATOM     19  C   UNL     1      28.649  10.898  30.038  1.00  0.00    -0.003 C 
ATOM     20  C   UNL     1      27.989  12.059  30.774  1.00  0.00     0.004 C 
ENDBRANCH  18  19
ENDBRANCH  17  18
ENDBRANCH  16  17
ENDBRANCH  15  16
ENDBRANCH  14  15
ENDBRANCH  13  14
ENDBRANCH   2  13
TORSDOF 15
ENDMDL
MODEL 4
REMARK VINA RESULT:    -3.963      1.596      3.330
REMARK INTER + INTRA:         -10.213
REMARK INTER:                  -7.496
REMARK INTRA:                  -2.717
REMARK UNBOUND:                -2.773
REMARK SMILES CCCCCCCCC=CCCCCCCCC(=O)[O-]
REMARK SMILES IDX 10 1 9 2 11 3 12 4 13 5 14 6 15 7 16 8 17 9 18 10 19 11
REMARK SMILES IDX 20 12 8 13 7 14 6 15 5 16 4 17 3 18 2 19 1 20
REMARK H PARENT
REMARK Flexibility Score: inf
ROOT
ATOM      1  C   UNL     1      32.404  10.537  31.032  1.00  0.00    -0.031 C 
ATOM      2  C   UNL     1      33.367  11.283  31.607  1.00  0.00    -0.031 C 
ENDROOT
BRANCH   1   3
ATOM      3  C   UNL     1      32.065   9.123  31.429  1.00  0.00     0.027 C 
BRANCH   3   4
ATOM      4  C   UNL     1      32.252   8.167  30.243  1.00  0.00     0.004 C 
BRANCH   4   5
ATOM      5  C   UNL     1      32.742   8.882  28.972  1.00  0.00     0.000 C 
BRANCH   5   6
ATOM      6  C   UNL     1      31.768   8.828  27.777  1.00  0.00     0.000 C 
BRANCH   6   7
ATOM      7  C   UNL     1      30.282   9.008  28.135  1.00  0.00     0.000 C 
BRANCH   7   8
ATOM      8  C   UNL     1      29.684  10.306  27.567  1.00  0.00     0.006 C 
BRANCH   8   9
ATOM      9  C   UNL     1      29.945  11.512  28.479  1.00  0.00     0.053 C 
BRANCH   9  10
ATOM     10  C   UNL     1      28.825  11.730  29.449  1.00  0.00     0.041 C 
ATOM     11  O   UNL     1      27.684  11.253  29.217  1.00  0.00    -0.550 OA
ATOM     12  O   UNL     1      29.034  12.485  30.597  1.00  0.00    -0.550 OA
ENDBRANCH   9  10
ENDBRANCH   8   9
ENDBRANCH   7   8
ENDBRANCH   6   7
ENDBRANCH   5   6
ENDBRANCH   4   5
ENDBRANCH   3   4
ENDBRANCH   1   3
BRANCH   2  13
ATOM     13  C   UNL     1      34.316  10.787  32.671  1.00  0.00     0.027 C 
BRANCH  13  14
ATOM     14  C   UNL     1      35.785  10.857  32.217  1.00  0.00     0.004 C 
BRANCH  14  15
ATOM     15  C   UNL     1      35.996  10.672  30.701  1.00  0.00     0.000 C 
BRANCH  15  16
ATOM     16  C   UNL     1      36.196   9.216  30.243  1.00  0.00     0.000 C 
BRANCH  16  17
ATOM     17  C   UNL     1      37.427   8.552  30.877  1.00  0.00    -0.000 C 
BRANCH  17  18
ATOM     18  C   UNL     1      37.019   7.362  31.754  1.00  0.00    -0.000 C 
BRANCH  18  19
ATOM     19  C   UNL     1      35.515   7.085  31.639  1.00  0.00    -0.003 C 
ATOM     20  C   UNL     1      34.847   7.095  33.010  1.00  0.00     0.004 C 
ENDBRANCH  18  19
ENDBRANCH  17  18
ENDBRANCH  16  17
ENDBRANCH  15  16
ENDBRANCH  14  15
ENDBRANCH  13  14
ENDBRANCH   2  13
TORSDOF 15
ENDMDL
MODEL 5
REMARK VINA RESULT:    -3.949      1.387      3.728
REMARK INTER + INTRA:         -10.186
REMARK INTER:                  -7.685
REMARK INTRA:                  -2.501
REMARK UNBOUND:                -2.773
REMARK SMILES CCCCCCCCC=CCCCCCCCC(=O)[O-]
REMARK SMILES IDX 10 1 9 2 11 3 12 4 13 5 14 6 15 7 16 8 17 9 18 10 19 11
REMARK SMILES IDX 20 12 8 13 7 14 6 15 5 16 4 17 3 18 2 19 1 20
REMARK H PARENT
REMARK Flexibility Score: inf
ROOT
ATOM      1  C   UNL     1      32.588   8.045  33.549  1.00  0.00    -0.031 C 
ATOM      2  C   UNL     1      33.780   7.916  34.162  1.00  0.00    -0.031 C 
ENDROOT
BRANCH   1   3
ATOM      3  C   UNL     1      31.971   7.005  32.650  1.00  0.00     0.027 C 
BRANCH   3   4
ATOM      4  C   UNL     1      31.114   7.668  31.561  1.00  0.00     0.004 C 
BRANCH   4   5
ATOM      5  C   UNL     1      30.470   6.647  30.607  1.00  0.00     0.000 C 
BRANCH   5   6
ATOM      6  C   UNL     1      30.242   7.154  29.168  1.00  0.00     0.000 C 
BRANCH   6   7
ATOM      7  C   UNL     1      31.368   8.034  28.598  1.00  0.00     0.000 C 
BRANCH   7   8
ATOM      8  C   UNL     1      30.840   9.245  27.811  1.00  0.00     0.006 C 
BRANCH   8   9
ATOM      9  C   UNL     1      30.681  10.487  28.698  1.00  0.00     0.053 C 
BRANCH   9  10
ATOM     10  C   UNL     1      29.245  10.759  29.025  1.00  0.00     0.041 C 
ATOM     11  O   UNL     1      28.695  10.177  29.997  1.00  0.00    -0.550 OA
ATOM     12  O   UNL     1      28.504  11.634  28.239  1.00  0.00    -0.550 OA
ENDBRANCH   9  10
ENDBRANCH   8   9
ENDBRANCH   7   8
ENDBRANCH   6   7
ENDBRANCH   5   6
ENDBRANCH   4   5
ENDBRANCH   3   4
ENDBRANCH   1   3
BRANCH   2  13
ATOM     13  C   UNL     1      34.723   6.753  33.970  1.00  0.00     0.027 C 
BRANCH  13  14
ATOM     14  C   UNL     1      35.936   7.127  33.100  1.00  0.00     0.004 C 
BRANCH  14  15
ATOM     15  C   UNL     1      35.677   7.068  31.581  1.00  0.00     0.000 C 
BRANCH  15  16
ATOM     16  C   UNL     1      36.635   7.912  30.721  1.00  0.00     0.000 C 
BRANCH  16  17
ATOM     17  C   UNL     1      36.064   9.294  30.371  1.00  0.00    -0.000 C 
BRANCH  17  18
ATOM     18  C   UNL     1      34.594   9.188  29.946  1.00  0.00    -0.000 C 
BRANCH  18  19
ATOM     19  C   UNL     1      33.712  10.125  30.780  1.00  0.00    -0.003 C 
ATOM     20  C   UNL     1      34.557  11.128  31.559  1.00  0.00     0.004 C 
ENDBRANCH  18  19
ENDBRANCH  17  18
ENDBRANCH  16  17
ENDBRANCH  15  16
ENDBRANCH  14  15
ENDBRANCH  13  14
ENDBRANCH   2  13
TORSDOF 15
ENDMDL
MODEL 6
REMARK VINA RESULT:    -3.937      1.462      3.291
REMARK INTER + INTRA:         -10.162
REMARK INTER:                  -7.904
REMARK INTRA:                  -2.258
REMARK UNBOUND:                -2.773
REMARK SMILES CCCCCCCCC=CCCCCCCCC(=O)[O-]
REMARK SMILES IDX 10 1 9 2 11 3 12 4 13 5 14 6 15 7 16 8 17 9 18 10 19 11
REMARK SMILES IDX 20 12 8 13 7 14 6 15 5 16 4 17 3 18 2 19 1 20
REMARK H PARENT
REMARK Flexibility Score: inf
ROOT
ATOM      1  C   UNL     1      31.129   7.521  32.197  1.00  0.00    -0.031 C 
ATOM      2  C   UNL     1      32.248   8.205  32.505  1.00  0.00    -0.031 C 
ENDROOT
BRANCH   1   3
ATOM      3  C   UNL     1      30.983   6.608  31.007  1.00  0.00     0.027 C 
BRANCH   3   4
ATOM      4  C   UNL     1      29.840   7.078  30.098  1.00  0.00     0.004 C 
BRANCH   4   5
ATOM      5  C   UNL     1      30.298   7.345  28.654  1.00  0.00     0.000 C 
BRANCH   5   6
ATOM      6  C   UNL     1      31.479   8.328  28.516  1.00  0.00     0.000 C 
BRANCH   6   7
ATOM      7  C   UNL     1      31.087   9.813  28.414  1.00  0.00     0.000 C 
BRANCH   7   8
ATOM      8  C   UNL     1      31.227  10.561  29.750  1.00  0.00     0.006 C 
BRANCH   8   9
ATOM      9  C   UNL     1      29.884  10.701  30.480  1.00  0.00     0.053 C 
BRANCH   9  10
ATOM     10  C   UNL     1      29.056  11.813  29.915  1.00  0.00     0.041 C 
ATOM     11  O   UNL     1      29.309  13.008  30.218  1.00  0.00    -0.550 OA
ATOM     12  O   UNL     1      27.984  11.529  29.077  1.00  0.00    -0.550 OA
ENDBRANCH   9  10
ENDBRANCH   8   9
ENDBRANCH   7   8
ENDBRANCH   6   7
ENDBRANCH   5   6
ENDBRANCH   4   5
ENDBRANCH   3   4
ENDBRANCH   1   3
BRANCH   2  13
ATOM     13  C   UNL     1      33.496   8.236  31.656  1.00  0.00     0.027 C 
BRANCH  13  14
ATOM     14  C   UNL     1      34.727   7.712  32.415  1.00  0.00     0.004 C 
BRANCH  14  15
ATOM     15  C   UNL     1      35.778   7.014  31.528  1.00  0.00     0.000 C 
BRANCH  15  16
ATOM     16  C   UNL     1      37.232   7.134  32.020  1.00  0.00     0.000 C 
BRANCH  16  17
ATOM     17  C   UNL     1      37.846   8.514  31.740  1.00  0.00    -0.000 C 
BRANCH  17  18
ATOM     18  C   UNL     1      37.655   8.910  30.271  1.00  0.00    -0.000 C 
BRANCH  18  19
ATOM     19  C   UNL     1      37.399  10.416  30.137  1.00  0.00    -0.003 C 
ATOM     20  C   UNL     1      36.084  10.812  30.801  1.00  0.00     0.004 C 
ENDBRANCH  18  19
ENDBRANCH  17  18
ENDBRANCH  16  17
ENDBRANCH  15  16
ENDBRANCH  14  15
ENDBRANCH  13  14
ENDBRANCH   2  13
TORSDOF 15
ENDMDL
MODEL 7
REMARK VINA RESULT:    -3.924      3.286      5.727
REMARK INTER + INTRA:         -10.138
REMARK INTER:                  -7.657
REMARK INTRA:                  -2.481
REMARK UNBOUND:                -2.773
REMARK SMILES CCCCCCCCC=CCCCCCCCC(=O)[O-]
REMARK SMILES IDX 10 1 9 2 11 3 12 4 13 5 14 6 15 7 16 8 17 9 18 10 19 11
REMARK SMILES IDX 20 12 8 13 7 14 6 15 5 16 4 17 3 18 2 19 1 20
REMARK H PARENT
REMARK Flexibility Score: inf
ROOT
ATOM      1  C   UNL     1      29.590  11.781  31.631  1.00  0.00    -0.031 C 
ATOM      2  C   UNL     1      28.723  11.993  30.622  1.00  0.00    -0.031 C 
ENDROOT
BRANCH   1   3
ATOM      3  C   UNL     1      30.345  10.496  31.855  1.00  0.00     0.027 C 
BRANCH   3   4
ATOM      4  C   UNL     1      31.415  10.678  32.941  1.00  0.00     0.004 C 
BRANCH   4   5
ATOM      5  C   UNL     1      32.823  10.286  32.461  1.00  0.00     0.000 C 
BRANCH   5   6
ATOM      6  C   UNL     1      33.092  10.530  30.962  1.00  0.00     0.000 C 
BRANCH   6   7
ATOM      7  C   UNL     1      34.200   9.658  30.345  1.00  0.00     0.000 C 
BRANCH   7   8
ATOM      8  C   UNL     1      34.669   8.534  31.285  1.00  0.00     0.006 C 
BRANCH   8   9
ATOM      9  C   UNL     1      35.802   7.701  30.671  1.00  0.00     0.053 C 
BRANCH   9  10
ATOM     10  C   UNL     1      37.139   8.345  30.872  1.00  0.00     0.041 C 
ATOM     11  O   UNL     1      37.657   9.029  29.951  1.00  0.00    -0.550 OA
ATOM     12  O   UNL     1      37.828   8.165  32.066  1.00  0.00    -0.550 OA
ENDBRANCH   9  10
ENDBRANCH   8   9
ENDBRANCH   7   8
ENDBRANCH   6   7
ENDBRANCH   5   6
ENDBRANCH   4   5
ENDBRANCH   3   4
ENDBRANCH   1   3
BRANCH   2  13
ATOM     13  C   UNL     1      28.302  10.947  29.618  1.00  0.00     0.027 C 
BRANCH  13  14
ATOM     14  C   UNL     1      28.599  11.378  28.171  1.00  0.00     0.004 C 
BRANCH  14  15
ATOM     15  C   UNL     1      29.555  10.440  27.406  1.00  0.00     0.000 C 
BRANCH  15  16
ATOM     16  C   UNL     1      30.631   9.758  28.271  1.00  0.00     0.000 C 
BRANCH  16  17
ATOM     17  C   UNL     1      30.373   8.257  28.471  1.00  0.00    -0.000 C 
BRANCH  17  18
ATOM     18  C   UNL     1      31.290   7.683  29.558  1.00  0.00    -0.000 C 
BRANCH  18  19
ATOM     19  C   UNL     1      30.481   6.916  30.611  1.00  0.00    -0.003 C 
ATOM     20  C   UNL     1      31.207   6.894  31.953  1.00  0.00     0.004 C 
ENDBRANCH  18  19
ENDBRANCH  17  18
ENDBRANCH  16  17
ENDBRANCH  15  16
ENDBRANCH  14  15
ENDBRANCH  13  14
ENDBRANCH   2  13
TORSDOF 15
ENDMDL
MODEL 8
REMARK VINA RESULT:    -3.892      3.239      6.021
REMARK INTER + INTRA:         -10.079
REMARK INTER:                  -7.533
REMARK INTRA:                  -2.546
REMARK UNBOUND:                -2.773
REMARK SMILES CCCCCCCCC=CCCCCCCCC(=O)[O-]
REMARK SMILES IDX 10 1 9 2 11 3 12 4 13 5 14 6 15 7 16 8 17 9 18 10 19 11
REMARK SMILES IDX 20 12 8 13 7 14 6 15 5 16 4 17 3 18 2 19 1 20
REMARK H PARENT
REMARK Flexibility Score: inf
ROOT
ATOM      1  C   UNL     1      30.139   7.053  30.262  1.00  0.00    -0.031 C 
ATOM      2  C   UNL     1      30.309   7.351  28.959  1.00  0.00    -0.031 C 
ENDROOT
BRANCH   1   3
ATOM      3  C   UNL     1      31.161   7.309  31.339  1.00  0.00     0.027 C 
BRANCH   3   4
ATOM      4  C   UNL     1      30.988   8.715  31.931  1.00  0.00     0.004 C 
BRANCH   4   5
ATOM      5  C   UNL     1      32.135   9.666  31.551  1.00  0.00     0.000 C 
BRANCH   5   6
ATOM      6  C   UNL     1      33.502   8.985  31.333  1.00  0.00     0.000 C 
BRANCH   6   7
ATOM      7  C   UNL     1      34.345   8.788  32.605  1.00  0.00     0.000 C 
BRANCH   7   8
ATOM      8  C   UNL     1      35.012   7.404  32.671  1.00  0.00     0.006 C 
BRANCH   8   9
ATOM      9  C   UNL     1      35.802   7.080  31.396  1.00  0.00     0.053 C 
BRANCH   9  10
ATOM     10  C   UNL     1      37.060   7.886  31.300  1.00  0.00     0.041 C 
ATOM     11  O   UNL     1      37.279   8.600  30.286  1.00  0.00    -0.550 OA
ATOM     12  O   UNL     1      38.006   7.826  32.316  1.00  0.00    -0.550 OA
ENDBRANCH   9  10
ENDBRANCH   8   9
ENDBRANCH   7   8
ENDBRANCH   6   7
ENDBRANCH   5   6
ENDBRANCH   4   5
ENDBRANCH   3   4
ENDBRANCH   1   3
BRANCH   2  13
ATOM     13  C   UNL     1      31.584   7.898  28.363  1.00  0.00     0.027 C 
BRANCH  13  14
ATOM     14  C   UNL     1      31.406   9.328  27.824  1.00  0.00     0.004 C 
BRANCH  14  15
ATOM     15  C   UNL     1      29.941   9.805  27.745  1.00  0.00     0.000 C 
BRANCH  15  16
ATOM     16  C   UNL     1      29.658  11.158  28.423  1.00  0.00     0.000 C 
BRANCH  16  17
ATOM     17  C   UNL     1      28.765  11.028  29.667  1.00  0.00    -0.000 C 
BRANCH  17  18
ATOM     18  C   UNL     1      29.299  11.890  30.817  1.00  0.00    -0.000 C 
BRANCH  18  19
ATOM     19  C   UNL     1      30.291  12.941  30.303  1.00  0.00    -0.003 C 
ATOM     20  C   UNL     1      31.360  13.246  31.348  1.00  0.00     0.004 C 
ENDBRANCH  18  19
ENDBRANCH  17  18
ENDBRANCH  16  17
ENDBRANCH  15  16
ENDBRANCH  14  15
ENDBRANCH  13  14
ENDBRANCH   2  13
TORSDOF 15
ENDMDL
MODEL 9
REMARK VINA RESULT:    -3.850      3.099      6.191
REMARK INTER + INTRA:          -9.999
REMARK INTER:                  -7.288
REMARK INTRA:                  -2.712
REMARK UNBOUND:                -2.773
REMARK SMILES CCCCCCCCC=CCCCCCCCC(=O)[O-]
REMARK SMILES IDX 10 1 9 2 11 3 12 4 13 5 14 6 15 7 16 8 17 9 18 10 19 11
REMARK SMILES IDX 20 12 8 13 7 14 6 15 5 16 4 17 3 18 2 19 1 20
REMARK H PARENT
REMARK Flexibility Score: inf
ROOT
ATOM      1  C   UNL     1      32.190   7.846  31.500  1.00  0.00    -0.031 C 
ATOM      2  C   UNL     1      31.184   7.224  30.856  1.00  0.00    -0.031 C 
ENDROOT
BRANCH   1   3
ATOM      3  C   UNL     1      32.416   9.336  31.501  1.00  0.00     0.027 C 
BRANCH   3   4
ATOM      4  C   UNL     1      33.514   9.720  30.499  1.00  0.00     0.004 C 
BRANCH   4   5
ATOM      5  C   UNL     1      34.337   8.509  30.025  1.00  0.00     0.000 C 
BRANCH   5   6
ATOM      6  C   UNL     1      35.807   8.498  30.491  1.00  0.00     0.000 C 
BRANCH   6   7
ATOM      7  C   UNL     1      36.169   7.382  31.488  1.00  0.00     0.000 C 
BRANCH   7   8
ATOM      8  C   UNL     1      35.766   7.720  32.934  1.00  0.00     0.006 C 
BRANCH   8   9
ATOM      9  C   UNL     1      34.980   6.580  33.597  1.00  0.00     0.053 C 
BRANCH   9  10
ATOM     10  C   UNL     1      34.055   7.086  34.661  1.00  0.00     0.041 C 
ATOM     11  O   UNL     1      34.435   7.986  35.455  1.00  0.00    -0.550 OA
ATOM     12  O   UNL     1      32.782   6.544  34.793  1.00  0.00    -0.550 OA
ENDBRANCH   9  10
ENDBRANCH   8   9
ENDBRANCH   7   8
ENDBRANCH   6   7
ENDBRANCH   5   6
ENDBRANCH   4   5
ENDBRANCH   3   4
ENDBRANCH   1   3
BRANCH   2  13
ATOM     13  C   UNL     1      30.183   7.913  29.960  1.00  0.00     0.027 C 
BRANCH  13  14
ATOM     14  C   UNL     1      30.646   7.948  28.493  1.00  0.00     0.004 C 
BRANCH  14  15
ATOM     15  C   UNL     1      30.840   9.366  27.916  1.00  0.00     0.000 C 
BRANCH  15  16
ATOM     16  C   UNL     1      29.540  10.136  27.624  1.00  0.00     0.000 C 
BRANCH  16  17
ATOM     17  C   UNL     1      29.538  11.552  28.217  1.00  0.00    -0.000 C 
BRANCH  17  18
ATOM     18  C   UNL     1      30.658  11.714  29.253  1.00  0.00    -0.000 C 
BRANCH  18  19
ATOM     19  C   UNL     1      30.116  12.296  30.563  1.00  0.00    -0.003 C 
ATOM     20  C   UNL     1      29.277  11.269  31.316  1.00  0.00     0.004 C 
ENDBRANCH  18  19
ENDBRANCH  17  18
ENDBRANCH  16  17
ENDBRANCH  15  16
ENDBRANCH  14  15
ENDBRANCH  13  14
ENDBRANCH   2  13
TORSDOF 15
ENDMDL
