MODEL 1
REMARK VINA RESULT:    -6.728      0.000      0.000
REMARK INTER + INTRA:          -8.431
REMARK INTER:                  -8.104
REMARK INTRA:                  -0.327
REMARK UNBOUND:                -0.327
REMARK SMILES O=c1c(O)c(-c2ccc(O)c(O)c2)oc2cc(O)cc(O)c12
REMARK SMILES IDX 5 1 3 2 2 3 1 4 22 5 20 6 19 7 17 8 16 9 15 10 14 11 6 12
REMARK SMILES IDX 7 13 8 14 9 15 13 16 11 17 10 18 12 20 4 22 21 24 18 26
REMARK H PARENT 10 19 12 21 4 23 21 25 18 27
REMARK Flexibility Score: inf
ROOT
ATOM      1  C   UNL     1      48.378  25.137  11.434  1.00  0.00     0.180 A 
ATOM      2  C   UNL     1      48.820  25.334  12.758  1.00  0.00     0.208 A 
ATOM      3  C   UNL     1      48.158  26.276  13.560  1.00  0.00     0.238 A 
ATOM      4  O   UNL     1      48.550  26.469  14.743  1.00  0.00    -0.285 OA
ATOM      5  C   UNL     1      47.059  26.988  13.036  1.00  0.00     0.111 A 
ATOM      6  C   UNL     1      46.335  27.952  13.780  1.00  0.00     0.134 A 
ATOM      7  C   UNL     1      45.247  28.612  13.190  1.00  0.00     0.093 A 
ATOM      8  C   UNL     1      44.868  28.328  11.876  1.00  0.00     0.123 A 
ATOM      9  C   UNL     1      45.580  27.378  11.136  1.00  0.00     0.094 A 
ATOM     10  C   UNL     1      46.668  26.710  11.705  1.00  0.00     0.146 A 
ATOM     11  O   UNL     1      47.330  25.815  10.979  1.00  0.00    -0.452 OA
ENDROOT
BRANCH   1  12
ATOM     12  C   UNL     1      49.037  24.174  10.521  1.00  0.00     0.025 A 
ATOM     13  C   UNL     1      48.596  22.843  10.488  1.00  0.00     0.016 A 
ATOM     14  C   UNL     1      49.188  21.922   9.619  1.00  0.00     0.051 A 
ATOM     15  C   UNL     1      50.218  22.325   8.760  1.00  0.00     0.157 A 
ATOM     16  C   UNL     1      50.057  24.580   9.641  1.00  0.00     0.062 A 
ATOM     17  C   UNL     1      50.651  23.657   8.767  1.00  0.00     0.158 A 
BRANCH  15  18
ATOM     18  O   UNL     1      50.813  21.410   7.892  1.00  0.00    -0.504 OA
ATOM     19  H   UNL     1      50.906  20.431   8.136  1.00  0.00     0.293 HD
ENDBRANCH  15  18
BRANCH  17  20
ATOM     20  O   UNL     1      51.666  24.059   7.901  1.00  0.00    -0.504 OA
ATOM     21  H   UNL     1      52.170  24.926   8.041  1.00  0.00     0.293 HD
ENDBRANCH  17  20
ENDBRANCH   1  12
BRANCH   2  22
ATOM     22  O   UNL     1      49.879  24.579  13.268  1.00  0.00    -0.502 OA
ATOM     23  H   UNL     1      50.433  23.960  12.689  1.00  0.00     0.293 HD
ENDBRANCH   2  22
BRANCH   6  24
ATOM     24  O   UNL     1      46.688  28.257  15.095  1.00  0.00    -0.507 OA
ATOM     25  H   UNL     1      47.631  28.115  15.441  1.00  0.00     0.293 HD
ENDBRANCH   6  24
BRANCH   8  26
ATOM     26  O   UNL     1      43.783  28.997  11.314  1.00  0.00    -0.508 OA
ATOM     27  H   UNL     1      42.835  28.827  11.627  1.00  0.00     0.293 HD
ENDBRANCH   8  26
TORSDOF 6
ENDMDL
MODEL 2
REMARK VINA RESULT:    -6.108      1.578      6.835
REMARK INTER + INTRA:          -7.685
REMARK INTER:                  -7.536
REMARK INTRA:                  -0.149
REMARK UNBOUND:                -0.327
REMARK SMILES O=c1c(O)c(-c2ccc(O)c(O)c2)oc2cc(O)cc(O)c12
REMARK SMILES IDX 5 1 3 2 2 3 1 4 22 5 20 6 19 7 17 8 16 9 15 10 14 11 6 12
REMARK SMILES IDX 7 13 8 14 9 15 13 16 11 17 10 18 12 20 4 22 21 24 18 26
REMARK H PARENT 10 19 12 21 4 23 21 25 18 27
REMARK Flexibility Score: inf
ROOT
ATOM      1  C   UNL     1      47.385  25.197  11.821  1.00  0.00     0.180 A 
ATOM      2  C   UNL     1      47.213  23.968  12.490  1.00  0.00     0.208 A 
ATOM      3  C   UNL     1      47.970  22.861  12.076  1.00  0.00     0.238 A 
ATOM      4  O   UNL     1      47.819  21.753  12.660  1.00  0.00    -0.285 OA
ATOM      5  C   UNL     1      48.895  23.003  11.021  1.00  0.00     0.111 A 
ATOM      6  C   UNL     1      49.698  21.937  10.547  1.00  0.00     0.134 A 
ATOM      7  C   UNL     1      50.602  22.162   9.497  1.00  0.00     0.093 A 
ATOM      8  C   UNL     1      50.719  23.425   8.916  1.00  0.00     0.123 A 
ATOM      9  C   UNL     1      49.927  24.481   9.379  1.00  0.00     0.094 A 
ATOM     10  C   UNL     1      49.019  24.279  10.422  1.00  0.00     0.146 A 
ATOM     11  O   UNL     1      48.276  25.297  10.840  1.00  0.00    -0.452 OA
ENDROOT
BRANCH   1  12
ATOM     12  C   UNL     1      46.610  26.405  12.187  1.00  0.00     0.025 A 
ATOM     13  C   UNL     1      46.799  26.990  13.449  1.00  0.00     0.016 A 
ATOM     14  C   UNL     1      46.094  28.142  13.807  1.00  0.00     0.051 A 
ATOM     15  C   UNL     1      45.204  28.734  12.903  1.00  0.00     0.157 A 
ATOM     16  C   UNL     1      45.731  27.015  11.274  1.00  0.00     0.062 A 
ATOM     17  C   UNL     1      45.025  28.173  11.632  1.00  0.00     0.158 A 
BRANCH  15  18
ATOM     18  O   UNL     1      44.498  29.883  13.257  1.00  0.00    -0.504 OA
ATOM     19  H   UNL     1      44.875  30.555  13.915  1.00  0.00     0.293 HD
ENDBRANCH  15  18
BRANCH  17  20
ATOM     20  O   UNL     1      44.149  28.773  10.730  1.00  0.00    -0.504 OA
ATOM     21  H   UNL     1      44.131  29.776  10.594  1.00  0.00     0.293 HD
ENDBRANCH  17  20
ENDBRANCH   1  12
BRANCH   2  22
ATOM     22  O   UNL     1      46.327  23.867  13.565  1.00  0.00    -0.502 OA
ATOM     23  H   UNL     1      45.341  23.679  13.439  1.00  0.00     0.293 HD
ENDBRANCH   2  22
BRANCH   6  24
ATOM     24  O   UNL     1      49.606  20.663  11.108  1.00  0.00    -0.507 OA
ATOM     25  H   UNL     1      49.874  19.833  10.593  1.00  0.00     0.293 HD
ENDBRANCH   6  24
BRANCH   8  26
ATOM     26  O   UNL     1      51.624  23.622   7.875  1.00  0.00    -0.508 OA
ATOM     27  H   UNL     1      51.316  23.719   6.915  1.00  0.00     0.293 HD
ENDBRANCH   8  26
TORSDOF 6
ENDMDL
MODEL 3
REMARK VINA RESULT:    -5.687      6.416      8.271
REMARK INTER + INTRA:          -7.178
REMARK INTER:                  -6.857
REMARK INTRA:                  -0.320
REMARK UNBOUND:                -0.327
REMARK SMILES O=c1c(O)c(-c2ccc(O)c(O)c2)oc2cc(O)cc(O)c12
REMARK SMILES IDX 5 1 3 2 2 3 1 4 22 5 20 6 19 7 17 8 16 9 15 10 14 11 6 12
REMARK SMILES IDX 7 13 8 14 9 15 13 16 11 17 10 18 12 20 4 22 21 24 18 26
REMARK H PARENT 10 19 12 21 4 23 21 25 18 27
REMARK Flexibility Score: inf
ROOT
ATOM      1  C   UNL     1      46.297  23.011  17.052  1.00  0.00     0.180 A 
ATOM      2  C   UNL     1      47.190  21.929  17.183  1.00  0.00     0.208 A 
ATOM      3  C   UNL     1      47.165  21.168  18.362  1.00  0.00     0.238 A 
ATOM      4  O   UNL     1      47.966  20.203  18.495  1.00  0.00    -0.285 OA
ATOM      5  C   UNL     1      46.239  21.487  19.378  1.00  0.00     0.111 A 
ATOM      6  C   UNL     1      46.147  20.768  20.595  1.00  0.00     0.134 A 
ATOM      7  C   UNL     1      45.193  21.143  21.553  1.00  0.00     0.093 A 
ATOM      8  C   UNL     1      44.332  22.216  21.319  1.00  0.00     0.123 A 
ATOM      9  C   UNL     1      44.420  22.931  20.120  1.00  0.00     0.094 A 
ATOM     10  C   UNL     1      45.364  22.575  19.153  1.00  0.00     0.146 A 
ATOM     11  O   UNL     1      45.429  23.273  18.024  1.00  0.00    -0.452 OA
ENDROOT
BRANCH   1  12
ATOM     12  C   UNL     1      46.276  23.871  15.847  1.00  0.00     0.025 A 
ATOM     13  C   UNL     1      45.292  23.663  14.868  1.00  0.00     0.016 A 
ATOM     14  C   UNL     1      45.240  24.476  13.732  1.00  0.00     0.051 A 
ATOM     15  C   UNL     1      46.161  25.518  13.568  1.00  0.00     0.157 A 
ATOM     16  C   UNL     1      47.185  24.932  15.688  1.00  0.00     0.062 A 
ATOM     17  C   UNL     1      47.132  25.751  14.549  1.00  0.00     0.158 A 
BRANCH  15  18
ATOM     18  O   UNL     1      46.113  26.331  12.437  1.00  0.00    -0.504 OA
ATOM     19  H   UNL     1      46.118  25.939  11.502  1.00  0.00     0.293 HD
ENDBRANCH  15  18
BRANCH  17  20
ATOM     20  O   UNL     1      48.039  26.797  14.390  1.00  0.00    -0.504 OA
ATOM     21  H   UNL     1      48.559  26.921  13.531  1.00  0.00     0.293 HD
ENDBRANCH  17  20
ENDBRANCH   1  12
BRANCH   2  22
ATOM     22  O   UNL     1      48.062  21.603  16.141  1.00  0.00    -0.502 OA
ATOM     23  H   UNL     1      48.944  22.081  16.003  1.00  0.00     0.293 HD
ENDBRANCH   2  22
BRANCH   6  24
ATOM     24  O   UNL     1      46.993  19.689  20.857  1.00  0.00    -0.507 OA
ATOM     25  H   UNL     1      47.082  18.913  20.212  1.00  0.00     0.293 HD
ENDBRANCH   6  24
BRANCH   8  26
ATOM     26  O   UNL     1      43.393  22.568  22.286  1.00  0.00    -0.508 OA
ATOM     27  H   UNL     1      43.659  23.064  23.128  1.00  0.00     0.293 HD
ENDBRANCH   8  26
TORSDOF 6
ENDMDL
MODEL 4
REMARK VINA RESULT:    -5.597      3.310      6.602
REMARK INTER + INTRA:          -7.069
REMARK INTER:                  -6.758
REMARK INTRA:                  -0.311
REMARK UNBOUND:                -0.327
REMARK SMILES O=c1c(O)c(-c2ccc(O)c(O)c2)oc2cc(O)cc(O)c12
REMARK SMILES IDX 5 1 3 2 2 3 1 4 22 5 20 6 19 7 17 8 16 9 15 10 14 11 6 12
REMARK SMILES IDX 7 13 8 14 9 15 13 16 11 17 10 18 12 20 4 22 21 24 18 26
REMARK H PARENT 10 19 12 21 4 23 21 25 18 27
REMARK Flexibility Score: inf
ROOT
ATOM      1  C   UNL     1      45.888  25.367  12.850  1.00  0.00     0.180 A 
ATOM      2  C   UNL     1      46.519  26.566  13.236  1.00  0.00     0.208 A 
ATOM      3  C   UNL     1      47.704  26.947  12.587  1.00  0.00     0.238 A 
ATOM      4  O   UNL     1      48.283  28.013  12.930  1.00  0.00    -0.285 OA
ATOM      5  C   UNL     1      48.224  26.139  11.555  1.00  0.00     0.111 A 
ATOM      6  C   UNL     1      49.411  26.455  10.849  1.00  0.00     0.134 A 
ATOM      7  C   UNL     1      49.860  25.603   9.828  1.00  0.00     0.093 A 
ATOM      8  C   UNL     1      49.148  24.448   9.500  1.00  0.00     0.123 A 
ATOM      9  C   UNL     1      47.976  24.130  10.194  1.00  0.00     0.094 A 
ATOM     10  C   UNL     1      47.513  24.964  11.216  1.00  0.00     0.146 A 
ATOM     11  O   UNL     1      46.400  24.638  11.863  1.00  0.00    -0.452 OA
ENDROOT
BRANCH   1  12
ATOM     12  C   UNL     1      44.646  24.888  13.500  1.00  0.00     0.025 A 
ATOM     13  C   UNL     1      44.732  23.982  14.568  1.00  0.00     0.016 A 
ATOM     14  C   UNL     1      43.575  23.532  15.209  1.00  0.00     0.051 A 
ATOM     15  C   UNL     1      42.317  23.995  14.802  1.00  0.00     0.157 A 
ATOM     16  C   UNL     1      43.383  25.366  13.108  1.00  0.00     0.062 A 
ATOM     17  C   UNL     1      42.220  24.917  13.753  1.00  0.00     0.158 A 
BRANCH  15  18
ATOM     18  O   UNL     1      41.160  23.548  15.439  1.00  0.00    -0.504 OA
ATOM     19  H   UNL     1      40.284  23.449  14.939  1.00  0.00     0.293 HD
ENDBRANCH  15  18
BRANCH  17  20
ATOM     20  O   UNL     1      40.969  25.387  13.359  1.00  0.00    -0.504 OA
ATOM     21  H   UNL     1      40.375  25.910  13.992  1.00  0.00     0.293 HD
ENDBRANCH  17  20
ENDBRANCH   1  12
BRANCH   2  22
ATOM     22  O   UNL     1      45.955  27.374  14.226  1.00  0.00    -0.502 OA
ATOM     23  H   UNL     1      45.650  28.322  14.044  1.00  0.00     0.293 HD
ENDBRANCH   2  22
BRANCH   6  24
ATOM     24  O   UNL     1      50.144  27.603  11.152  1.00  0.00    -0.507 OA
ATOM     25  H   UNL     1      51.110  27.709  10.867  1.00  0.00     0.293 HD
ENDBRANCH   6  24
BRANCH   8  26
ATOM     26  O   UNL     1      49.615  23.619   8.481  1.00  0.00    -0.508 OA
ATOM     27  H   UNL     1      50.599  23.569   8.249  1.00  0.00     0.293 HD
ENDBRANCH   8  26
TORSDOF 6
ENDMDL
MODEL 5
REMARK VINA RESULT:    -5.546      2.356      2.716
REMARK INTER + INTRA:          -7.008
REMARK INTER:                  -6.745
REMARK INTRA:                  -0.262
REMARK UNBOUND:                -0.327
REMARK SMILES O=c1c(O)c(-c2ccc(O)c(O)c2)oc2cc(O)cc(O)c12
REMARK SMILES IDX 5 1 3 2 2 3 1 4 22 5 20 6 19 7 17 8 16 9 15 10 14 11 6 12
REMARK SMILES IDX 7 13 8 14 9 15 13 16 11 17 10 18 12 20 4 22 21 24 18 26
REMARK H PARENT 10 19 12 21 4 23 21 25 18 27
REMARK Flexibility Score: inf
ROOT
ATOM      1  C   UNL     1      48.170  24.871  11.895  1.00  0.00     0.180 A 
ATOM      2  C   UNL     1      48.320  26.249  11.641  1.00  0.00     0.208 A 
ATOM      3  C   UNL     1      47.224  27.100  11.851  1.00  0.00     0.238 A 
ATOM      4  O   UNL     1      47.342  28.334  11.619  1.00  0.00    -0.285 OA
ATOM      5  C   UNL     1      46.008  26.566  12.329  1.00  0.00     0.111 A 
ATOM      6  C   UNL     1      44.858  27.356  12.571  1.00  0.00     0.134 A 
ATOM      7  C   UNL     1      43.689  26.751  13.054  1.00  0.00     0.093 A 
ATOM      8  C   UNL     1      43.646  25.378  13.301  1.00  0.00     0.123 A 
ATOM      9  C   UNL     1      44.779  24.593  13.063  1.00  0.00     0.094 A 
ATOM     10  C   UNL     1      45.954  25.175  12.579  1.00  0.00     0.146 A 
ATOM     11  O   UNL     1      47.014  24.406  12.358  1.00  0.00    -0.452 OA
ENDROOT
BRANCH   1  12
ATOM     12  C   UNL     1      49.274  23.907  11.679  1.00  0.00     0.025 A 
ATOM     13  C   UNL     1      49.887  23.302  12.787  1.00  0.00     0.016 A 
ATOM     14  C   UNL     1      50.917  22.374  12.606  1.00  0.00     0.051 A 
ATOM     15  C   UNL     1      51.335  22.027  11.315  1.00  0.00     0.157 A 
ATOM     16  C   UNL     1      49.683  23.540  10.384  1.00  0.00     0.062 A 
ATOM     17  C   UNL     1      50.714  22.607  10.202  1.00  0.00     0.158 A 
BRANCH  15  18
ATOM     18  O   UNL     1      52.362  21.103  11.131  1.00  0.00    -0.504 OA
ATOM     19  H   UNL     1      53.057  20.932  11.848  1.00  0.00     0.293 HD
ENDBRANCH  15  18
BRANCH  17  20
ATOM     20  O   UNL     1      51.123  22.249   8.919  1.00  0.00    -0.504 OA
ATOM     21  H   UNL     1      51.310  22.946   8.208  1.00  0.00     0.293 HD
ENDBRANCH  17  20
ENDBRANCH   1  12
BRANCH   2  22
ATOM     22  O   UNL     1      49.549  26.759  11.217  1.00  0.00    -0.502 OA
ATOM     23  H   UNL     1      50.345  26.165  11.021  1.00  0.00     0.293 HD
ENDBRANCH   2  22
BRANCH   6  24
ATOM     24  O   UNL     1      44.869  28.732  12.335  1.00  0.00    -0.507 OA
ATOM     25  H   UNL     1      44.832  29.112  11.396  1.00  0.00     0.293 HD
ENDBRANCH   6  24
BRANCH   8  26
ATOM     26  O   UNL     1      42.472  24.802  13.782  1.00  0.00    -0.508 OA
ATOM     27  H   UNL     1      42.321  24.655  14.772  1.00  0.00     0.293 HD
ENDBRANCH   8  26
TORSDOF 6
ENDMDL
MODEL 6
REMARK VINA RESULT:    -5.515      3.411      6.548
REMARK INTER + INTRA:          -6.970
REMARK INTER:                  -6.711
REMARK INTRA:                  -0.260
REMARK UNBOUND:                -0.327
REMARK SMILES O=c1c(O)c(-c2ccc(O)c(O)c2)oc2cc(O)cc(O)c12
REMARK SMILES IDX 5 1 3 2 2 3 1 4 22 5 20 6 19 7 17 8 16 9 15 10 14 11 6 12
REMARK SMILES IDX 7 13 8 14 9 15 13 16 11 17 10 18 12 20 4 22 21 24 18 26
REMARK H PARENT 10 19 12 21 4 23 21 25 18 27
REMARK Flexibility Score: inf
ROOT
ATOM      1  C   UNL     1      47.060  24.796  13.923  1.00  0.00     0.180 A 
ATOM      2  C   UNL     1      47.510  26.128  14.025  1.00  0.00     0.208 A 
ATOM      3  C   UNL     1      48.332  26.645  13.011  1.00  0.00     0.238 A 
ATOM      4  O   UNL     1      48.748  27.832  13.095  1.00  0.00    -0.285 OA
ATOM      5  C   UNL     1      48.673  25.834  11.908  1.00  0.00     0.111 A 
ATOM      6  C   UNL     1      49.493  26.280  10.844  1.00  0.00     0.134 A 
ATOM      7  C   UNL     1      49.779  25.415   9.777  1.00  0.00     0.093 A 
ATOM      8  C   UNL     1      49.264  24.117   9.754  1.00  0.00     0.123 A 
ATOM      9  C   UNL     1      48.455  23.671  10.803  1.00  0.00     0.094 A 
ATOM     10  C   UNL     1      48.158  24.516  11.876  1.00  0.00     0.146 A 
ATOM     11  O   UNL     1      47.390  24.066  12.862  1.00  0.00    -0.452 OA
ENDROOT
BRANCH   1  12
ATOM     12  C   UNL     1      46.206  24.173  14.961  1.00  0.00     0.025 A 
ATOM     13  C   UNL     1      44.867  23.877  14.664  1.00  0.00     0.016 A 
ATOM     14  C   UNL     1      44.048  23.270  15.621  1.00  0.00     0.051 A 
ATOM     15  C   UNL     1      44.563  22.937  16.881  1.00  0.00     0.157 A 
ATOM     16  C   UNL     1      46.724  23.818  16.219  1.00  0.00     0.062 A 
ATOM     17  C   UNL     1      45.904  23.207  17.179  1.00  0.00     0.158 A 
BRANCH  15  18
ATOM     18  O   UNL     1      43.749  22.333  17.838  1.00  0.00    -0.504 OA
ATOM     19  H   UNL     1      43.523  21.346  17.795  1.00  0.00     0.293 HD
ENDBRANCH  15  18
BRANCH  17  20
ATOM     20  O   UNL     1      46.416  22.862  18.428  1.00  0.00    -0.504 OA
ATOM     21  H   UNL     1      46.885  21.978  18.583  1.00  0.00     0.293 HD
ENDBRANCH  17  20
ENDBRANCH   1  12
BRANCH   2  22
ATOM     22  O   UNL     1      47.116  26.926  15.102  1.00  0.00    -0.502 OA
ATOM     23  H   UNL     1      46.465  27.694  14.998  1.00  0.00     0.293 HD
ENDBRANCH   2  22
BRANCH   6  24
ATOM     24  O   UNL     1      50.022  27.571  10.837  1.00  0.00    -0.507 OA
ATOM     25  H   UNL     1      50.374  27.999   9.988  1.00  0.00     0.293 HD
ENDBRANCH   6  24
BRANCH   8  26
ATOM     26  O   UNL     1      49.563  23.278   8.683  1.00  0.00    -0.508 OA
ATOM     27  H   UNL     1      50.420  22.738   8.656  1.00  0.00     0.293 HD
ENDBRANCH   8  26
TORSDOF 6
ENDMDL
MODEL 7
REMARK VINA RESULT:    -5.512      4.066      7.009
REMARK INTER + INTRA:          -6.967
REMARK INTER:                  -6.909
REMARK INTRA:                  -0.058
REMARK UNBOUND:                -0.327
REMARK SMILES O=c1c(O)c(-c2ccc(O)c(O)c2)oc2cc(O)cc(O)c12
REMARK SMILES IDX 5 1 3 2 2 3 1 4 22 5 20 6 19 7 17 8 16 9 15 10 14 11 6 12
REMARK SMILES IDX 7 13 8 14 9 15 13 16 11 17 10 18 12 20 4 22 21 24 18 26
REMARK H PARENT 10 19 12 21 4 23 21 25 18 27
REMARK Flexibility Score: inf
ROOT
ATOM      1  C   UNL     1      46.523  24.079  14.522  1.00  0.00     0.180 A 
ATOM      2  C   UNL     1      46.270  23.455  13.284  1.00  0.00     0.208 A 
ATOM      3  C   UNL     1      46.924  23.934  12.138  1.00  0.00     0.238 A 
ATOM      4  O   UNL     1      46.700  23.389  11.023  1.00  0.00    -0.285 OA
ATOM      5  C   UNL     1      47.830  25.009  12.251  1.00  0.00     0.111 A 
ATOM      6  C   UNL     1      48.532  25.548  11.145  1.00  0.00     0.134 A 
ATOM      7  C   UNL     1      49.423  26.614  11.340  1.00  0.00     0.093 A 
ATOM      8  C   UNL     1      49.626  27.149  12.614  1.00  0.00     0.123 A 
ATOM      9  C   UNL     1      48.934  26.622  13.709  1.00  0.00     0.094 A 
ATOM     10  C   UNL     1      48.041  25.561  13.536  1.00  0.00     0.146 A 
ATOM     11  O   UNL     1      47.393  25.081  14.592  1.00  0.00    -0.452 OA
ENDROOT
BRANCH   1  12
ATOM     12  C   UNL     1      45.857  23.644  15.772  1.00  0.00     0.025 A 
ATOM     13  C   UNL     1      44.456  23.601  15.828  1.00  0.00     0.016 A 
ATOM     14  C   UNL     1      43.807  23.174  16.990  1.00  0.00     0.051 A 
ATOM     15  C   UNL     1      44.551  22.769  18.105  1.00  0.00     0.157 A 
ATOM     16  C   UNL     1      46.600  23.217  16.887  1.00  0.00     0.062 A 
ATOM     17  C   UNL     1      45.950  22.785  18.053  1.00  0.00     0.158 A 
BRANCH  15  18
ATOM     18  O   UNL     1      43.907  22.343  19.266  1.00  0.00    -0.504 OA
ATOM     19  H   UNL     1      44.410  22.224  20.138  1.00  0.00     0.293 HD
ENDBRANCH  15  18
BRANCH  17  20
ATOM     20  O   UNL     1      46.688  22.369  19.159  1.00  0.00    -0.504 OA
ATOM     21  H   UNL     1      46.283  22.341  20.087  1.00  0.00     0.293 HD
ENDBRANCH  17  20
ENDBRANCH   1  12
BRANCH   2  22
ATOM     22  O   UNL     1      45.408  22.359  13.209  1.00  0.00    -0.502 OA
ATOM     23  H   UNL     1      44.415  22.436  13.393  1.00  0.00     0.293 HD
ENDBRANCH   2  22
BRANCH   6  24
ATOM     24  O   UNL     1      48.352  25.034   9.860  1.00  0.00    -0.507 OA
ATOM     25  H   UNL     1      48.952  24.306   9.489  1.00  0.00     0.293 HD
ENDBRANCH   6  24
BRANCH   8  26
ATOM     26  O   UNL     1      50.517  28.207  12.781  1.00  0.00    -0.508 OA
ATOM     27  H   UNL     1      51.505  28.049  12.937  1.00  0.00     0.293 HD
ENDBRANCH   8  26
TORSDOF 6
ENDMDL
MODEL 8
REMARK VINA RESULT:    -5.460      6.797      9.119
REMARK INTER + INTRA:          -6.904
REMARK INTER:                  -6.745
REMARK INTRA:                  -0.159
REMARK UNBOUND:                -0.327
REMARK SMILES O=c1c(O)c(-c2ccc(O)c(O)c2)oc2cc(O)cc(O)c12
REMARK SMILES IDX 5 1 3 2 2 3 1 4 22 5 20 6 19 7 17 8 16 9 15 10 14 11 6 12
REMARK SMILES IDX 7 13 8 14 9 15 13 16 11 17 10 18 12 20 4 22 21 24 18 26
REMARK H PARENT 10 19 12 21 4 23 21 25 18 27
REMARK Flexibility Score: inf
ROOT
ATOM      1  C   UNL     1      44.612  22.907  17.611  1.00  0.00     0.180 A 
ATOM      2  C   UNL     1      45.877  23.088  17.017  1.00  0.00     0.208 A 
ATOM      3  C   UNL     1      45.945  23.591  15.708  1.00  0.00     0.238 A 
ATOM      4  O   UNL     1      47.071  23.748  15.162  1.00  0.00    -0.285 OA
ATOM      5  C   UNL     1      44.756  23.922  15.026  1.00  0.00     0.111 A 
ATOM      6  C   UNL     1      44.739  24.438  13.707  1.00  0.00     0.134 A 
ATOM      7  C   UNL     1      43.514  24.752  13.099  1.00  0.00     0.093 A 
ATOM      8  C   UNL     1      42.311  24.562  13.781  1.00  0.00     0.123 A 
ATOM      9  C   UNL     1      42.322  24.052  15.083  1.00  0.00     0.094 A 
ATOM     10  C   UNL     1      43.531  23.731  15.706  1.00  0.00     0.146 A 
ATOM     11  O   UNL     1      43.513  23.244  16.942  1.00  0.00    -0.452 OA
ENDROOT
BRANCH   1  12
ATOM     12  C   UNL     1      44.456  22.364  18.980  1.00  0.00     0.025 A 
ATOM     13  C   UNL     1      44.876  21.053  19.253  1.00  0.00     0.016 A 
ATOM     14  C   UNL     1      44.759  20.526  20.542  1.00  0.00     0.051 A 
ATOM     15  C   UNL     1      44.235  21.309  21.579  1.00  0.00     0.157 A 
ATOM     16  C   UNL     1      43.950  23.153  20.028  1.00  0.00     0.062 A 
ATOM     17  C   UNL     1      43.834  22.626  21.323  1.00  0.00     0.158 A 
BRANCH  15  18
ATOM     18  O   UNL     1      44.115  20.787  22.866  1.00  0.00    -0.504 OA
ATOM     19  H   UNL     1      43.795  19.839  23.026  1.00  0.00     0.293 HD
ENDBRANCH  15  18
BRANCH  17  20
ATOM     20  O   UNL     1      43.326  23.407  22.360  1.00  0.00    -0.504 OA
ATOM     21  H   UNL     1      43.588  23.244  23.324  1.00  0.00     0.293 HD
ENDBRANCH  17  20
ENDBRANCH   1  12
BRANCH   2  22
ATOM     22  O   UNL     1      47.041  22.799  17.733  1.00  0.00    -0.502 OA
ATOM     23  H   UNL     1      47.947  23.163  17.465  1.00  0.00     0.293 HD
ENDBRANCH   2  22
BRANCH   6  24
ATOM     24  O   UNL     1      45.925  24.641  12.999  1.00  0.00    -0.507 OA
ATOM     25  H   UNL     1      46.505  25.457  13.154  1.00  0.00     0.293 HD
ENDBRANCH   6  24
BRANCH   8  26
ATOM     26  O   UNL     1      41.108  24.882  13.155  1.00  0.00    -0.508 OA
ATOM     27  H   UNL     1      40.928  25.812  12.797  1.00  0.00     0.293 HD
ENDBRANCH   8  26
TORSDOF 6
ENDMDL
MODEL 9
REMARK VINA RESULT:    -5.452      2.141      7.209
REMARK INTER + INTRA:          -6.894
REMARK INTER:                  -6.571
REMARK INTRA:                  -0.324
REMARK UNBOUND:                -0.327
REMARK SMILES O=c1c(O)c(-c2ccc(O)c(O)c2)oc2cc(O)cc(O)c12
REMARK SMILES IDX 5 1 3 2 2 3 1 4 22 5 20 6 19 7 17 8 16 9 15 10 14 11 6 12
REMARK SMILES IDX 7 13 8 14 9 15 13 16 11 17 10 18 12 20 4 22 21 24 18 26
REMARK H PARENT 10 19 12 21 4 23 21 25 18 27
REMARK Flexibility Score: inf
ROOT
ATOM      1  C   UNL     1      47.887  24.931  11.629  1.00  0.00     0.180 A 
ATOM      2  C   UNL     1      47.905  24.311  10.364  1.00  0.00     0.208 A 
ATOM      3  C   UNL     1      48.854  23.307  10.116  1.00  0.00     0.238 A 
ATOM      4  O   UNL     1      48.887  22.750   8.985  1.00  0.00    -0.285 OA
ATOM      5  C   UNL     1      49.752  22.928  11.136  1.00  0.00     0.111 A 
ATOM      6  C   UNL     1      50.735  21.923  10.968  1.00  0.00     0.134 A 
ATOM      7  C   UNL     1      51.585  21.596  12.035  1.00  0.00     0.093 A 
ATOM      8  C   UNL     1      51.472  22.252  13.262  1.00  0.00     0.123 A 
ATOM      9  C   UNL     1      50.503  23.246  13.434  1.00  0.00     0.094 A 
ATOM     10  C   UNL     1      49.647  23.587  12.383  1.00  0.00     0.146 A 
ATOM     11  O   UNL     1      48.739  24.538  12.571  1.00  0.00    -0.452 OA
ENDROOT
BRANCH   1  12
ATOM     12  C   UNL     1      46.929  26.011  11.961  1.00  0.00     0.025 A 
ATOM     13  C   UNL     1      47.257  27.341  11.657  1.00  0.00     0.016 A 
ATOM     14  C   UNL     1      46.360  28.374  11.943  1.00  0.00     0.051 A 
ATOM     15  C   UNL     1      45.116  28.089  12.520  1.00  0.00     0.157 A 
ATOM     16  C   UNL     1      45.671  25.727  12.522  1.00  0.00     0.062 A 
ATOM     17  C   UNL     1      44.768  26.763  12.806  1.00  0.00     0.158 A 
BRANCH  15  18
ATOM     18  O   UNL     1      44.219  29.117  12.807  1.00  0.00    -0.504 OA
ATOM     19  H   UNL     1      44.501  30.090  12.781  1.00  0.00     0.293 HD
ENDBRANCH  15  18
BRANCH  17  20
ATOM     20  O   UNL     1      43.525  26.481  13.368  1.00  0.00    -0.504 OA
ATOM     21  H   UNL     1      42.675  26.905  13.016  1.00  0.00     0.293 HD
ENDBRANCH  17  20
ENDBRANCH   1  12
BRANCH   2  22
ATOM     22  O   UNL     1      46.973  24.669   9.388  1.00  0.00    -0.502 OA
ATOM     23  H   UNL     1      46.886  24.170   8.512  1.00  0.00     0.293 HD
ENDBRANCH   2  22
BRANCH   6  24
ATOM     24  O   UNL     1      50.873  21.248   9.754  1.00  0.00    -0.507 OA
ATOM     25  H   UNL     1      51.758  20.848   9.463  1.00  0.00     0.293 HD
ENDBRANCH   6  24
BRANCH   8  26
ATOM     26  O   UNL     1      52.328  21.909  14.306  1.00  0.00    -0.508 OA
ATOM     27  H   UNL     1      53.241  21.507  14.133  1.00  0.00     0.293 HD
ENDBRANCH   8  26
TORSDOF 6
ENDMDL
