MODEL 1
REMARK VINA RESULT:    -5.086      0.000      0.000
REMARK INTER + INTRA:          -9.662
REMARK INTER:                  -8.950
REMARK INTRA:                  -0.712
REMARK UNBOUND:                -0.712
REMARK SMILES CCCCCCC=CCCCCCCCC(=O)[O-]
REMARK SMILES IDX 10 1 11 2 12 3 13 4 14 5 15 6 16 7 17 8 18 9 9 10 8 11 7 12
REMARK SMILES IDX 6 13 5 14 4 15 3 16 2 17 1 18
REMARK H PARENT
REMARK Flexibility Score: inf
ROOT
ATOM      1  C   UNL     1      25.921  50.548  36.801  1.00  0.00     0.004 C 
ENDROOT
BRANCH   1   2
ATOM      2  C   UNL     1      24.867  51.582  37.226  1.00  0.00     0.000 C 
BRANCH   2   3
ATOM      3  C   UNL     1      25.452  52.695  38.112  1.00  0.00     0.000 C 
BRANCH   3   4
ATOM      4  C   UNL     1      26.171  53.780  37.283  1.00  0.00     0.000 C 
BRANCH   4   5
ATOM      5  C   UNL     1      27.375  54.410  38.005  1.00  0.00     0.006 C 
BRANCH   5   6
ATOM      6  C   UNL     1      28.347  53.365  38.564  1.00  0.00     0.053 C 
BRANCH   6   7
ATOM      7  C   UNL     1      29.614  54.020  39.017  1.00  0.00     0.041 C 
ATOM      8  O   UNL     1      29.620  55.239  39.333  1.00  0.00    -0.550 OA
ATOM      9  O   UNL     1      30.779  53.272  39.136  1.00  0.00    -0.550 OA
ENDBRANCH   6   7
ENDBRANCH   5   6
ENDBRANCH   4   5
ENDBRANCH   3   4
ENDBRANCH   2   3
ENDBRANCH   1   2
BRANCH   1  10
ATOM     10  C   UNL     1      25.310  49.174  36.487  1.00  0.00     0.027 C 
BRANCH  10  11
ATOM     11  C   UNL     1      23.851  49.298  36.144  1.00  0.00    -0.031 C 
ATOM     12  C   UNL     1      23.238  48.404  35.355  1.00  0.00    -0.031 C 
BRANCH  12  13
ATOM     13  C   UNL     1      21.777  48.523  35.010  1.00  0.00     0.027 C 
BRANCH  13  14
ATOM     14  C   UNL     1      20.891  48.622  36.263  1.00  0.00     0.004 C 
BRANCH  14  15
ATOM     15  C   UNL     1      19.412  48.934  35.938  1.00  0.00     0.000 C 
BRANCH  15  16
ATOM     16  C   UNL     1      18.515  49.032  37.184  1.00  0.00    -0.000 C 
BRANCH  16  17
ATOM     17  C   UNL     1      17.109  48.462  36.951  1.00  0.00    -0.003 C 
ATOM     18  C   UNL     1      17.174  47.024  36.445  1.00  0.00     0.004 C 
ENDBRANCH  16  17
ENDBRANCH  15  16
ENDBRANCH  14  15
ENDBRANCH  13  14
ENDBRANCH  12  13
ENDBRANCH  10  11
ENDBRANCH   1  10
TORSDOF 13
ENDMDL
MODEL 2
REMARK VINA RESULT:    -5.003      3.543      5.484
REMARK INTER + INTRA:          -9.517
REMARK INTER:                  -8.674
REMARK INTRA:                  -0.843
REMARK UNBOUND:                -0.712
REMARK SMILES CCCCCCC=CCCCCCCCC(=O)[O-]
REMARK SMILES IDX 10 1 11 2 12 3 13 4 14 5 15 6 16 7 17 8 18 9 9 10 8 11 7 12
REMARK SMILES IDX 6 13 5 14 4 15 3 16 2 17 1 18
REMARK H PARENT
REMARK Flexibility Score: inf
ROOT
ATOM      1  C   UNL     1      29.473  49.401  37.579  1.00  0.00     0.004 C 
ENDROOT
BRANCH   1   2
ATOM      2  C   UNL     1      30.865  49.429  38.228  1.00  0.00     0.000 C 
BRANCH   2   3
ATOM      3  C   UNL     1      30.996  50.522  39.303  1.00  0.00     0.000 C 
BRANCH   3   4
ATOM      4  C   UNL     1      29.955  51.646  39.119  1.00  0.00     0.000 C 
BRANCH   4   5
ATOM      5  C   UNL     1      30.565  53.058  39.128  1.00  0.00     0.006 C 
BRANCH   5   6
ATOM      6  C   UNL     1      29.551  54.148  38.762  1.00  0.00     0.053 C 
BRANCH   6   7
ATOM      7  C   UNL     1      29.864  55.418  39.488  1.00  0.00     0.041 C 
ATOM      8  O   UNL     1      29.038  56.369  39.489  1.00  0.00    -0.550 OA
ATOM      9  O   UNL     1      31.048  55.536  40.207  1.00  0.00    -0.550 OA
ENDBRANCH   6   7
ENDBRANCH   5   6
ENDBRANCH   4   5
ENDBRANCH   3   4
ENDBRANCH   2   3
ENDBRANCH   1   2
BRANCH   1  10
ATOM     10  C   UNL     1      29.406  48.466  36.361  1.00  0.00     0.027 C 
BRANCH  10  11
ATOM     11  C   UNL     1      27.986  48.069  36.065  1.00  0.00    -0.031 C 
ATOM     12  C   UNL     1      26.963  48.908  36.282  1.00  0.00    -0.031 C 
BRANCH  12  13
ATOM     13  C   UNL     1      25.540  48.515  35.985  1.00  0.00     0.027 C 
BRANCH  13  14
ATOM     14  C   UNL     1      24.542  49.624  36.356  1.00  0.00     0.004 C 
BRANCH  14  15
ATOM     15  C   UNL     1      25.083  50.596  37.430  1.00  0.00     0.000 C 
BRANCH  15  16
ATOM     16  C   UNL     1      25.010  52.075  37.015  1.00  0.00    -0.000 C 
BRANCH  16  17
ATOM     17  C   UNL     1      25.573  53.021  38.084  1.00  0.00    -0.003 C 
ATOM     18  C   UNL     1      26.533  54.036  37.471  1.00  0.00     0.004 C 
ENDBRANCH  16  17
ENDBRANCH  15  16
ENDBRANCH  14  15
ENDBRANCH  13  14
ENDBRANCH  12  13
ENDBRANCH  10  11
ENDBRANCH   1  10
TORSDOF 13
ENDMDL
MODEL 3
REMARK VINA RESULT:    -4.925      3.635      6.617
REMARK INTER + INTRA:          -9.379
REMARK INTER:                  -8.492
REMARK INTRA:                  -0.887
REMARK UNBOUND:                -0.712
REMARK SMILES CCCCCCC=CCCCCCCCC(=O)[O-]
REMARK SMILES IDX 10 1 11 2 12 3 13 4 14 5 15 6 16 7 17 8 18 9 9 10 8 11 7 12
REMARK SMILES IDX 6 13 5 14 4 15 3 16 2 17 1 18
REMARK H PARENT
REMARK Flexibility Score: inf
ROOT
ATOM      1  C   UNL     1      24.820  51.521  37.629  1.00  0.00     0.004 C 
ENDROOT
BRANCH   1   2
ATOM      2  C   UNL     1      25.556  52.698  36.972  1.00  0.00     0.000 C 
BRANCH   2   3
ATOM      3  C   UNL     1      26.076  53.720  37.998  1.00  0.00     0.000 C 
BRANCH   3   4
ATOM      4  C   UNL     1      27.617  53.810  38.000  1.00  0.00     0.000 C 
BRANCH   4   5
ATOM      5  C   UNL     1      28.160  55.057  38.719  1.00  0.00     0.006 C 
BRANCH   5   6
ATOM      6  C   UNL     1      29.634  54.922  39.115  1.00  0.00     0.053 C 
BRANCH   6   7
ATOM      7  C   UNL     1      30.099  56.153  39.827  1.00  0.00     0.041 C 
ATOM      8  O   UNL     1      31.040  56.086  40.661  1.00  0.00    -0.550 OA
ATOM      9  O   UNL     1      29.526  57.385  39.533  1.00  0.00    -0.550 OA
ENDBRANCH   6   7
ENDBRANCH   5   6
ENDBRANCH   4   5
ENDBRANCH   3   4
ENDBRANCH   2   3
ENDBRANCH   1   2
BRANCH   1  10
ATOM     10  C   UNL     1      24.283  50.511  36.603  1.00  0.00     0.027 C 
BRANCH  10  11
ATOM     11  C   UNL     1      25.132  49.270  36.574  1.00  0.00    -0.031 C 
ATOM     12  C   UNL     1      26.440  49.322  36.280  1.00  0.00    -0.031 C 
BRANCH  12  13
ATOM     13  C   UNL     1      27.294  48.083  36.251  1.00  0.00     0.027 C 
BRANCH  13  14
ATOM     14  C   UNL     1      28.795  48.413  36.181  1.00  0.00     0.004 C 
BRANCH  14  15
ATOM     15  C   UNL     1      29.244  49.433  37.251  1.00  0.00     0.000 C 
BRANCH  15  16
ATOM     16  C   UNL     1      30.535  49.030  37.984  1.00  0.00    -0.000 C 
BRANCH  16  17
ATOM     17  C   UNL     1      30.967  50.059  39.037  1.00  0.00    -0.003 C 
ATOM     18  C   UNL     1      30.061  51.286  39.013  1.00  0.00     0.004 C 
ENDBRANCH  16  17
ENDBRANCH  15  16
ENDBRANCH  14  15
ENDBRANCH  13  14
ENDBRANCH  12  13
ENDBRANCH  10  11
ENDBRANCH   1  10
TORSDOF 13
ENDMDL
MODEL 4
REMARK VINA RESULT:    -4.919      4.286      8.859
REMARK INTER + INTRA:          -9.369
REMARK INTER:                  -8.240
REMARK INTRA:                  -1.129
REMARK UNBOUND:                -0.712
REMARK SMILES CCCCCCC=CCCCCCCCC(=O)[O-]
REMARK SMILES IDX 10 1 11 2 12 3 13 4 14 5 15 6 16 7 17 8 18 9 9 10 8 11 7 12
REMARK SMILES IDX 6 13 5 14 4 15 3 16 2 17 1 18
REMARK H PARENT
REMARK Flexibility Score: inf
ROOT
ATOM      1  C   UNL     1      25.952  54.008  38.035  1.00  0.00     0.004 C 
ENDROOT
BRANCH   1   2
ATOM      2  C   UNL     1      25.896  52.937  36.935  1.00  0.00     0.000 C 
BRANCH   2   3
ATOM      3  C   UNL     1      25.216  51.639  37.405  1.00  0.00     0.000 C 
BRANCH   3   4
ATOM      4  C   UNL     1      25.924  50.381  36.860  1.00  0.00     0.000 C 
BRANCH   4   5
ATOM      5  C   UNL     1      24.959  49.236  36.504  1.00  0.00     0.006 C 
BRANCH   5   6
ATOM      6  C   UNL     1      23.561  49.734  36.119  1.00  0.00     0.053 C 
BRANCH   6   7
ATOM      7  C   UNL     1      22.725  48.601  35.612  1.00  0.00     0.041 C 
ATOM      8  O   UNL     1      23.233  47.722  34.866  1.00  0.00    -0.550 OA
ATOM      9  O   UNL     1      21.396  48.487  36.002  1.00  0.00    -0.550 OA
ENDBRANCH   6   7
ENDBRANCH   5   6
ENDBRANCH   4   5
ENDBRANCH   3   4
ENDBRANCH   2   3
ENDBRANCH   1   2
BRANCH   1  10
ATOM     10  C   UNL     1      27.354  54.615  38.199  1.00  0.00     0.027 C 
BRANCH  10  11
ATOM     11  C   UNL     1      28.365  53.555  38.536  1.00  0.00    -0.031 C 
ATOM     12  C   UNL     1      29.642  53.864  38.807  1.00  0.00    -0.031 C 
BRANCH  12  13
ATOM     13  C   UNL     1      30.657  52.806  39.147  1.00  0.00     0.027 C 
BRANCH  13  14
ATOM     14  C   UNL     1      30.042  51.396  39.172  1.00  0.00     0.004 C 
BRANCH  14  15
ATOM     15  C   UNL     1      31.099  50.270  39.138  1.00  0.00     0.000 C 
BRANCH  15  16
ATOM     16  C   UNL     1      30.797  49.171  38.105  1.00  0.00    -0.000 C 
BRANCH  16  17
ATOM     17  C   UNL     1      29.456  49.380  37.390  1.00  0.00    -0.003 C 
ATOM     18  C   UNL     1      29.252  48.344  36.288  1.00  0.00     0.004 C 
ENDBRANCH  16  17
ENDBRANCH  15  16
ENDBRANCH  14  15
ENDBRANCH  13  14
ENDBRANCH  12  13
ENDBRANCH  10  11
ENDBRANCH   1  10
TORSDOF 13
ENDMDL
MODEL 5
REMARK VINA RESULT:    -4.875     12.648     14.619
REMARK INTER + INTRA:          -9.292
REMARK INTER:                  -8.801
REMARK INTRA:                  -0.491
REMARK UNBOUND:                -0.712
REMARK SMILES CCCCCCC=CCCCCCCCC(=O)[O-]
REMARK SMILES IDX 10 1 11 2 12 3 13 4 14 5 15 6 16 7 17 8 18 9 9 10 8 11 7 12
REMARK SMILES IDX 6 13 5 14 4 15 3 16 2 17 1 18
REMARK H PARENT
REMARK Flexibility Score: inf
ROOT
ATOM      1  C   UNL     1      35.800  42.711  38.798  1.00  0.00     0.004 C 
ENDROOT
BRANCH   1   2
ATOM      2  C   UNL     1      35.851  41.877  40.087  1.00  0.00     0.000 C 
BRANCH   2   3
ATOM      3  C   UNL     1      34.601  42.065  40.965  1.00  0.00     0.000 C 
BRANCH   3   4
ATOM      4  C   UNL     1      33.839  43.362  40.621  1.00  0.00     0.000 C 
BRANCH   4   5
ATOM      5  C   UNL     1      33.975  44.459  41.691  1.00  0.00     0.006 C 
BRANCH   5   6
ATOM      6  C   UNL     1      33.312  44.080  43.020  1.00  0.00     0.053 C 
BRANCH   6   7
ATOM      7  C   UNL     1      32.053  43.309  42.774  1.00  0.00     0.041 C 
ATOM      8  O   UNL     1      31.813  42.260  43.428  1.00  0.00    -0.550 OA
ATOM      9  O   UNL     1      31.119  43.776  41.857  1.00  0.00    -0.550 OA
ENDBRANCH   6   7
ENDBRANCH   5   6
ENDBRANCH   4   5
ENDBRANCH   3   4
ENDBRANCH   2   3
ENDBRANCH   1   2
BRANCH   1  10
ATOM     10  C   UNL     1      36.541  42.041  37.631  1.00  0.00     0.027 C 
BRANCH  10  11
ATOM     11  C   UNL     1      36.616  42.960  36.443  1.00  0.00    -0.031 C 
ATOM     12  C   UNL     1      36.338  44.268  36.549  1.00  0.00    -0.031 C 
BRANCH  12  13
ATOM     13  C   UNL     1      36.414  45.192  35.363  1.00  0.00     0.027 C 
BRANCH  13  14
ATOM     14  C   UNL     1      35.317  44.896  34.325  1.00  0.00     0.004 C 
BRANCH  14  15
ATOM     15  C   UNL     1      35.057  46.077  33.362  1.00  0.00     0.000 C 
BRANCH  15  16
ATOM     16  C   UNL     1      36.336  46.647  32.727  1.00  0.00    -0.000 C 
BRANCH  16  17
ATOM     17  C   UNL     1      36.454  48.168  32.891  1.00  0.00    -0.003 C 
ATOM     18  C   UNL     1      35.708  48.648  34.133  1.00  0.00     0.004 C 
ENDBRANCH  16  17
ENDBRANCH  15  16
ENDBRANCH  14  15
ENDBRANCH  13  14
ENDBRANCH  12  13
ENDBRANCH  10  11
ENDBRANCH   1  10
TORSDOF 13
ENDMDL
MODEL 6
REMARK VINA RESULT:    -4.766      1.092      1.799
REMARK INTER + INTRA:          -9.100
REMARK INTER:                  -8.569
REMARK INTRA:                  -0.531
REMARK UNBOUND:                -0.712
REMARK SMILES CCCCCCC=CCCCCCCCC(=O)[O-]
REMARK SMILES IDX 10 1 11 2 12 3 13 4 14 5 15 6 16 7 17 8 18 9 9 10 8 11 7 12
REMARK SMILES IDX 6 13 5 14 4 15 3 16 2 17 1 18
REMARK H PARENT
REMARK Flexibility Score: inf
ROOT
ATOM      1  C   UNL     1      24.625  51.693  37.317  1.00  0.00     0.004 C 
ENDROOT
BRANCH   1   2
ATOM      2  C   UNL     1      25.351  53.045  37.243  1.00  0.00     0.000 C 
BRANCH   2   3
ATOM      3  C   UNL     1      26.442  53.191  38.317  1.00  0.00     0.000 C 
BRANCH   3   4
ATOM      4  C   UNL     1      27.680  53.947  37.789  1.00  0.00     0.000 C 
BRANCH   4   5
ATOM      5  C   UNL     1      28.173  55.056  38.734  1.00  0.00     0.006 C 
BRANCH   5   6
ATOM      6  C   UNL     1      29.651  54.904  39.111  1.00  0.00     0.053 C 
BRANCH   6   7
ATOM      7  C   UNL     1      30.132  56.119  39.841  1.00  0.00     0.041 C 
ATOM      8  O   UNL     1      31.100  56.035  40.643  1.00  0.00    -0.550 OA
ATOM      9  O   UNL     1      29.543  57.354  39.600  1.00  0.00    -0.550 OA
ENDBRANCH   6   7
ENDBRANCH   5   6
ENDBRANCH   4   5
ENDBRANCH   3   4
ENDBRANCH   2   3
ENDBRANCH   1   2
BRANCH   1  10
ATOM     10  C   UNL     1      25.583  50.499  37.192  1.00  0.00     0.027 C 
BRANCH  10  11
ATOM     11  C   UNL     1      24.951  49.379  36.414  1.00  0.00    -0.031 C 
ATOM     12  C   UNL     1      23.647  49.394  36.097  1.00  0.00    -0.031 C 
BRANCH  12  13
ATOM     13  C   UNL     1      23.010  48.276  35.316  1.00  0.00     0.027 C 
BRANCH  13  14
ATOM     14  C   UNL     1      21.535  48.565  34.986  1.00  0.00     0.004 C 
BRANCH  14  15
ATOM     15  C   UNL     1      20.638  48.659  36.242  1.00  0.00     0.000 C 
BRANCH  15  16
ATOM     16  C   UNL     1      19.162  48.946  35.925  1.00  0.00    -0.000 C 
BRANCH  16  17
ATOM     17  C   UNL     1      18.227  48.621  37.097  1.00  0.00    -0.003 C 
ATOM     18  C   UNL     1      17.071  47.731  36.650  1.00  0.00     0.004 C 
ENDBRANCH  16  17
ENDBRANCH  15  16
ENDBRANCH  14  15
ENDBRANCH  13  14
ENDBRANCH  12  13
ENDBRANCH  10  11
ENDBRANCH   1  10
TORSDOF 13
ENDMDL
MODEL 7
REMARK VINA RESULT:    -4.718      4.378      8.485
REMARK INTER + INTRA:          -9.015
REMARK INTER:                  -7.985
REMARK INTRA:                  -1.030
REMARK UNBOUND:                -0.712
REMARK SMILES CCCCCCC=CCCCCCCCC(=O)[O-]
REMARK SMILES IDX 10 1 11 2 12 3 13 4 14 5 15 6 16 7 17 8 18 9 9 10 8 11 7 12
REMARK SMILES IDX 6 13 5 14 4 15 3 16 2 17 1 18
REMARK H PARENT
REMARK Flexibility Score: inf
ROOT
ATOM      1  C   UNL     1      29.573  49.522  37.804  1.00  0.00     0.004 C 
ENDROOT
BRANCH   1   2
ATOM      2  C   UNL     1      29.817  48.623  36.582  1.00  0.00     0.000 C 
BRANCH   2   3
ATOM      3  C   UNL     1      28.529  47.951  36.074  1.00  0.00     0.000 C 
BRANCH   3   4
ATOM      4  C   UNL     1      27.321  48.911  36.107  1.00  0.00     0.000 C 
BRANCH   4   5
ATOM      5  C   UNL     1      25.961  48.190  36.091  1.00  0.00     0.006 C 
BRANCH   5   6
ATOM      6  C   UNL     1      24.790  49.121  36.420  1.00  0.00     0.053 C 
BRANCH   6   7
ATOM      7  C   UNL     1      23.556  48.685  35.693  1.00  0.00     0.041 C 
ATOM      8  O   UNL     1      22.503  49.372  35.763  1.00  0.00    -0.550 OA
ATOM      9  O   UNL     1      23.583  47.546  34.898  1.00  0.00    -0.550 OA
ENDBRANCH   6   7
ENDBRANCH   5   6
ENDBRANCH   4   5
ENDBRANCH   3   4
ENDBRANCH   2   3
ENDBRANCH   1   2
BRANCH   1  10
ATOM     10  C   UNL     1      30.792  49.595  38.737  1.00  0.00     0.027 C 
BRANCH  10  11
ATOM     11  C   UNL     1      31.135  51.022  39.064  1.00  0.00    -0.031 C 
ATOM     12  C   UNL     1      30.209  51.992  39.027  1.00  0.00    -0.031 C 
BRANCH  12  13
ATOM     13  C   UNL     1      30.547  53.422  39.356  1.00  0.00     0.027 C 
BRANCH  13  14
ATOM     14  C   UNL     1      29.439  54.395  38.919  1.00  0.00     0.004 C 
BRANCH  14  15
ATOM     15  C   UNL     1      28.270  53.698  38.187  1.00  0.00     0.000 C 
BRANCH  15  16
ATOM     16  C   UNL     1      27.021  54.583  38.037  1.00  0.00    -0.000 C 
BRANCH  16  17
ATOM     17  C   UNL     1      25.716  53.778  38.058  1.00  0.00    -0.003 C 
ATOM     18  C   UNL     1      25.923  52.377  37.488  1.00  0.00     0.004 C 
ENDBRANCH  16  17
ENDBRANCH  15  16
ENDBRANCH  14  15
ENDBRANCH  13  14
ENDBRANCH  12  13
ENDBRANCH  10  11
ENDBRANCH   1  10
TORSDOF 13
ENDMDL
MODEL 8
REMARK VINA RESULT:    -4.664      4.630     10.547
REMARK INTER + INTRA:          -8.919
REMARK INTER:                  -8.471
REMARK INTRA:                  -0.448
REMARK UNBOUND:                -0.712
REMARK SMILES CCCCCCC=CCCCCCCCC(=O)[O-]
REMARK SMILES IDX 10 1 11 2 12 3 13 4 14 5 15 6 16 7 17 8 18 9 9 10 8 11 7 12
REMARK SMILES IDX 6 13 5 14 4 15 3 16 2 17 1 18
REMARK H PARENT
REMARK Flexibility Score: inf
ROOT
ATOM      1  C   UNL     1      26.074  53.800  38.141  1.00  0.00     0.004 C 
ENDROOT
BRANCH   1   2
ATOM      2  C   UNL     1      25.276  52.996  37.104  1.00  0.00     0.000 C 
BRANCH   2   3
ATOM      3  C   UNL     1      24.914  51.584  37.598  1.00  0.00     0.000 C 
BRANCH   3   4
ATOM      4  C   UNL     1      25.791  50.496  36.944  1.00  0.00     0.000 C 
BRANCH   4   5
ATOM      5  C   UNL     1      24.989  49.298  36.407  1.00  0.00     0.006 C 
BRANCH   5   6
ATOM      6  C   UNL     1      23.505  49.621  36.197  1.00  0.00     0.053 C 
BRANCH   6   7
ATOM      7  C   UNL     1      22.853  48.562  35.365  1.00  0.00     0.041 C 
ATOM      8  O   UNL     1      21.666  48.706  34.971  1.00  0.00    -0.550 OA
ATOM      9  O   UNL     1      23.572  47.436  34.982  1.00  0.00    -0.550 OA
ENDBRANCH   6   7
ENDBRANCH   5   6
ENDBRANCH   4   5
ENDBRANCH   3   4
ENDBRANCH   2   3
ENDBRANCH   1   2
BRANCH   1  10
ATOM     10  C   UNL     1      27.572  53.875  37.807  1.00  0.00     0.027 C 
BRANCH  10  11
ATOM     11  C   UNL     1      28.287  54.811  38.742  1.00  0.00    -0.031 C 
ATOM     12  C   UNL     1      29.609  54.723  38.946  1.00  0.00    -0.031 C 
BRANCH  12  13
ATOM     13  C   UNL     1      30.330  55.659  39.880  1.00  0.00     0.027 C 
BRANCH  13  14
ATOM     14  C   UNL     1      29.517  56.933  40.166  1.00  0.00     0.004 C 
BRANCH  14  15
ATOM     15  C   UNL     1      29.548  57.949  39.001  1.00  0.00     0.000 C 
BRANCH  15  16
ATOM     16  C   UNL     1      29.208  59.386  39.427  1.00  0.00    -0.000 C 
BRANCH  16  17
ATOM     17  C   UNL     1      29.264  60.382  38.261  1.00  0.00    -0.003 C 
ATOM     18  C   UNL     1      29.981  61.666  38.667  1.00  0.00     0.004 C 
ENDBRANCH  16  17
ENDBRANCH  15  16
ENDBRANCH  14  15
ENDBRANCH  13  14
ENDBRANCH  12  13
ENDBRANCH  10  11
ENDBRANCH   1  10
TORSDOF 13
ENDMDL
MODEL 9
REMARK VINA RESULT:    -3.087     12.061     14.679
REMARK INTER + INTRA:          -6.145
REMARK INTER:                  -5.615
REMARK INTRA:                  -0.530
REMARK UNBOUND:                -0.712
REMARK SMILES CCCCCCC=CCCCCCCCC(=O)[O-]
REMARK SMILES IDX 10 1 11 2 12 3 13 4 14 5 15 6 16 7 17 8 18 9 9 10 8 11 7 12
REMARK SMILES IDX 6 13 5 14 4 15 3 16 2 17 1 18
REMARK H PARENT
REMARK Flexibility Score: inf
ROOT
ATOM      1  C   UNL     1      34.955  43.802  39.970  1.00  0.00     0.004 C 
ENDROOT
BRANCH   1   2
ATOM      2  C   UNL     1      34.822  43.441  41.457  1.00  0.00     0.000 C 
BRANCH   2   3
ATOM      3  C   UNL     1      33.959  44.447  42.237  1.00  0.00     0.000 C 
BRANCH   3   4
ATOM      4  C   UNL     1      33.346  43.824  43.509  1.00  0.00     0.000 C 
BRANCH   4   5
ATOM      5  C   UNL     1      32.230  42.806  43.220  1.00  0.00     0.006 C 
BRANCH   5   6
ATOM      6  C   UNL     1      31.041  43.420  42.474  1.00  0.00     0.053 C 
BRANCH   6   7
ATOM      7  C   UNL     1      31.191  43.221  40.998  1.00  0.00     0.041 C 
ATOM      8  O   UNL     1      30.853  44.132  40.197  1.00  0.00    -0.550 OA
ATOM      9  O   UNL     1      31.749  42.046  40.508  1.00  0.00    -0.550 OA
ENDBRANCH   6   7
ENDBRANCH   5   6
ENDBRANCH   4   5
ENDBRANCH   3   4
ENDBRANCH   2   3
ENDBRANCH   1   2
BRANCH   1  10
ATOM     10  C   UNL     1      35.803  42.788  39.187  1.00  0.00     0.027 C 
BRANCH  10  11
ATOM     11  C   UNL     1      36.574  43.464  38.088  1.00  0.00    -0.031 C 
ATOM     12  C   UNL     1      36.009  43.741  36.904  1.00  0.00    -0.031 C 
BRANCH  12  13
ATOM     13  C   UNL     1      36.776  44.420  35.800  1.00  0.00     0.027 C 
BRANCH  13  14
ATOM     14  C   UNL     1      36.003  45.606  35.199  1.00  0.00     0.004 C 
BRANCH  14  15
ATOM     15  C   UNL     1      36.568  46.074  33.839  1.00  0.00     0.000 C 
BRANCH  15  16
ATOM     16  C   UNL     1      37.051  47.534  33.842  1.00  0.00    -0.000 C 
BRANCH  16  17
ATOM     17  C   UNL     1      37.125  48.139  32.434  1.00  0.00    -0.003 C 
ATOM     18  C   UNL     1      36.916  47.072  31.363  1.00  0.00     0.004 C 
ENDBRANCH  16  17
ENDBRANCH  15  16
ENDBRANCH  14  15
ENDBRANCH  13  14
ENDBRANCH  12  13
ENDBRANCH  10  11
ENDBRANCH   1  10
TORSDOF 13
ENDMDL
