MODEL 1
REMARK VINA RESULT:    -3.585      0.000      0.000
REMARK INTER + INTRA:          -5.287
REMARK INTER:                  -4.843
REMARK INTRA:                  -0.444
REMARK UNBOUND:                -0.444
REMARK SMILES [NH3+]CCCC[C@@H]([NH3+])C(=O)[O-]
REMARK SMILES IDX 4 1 3 2 2 3 1 4 5 8 6 9 7 10 8 14 9 15 10 16
REMARK H PARENT 1 5 1 6 1 7 7 11 7 12 7 13
REMARK Flexibility Score: inf
ROOT
ATOM      1  C   UNL     1      -9.880   9.824 -34.987  1.00  0.00     0.012 C 
ENDROOT
BRANCH   1   2
ATOM      2  C   UNL     1      -8.906  10.620 -35.875  1.00  0.00     0.061 C 
BRANCH   2   3
ATOM      3  C   UNL     1      -9.389  12.029 -36.269  1.00  0.00     0.258 C 
BRANCH   3   4
ATOM      4  N   UNL     1     -10.849  12.125 -36.320  1.00  0.00    -0.358 N 
ATOM      5  H   UNL     1     -11.247  11.171 -36.472  1.00  0.00     0.344 HD
ATOM      6  H   UNL     1     -11.144  12.734 -37.117  1.00  0.00     0.344 HD
ATOM      7  H   UNL     1     -11.222  12.505 -35.420  1.00  0.00     0.344 HD
ENDBRANCH   3   4
ENDBRANCH   2   3
ENDBRANCH   1   2
BRANCH   1   8
ATOM      8  C   UNL     1      -9.336   9.584 -33.567  1.00  0.00     0.072 C 
BRANCH   8   9
ATOM      9  C   UNL     1      -9.807  10.658 -32.560  1.00  0.00     0.227 C 
BRANCH   9  10
ATOM     10  N   UNL     1      -8.980  11.872 -32.627  1.00  0.00    -0.350 N 
ATOM     11  H   UNL     1      -8.750  12.200 -31.660  1.00  0.00     0.345 HD
ATOM     12  H   UNL     1      -9.484  12.636 -33.134  1.00  0.00     0.345 HD
ATOM     13  H   UNL     1      -8.077  11.669 -33.110  1.00  0.00     0.345 HD
ENDBRANCH   9  10
BRANCH   9  14
ATOM     14  C   UNL     1     -11.250  10.998 -32.820  1.00  0.00     0.099 C 
ATOM     15  O   UNL     1     -11.563  12.110 -33.324  1.00  0.00    -0.544 OA
ATOM     16  O   UNL     1     -12.247  10.077 -32.523  1.00  0.00    -0.544 OA
ENDBRANCH   9  14
ENDBRANCH   8   9
ENDBRANCH   1   8
TORSDOF 7
ENDMDL
MODEL 2
REMARK VINA RESULT:    -2.967      1.702      1.920
REMARK INTER + INTRA:          -4.452
REMARK INTER:                  -3.992
REMARK INTRA:                  -0.461
REMARK UNBOUND:                -0.444
REMARK SMILES [NH3+]CCCC[C@@H]([NH3+])C(=O)[O-]
REMARK SMILES IDX 4 1 3 2 2 3 1 4 5 8 6 9 7 10 8 14 9 15 10 16
REMARK H PARENT 1 5 1 6 1 7 7 11 7 12 7 13
REMARK Flexibility Score: inf
ROOT
ATOM      1  C   UNL     1      -8.880  10.072 -33.916  1.00  0.00     0.012 C 
ENDROOT
BRANCH   1   2
ATOM      2  C   UNL     1      -9.196  10.160 -35.420  1.00  0.00     0.061 C 
BRANCH   2   3
ATOM      3  C   UNL     1      -9.362  11.590 -35.968  1.00  0.00     0.258 C 
BRANCH   3   4
ATOM      4  N   UNL     1     -10.764  11.933 -36.215  1.00  0.00    -0.358 N 
ATOM      5  H   UNL     1     -11.327  11.053 -36.257  1.00  0.00     0.344 HD
ATOM      6  H   UNL     1     -10.859  12.426 -37.132  1.00  0.00     0.344 HD
ATOM      7  H   UNL     1     -11.135  12.534 -35.444  1.00  0.00     0.344 HD
ENDBRANCH   3   4
ENDBRANCH   2   3
ENDBRANCH   1   2
BRANCH   1   8
ATOM      8  C   UNL     1      -9.881   9.194 -33.144  1.00  0.00     0.072 C 
BRANCH   8   9
ATOM      9  C   UNL     1     -11.337   9.698 -33.271  1.00  0.00     0.227 C 
BRANCH   9  10
ATOM     10  N   UNL     1     -12.291   8.784 -32.627  1.00  0.00    -0.350 N 
ATOM     11  H   UNL     1     -11.852   7.842 -32.502  1.00  0.00     0.345 HD
ATOM     12  H   UNL     1     -13.156   8.681 -33.207  1.00  0.00     0.345 HD
ATOM     13  H   UNL     1     -12.548   9.137 -31.679  1.00  0.00     0.345 HD
ENDBRANCH   9  10
BRANCH   9  14
ATOM     14  C   UNL     1     -11.451  11.074 -32.669  1.00  0.00     0.099 C 
ATOM     15  O   UNL     1     -10.921  11.328 -31.554  1.00  0.00    -0.544 OA
ATOM     16  O   UNL     1     -12.126  12.079 -33.351  1.00  0.00    -0.544 OA
ENDBRANCH   9  14
ENDBRANCH   8   9
ENDBRANCH   1   8
TORSDOF 7
ENDMDL
MODEL 3
REMARK VINA RESULT:    -2.157      1.312      1.588
REMARK INTER + INTRA:          -3.358
REMARK INTER:                  -3.312
REMARK INTRA:                  -0.046
REMARK UNBOUND:                -0.444
REMARK SMILES [NH3+]CCCC[C@@H]([NH3+])C(=O)[O-]
REMARK SMILES IDX 4 1 3 2 2 3 1 4 5 8 6 9 7 10 8 14 9 15 10 16
REMARK H PARENT 1 5 1 6 1 7 7 11 7 12 7 13
REMARK Flexibility Score: inf
ROOT
ATOM      1  C   UNL     1      -9.923  10.041 -34.759  1.00  0.00     0.012 C 
ENDROOT
BRANCH   1   2
ATOM      2  C   UNL     1      -8.884  10.768 -35.633  1.00  0.00     0.061 C 
BRANCH   2   3
ATOM      3  C   UNL     1      -9.346  12.124 -36.200  1.00  0.00     0.258 C 
BRANCH   3   4
ATOM      4  N   UNL     1     -10.764  12.124 -36.563  1.00  0.00    -0.358 N 
ATOM      5  H   UNL     1     -10.860  11.820 -37.558  1.00  0.00     0.344 HD
ATOM      6  H   UNL     1     -11.160  13.087 -36.475  1.00  0.00     0.344 HD
ATOM      7  H   UNL     1     -11.297  11.459 -35.955  1.00  0.00     0.344 HD
ENDBRANCH   3   4
ENDBRANCH   2   3
ENDBRANCH   1   2
BRANCH   1   8
ATOM      8  C   UNL     1      -9.734  10.309 -33.256  1.00  0.00     0.072 C 
BRANCH   8   9
ATOM      9  C   UNL     1     -10.999  10.902 -32.593  1.00  0.00     0.227 C 
BRANCH   9  10
ATOM     10  N   UNL     1     -11.451  12.125 -33.272  1.00  0.00    -0.350 N 
ATOM     11  H   UNL     1     -12.046  11.875 -34.096  1.00  0.00     0.345 HD
ATOM     12  H   UNL     1     -10.635  12.691 -33.601  1.00  0.00     0.345 HD
ATOM     13  H   UNL     1     -12.038  12.701 -32.628  1.00  0.00     0.345 HD
ENDBRANCH   9  10
BRANCH   9  14
ATOM     14  C   UNL     1     -12.098   9.873 -32.590  1.00  0.00     0.099 C 
ATOM     15  O   UNL     1     -11.822   8.644 -32.590  1.00  0.00    -0.544 OA
ATOM     16  O   UNL     1     -13.427  10.276 -32.567  1.00  0.00    -0.544 OA
ENDBRANCH   9  14
ENDBRANCH   8   9
ENDBRANCH   1   8
TORSDOF 7
ENDMDL
MODEL 4
REMARK VINA RESULT:    -1.979      2.822      3.992
REMARK INTER + INTRA:          -3.118
REMARK INTER:                  -3.045
REMARK INTRA:                  -0.072
REMARK UNBOUND:                -0.444
REMARK SMILES [NH3+]CCCC[C@@H]([NH3+])C(=O)[O-]
REMARK SMILES IDX 4 1 3 2 2 3 1 4 5 8 6 9 7 10 8 14 9 15 10 16
REMARK H PARENT 1 5 1 6 1 7 7 11 7 12 7 13
REMARK Flexibility Score: inf
ROOT
ATOM      1  C   UNL     1     -10.943  11.477 -32.265  1.00  0.00     0.012 C 
ENDROOT
BRANCH   1   2
ATOM      2  C   UNL     1     -12.253  10.725 -32.563  1.00  0.00     0.061 C 
BRANCH   2   3
ATOM      3  C   UNL     1     -12.139   9.189 -32.548  1.00  0.00     0.258 C 
BRANCH   3   4
ATOM      4  N   UNL     1     -13.446   8.532 -32.489  1.00  0.00    -0.358 N 
ATOM      5  H   UNL     1     -14.190   9.237 -32.695  1.00  0.00     0.344 HD
ATOM      6  H   UNL     1     -13.616   8.149 -31.531  1.00  0.00     0.344 HD
ATOM      7  H   UNL     1     -13.503   7.766 -33.198  1.00  0.00     0.344 HD
ENDBRANCH   3   4
ENDBRANCH   2   3
ENDBRANCH   1   2
BRANCH   1   8
ATOM      8  C   UNL     1     -10.316  12.107 -33.520  1.00  0.00     0.072 C 
BRANCH   8   9
ATOM      9  C   UNL     1      -9.043  11.363 -33.988  1.00  0.00     0.227 C 
BRANCH   9  10
ATOM     10  N   UNL     1      -8.879  10.073 -33.302  1.00  0.00    -0.350 N 
ATOM     11  H   UNL     1      -8.199   9.475 -33.827  1.00  0.00     0.345 HD
ATOM     12  H   UNL     1      -9.794   9.570 -33.234  1.00  0.00     0.345 HD
ATOM     13  H   UNL     1      -8.491  10.219 -32.344  1.00  0.00     0.345 HD
ENDBRANCH   9  10
BRANCH   9  14
ATOM     14  C   UNL     1      -9.098  11.155 -35.478  1.00  0.00     0.099 C 
ATOM     15  O   UNL     1      -8.889  12.117 -36.265  1.00  0.00    -0.544 OA
ATOM     16  O   UNL     1      -9.359   9.892 -35.995  1.00  0.00    -0.544 OA
ENDBRANCH   9  14
ENDBRANCH   8   9
ENDBRANCH   1   8
TORSDOF 7
ENDMDL
MODEL 5
REMARK VINA RESULT:    -1.802      2.362      3.607
REMARK INTER + INTRA:          -2.878
REMARK INTER:                  -2.593
REMARK INTRA:                  -0.285
REMARK UNBOUND:                -0.444
REMARK SMILES [NH3+]CCCC[C@@H]([NH3+])C(=O)[O-]
REMARK SMILES IDX 4 1 3 2 2 3 1 4 5 8 6 9 7 10 8 14 9 15 10 16
REMARK H PARENT 1 5 1 6 1 7 7 11 7 12 7 13
REMARK Flexibility Score: inf
ROOT
ATOM      1  C   UNL     1     -10.496   9.335 -33.367  1.00  0.00     0.012 C 
ENDROOT
BRANCH   1   2
ATOM      2  C   UNL     1     -11.699   9.911 -32.597  1.00  0.00     0.061 C 
BRANCH   2   3
ATOM      3  C   UNL     1     -11.716  11.446 -32.472  1.00  0.00     0.258 C 
BRANCH   3   4
ATOM      4  N   UNL     1     -12.928  12.039 -33.040  1.00  0.00    -0.358 N 
ATOM      5  H   UNL     1     -12.688  12.966 -33.459  1.00  0.00     0.344 HD
ATOM      6  H   UNL     1     -13.641  12.193 -32.291  1.00  0.00     0.344 HD
ATOM      7  H   UNL     1     -13.321  11.423 -33.788  1.00  0.00     0.344 HD
ENDBRANCH   3   4
ENDBRANCH   2   3
ENDBRANCH   1   2
BRANCH   1   8
ATOM      8  C   UNL     1      -9.411  10.386 -33.655  1.00  0.00     0.072 C 
BRANCH   8   9
ATOM      9  C   UNL     1      -8.956  10.383 -35.133  1.00  0.00     0.227 C 
BRANCH   9  10
ATOM     10  N   UNL     1      -9.372   9.159 -35.832  1.00  0.00    -0.350 N 
ATOM     11  H   UNL     1      -9.455   9.346 -36.858  1.00  0.00     0.345 HD
ATOM     12  H   UNL     1     -10.293   8.820 -35.471  1.00  0.00     0.345 HD
ATOM     13  H   UNL     1      -8.654   8.410 -35.710  1.00  0.00     0.345 HD
ENDBRANCH   9  10
BRANCH   9  14
ATOM     14  C   UNL     1      -9.509  11.595 -35.835  1.00  0.00     0.099 C 
ATOM     15  O   UNL     1      -8.878  12.124 -36.788  1.00  0.00    -0.544 OA
ATOM     16  O   UNL     1     -10.733  12.125 -35.447  1.00  0.00    -0.544 OA
ENDBRANCH   9  14
ENDBRANCH   8   9
ENDBRANCH   1   8
TORSDOF 7
ENDMDL
MODEL 6
REMARK VINA RESULT:    -0.923      2.657      3.874
REMARK INTER + INTRA:          -1.691
REMARK INTER:                  -2.215
REMARK INTRA:                   0.524
REMARK UNBOUND:                -0.444
REMARK SMILES [NH3+]CCCC[C@@H]([NH3+])C(=O)[O-]
REMARK SMILES IDX 4 1 3 2 2 3 1 4 5 8 6 9 7 10 8 14 9 15 10 16
REMARK H PARENT 1 5 1 6 1 7 7 11 7 12 7 13
REMARK Flexibility Score: inf
ROOT
ATOM      1  C   UNL     1     -10.858   9.146 -33.580  1.00  0.00     0.012 C 
ENDROOT
BRANCH   1   2
ATOM      2  C   UNL     1     -11.782   9.701 -32.481  1.00  0.00     0.061 C 
BRANCH   2   3
ATOM      3  C   UNL     1     -13.115   8.949 -32.311  1.00  0.00     0.258 C 
BRANCH   3   4
ATOM      4  N   UNL     1     -13.078   7.607 -32.894  1.00  0.00    -0.358 N 
ATOM      5  H   UNL     1     -12.118   7.211 -32.775  1.00  0.00     0.344 HD
ATOM      6  H   UNL     1     -13.290   7.650 -33.917  1.00  0.00     0.344 HD
ATOM      7  H   UNL     1     -13.762   6.979 -32.412  1.00  0.00     0.344 HD
ENDBRANCH   3   4
ENDBRANCH   2   3
ENDBRANCH   1   2
BRANCH   1   8
ATOM      8  C   UNL     1      -9.462   9.792 -33.571  1.00  0.00     0.072 C 
BRANCH   8   9
ATOM      9  C   UNL     1      -9.183  10.629 -34.841  1.00  0.00     0.227 C 
BRANCH   9  10
ATOM     10  N   UNL     1      -9.086   9.786 -36.042  1.00  0.00    -0.350 N 
ATOM     11  H   UNL     1      -8.356   9.049 -35.902  1.00  0.00     0.345 HD
ATOM     12  H   UNL     1      -8.834  10.361 -36.879  1.00  0.00     0.345 HD
ATOM     13  H   UNL     1      -9.993   9.298 -36.216  1.00  0.00     0.345 HD
ENDBRANCH   9  10
BRANCH   9  14
ATOM     14  C   UNL     1     -10.268  11.658 -35.016  1.00  0.00     0.099 C 
ATOM     15  O   UNL     1     -10.873  12.125 -34.014  1.00  0.00    -0.544 OA
ATOM     16  O   UNL     1     -10.595  12.116 -36.287  1.00  0.00    -0.544 OA
ENDBRANCH   9  14
ENDBRANCH   8   9
ENDBRANCH   1   8
TORSDOF 7
ENDMDL
