MODEL 1
REMARK VINA RESULT:     2.571      0.000      0.000
REMARK INTER + INTRA:           7.473
REMARK INTER:                   6.780
REMARK INTRA:                   0.693
REMARK UNBOUND:                 0.693
REMARK SMILES CCCCCCCCCCCCCCCCCCCCCCCCCCCCCC(=O)[O-]
REMARK SMILES IDX 16 1 17 2 18 3 19 4 20 5 21 6 22 7 23 8 24 9 25 10 26 11
REMARK SMILES IDX 27 12 28 13 29 14 30 15 31 16 32 17 15 18 14 19 13 20 12 21
REMARK SMILES IDX 11 22 10 23 9 24 8 25 7 26 6 27 5 28 4 29 3 30 2 31 1 32
REMARK H PARENT
REMARK Flexibility Score: inf
ROOT
ATOM      1  C   UNL     1      45.876  10.876 -27.333  1.00  0.00     0.000 C 
ENDROOT
BRANCH   1   2
ATOM      2  C   UNL     1      45.383  11.387 -28.699  1.00  0.00     0.000 C 
BRANCH   2   3
ATOM      3  C   UNL     1      46.431  12.245 -29.430  1.00  0.00     0.000 C 
BRANCH   3   4
ATOM      4  C   UNL     1      46.470  12.071 -30.962  1.00  0.00     0.000 C 
BRANCH   4   5
ATOM      5  C   UNL     1      45.118  12.253 -31.675  1.00  0.00     0.000 C 
BRANCH   5   6
ATOM      6  C   UNL     1      45.270  12.552 -33.175  1.00  0.00     0.000 C 
BRANCH   6   7
ATOM      7  C   UNL     1      44.025  12.100 -33.953  1.00  0.00     0.000 C 
BRANCH   7   8
ATOM      8  C   UNL     1      44.124  12.397 -35.458  1.00  0.00     0.000 C 
BRANCH   8   9
ATOM      9  C   UNL     1      42.960  11.791 -36.261  1.00  0.00     0.000 C 
BRANCH   9  10
ATOM     10  C   UNL     1      41.580  12.231 -35.735  1.00  0.00     0.000 C 
BRANCH  10  11
ATOM     11  C   UNL     1      41.318  13.748 -35.777  1.00  0.00     0.000 C 
BRANCH  11  12
ATOM     12  C   UNL     1      39.973  14.102 -36.435  1.00  0.00     0.000 C 
BRANCH  12  13
ATOM     13  C   UNL     1      39.042  14.891 -35.498  1.00  0.00     0.006 C 
BRANCH  13  14
ATOM     14  C   UNL     1      37.645  14.266 -35.382  1.00  0.00     0.053 C 
BRANCH  14  15
ATOM     15  C   UNL     1      37.419  13.722 -34.005  1.00  0.00     0.041 C 
ATOM     16  O   UNL     1      37.627  12.504 -33.762  1.00  0.00    -0.550 OA
ATOM     17  O   UNL     1      36.986  14.563 -32.986  1.00  0.00    -0.550 OA
ENDBRANCH  14  15
ENDBRANCH  13  14
ENDBRANCH  12  13
ENDBRANCH  11  12
ENDBRANCH  10  11
ENDBRANCH   9  10
ENDBRANCH   8   9
ENDBRANCH   7   8
ENDBRANCH   6   7
ENDBRANCH   5   6
ENDBRANCH   4   5
ENDBRANCH   3   4
ENDBRANCH   2   3
ENDBRANCH   1   2
BRANCH   1  18
ATOM     18  C   UNL     1      44.802  10.978 -26.237  1.00  0.00     0.000 C 
BRANCH  18  19
ATOM     19  C   UNL     1      45.322  11.657 -24.961  1.00  0.00     0.000 C 
BRANCH  19  20
ATOM     20  C   UNL     1      44.324  12.706 -24.443  1.00  0.00     0.000 C 
BRANCH  20  21
ATOM     21  C   UNL     1      44.906  13.572 -23.313  1.00  0.00     0.000 C 
BRANCH  21  22
ATOM     22  C   UNL     1      46.276  13.117 -22.775  1.00  0.00     0.000 C 
BRANCH  22  23
ATOM     23  C   UNL     1      46.657  11.674 -23.166  1.00  0.00     0.000 C 
BRANCH  23  24
ATOM     24  C   UNL     1      47.261  10.876 -21.997  1.00  0.00    -0.000 C 
BRANCH  24  25
ATOM     25  C   UNL     1      47.760  11.801 -20.866  1.00  0.00    -0.000 C 
BRANCH  25  26
ATOM     26  C   UNL     1      48.452  11.050 -19.716  1.00  0.00    -0.000 C 
BRANCH  26  27
ATOM     27  C   UNL     1      49.476  11.917 -18.965  1.00  0.00    -0.000 C 
BRANCH  27  28
ATOM     28  C   UNL     1      50.914  11.394 -19.121  1.00  0.00    -0.000 C 
BRANCH  28  29
ATOM     29  C   UNL     1      52.005  12.454 -18.875  1.00  0.00    -0.000 C 
BRANCH  29  30
ATOM     30  C   UNL     1      53.418  11.981 -19.280  1.00  0.00    -0.000 C 
BRANCH  30  31
ATOM     31  C   UNL     1      54.169  13.040 -20.102  1.00  0.00    -0.003 C 
ATOM     32  C   UNL     1      54.318  12.601 -21.556  1.00  0.00     0.004 C 
ENDBRANCH  30  31
ENDBRANCH  29  30
ENDBRANCH  28  29
ENDBRANCH  27  28
ENDBRANCH  26  27
ENDBRANCH  25  26
ENDBRANCH  24  25
ENDBRANCH  23  24
ENDBRANCH  22  23
ENDBRANCH  21  22
ENDBRANCH  20  21
ENDBRANCH  19  20
ENDBRANCH  18  19
ENDBRANCH   1  18
TORSDOF 28
ENDMDL
MODEL 2
REMARK VINA RESULT:     3.324      1.835      5.229
REMARK INTER + INTRA:           9.458
REMARK INTER:                   9.463
REMARK INTRA:                  -0.006
REMARK UNBOUND:                 0.693
REMARK SMILES CCCCCCCCCCCCCCCCCCCCCCCCCCCCCC(=O)[O-]
REMARK SMILES IDX 16 1 17 2 18 3 19 4 20 5 21 6 22 7 23 8 24 9 25 10 26 11
REMARK SMILES IDX 27 12 28 13 29 14 30 15 31 16 32 17 15 18 14 19 13 20 12 21
REMARK SMILES IDX 11 22 10 23 9 24 8 25 7 26 6 27 5 28 4 29 3 30 2 31 1 32
REMARK H PARENT
REMARK Flexibility Score: inf
ROOT
ATOM      1  C   UNL     1      45.438  12.227 -33.822  1.00  0.00     0.000 C 
ENDROOT
BRANCH   1   2
ATOM      2  C   UNL     1      46.228  12.644 -35.077  1.00  0.00     0.000 C 
BRANCH   2   3
ATOM      3  C   UNL     1      45.474  12.346 -36.385  1.00  0.00     0.000 C 
BRANCH   3   4
ATOM      4  C   UNL     1      44.150  11.574 -36.218  1.00  0.00     0.000 C 
BRANCH   4   5
ATOM      5  C   UNL     1      43.137  12.215 -35.252  1.00  0.00     0.000 C 
BRANCH   5   6
ATOM      6  C   UNL     1      42.105  13.100 -35.969  1.00  0.00     0.000 C 
BRANCH   6   7
ATOM      7  C   UNL     1      40.694  12.855 -35.416  1.00  0.00     0.000 C 
BRANCH   7   8
ATOM      8  C   UNL     1      39.597  13.055 -36.474  1.00  0.00     0.000 C 
BRANCH   8   9
ATOM      9  C   UNL     1      38.454  13.960 -35.982  1.00  0.00     0.000 C 
BRANCH   9  10
ATOM     10  C   UNL     1      37.365  13.182 -35.218  1.00  0.00     0.000 C 
BRANCH  10  11
ATOM     11  C   UNL     1      37.590  13.066 -33.698  1.00  0.00     0.000 C 
BRANCH  11  12
ATOM     12  C   UNL     1      37.175  14.336 -32.936  1.00  0.00     0.000 C 
BRANCH  12  13
ATOM     13  C   UNL     1      37.963  14.529 -31.629  1.00  0.00     0.006 C 
BRANCH  13  14
ATOM     14  C   UNL     1      37.058  14.848 -30.431  1.00  0.00     0.053 C 
BRANCH  14  15
ATOM     15  C   UNL     1      37.038  13.707 -29.462  1.00  0.00     0.041 C 
ATOM     16  O   UNL     1      36.876  13.922 -28.231  1.00  0.00    -0.550 OA
ATOM     17  O   UNL     1      37.191  12.402 -29.918  1.00  0.00    -0.550 OA
ENDBRANCH  14  15
ENDBRANCH  13  14
ENDBRANCH  12  13
ENDBRANCH  11  12
ENDBRANCH  10  11
ENDBRANCH   9  10
ENDBRANCH   8   9
ENDBRANCH   7   8
ENDBRANCH   6   7
ENDBRANCH   5   6
ENDBRANCH   4   5
ENDBRANCH   3   4
ENDBRANCH   2   3
ENDBRANCH   1   2
BRANCH   1  18
ATOM     18  C   UNL     1      46.287  12.281 -32.541  1.00  0.00     0.000 C 
BRANCH  18  19
ATOM     19  C   UNL     1      45.553  11.702 -31.321  1.00  0.00     0.000 C 
BRANCH  19  20
ATOM     20  C   UNL     1      46.524  11.456 -30.154  1.00  0.00     0.000 C 
BRANCH  20  21
ATOM     21  C   UNL     1      45.815  10.941 -28.890  1.00  0.00     0.000 C 
BRANCH  21  22
ATOM     22  C   UNL     1      46.262  11.600 -27.572  1.00  0.00     0.000 C 
BRANCH  22  23
ATOM     23  C   UNL     1      45.456  11.147 -26.337  1.00  0.00     0.000 C 
BRANCH  23  24
ATOM     24  C   UNL     1      44.423  12.191 -25.878  1.00  0.00    -0.000 C 
BRANCH  24  25
ATOM     25  C   UNL     1      44.007  11.978 -24.406  1.00  0.00    -0.000 C 
BRANCH  25  26
ATOM     26  C   UNL     1      44.949  12.656 -23.395  1.00  0.00    -0.000 C 
BRANCH  26  27
ATOM     27  C   UNL     1      46.391  12.130 -23.476  1.00  0.00    -0.000 C 
BRANCH  27  28
ATOM     28  C   UNL     1      46.713  11.124 -22.358  1.00  0.00    -0.000 C 
BRANCH  28  29
ATOM     29  C   UNL     1      47.362  11.750 -21.108  1.00  0.00    -0.000 C 
BRANCH  29  30
ATOM     30  C   UNL     1      48.650  11.025 -20.661  1.00  0.00    -0.000 C 
BRANCH  30  31
ATOM     31  C   UNL     1      49.011  11.337 -19.201  1.00  0.00    -0.003 C 
ATOM     32  C   UNL     1      50.524  11.363 -19.004  1.00  0.00     0.004 C 
ENDBRANCH  30  31
ENDBRANCH  29  30
ENDBRANCH  28  29
ENDBRANCH  27  28
ENDBRANCH  26  27
ENDBRANCH  25  26
ENDBRANCH  24  25
ENDBRANCH  23  24
ENDBRANCH  22  23
ENDBRANCH  21  22
ENDBRANCH  20  21
ENDBRANCH  19  20
ENDBRANCH  18  19
ENDBRANCH   1  18
TORSDOF 28
ENDMDL
MODEL 3
REMARK VINA RESULT:     5.204      2.308      5.688
REMARK INTER + INTRA:          14.416
REMARK INTER:                  14.119
REMARK INTRA:                   0.296
REMARK UNBOUND:                 0.693
REMARK SMILES CCCCCCCCCCCCCCCCCCCCCCCCCCCCCC(=O)[O-]
REMARK SMILES IDX 16 1 17 2 18 3 19 4 20 5 21 6 22 7 23 8 24 9 25 10 26 11
REMARK SMILES IDX 27 12 28 13 29 14 30 15 31 16 32 17 15 18 14 19 13 20 12 21
REMARK SMILES IDX 11 22 10 23 9 24 8 25 7 26 6 27 5 28 4 29 3 30 2 31 1 32
REMARK H PARENT
REMARK Flexibility Score: inf
ROOT
ATOM      1  C   UNL     1      44.260  12.722 -32.803  1.00  0.00     0.000 C 
ENDROOT
BRANCH   1   2
ATOM      2  C   UNL     1      44.414  11.582 -33.825  1.00  0.00     0.000 C 
BRANCH   2   3
ATOM      3  C   UNL     1      43.239  11.502 -34.815  1.00  0.00     0.000 C 
BRANCH   3   4
ATOM      4  C   UNL     1      43.525  12.065 -36.222  1.00  0.00     0.000 C 
BRANCH   4   5
ATOM      5  C   UNL     1      43.172  13.550 -36.417  1.00  0.00     0.000 C 
BRANCH   5   6
ATOM      6  C   UNL     1      41.723  13.763 -36.883  1.00  0.00     0.000 C 
BRANCH   6   7
ATOM      7  C   UNL     1      40.867  12.520 -36.597  1.00  0.00     0.000 C 
BRANCH   7   8
ATOM      8  C   UNL     1      39.489  12.869 -36.012  1.00  0.00     0.000 C 
BRANCH   8   9
ATOM      9  C   UNL     1      39.395  14.331 -35.543  1.00  0.00     0.000 C 
BRANCH   9  10
ATOM     10  C   UNL     1      38.114  15.033 -36.031  1.00  0.00     0.000 C 
BRANCH  10  11
ATOM     11  C   UNL     1      36.951  15.047 -35.021  1.00  0.00     0.000 C 
BRANCH  11  12
ATOM     12  C   UNL     1      36.882  13.765 -34.174  1.00  0.00     0.000 C 
BRANCH  12  13
ATOM     13  C   UNL     1      37.356  13.983 -32.726  1.00  0.00     0.006 C 
BRANCH  13  14
ATOM     14  C   UNL     1      37.583  12.666 -31.970  1.00  0.00     0.053 C 
BRANCH  14  15
ATOM     15  C   UNL     1      37.455  12.874 -30.493  1.00  0.00     0.041 C 
ATOM     16  O   UNL     1      37.410  14.039 -30.017  1.00  0.00    -0.550 OA
ATOM     17  O   UNL     1      37.377  11.779 -29.639  1.00  0.00    -0.550 OA
ENDBRANCH  14  15
ENDBRANCH  13  14
ENDBRANCH  12  13
ENDBRANCH  11  12
ENDBRANCH  10  11
ENDBRANCH   9  10
ENDBRANCH   8   9
ENDBRANCH   7   8
ENDBRANCH   6   7
ENDBRANCH   5   6
ENDBRANCH   4   5
ENDBRANCH   3   4
ENDBRANCH   2   3
ENDBRANCH   1   2
BRANCH   1  18
ATOM     18  C   UNL     1      44.660  12.302 -31.378  1.00  0.00     0.000 C 
BRANCH  18  19
ATOM     19  C   UNL     1      45.973  11.505 -31.345  1.00  0.00     0.000 C 
BRANCH  19  20
ATOM     20  C   UNL     1      47.071  12.275 -30.590  1.00  0.00     0.000 C 
BRANCH  20  21
ATOM     21  C   UNL     1      47.630  11.490 -29.392  1.00  0.00     0.000 C 
BRANCH  21  22
ATOM     22  C   UNL     1      46.570  10.876 -28.457  1.00  0.00     0.000 C 
BRANCH  22  23
ATOM     23  C   UNL     1      45.206  11.594 -28.496  1.00  0.00     0.000 C 
BRANCH  23  24
ATOM     24  C   UNL     1      44.918  12.404 -27.219  1.00  0.00    -0.000 C 
BRANCH  24  25
ATOM     25  C   UNL     1      44.699  11.488 -25.995  1.00  0.00    -0.000 C 
BRANCH  25  26
ATOM     26  C   UNL     1      43.799  12.111 -24.913  1.00  0.00    -0.000 C 
BRANCH  26  27
ATOM     27  C   UNL     1      44.434  13.339 -24.241  1.00  0.00    -0.000 C 
BRANCH  27  28
ATOM     28  C   UNL     1      45.677  12.976 -23.410  1.00  0.00    -0.000 C 
BRANCH  28  29
ATOM     29  C   UNL     1      46.203  11.546 -23.646  1.00  0.00    -0.000 C 
BRANCH  29  30
ATOM     30  C   UNL     1      46.743  10.875 -22.365  1.00  0.00    -0.000 C 
BRANCH  30  31
ATOM     31  C   UNL     1      47.537  11.857 -21.489  1.00  0.00    -0.003 C 
ATOM     32  C   UNL     1      48.607  11.128 -20.680  1.00  0.00     0.004 C 
ENDBRANCH  30  31
ENDBRANCH  29  30
ENDBRANCH  28  29
ENDBRANCH  27  28
ENDBRANCH  26  27
ENDBRANCH  25  26
ENDBRANCH  24  25
ENDBRANCH  23  24
ENDBRANCH  22  23
ENDBRANCH  21  22
ENDBRANCH  20  21
ENDBRANCH  19  20
ENDBRANCH  18  19
ENDBRANCH   1  18
TORSDOF 28
ENDMDL
MODEL 4
REMARK VINA RESULT:     5.277      6.892     11.337
REMARK INTER + INTRA:          14.609
REMARK INTER:                  15.864
REMARK INTRA:                  -1.255
REMARK UNBOUND:                 0.693
REMARK SMILES CCCCCCCCCCCCCCCCCCCCCCCCCCCCCC(=O)[O-]
REMARK SMILES IDX 16 1 17 2 18 3 19 4 20 5 21 6 22 7 23 8 24 9 25 10 26 11
REMARK SMILES IDX 27 12 28 13 29 14 30 15 31 16 32 17 15 18 14 19 13 20 12 21
REMARK SMILES IDX 11 22 10 23 9 24 8 25 7 26 6 27 5 28 4 29 3 30 2 31 1 32
REMARK H PARENT
REMARK Flexibility Score: inf
ROOT
ATOM      1  C   UNL     1      40.139  14.926 -35.020  1.00  0.00     0.000 C 
ENDROOT
BRANCH   1   2
ATOM      2  C   UNL     1      38.840  14.708 -35.817  1.00  0.00     0.000 C 
BRANCH   2   3
ATOM      3  C   UNL     1      37.618  14.466 -34.913  1.00  0.00     0.000 C 
BRANCH   3   4
ATOM      4  C   UNL     1      36.988  13.063 -35.022  1.00  0.00     0.000 C 
BRANCH   4   5
ATOM      5  C   UNL     1      36.921  12.272 -33.703  1.00  0.00     0.000 C 
BRANCH   5   6
ATOM      6  C   UNL     1      36.875  13.180 -32.465  1.00  0.00     0.000 C 
BRANCH   6   7
ATOM      7  C   UNL     1      38.028  12.855 -31.504  1.00  0.00     0.000 C 
BRANCH   7   8
ATOM      8  C   UNL     1      37.547  12.564 -30.073  1.00  0.00     0.000 C 
BRANCH   8   9
ATOM      9  C   UNL     1      37.008  13.818 -29.362  1.00  0.00     0.000 C 
BRANCH   9  10
ATOM     10  C   UNL     1      36.877  15.029 -30.305  1.00  0.00     0.000 C 
BRANCH  10  11
ATOM     11  C   UNL     1      38.198  15.749 -30.631  1.00  0.00     0.000 C 
BRANCH  11  12
ATOM     12  C   UNL     1      39.249  15.599 -29.517  1.00  0.00     0.000 C 
BRANCH  12  13
ATOM     13  C   UNL     1      40.045  16.893 -29.272  1.00  0.00     0.006 C 
BRANCH  13  14
ATOM     14  C   UNL     1      40.755  16.906 -27.912  1.00  0.00     0.053 C 
BRANCH  14  15
ATOM     15  C   UNL     1      42.099  17.557 -28.021  1.00  0.00     0.041 C 
ATOM     16  O   UNL     1      42.189  18.794 -28.241  1.00  0.00    -0.550 OA
ATOM     17  O   UNL     1      43.256  16.799 -27.874  1.00  0.00    -0.550 OA
ENDBRANCH  14  15
ENDBRANCH  13  14
ENDBRANCH  12  13
ENDBRANCH  11  12
ENDBRANCH  10  11
ENDBRANCH   9  10
ENDBRANCH   8   9
ENDBRANCH   7   8
ENDBRANCH   6   7
ENDBRANCH   5   6
ENDBRANCH   4   5
ENDBRANCH   3   4
ENDBRANCH   2   3
ENDBRANCH   1   2
BRANCH   1  18
ATOM     18  C   UNL     1      41.402  14.690 -35.865  1.00  0.00     0.000 C 
BRANCH  18  19
ATOM     19  C   UNL     1      41.362  13.357 -36.628  1.00  0.00     0.000 C 
BRANCH  19  20
ATOM     20  C   UNL     1      41.072  12.182 -35.679  1.00  0.00     0.000 C 
BRANCH  20  21
ATOM     21  C   UNL     1      42.352  11.564 -35.090  1.00  0.00     0.000 C 
BRANCH  21  22
ATOM     22  C   UNL     1      43.671  12.128 -35.651  1.00  0.00     0.000 C 
BRANCH  22  23
ATOM     23  C   UNL     1      44.298  11.269 -36.768  1.00  0.00     0.000 C 
BRANCH  23  24
ATOM     24  C   UNL     1      45.821  11.453 -36.884  1.00  0.00    -0.000 C 
BRANCH  24  25
ATOM     25  C   UNL     1      46.297  12.751 -36.196  1.00  0.00    -0.000 C 
BRANCH  25  26
ATOM     26  C   UNL     1      47.478  12.540 -35.232  1.00  0.00    -0.000 C 
BRANCH  26  27
ATOM     27  C   UNL     1      47.035  12.054 -33.842  1.00  0.00    -0.000 C 
BRANCH  27  28
ATOM     28  C   UNL     1      46.574  13.208 -32.936  1.00  0.00    -0.000 C 
BRANCH  28  29
ATOM     29  C   UNL     1      45.091  13.136 -32.520  1.00  0.00    -0.000 C 
BRANCH  29  30
ATOM     30  C   UNL     1      44.798  12.018 -31.497  1.00  0.00    -0.000 C 
BRANCH  30  31
ATOM     31  C   UNL     1      45.489  12.273 -30.148  1.00  0.00    -0.003 C 
ATOM     32  C   UNL     1      46.670  11.327 -29.951  1.00  0.00     0.004 C 
ENDBRANCH  30  31
ENDBRANCH  29  30
ENDBRANCH  28  29
ENDBRANCH  27  28
ENDBRANCH  26  27
ENDBRANCH  25  26
ENDBRANCH  24  25
ENDBRANCH  23  24
ENDBRANCH  22  23
ENDBRANCH  21  22
ENDBRANCH  20  21
ENDBRANCH  19  20
ENDBRANCH  18  19
ENDBRANCH   1  18
TORSDOF 28
ENDMDL
