MODEL 1
REMARK VINA RESULT:    -4.177      0.000      0.000
REMARK INTER + INTRA:          -4.683
REMARK INTER:                  -4.666
REMARK INTRA:                  -0.017
REMARK UNBOUND:                -0.017
REMARK SMILES CCCC(=O)[O-]
REMARK SMILES IDX 3 1 4 2 5 3 6 4 2 5 1 6
REMARK H PARENT
REMARK Flexibility Score: inf
ROOT
ATOM      1  C   UNL     1      -8.690  -6.964 -20.063  1.00  0.00     0.052 C 
ENDROOT
BRANCH   1   2
ATOM      2  C   UNL     1      -7.829  -5.896 -19.467  1.00  0.00     0.041 C 
ATOM      3  O   UNL     1      -6.788  -5.514 -20.064  1.00  0.00    -0.550 OA
ATOM      4  O   UNL     1      -8.149  -5.357 -18.227  1.00  0.00    -0.550 OA
ENDBRANCH   1   2
BRANCH   1   5
ATOM      5  C   UNL     1      -8.404  -8.315 -19.400  1.00  0.00     0.003 C 
ATOM      6  C   UNL     1      -8.080  -9.383 -20.441  1.00  0.00     0.004 C 
ENDBRANCH   1   5
TORSDOF 2
ENDMDL
MODEL 2
REMARK VINA RESULT:    -4.165      1.779      2.567
REMARK INTER + INTRA:          -4.669
REMARK INTER:                  -4.663
REMARK INTRA:                  -0.006
REMARK UNBOUND:                -0.017
REMARK SMILES CCCC(=O)[O-]
REMARK SMILES IDX 3 1 4 2 5 3 6 4 2 5 1 6
REMARK H PARENT
REMARK Flexibility Score: inf
ROOT
ATOM      1  C   UNL     1      -7.216  -5.446 -20.082  1.00  0.00     0.052 C 
ENDROOT
BRANCH   1   2
ATOM      2  C   UNL     1      -7.484  -3.993 -20.314  1.00  0.00     0.041 C 
ATOM      3  O   UNL     1      -7.956  -3.280 -19.389  1.00  0.00    -0.550 OA
ATOM      4  O   UNL     1      -7.260  -3.436 -21.566  1.00  0.00    -0.550 OA
ENDBRANCH   1   2
BRANCH   1   5
ATOM      5  C   UNL     1      -8.504  -6.172 -19.682  1.00  0.00     0.003 C 
ATOM      6  C   UNL     1      -8.311  -7.686 -19.701  1.00  0.00     0.004 C 
ENDBRANCH   1   5
TORSDOF 2
ENDMDL
MODEL 3
REMARK VINA RESULT:    -4.050      1.666      2.108
REMARK INTER + INTRA:          -4.540
REMARK INTER:                  -4.535
REMARK INTRA:                  -0.005
REMARK UNBOUND:                -0.017
REMARK SMILES CCCC(=O)[O-]
REMARK SMILES IDX 3 1 4 2 5 3 6 4 2 5 1 6
REMARK H PARENT
REMARK Flexibility Score: inf
ROOT
ATOM      1  C   UNL     1      -7.075  -5.575 -20.029  1.00  0.00     0.052 C 
ENDROOT
BRANCH   1   2
ATOM      2  C   UNL     1      -6.824  -4.268 -19.347  1.00  0.00     0.041 C 
ATOM      3  O   UNL     1      -5.794  -4.110 -18.640  1.00  0.00    -0.550 OA
ATOM      4  O   UNL     1      -7.751  -3.239 -19.452  1.00  0.00    -0.550 OA
ENDBRANCH   1   2
BRANCH   1   5
ATOM      5  C   UNL     1      -8.295  -6.272 -19.418  1.00  0.00     0.003 C 
ATOM      6  C   UNL     1      -8.346  -7.744 -19.818  1.00  0.00     0.004 C 
ENDBRANCH   1   5
TORSDOF 2
ENDMDL
MODEL 4
REMARK VINA RESULT:    -3.856      2.103      3.593
REMARK INTER + INTRA:          -4.324
REMARK INTER:                  -4.293
REMARK INTRA:                  -0.031
REMARK UNBOUND:                -0.017
REMARK SMILES CCCC(=O)[O-]
REMARK SMILES IDX 3 1 4 2 5 3 6 4 2 5 1 6
REMARK H PARENT
REMARK Flexibility Score: inf
ROOT
ATOM      1  C   UNL     1      -6.936  -5.091 -19.870  1.00  0.00     0.052 C 
ENDROOT
BRANCH   1   2
ATOM      2  C   UNL     1      -8.097  -6.017 -19.685  1.00  0.00     0.041 C 
ATOM      3  O   UNL     1      -7.954  -7.256 -19.859  1.00  0.00    -0.550 OA
ATOM      4  O   UNL     1      -9.350  -5.506 -19.369  1.00  0.00    -0.550 OA
ENDBRANCH   1   2
BRANCH   1   5
ATOM      5  C   UNL     1      -7.425  -3.658 -20.101  1.00  0.00     0.003 C 
ATOM      6  C   UNL     1      -7.122  -3.196 -21.524  1.00  0.00     0.004 C 
ENDBRANCH   1   5
TORSDOF 2
ENDMDL
MODEL 5
REMARK VINA RESULT:    -3.799      3.607      4.173
REMARK INTER + INTRA:          -4.260
REMARK INTER:                  -4.194
REMARK INTRA:                  -0.066
REMARK UNBOUND:                -0.017
REMARK SMILES CCCC(=O)[O-]
REMARK SMILES IDX 3 1 4 2 5 3 6 4 2 5 1 6
REMARK H PARENT
REMARK Flexibility Score: inf
ROOT
ATOM      1  C   UNL     1      -7.024  -4.654 -20.379  1.00  0.00     0.052 C 
ENDROOT
BRANCH   1   2
ATOM      2  C   UNL     1      -6.800  -3.490 -21.291  1.00  0.00     0.041 C 
ATOM      3  O   UNL     1      -5.948  -3.563 -22.216  1.00  0.00    -0.550 OA
ATOM      4  O   UNL     1      -7.497  -2.305 -21.090  1.00  0.00    -0.550 OA
ENDBRANCH   1   2
BRANCH   1   5
ATOM      5  C   UNL     1      -6.994  -4.202 -18.916  1.00  0.00     0.003 C 
ATOM      6  C   UNL     1      -5.564  -3.946 -18.448  1.00  0.00     0.004 C 
ENDBRANCH   1   5
TORSDOF 2
ENDMDL
MODEL 6
REMARK VINA RESULT:    -3.679      9.803     10.371
REMARK INTER + INTRA:          -4.126
REMARK INTER:                  -4.102
REMARK INTRA:                  -0.023
REMARK UNBOUND:                -0.017
REMARK SMILES CCCC(=O)[O-]
REMARK SMILES IDX 3 1 4 2 5 3 6 4 2 5 1 6
REMARK H PARENT
REMARK Flexibility Score: inf
ROOT
ATOM      1  C   UNL     1     -16.661  -8.829 -20.428  1.00  0.00     0.052 C 
ENDROOT
BRANCH   1   2
ATOM      2  C   UNL     1     -17.706  -9.671 -21.091  1.00  0.00     0.041 C 
ATOM      3  O   UNL     1     -18.701 -10.078 -20.436  1.00  0.00    -0.550 OA
ATOM      4  O   UNL     1     -17.554 -10.047 -22.419  1.00  0.00    -0.550 OA
ENDBRANCH   1   2
BRANCH   1   5
ATOM      5  C   UNL     1     -17.301  -7.604 -19.766  1.00  0.00     0.003 C 
ATOM      6  C   UNL     1     -17.331  -7.751 -18.248  1.00  0.00     0.004 C 
ENDBRANCH   1   5
TORSDOF 2
ENDMDL
MODEL 7
REMARK VINA RESULT:    -3.583      9.435      9.898
REMARK INTER + INTRA:          -4.019
REMARK INTER:                  -3.969
REMARK INTRA:                  -0.050
REMARK UNBOUND:                -0.017
REMARK SMILES CCCC(=O)[O-]
REMARK SMILES IDX 3 1 4 2 5 3 6 4 2 5 1 6
REMARK H PARENT
REMARK Flexibility Score: inf
ROOT
ATOM      1  C   UNL     1     -18.308  -9.663 -19.430  1.00  0.00     0.052 C 
ENDROOT
BRANCH   1   2
ATOM      2  C   UNL     1     -17.628  -8.604 -18.621  1.00  0.00     0.041 C 
ATOM      3  O   UNL     1     -18.038  -7.414 -18.662  1.00  0.00    -0.550 OA
ATOM      4  O   UNL     1     -16.510  -8.921 -17.861  1.00  0.00    -0.550 OA
ENDBRANCH   1   2
BRANCH   1   5
ATOM      5  C   UNL     1     -18.028  -9.459 -20.923  1.00  0.00     0.003 C 
ATOM      6  C   UNL     1     -16.549  -9.656 -21.238  1.00  0.00     0.004 C 
ENDBRANCH   1   5
TORSDOF 2
ENDMDL
MODEL 8
REMARK VINA RESULT:    -3.530      3.257      4.851
REMARK INTER + INTRA:          -3.960
REMARK INTER:                  -3.954
REMARK INTRA:                  -0.006
REMARK UNBOUND:                -0.017
REMARK SMILES CCCC(=O)[O-]
REMARK SMILES IDX 3 1 4 2 5 3 6 4 2 5 1 6
REMARK H PARENT
REMARK Flexibility Score: inf
ROOT
ATOM      1  C   UNL     1      -5.712  -3.962 -18.571  1.00  0.00     0.052 C 
ENDROOT
BRANCH   1   2
ATOM      2  C   UNL     1      -6.898  -4.409 -19.365  1.00  0.00     0.041 C 
ATOM      3  O   UNL     1      -6.832  -5.449 -20.072  1.00  0.00    -0.550 OA
ATOM      4  O   UNL     1      -8.062  -3.650 -19.363  1.00  0.00    -0.550 OA
ENDBRANCH   1   2
BRANCH   1   5
ATOM      5  C   UNL     1      -5.270  -2.562 -19.008  1.00  0.00     0.003 C 
ATOM      6  C   UNL     1      -3.778  -2.356 -18.769  1.00  0.00     0.004 C 
ENDBRANCH   1   5
TORSDOF 2
ENDMDL
MODEL 9
REMARK VINA RESULT:    -3.529      3.254      4.087
REMARK INTER + INTRA:          -3.959
REMARK INTER:                  -3.893
REMARK INTRA:                  -0.065
REMARK UNBOUND:                -0.017
REMARK SMILES CCCC(=O)[O-]
REMARK SMILES IDX 3 1 4 2 5 3 6 4 2 5 1 6
REMARK H PARENT
REMARK Flexibility Score: inf
ROOT
ATOM      1  C   UNL     1      -7.127  -2.768 -19.841  1.00  0.00     0.052 C 
ENDROOT
BRANCH   1   2
ATOM      2  C   UNL     1      -5.631  -2.742 -19.839  1.00  0.00     0.041 C 
ATOM      3  O   UNL     1      -4.999  -2.569 -20.914  1.00  0.00    -0.550 OA
ATOM      4  O   UNL     1      -4.933  -2.958 -18.657  1.00  0.00    -0.550 OA
ENDBRANCH   1   2
BRANCH   1   5
ATOM      5  C   UNL     1      -7.641  -4.082 -19.246  1.00  0.00     0.003 C 
ATOM      6  C   UNL     1      -7.173  -5.279 -20.067  1.00  0.00     0.004 C 
ENDBRANCH   1   5
TORSDOF 2
ENDMDL
