MODEL 1
REMARK VINA RESULT:    -0.789      0.000      0.000
REMARK INTER + INTRA:          -2.985
REMARK INTER:                  -1.434
REMARK INTRA:                  -1.550
REMARK UNBOUND:                -1.550
REMARK SMILES CCCCCC=CCC=CCCCCCCCC(=O)[O-]
REMARK SMILES IDX 11 1 12 2 13 3 14 4 15 5 16 6 17 7 18 8 19 9 20 10 10 11
REMARK SMILES IDX 9 12 8 13 7 14 6 15 5 16 4 17 3 18 2 19 1 20
REMARK H PARENT
REMARK Flexibility Score: inf
ROOT
ATOM      1  C   UNL     1     125.988 133.684 123.645  1.00  0.00     0.027 C 
ENDROOT
BRANCH   1   2
ATOM      2  C   UNL     1     125.858 132.173 123.869  1.00  0.00     0.004 C 
BRANCH   2   3
ATOM      3  C   UNL     1     124.576 131.630 123.225  1.00  0.00     0.000 C 
BRANCH   3   4
ATOM      4  C   UNL     1     123.644 131.023 124.284  1.00  0.00     0.000 C 
BRANCH   4   5
ATOM      5  C   UNL     1     123.322 132.002 125.424  1.00  0.00     0.000 C 
BRANCH   5   6
ATOM      6  C   UNL     1     122.677 131.309 126.636  1.00  0.00     0.006 C 
BRANCH   6   7
ATOM      7  C   UNL     1     123.655 131.167 127.810  1.00  0.00     0.053 C 
BRANCH   7   8
ATOM      8  C   UNL     1     122.954 130.782 129.078  1.00  0.00     0.041 C 
ATOM      9  O   UNL     1     122.410 129.651 129.182  1.00  0.00    -0.550 OA
ATOM     10  O   UNL     1     122.928 131.660 130.155  1.00  0.00    -0.550 OA
ENDBRANCH   7   8
ENDBRANCH   6   7
ENDBRANCH   5   6
ENDBRANCH   4   5
ENDBRANCH   3   4
ENDBRANCH   2   3
ENDBRANCH   1   2
BRANCH   1  11
ATOM     11  C   UNL     1     125.703 134.448 124.909  1.00  0.00    -0.031 C 
ATOM     12  C   UNL     1     125.594 133.812 126.084  1.00  0.00    -0.027 C 
BRANCH  12  13
ATOM     13  C   UNL     1     125.307 134.557 127.358  1.00  0.00     0.054 C 
BRANCH  13  14
ATOM     14  C   UNL     1     123.896 135.074 127.380  1.00  0.00    -0.027 C 
ATOM     15  C   UNL     1     123.043 134.735 128.359  1.00  0.00    -0.031 C 
BRANCH  15  16
ATOM     16  C   UNL     1     121.641 135.283 128.411  1.00  0.00     0.027 C 
BRANCH  16  17
ATOM     17  C   UNL     1     121.620 136.721 128.945  1.00  0.00     0.004 C 
BRANCH  17  18
ATOM     18  C   UNL     1     121.131 137.725 127.887  1.00  0.00     0.000 C 
BRANCH  18  19
ATOM     19  C   UNL     1     120.875 137.067 126.523  1.00  0.00    -0.003 C 
ATOM     20  C   UNL     1     120.920 138.067 125.368  1.00  0.00     0.004 C 
ENDBRANCH  18  19
ENDBRANCH  17  18
ENDBRANCH  16  17
ENDBRANCH  15  16
ENDBRANCH  13  14
ENDBRANCH  12  13
ENDBRANCH   1  11
TORSDOF 14
ENDMDL
MODEL 2
REMARK VINA RESULT:     0.457      2.805      4.123
REMARK INTER + INTRA:          -0.719
REMARK INTER:                  -1.959
REMARK INTRA:                   1.240
REMARK UNBOUND:                -1.550
REMARK SMILES CCCCCC=CCC=CCCCCCCCC(=O)[O-]
REMARK SMILES IDX 11 1 12 2 13 3 14 4 15 5 16 6 17 7 18 8 19 9 20 10 10 11
REMARK SMILES IDX 9 12 8 13 7 14 6 15 5 16 4 17 3 18 2 19 1 20
REMARK H PARENT
REMARK Flexibility Score: inf
ROOT
ATOM      1  C   UNL     1     124.005 131.491 127.792  1.00  0.00     0.027 C 
ENDROOT
BRANCH   1   2
ATOM      2  C   UNL     1     122.720 130.940 127.165  1.00  0.00     0.004 C 
BRANCH   2   3
ATOM      3  C   UNL     1     122.715 131.145 125.646  1.00  0.00     0.000 C 
BRANCH   3   4
ATOM      4  C   UNL     1     123.935 131.964 125.198  1.00  0.00     0.000 C 
BRANCH   4   5
ATOM      5  C   UNL     1     124.183 131.879 123.683  1.00  0.00     0.000 C 
BRANCH   5   6
ATOM      6  C   UNL     1     125.585 132.370 123.285  1.00  0.00     0.006 C 
BRANCH   6   7
ATOM      7  C   UNL     1     125.981 133.656 124.025  1.00  0.00     0.053 C 
BRANCH   7   8
ATOM      8  C   UNL     1     125.468 134.881 123.329  1.00  0.00     0.041 C 
ATOM      9  O   UNL     1     124.294 134.906 122.875  1.00  0.00    -0.550 OA
ATOM     10  O   UNL     1     126.276 136.005 123.211  1.00  0.00    -0.550 OA
ENDBRANCH   7   8
ENDBRANCH   6   7
ENDBRANCH   5   6
ENDBRANCH   4   5
ENDBRANCH   3   4
ENDBRANCH   2   3
ENDBRANCH   1   2
BRANCH   1  11
ATOM     11  C   UNL     1     123.962 132.992 127.892  1.00  0.00    -0.031 C 
ATOM     12  C   UNL     1     125.057 133.726 127.654  1.00  0.00    -0.027 C 
BRANCH  12  13
ATOM     13  C   UNL     1     125.034 135.227 127.751  1.00  0.00     0.054 C 
BRANCH  13  14
ATOM     14  C   UNL     1     123.674 135.724 128.154  1.00  0.00    -0.027 C 
ATOM     15  C   UNL     1     122.646 134.881 128.335  1.00  0.00    -0.031 C 
BRANCH  15  16
ATOM     16  C   UNL     1     121.293 135.366 128.781  1.00  0.00     0.027 C 
BRANCH  16  17
ATOM     17  C   UNL     1     120.983 136.759 128.219  1.00  0.00     0.004 C 
BRANCH  17  18
ATOM     18  C   UNL     1     120.883 136.756 126.684  1.00  0.00     0.000 C 
BRANCH  18  19
ATOM     19  C   UNL     1     121.263 138.110 126.065  1.00  0.00    -0.003 C 
ATOM     20  C   UNL     1     120.937 138.190 124.574  1.00  0.00     0.004 C 
ENDBRANCH  18  19
ENDBRANCH  17  18
ENDBRANCH  16  17
ENDBRANCH  15  16
ENDBRANCH  13  14
ENDBRANCH  12  13
ENDBRANCH   1  11
TORSDOF 14
ENDMDL
MODEL 3
REMARK VINA RESULT:     0.744      3.161      6.379
REMARK INTER + INTRA:          -0.198
REMARK INTER:                  -0.025
REMARK INTRA:                  -0.173
REMARK UNBOUND:                -1.550
REMARK SMILES CCCCCC=CCC=CCCCCCCCC(=O)[O-]
REMARK SMILES IDX 11 1 12 2 13 3 14 4 15 5 16 6 17 7 18 8 19 9 20 10 10 11
REMARK SMILES IDX 9 12 8 13 7 14 6 15 5 16 4 17 3 18 2 19 1 20
REMARK H PARENT
REMARK Flexibility Score: inf
ROOT
ATOM      1  C   UNL     1     125.775 134.618 127.154  1.00  0.00     0.027 C 
ENDROOT
BRANCH   1   2
ATOM      2  C   UNL     1     124.717 135.166 128.118  1.00  0.00     0.004 C 
BRANCH   2   3
ATOM      3  C   UNL     1     123.318 134.663 127.745  1.00  0.00     0.000 C 
BRANCH   3   4
ATOM      4  C   UNL     1     122.283 135.083 128.799  1.00  0.00     0.000 C 
BRANCH   4   5
ATOM      5  C   UNL     1     120.975 135.595 128.177  1.00  0.00     0.000 C 
BRANCH   5   6
ATOM      6  C   UNL     1     121.144 136.954 127.476  1.00  0.00     0.006 C 
BRANCH   6   7
ATOM      7  C   UNL     1     120.882 136.865 125.967  1.00  0.00     0.053 C 
BRANCH   7   8
ATOM      8  C   UNL     1     120.908 138.214 125.314  1.00  0.00     0.041 C 
ATOM      9  O   UNL     1     120.930 138.309 124.059  1.00  0.00    -0.550 OA
ATOM     10  O   UNL     1     120.875 139.365 126.092  1.00  0.00    -0.550 OA
ENDBRANCH   7   8
ENDBRANCH   6   7
ENDBRANCH   5   6
ENDBRANCH   4   5
ENDBRANCH   3   4
ENDBRANCH   2   3
ENDBRANCH   1   2
BRANCH   1  11
ATOM     11  C   UNL     1     125.284 134.650 125.733  1.00  0.00    -0.031 C 
ATOM     12  C   UNL     1     126.032 135.191 124.761  1.00  0.00    -0.027 C 
BRANCH  12  13
ATOM     13  C   UNL     1     125.559 135.234 123.335  1.00  0.00     0.054 C 
BRANCH  13  14
ATOM     14  C   UNL     1     124.992 133.908 122.911  1.00  0.00    -0.027 C 
ATOM     15  C   UNL     1     125.571 132.752 123.273  1.00  0.00    -0.031 C 
BRANCH  15  16
ATOM     16  C   UNL     1     124.985 131.420 122.889  1.00  0.00     0.027 C 
BRANCH  16  17
ATOM     17  C   UNL     1     124.002 130.911 123.951  1.00  0.00     0.004 C 
BRANCH  17  18
ATOM     18  C   UNL     1     123.627 132.005 124.965  1.00  0.00     0.000 C 
BRANCH  18  19
ATOM     19  C   UNL     1     123.219 131.429 126.330  1.00  0.00    -0.003 C 
ATOM     20  C   UNL     1     124.222 131.763 127.435  1.00  0.00     0.004 C 
ENDBRANCH  18  19
ENDBRANCH  17  18
ENDBRANCH  16  17
ENDBRANCH  15  16
ENDBRANCH  13  14
ENDBRANCH  12  13
ENDBRANCH   1  11
TORSDOF 14
ENDMDL
MODEL 4
REMARK VINA RESULT:     0.816      2.434      5.767
REMARK INTER + INTRA:          -0.067
REMARK INTER:                   0.699
REMARK INTRA:                  -0.767
REMARK UNBOUND:                -1.550
REMARK SMILES CCCCCC=CCC=CCCCCCCCC(=O)[O-]
REMARK SMILES IDX 11 1 12 2 13 3 14 4 15 5 16 6 17 7 18 8 19 9 20 10 10 11
REMARK SMILES IDX 9 12 8 13 7 14 6 15 5 16 4 17 3 18 2 19 1 20
REMARK H PARENT
REMARK Flexibility Score: inf
ROOT
ATOM      1  C   UNL     1     125.711 132.296 123.520  1.00  0.00     0.027 C 
ENDROOT
BRANCH   1   2
ATOM      2  C   UNL     1     126.431 132.871 124.745  1.00  0.00     0.004 C 
BRANCH   2   3
ATOM      3  C   UNL     1     125.640 134.036 125.352  1.00  0.00     0.000 C 
BRANCH   3   4
ATOM      4  C   UNL     1     125.352 133.788 126.840  1.00  0.00     0.000 C 
BRANCH   4   5
ATOM      5  C   UNL     1     124.817 135.038 127.557  1.00  0.00     0.000 C 
BRANCH   5   6
ATOM      6  C   UNL     1     123.596 134.735 128.443  1.00  0.00     0.006 C 
BRANCH   6   7
ATOM      7  C   UNL     1     122.293 134.685 127.634  1.00  0.00     0.053 C 
BRANCH   7   8
ATOM      8  C   UNL     1     121.461 135.915 127.838  1.00  0.00     0.041 C 
ATOM      9  O   UNL     1     121.049 136.217 128.989  1.00  0.00    -0.550 OA
ATOM     10  O   UNL     1     121.167 136.744 126.762  1.00  0.00    -0.550 OA
ENDBRANCH   7   8
ENDBRANCH   6   7
ENDBRANCH   5   6
ENDBRANCH   4   5
ENDBRANCH   3   4
ENDBRANCH   2   3
ENDBRANCH   1   2
BRANCH   1  11
ATOM     11  C   UNL     1     124.264 132.017 123.821  1.00  0.00    -0.031 C 
ATOM     12  C   UNL     1     123.862 131.755 125.072  1.00  0.00    -0.027 C 
BRANCH  12  13
ATOM     13  C   UNL     1     122.421 131.473 125.393  1.00  0.00     0.054 C 
BRANCH  13  14
ATOM     14  C   UNL     1     122.259 131.024 126.818  1.00  0.00    -0.027 C 
ATOM     15  C   UNL     1     123.259 131.141 127.706  1.00  0.00    -0.031 C 
BRANCH  15  16
ATOM     16  C   UNL     1     123.090 130.735 129.146  1.00  0.00     0.027 C 
BRANCH  16  17
ATOM     17  C   UNL     1     123.084 129.209 129.302  1.00  0.00     0.004 C 
BRANCH  17  18
ATOM     18  C   UNL     1     121.664 128.624 129.220  1.00  0.00     0.000 C 
BRANCH  18  19
ATOM     19  C   UNL     1     121.420 127.851 127.915  1.00  0.00    -0.003 C 
ATOM     20  C   UNL     1     121.389 126.337 128.122  1.00  0.00     0.004 C 
ENDBRANCH  18  19
ENDBRANCH  17  18
ENDBRANCH  16  17
ENDBRANCH  15  16
ENDBRANCH  13  14
ENDBRANCH  12  13
ENDBRANCH   1  11
TORSDOF 14
ENDMDL
MODEL 5
REMARK VINA RESULT:     1.050      2.956      6.282
REMARK INTER + INTRA:           0.358
REMARK INTER:                   0.944
REMARK INTRA:                  -0.586
REMARK UNBOUND:                -1.550
REMARK SMILES CCCCCC=CCC=CCCCCCCCC(=O)[O-]
REMARK SMILES IDX 11 1 12 2 13 3 14 4 15 5 16 6 17 7 18 8 19 9 20 10 10 11
REMARK SMILES IDX 9 12 8 13 7 14 6 15 5 16 4 17 3 18 2 19 1 20
REMARK H PARENT
REMARK Flexibility Score: inf
ROOT
ATOM      1  C   UNL     1     125.841 134.582 126.965  1.00  0.00     0.027 C 
ENDROOT
BRANCH   1   2
ATOM      2  C   UNL     1     124.898 134.508 128.171  1.00  0.00     0.004 C 
BRANCH   2   3
ATOM      3  C   UNL     1     123.443 134.745 127.748  1.00  0.00     0.000 C 
BRANCH   3   4
ATOM      4  C   UNL     1     122.718 135.652 128.753  1.00  0.00     0.000 C 
BRANCH   4   5
ATOM      5  C   UNL     1     121.213 135.772 128.467  1.00  0.00     0.000 C 
BRANCH   5   6
ATOM      6  C   UNL     1     120.919 136.322 127.061  1.00  0.00     0.006 C 
BRANCH   6   7
ATOM      7  C   UNL     1     121.066 137.848 126.994  1.00  0.00     0.053 C 
BRANCH   7   8
ATOM      8  C   UNL     1     120.984 138.356 125.586  1.00  0.00     0.041 C 
ATOM      9  O   UNL     1     120.985 137.548 124.621  1.00  0.00    -0.550 OA
ATOM     10  O   UNL     1     120.875 139.720 125.342  1.00  0.00    -0.550 OA
ENDBRANCH   7   8
ENDBRANCH   6   7
ENDBRANCH   5   6
ENDBRANCH   4   5
ENDBRANCH   3   4
ENDBRANCH   2   3
ENDBRANCH   1   2
BRANCH   1  11
ATOM     11  C   UNL     1     125.340 133.731 125.830  1.00  0.00    -0.031 C 
ATOM     12  C   UNL     1     126.198 133.141 124.986  1.00  0.00    -0.027 C 
BRANCH  12  13
ATOM     13  C   UNL     1     125.718 132.289 123.844  1.00  0.00     0.054 C 
BRANCH  13  14
ATOM     14  C   UNL     1     124.288 131.871 124.042  1.00  0.00    -0.027 C 
ATOM     15  C   UNL     1     123.748 131.784 125.268  1.00  0.00    -0.031 C 
BRANCH  15  16
ATOM     16  C   UNL     1     122.304 131.410 125.472  1.00  0.00     0.027 C 
BRANCH  16  17
ATOM     17  C   UNL     1     122.030 131.001 126.925  1.00  0.00     0.004 C 
BRANCH  17  18
ATOM     18  C   UNL     1     123.253 131.223 127.831  1.00  0.00     0.000 C 
BRANCH  18  19
ATOM     19  C   UNL     1     123.104 130.542 129.200  1.00  0.00    -0.003 C 
ATOM     20  C   UNL     1     122.454 129.162 129.106  1.00  0.00     0.004 C 
ENDBRANCH  18  19
ENDBRANCH  17  18
ENDBRANCH  16  17
ENDBRANCH  15  16
ENDBRANCH  13  14
ENDBRANCH  12  13
ENDBRANCH   1  11
TORSDOF 14
ENDMDL
MODEL 6
REMARK VINA RESULT:     1.172      2.110      5.646
REMARK INTER + INTRA:           0.581
REMARK INTER:                   1.670
REMARK INTRA:                  -1.089
REMARK UNBOUND:                -1.550
REMARK SMILES CCCCCC=CCC=CCCCCCCCC(=O)[O-]
REMARK SMILES IDX 11 1 12 2 13 3 14 4 15 5 16 6 17 7 18 8 19 9 20 10 10 11
REMARK SMILES IDX 9 12 8 13 7 14 6 15 5 16 4 17 3 18 2 19 1 20
REMARK H PARENT
REMARK Flexibility Score: inf
ROOT
ATOM      1  C   UNL     1     125.336 131.741 123.012  1.00  0.00     0.027 C 
ENDROOT
BRANCH   1   2
ATOM      2  C   UNL     1     126.318 132.697 123.697  1.00  0.00     0.004 C 
BRANCH   2   3
ATOM      3  C   UNL     1     125.741 134.115 123.779  1.00  0.00     0.000 C 
BRANCH   3   4
ATOM      4  C   UNL     1     125.806 134.653 125.216  1.00  0.00     0.000 C 
BRANCH   4   5
ATOM      5  C   UNL     1     125.537 133.567 126.270  1.00  0.00     0.000 C 
BRANCH   5   6
ATOM      6  C   UNL     1     125.042 134.148 127.606  1.00  0.00     0.006 C 
BRANCH   6   7
ATOM      7  C   UNL     1     123.842 135.086 127.420  1.00  0.00     0.053 C 
BRANCH   7   8
ATOM      8  C   UNL     1     122.765 134.821 128.428  1.00  0.00     0.041 C 
ATOM      9  O   UNL     1     123.009 134.121 129.446  1.00  0.00    -0.550 OA
ATOM     10  O   UNL     1     121.501 135.373 128.259  1.00  0.00    -0.550 OA
ENDBRANCH   7   8
ENDBRANCH   6   7
ENDBRANCH   5   6
ENDBRANCH   4   5
ENDBRANCH   3   4
ENDBRANCH   2   3
ENDBRANCH   1   2
BRANCH   1  11
ATOM     11  C   UNL     1     123.974 131.814 123.646  1.00  0.00    -0.031 C 
ATOM     12  C   UNL     1     123.822 131.640 124.966  1.00  0.00    -0.027 C 
BRANCH  12  13
ATOM     13  C   UNL     1     122.469 131.708 125.619  1.00  0.00     0.054 C 
BRANCH  13  14
ATOM     14  C   UNL     1     122.403 130.816 126.826  1.00  0.00    -0.027 C 
ATOM     15  C   UNL     1     123.142 131.062 127.919  1.00  0.00    -0.031 C 
BRANCH  15  16
ATOM     16  C   UNL     1     123.048 130.199 129.149  1.00  0.00     0.027 C 
BRANCH  16  17
ATOM     17  C   UNL     1     121.733 129.410 129.183  1.00  0.00     0.004 C 
BRANCH  17  18
ATOM     18  C   UNL     1     121.967 127.891 129.151  1.00  0.00     0.000 C 
BRANCH  18  19
ATOM     19  C   UNL     1     121.581 127.263 127.803  1.00  0.00    -0.003 C 
ATOM     20  C   UNL     1     121.228 125.780 127.921  1.00  0.00     0.004 C 
ENDBRANCH  18  19
ENDBRANCH  17  18
ENDBRANCH  16  17
ENDBRANCH  15  16
ENDBRANCH  13  14
ENDBRANCH  12  13
ENDBRANCH   1  11
TORSDOF 14
ENDMDL
MODEL 7
REMARK VINA RESULT:     1.440      3.616      7.297
REMARK INTER + INTRA:           1.068
REMARK INTER:                   1.201
REMARK INTRA:                  -0.133
REMARK UNBOUND:                -1.550
REMARK SMILES CCCCCC=CCC=CCCCCCCCC(=O)[O-]
REMARK SMILES IDX 11 1 12 2 13 3 14 4 15 5 16 6 17 7 18 8 19 9 20 10 10 11
REMARK SMILES IDX 9 12 8 13 7 14 6 15 5 16 4 17 3 18 2 19 1 20
REMARK H PARENT
REMARK Flexibility Score: inf
ROOT
ATOM      1  C   UNL     1     123.840 134.032 127.224  1.00  0.00     0.027 C 
ENDROOT
BRANCH   1   2
ATOM      2  C   UNL     1     125.357 134.120 127.024  1.00  0.00     0.004 C 
BRANCH   2   3
ATOM      3  C   UNL     1     125.987 132.723 126.970  1.00  0.00     0.000 C 
BRANCH   3   4
ATOM      4  C   UNL     1     126.215 132.278 125.518  1.00  0.00     0.000 C 
BRANCH   4   5
ATOM      5  C   UNL     1     126.528 133.453 124.579  1.00  0.00     0.000 C 
BRANCH   5   6
ATOM      6  C   UNL     1     125.745 133.379 123.256  1.00  0.00     0.006 C 
BRANCH   6   7
ATOM      7  C   UNL     1     124.276 132.992 123.474  1.00  0.00     0.053 C 
BRANCH   7   8
ATOM      8  C   UNL     1     124.107 131.511 123.634  1.00  0.00     0.041 C 
ATOM      9  O   UNL     1     123.246 131.055 124.432  1.00  0.00    -0.550 OA
ATOM     10  O   UNL     1     124.876 130.636 122.877  1.00  0.00    -0.550 OA
ENDBRANCH   7   8
ENDBRANCH   6   7
ENDBRANCH   5   6
ENDBRANCH   4   5
ENDBRANCH   3   4
ENDBRANCH   2   3
ENDBRANCH   1   2
BRANCH   1  11
ATOM     11  C   UNL     1     123.494 133.125 128.373  1.00  0.00    -0.031 C 
ATOM     12  C   UNL     1     123.448 131.796 128.207  1.00  0.00    -0.027 C 
BRANCH  12  13
ATOM     13  C   UNL     1     123.103 130.873 129.342  1.00  0.00     0.054 C 
BRANCH  13  14
ATOM     14  C   UNL     1     122.075 129.859 128.925  1.00  0.00    -0.027 C 
ATOM     15  C   UNL     1     122.295 128.542 129.064  1.00  0.00    -0.031 C 
BRANCH  15  16
ATOM     16  C   UNL     1     121.254 127.522 128.689  1.00  0.00     0.027 C 
BRANCH  16  17
ATOM     17  C   UNL     1     121.632 126.780 127.401  1.00  0.00     0.004 C 
BRANCH  17  18
ATOM     18  C   UNL     1     121.337 125.273 127.491  1.00  0.00     0.000 C 
BRANCH  18  19
ATOM     19  C   UNL     1     121.020 124.819 128.924  1.00  0.00    -0.003 C 
ATOM     20  C   UNL     1     121.080 123.300 129.088  1.00  0.00     0.004 C 
ENDBRANCH  18  19
ENDBRANCH  17  18
ENDBRANCH  16  17
ENDBRANCH  15  16
ENDBRANCH  13  14
ENDBRANCH  12  13
ENDBRANCH   1  11
TORSDOF 14
ENDMDL
MODEL 8
REMARK VINA RESULT:     1.616      3.702      7.411
REMARK INTER + INTRA:           1.388
REMARK INTER:                   1.624
REMARK INTRA:                  -0.236
REMARK UNBOUND:                -1.550
REMARK SMILES CCCCCC=CCC=CCCCCCCCC(=O)[O-]
REMARK SMILES IDX 11 1 12 2 13 3 14 4 15 5 16 6 17 7 18 8 19 9 20 10 10 11
REMARK SMILES IDX 9 12 8 13 7 14 6 15 5 16 4 17 3 18 2 19 1 20
REMARK H PARENT
REMARK Flexibility Score: inf
ROOT
ATOM      1  C   UNL     1     125.716 132.482 126.295  1.00  0.00     0.027 C 
ENDROOT
BRANCH   1   2
ATOM      2  C   UNL     1     125.633 133.883 125.680  1.00  0.00     0.004 C 
BRANCH   2   3
ATOM      3  C   UNL     1     125.273 134.930 126.742  1.00  0.00     0.000 C 
BRANCH   3   4
ATOM      4  C   UNL     1     123.757 134.966 126.987  1.00  0.00     0.000 C 
BRANCH   4   5
ATOM      5  C   UNL     1     123.398 135.334 128.435  1.00  0.00     0.000 C 
BRANCH   5   6
ATOM      6  C   UNL     1     121.949 134.965 128.798  1.00  0.00     0.006 C 
BRANCH   6   7
ATOM      7  C   UNL     1     120.953 135.391 127.711  1.00  0.00     0.053 C 
BRANCH   7   8
ATOM      8  C   UNL     1     120.932 136.878 127.524  1.00  0.00     0.041 C 
ATOM      9  O   UNL     1     120.895 137.641 128.525  1.00  0.00    -0.550 OA
ATOM     10  O   UNL     1     120.987 137.421 126.246  1.00  0.00    -0.550 OA
ENDBRANCH   7   8
ENDBRANCH   6   7
ENDBRANCH   5   6
ENDBRANCH   4   5
ENDBRANCH   3   4
ENDBRANCH   2   3
ENDBRANCH   1   2
BRANCH   1  11
ATOM     11  C   UNL     1     124.724 132.319 127.414  1.00  0.00    -0.031 C 
ATOM     12  C   UNL     1     124.310 131.101 127.790  1.00  0.00    -0.027 C 
BRANCH  12  13
ATOM     13  C   UNL     1     123.318 130.917 128.905  1.00  0.00     0.054 C 
BRANCH  13  14
ATOM     14  C   UNL     1     122.937 129.472 129.061  1.00  0.00    -0.027 C 
ATOM     15  C   UNL     1     121.706 129.036 128.753  1.00  0.00    -0.031 C 
BRANCH  15  16
ATOM     16  C   UNL     1     121.330 127.582 128.865  1.00  0.00     0.027 C 
BRANCH  16  17
ATOM     17  C   UNL     1     121.489 126.856 127.523  1.00  0.00     0.004 C 
BRANCH  17  18
ATOM     18  C   UNL     1     121.190 125.352 127.638  1.00  0.00     0.000 C 
BRANCH  18  19
ATOM     19  C   UNL     1     121.029 124.892 129.095  1.00  0.00    -0.003 C 
ATOM     20  C   UNL     1     121.120 123.374 129.248  1.00  0.00     0.004 C 
ENDBRANCH  18  19
ENDBRANCH  17  18
ENDBRANCH  16  17
ENDBRANCH  15  16
ENDBRANCH  13  14
ENDBRANCH  12  13
ENDBRANCH   1  11
TORSDOF 14
ENDMDL
MODEL 9
REMARK VINA RESULT:     2.101      4.242      7.951
REMARK INTER + INTRA:           2.270
REMARK INTER:                   3.202
REMARK INTRA:                  -0.933
REMARK UNBOUND:                -1.550
REMARK SMILES CCCCCC=CCC=CCCCCCCCC(=O)[O-]
REMARK SMILES IDX 11 1 12 2 13 3 14 4 15 5 16 6 17 7 18 8 19 9 20 10 10 11
REMARK SMILES IDX 9 12 8 13 7 14 6 15 5 16 4 17 3 18 2 19 1 20
REMARK H PARENT
REMARK Flexibility Score: inf
ROOT
ATOM      1  C   UNL     1     123.185 134.450 128.566  1.00  0.00     0.027 C 
ENDROOT
BRANCH   1   2
ATOM      2  C   UNL     1     123.613 134.120 127.132  1.00  0.00     0.004 C 
BRANCH   2   3
ATOM      3  C   UNL     1     125.139 134.150 126.991  1.00  0.00     0.000 C 
BRANCH   3   4
ATOM      4  C   UNL     1     125.683 132.769 126.597  1.00  0.00     0.000 C 
BRANCH   4   5
ATOM      5  C   UNL     1     125.153 132.288 125.237  1.00  0.00     0.000 C 
BRANCH   5   6
ATOM      6  C   UNL     1     126.231 132.308 124.140  1.00  0.00     0.006 C 
BRANCH   6   7
ATOM      7  C   UNL     1     125.757 133.036 122.875  1.00  0.00     0.053 C 
BRANCH   7   8
ATOM      8  C   UNL     1     125.437 134.475 123.145  1.00  0.00     0.041 C 
ATOM      9  O   UNL     1     124.285 134.923 122.906  1.00  0.00    -0.550 OA
ATOM     10  O   UNL     1     126.402 135.313 123.690  1.00  0.00    -0.550 OA
ENDBRANCH   7   8
ENDBRANCH   6   7
ENDBRANCH   5   6
ENDBRANCH   4   5
ENDBRANCH   3   4
ENDBRANCH   2   3
ENDBRANCH   1   2
BRANCH   1  11
ATOM     11  C   UNL     1     122.755 133.211 129.303  1.00  0.00    -0.031 C 
ATOM     12  C   UNL     1     123.136 131.997 128.883  1.00  0.00    -0.027 C 
BRANCH  12  13
ATOM     13  C   UNL     1     122.715 130.747 129.605  1.00  0.00     0.054 C 
BRANCH  13  14
ATOM     14  C   UNL     1     122.412 129.637 128.638  1.00  0.00    -0.027 C 
ATOM     15  C   UNL     1     121.826 128.499 129.041  1.00  0.00    -0.031 C 
BRANCH  15  16
ATOM     16  C   UNL     1     121.480 127.400 128.072  1.00  0.00     0.027 C 
BRANCH  16  17
ATOM     17  C   UNL     1     121.008 126.136 128.801  1.00  0.00     0.004 C 
BRANCH  17  18
ATOM     18  C   UNL     1     121.325 124.857 128.008  1.00  0.00     0.000 C 
BRANCH  18  19
ATOM     19  C   UNL     1     121.104 123.580 128.833  1.00  0.00    -0.003 C 
ATOM     20  C   UNL     1     121.909 122.391 128.309  1.00  0.00     0.004 C 
ENDBRANCH  18  19
ENDBRANCH  17  18
ENDBRANCH  16  17
ENDBRANCH  15  16
ENDBRANCH  13  14
ENDBRANCH  12  13
ENDBRANCH   1  11
TORSDOF 14
ENDMDL
