MODEL 1
REMARK VINA RESULT:    -4.996      0.000      0.000
REMARK INTER + INTRA:          -6.152
REMARK INTER:                  -5.872
REMARK INTRA:                  -0.280
REMARK UNBOUND:                -0.280
REMARK SMILES O=c1cc(-c2ccc(O)c(O)c2)oc2cc(O)cc(O)c12
REMARK SMILES IDX 4 1 3 2 2 3 1 4 21 5 19 6 18 7 16 8 15 9 14 10 13 11 5 12
REMARK SMILES IDX 6 13 7 14 8 15 12 16 10 17 9 18 11 20 20 22 17 24
REMARK H PARENT 9 19 11 21 20 23 17 25
REMARK Flexibility Score: inf
ROOT
ATOM      1  C   UNL     1      58.319  42.504 123.798  1.00  0.00     0.138 A 
ATOM      2  C   UNL     1      59.222  41.456 123.579  1.00  0.00     0.100 A 
ATOM      3  C   UNL     1      58.742  40.174 123.314  1.00  0.00     0.197 A 
ATOM      4  O   UNL     1      59.578  39.266 123.061  1.00  0.00    -0.289 OA
ATOM      5  C   UNL     1      57.348  39.934 123.301  1.00  0.00     0.107 A 
ATOM      6  C   UNL     1      56.744  38.659 123.084  1.00  0.00     0.134 A 
ATOM      7  C   UNL     1      55.352  38.564 122.976  1.00  0.00     0.093 A 
ATOM      8  C   UNL     1      54.538  39.688 123.140  1.00  0.00     0.123 A 
ATOM      9  C   UNL     1      55.115  40.928 123.405  1.00  0.00     0.094 A 
ATOM     10  C   UNL     1      56.502  41.061 123.484  1.00  0.00     0.146 A 
ATOM     11  O   UNL     1      57.013  42.264 123.725  1.00  0.00    -0.456 OA
ENDROOT
BRANCH   1  12
ATOM     12  C   UNL     1      58.775  43.888 124.083  1.00  0.00     0.021 A 
ATOM     13  C   UNL     1      59.632  44.580 123.206  1.00  0.00     0.016 A 
ATOM     14  C   UNL     1      60.054  45.878 123.504  1.00  0.00     0.051 A 
ATOM     15  C   UNL     1      59.636  46.505 124.685  1.00  0.00     0.157 A 
ATOM     16  C   UNL     1      58.370  44.520 125.273  1.00  0.00     0.062 A 
ATOM     17  C   UNL     1      58.791  45.820 125.573  1.00  0.00     0.158 A 
BRANCH  15  18
ATOM     18  O   UNL     1      60.059  47.800 124.978  1.00  0.00    -0.504 OA
ATOM     19  H   UNL     1      59.501  48.424 125.549  1.00  0.00     0.293 HD
ENDBRANCH  15  18
BRANCH  17  20
ATOM     20  O   UNL     1      58.360  46.415 126.759  1.00  0.00    -0.504 OA
ATOM     21  H   UNL     1      58.937  46.437 127.591  1.00  0.00     0.293 HD
ENDBRANCH  17  20
ENDBRANCH   1  12
BRANCH   6  22
ATOM     22  O   UNL     1      57.460  37.461 122.992  1.00  0.00    -0.507 OA
ATOM     23  H   UNL     1      58.437  37.355 123.217  1.00  0.00     0.293 HD
ENDBRANCH   6  22
BRANCH   8  24
ATOM     24  O   UNL     1      53.151  39.582 123.046  1.00  0.00    -0.508 OA
ATOM     25  H   UNL     1      52.683  38.687 123.121  1.00  0.00     0.293 HD
ENDBRANCH   8  24
TORSDOF 5
ENDMDL
MODEL 2
REMARK VINA RESULT:    -4.832      3.720      6.713
REMARK INTER + INTRA:          -5.960
REMARK INTER:                  -5.642
REMARK INTRA:                  -0.318
REMARK UNBOUND:                -0.280
REMARK SMILES O=c1cc(-c2ccc(O)c(O)c2)oc2cc(O)cc(O)c12
REMARK SMILES IDX 4 1 3 2 2 3 1 4 21 5 19 6 18 7 16 8 15 9 14 10 13 11 5 12
REMARK SMILES IDX 6 13 7 14 8 15 12 16 10 17 9 18 11 20 20 22 17 24
REMARK H PARENT 9 19 11 21 20 23 17 25
REMARK Flexibility Score: inf
ROOT
ATOM      1  C   UNL     1      53.863  40.915 123.328  1.00  0.00     0.138 A 
ATOM      2  C   UNL     1      53.459  42.252 123.439  1.00  0.00     0.100 A 
ATOM      3  C   UNL     1      52.102  42.570 123.387  1.00  0.00     0.197 A 
ATOM      4  O   UNL     1      51.766  43.772 123.552  1.00  0.00    -0.289 OA
ATOM      5  C   UNL     1      51.146  41.545 123.190  1.00  0.00     0.107 A 
ATOM      6  C   UNL     1      49.739  41.756 123.079  1.00  0.00     0.134 A 
ATOM      7  C   UNL     1      48.880  40.653 123.003  1.00  0.00     0.093 A 
ATOM      8  C   UNL     1      49.382  39.349 122.971  1.00  0.00     0.123 A 
ATOM      9  C   UNL     1      50.758  39.135 123.025  1.00  0.00     0.094 A 
ATOM     10  C   UNL     1      51.638  40.213 123.136  1.00  0.00     0.146 A 
ATOM     11  O   UNL     1      52.942  39.965 123.198  1.00  0.00    -0.456 OA
ENDROOT
BRANCH   1  12
ATOM     12  C   UNL     1      55.294  40.521 123.376  1.00  0.00     0.021 A 
ATOM     13  C   UNL     1      56.313  41.463 123.620  1.00  0.00     0.016 A 
ATOM     14  C   UNL     1      57.651  41.065 123.650  1.00  0.00     0.051 A 
ATOM     15  C   UNL     1      57.998  39.726 123.430  1.00  0.00     0.157 A 
ATOM     16  C   UNL     1      55.652  39.181 123.143  1.00  0.00     0.062 A 
ATOM     17  C   UNL     1      56.992  38.781 123.174  1.00  0.00     0.158 A 
BRANCH  15  18
ATOM     18  O   UNL     1      59.336  39.335 123.463  1.00  0.00    -0.504 OA
ATOM     19  H   UNL     1      59.612  38.414 123.781  1.00  0.00     0.293 HD
ENDBRANCH  15  18
BRANCH  17  20
ATOM     20  O   UNL     1      57.305  37.441 122.947  1.00  0.00    -0.504 OA
ATOM     21  H   UNL     1      56.594  36.749 122.744  1.00  0.00     0.293 HD
ENDBRANCH  17  20
ENDBRANCH   1  12
BRANCH   6  22
ATOM     22  O   UNL     1      49.141  43.018 123.015  1.00  0.00    -0.507 OA
ATOM     23  H   UNL     1      48.836  43.469 122.166  1.00  0.00     0.293 HD
ENDBRANCH   6  22
BRANCH   8  24
ATOM     24  O   UNL     1      48.521  38.258 122.879  1.00  0.00    -0.508 OA
ATOM     25  H   UNL     1      47.682  38.291 122.313  1.00  0.00     0.293 HD
ENDBRANCH   8  24
TORSDOF 5
ENDMDL
MODEL 3
REMARK VINA RESULT:    -4.750      2.817      7.813
REMARK INTER + INTRA:          -5.864
REMARK INTER:                  -5.548
REMARK INTRA:                  -0.315
REMARK UNBOUND:                -0.280
REMARK SMILES O=c1cc(-c2ccc(O)c(O)c2)oc2cc(O)cc(O)c12
REMARK SMILES IDX 4 1 3 2 2 3 1 4 21 5 19 6 18 7 16 8 15 9 14 10 13 11 5 12
REMARK SMILES IDX 6 13 7 14 8 15 12 16 10 17 9 18 11 20 20 22 17 24
REMARK H PARENT 9 19 11 21 20 23 17 25
REMARK Flexibility Score: inf
ROOT
ATOM      1  C   UNL     1      54.822  38.268 123.844  1.00  0.00     0.138 A 
ATOM      2  C   UNL     1      55.848  37.491 124.400  1.00  0.00     0.100 A 
ATOM      3  C   UNL     1      57.119  38.040 124.564  1.00  0.00     0.197 A 
ATOM      4  O   UNL     1      58.003  37.338 125.122  1.00  0.00    -0.289 OA
ATOM      5  C   UNL     1      57.373  39.366 124.139  1.00  0.00     0.107 A 
ATOM      6  C   UNL     1      58.640  40.017 124.218  1.00  0.00     0.134 A 
ATOM      7  C   UNL     1      58.744  41.370 123.875  1.00  0.00     0.093 A 
ATOM      8  C   UNL     1      57.638  42.079 123.397  1.00  0.00     0.123 A 
ATOM      9  C   UNL     1      56.409  41.438 123.266  1.00  0.00     0.094 A 
ATOM     10  C   UNL     1      56.266  40.099 123.632  1.00  0.00     0.146 A 
ATOM     11  O   UNL     1      55.072  39.528 123.504  1.00  0.00    -0.456 OA
ENDROOT
BRANCH   1  12
ATOM     12  C   UNL     1      53.451  37.733 123.647  1.00  0.00     0.021 A 
ATOM     13  C   UNL     1      53.184  36.351 123.681  1.00  0.00     0.016 A 
ATOM     14  C   UNL     1      51.886  35.875 123.482  1.00  0.00     0.051 A 
ATOM     15  C   UNL     1      50.834  36.767 123.239  1.00  0.00     0.157 A 
ATOM     16  C   UNL     1      52.391  38.621 123.390  1.00  0.00     0.062 A 
ATOM     17  C   UNL     1      51.090  38.146 123.191  1.00  0.00     0.158 A 
BRANCH  15  18
ATOM     18  O   UNL     1      49.540  36.287 123.043  1.00  0.00    -0.504 OA
ATOM     19  H   UNL     1      49.110  35.638 123.691  1.00  0.00     0.293 HD
ENDBRANCH  15  18
BRANCH  17  20
ATOM     20  O   UNL     1      50.065  39.061 122.947  1.00  0.00    -0.504 OA
ATOM     21  H   UNL     1      49.133  38.767 122.679  1.00  0.00     0.293 HD
ENDBRANCH  17  20
ENDBRANCH   1  12
BRANCH   6  22
ATOM     22  O   UNL     1      59.824  39.378 124.600  1.00  0.00    -0.507 OA
ATOM     23  H   UNL     1      60.744  39.624 124.269  1.00  0.00     0.293 HD
ENDBRANCH   6  22
BRANCH   8  24
ATOM     24  O   UNL     1      57.754  43.422 123.043  1.00  0.00    -0.508 OA
ATOM     25  H   UNL     1      57.632  43.730 122.086  1.00  0.00     0.293 HD
ENDBRANCH   8  24
TORSDOF 5
ENDMDL
MODEL 4
REMARK VINA RESULT:    -4.613      3.692      8.832
REMARK INTER + INTRA:          -5.702
REMARK INTER:                  -5.384
REMARK INTRA:                  -0.318
REMARK UNBOUND:                -0.280
REMARK SMILES O=c1cc(-c2ccc(O)c(O)c2)oc2cc(O)cc(O)c12
REMARK SMILES IDX 4 1 3 2 2 3 1 4 21 5 19 6 18 7 16 8 15 9 14 10 13 11 5 12
REMARK SMILES IDX 6 13 7 14 8 15 12 16 10 17 9 18 11 20 20 22 17 24
REMARK H PARENT 9 19 11 21 20 23 17 25
REMARK Flexibility Score: inf
ROOT
ATOM      1  C   UNL     1      52.474  37.953 123.417  1.00  0.00     0.138 A 
ATOM      2  C   UNL     1      53.401  36.912 123.566  1.00  0.00     0.100 A 
ATOM      3  C   UNL     1      54.766  37.199 123.580  1.00  0.00     0.197 A 
ATOM      4  O   UNL     1      55.571  36.252 123.777  1.00  0.00    -0.289 OA
ATOM      5  C   UNL     1      55.206  38.534 123.412  1.00  0.00     0.107 A 
ATOM      6  C   UNL     1      56.573  38.940 123.369  1.00  0.00     0.134 A 
ATOM      7  C   UNL     1      56.887  40.303 123.316  1.00  0.00     0.093 A 
ATOM      8  C   UNL     1      55.882  41.272 123.243  1.00  0.00     0.123 A 
ATOM      9  C   UNL     1      54.545  40.883 123.231  1.00  0.00     0.094 A 
ATOM     10  C   UNL     1      54.200  39.533 123.317  1.00  0.00     0.146 A 
ATOM     11  O   UNL     1      52.912  39.204 123.316  1.00  0.00    -0.456 OA
ENDROOT
BRANCH   1  12
ATOM     12  C   UNL     1      51.011  37.704 123.394  1.00  0.00     0.021 A 
ATOM     13  C   UNL     1      50.477  36.414 123.583  1.00  0.00     0.016 A 
ATOM     14  C   UNL     1      49.097  36.207 123.547  1.00  0.00     0.051 A 
ATOM     15  C   UNL     1      48.225  37.278 123.314  1.00  0.00     0.157 A 
ATOM     16  C   UNL     1      50.130  38.772 123.149  1.00  0.00     0.062 A 
ATOM     17  C   UNL     1      48.746  38.566 123.113  1.00  0.00     0.158 A 
BRANCH  15  18
ATOM     18  O   UNL     1      46.847  37.066 123.281  1.00  0.00    -0.504 OA
ATOM     19  H   UNL     1      46.193  37.781 123.575  1.00  0.00     0.293 HD
ENDBRANCH  15  18
BRANCH  17  20
ATOM     20  O   UNL     1      47.905  39.654 122.875  1.00  0.00    -0.504 OA
ATOM     21  H   UNL     1      48.031  40.544 123.342  1.00  0.00     0.293 HD
ENDBRANCH  17  20
ENDBRANCH   1  12
BRANCH   6  22
ATOM     22  O   UNL     1      57.652  38.051 123.351  1.00  0.00    -0.507 OA
ATOM     23  H   UNL     1      57.835  37.383 122.618  1.00  0.00     0.293 HD
ENDBRANCH   6  22
BRANCH   8  24
ATOM     24  O   UNL     1      56.204  42.626 123.175  1.00  0.00    -0.508 OA
ATOM     25  H   UNL     1      55.488  43.336 123.075  1.00  0.00     0.293 HD
ENDBRANCH   8  24
TORSDOF 5
ENDMDL
MODEL 5
REMARK VINA RESULT:    -4.587      3.169      6.928
REMARK INTER + INTRA:          -5.671
REMARK INTER:                  -5.353
REMARK INTRA:                  -0.318
REMARK UNBOUND:                -0.280
REMARK SMILES O=c1cc(-c2ccc(O)c(O)c2)oc2cc(O)cc(O)c12
REMARK SMILES IDX 4 1 3 2 2 3 1 4 21 5 19 6 18 7 16 8 15 9 14 10 13 11 5 12
REMARK SMILES IDX 6 13 7 14 8 15 12 16 10 17 9 18 11 20 20 22 17 24
REMARK H PARENT 9 19 11 21 20 23 17 25
REMARK Flexibility Score: inf
ROOT
ATOM      1  C   UNL     1      53.240  40.343 123.130  1.00  0.00     0.138 A 
ATOM      2  C   UNL     1      53.440  38.965 122.981  1.00  0.00     0.100 A 
ATOM      3  C   UNL     1      54.734  38.445 123.024  1.00  0.00     0.197 A 
ATOM      4  O   UNL     1      54.877  37.197 122.948  1.00  0.00    -0.289 OA
ATOM      5  C   UNL     1      55.837  39.318 123.186  1.00  0.00     0.107 A 
ATOM      6  C   UNL     1      57.203  38.906 123.203  1.00  0.00     0.134 A 
ATOM      7  C   UNL     1      58.202  39.844 123.488  1.00  0.00     0.093 A 
ATOM      8  C   UNL     1      57.890  41.191 123.695  1.00  0.00     0.123 A 
ATOM      9  C   UNL     1      56.564  41.612 123.628  1.00  0.00     0.094 A 
ATOM     10  C   UNL     1      55.541  40.694 123.380  1.00  0.00     0.146 A 
ATOM     11  O   UNL     1      54.288  41.134 123.337  1.00  0.00    -0.456 OA
ENDROOT
BRANCH   1  12
ATOM     12  C   UNL     1      51.885  40.949 123.092  1.00  0.00     0.021 A 
ATOM     13  C   UNL     1      50.729  40.163 122.917  1.00  0.00     0.016 A 
ATOM     14  C   UNL     1      49.467  40.761 122.875  1.00  0.00     0.051 A 
ATOM     15  C   UNL     1      49.336  42.150 122.999  1.00  0.00     0.157 A 
ATOM     16  C   UNL     1      51.745  42.344 123.202  1.00  0.00     0.062 A 
ATOM     17  C   UNL     1      50.482  42.944 123.161  1.00  0.00     0.158 A 
BRANCH  15  18
ATOM     18  O   UNL     1      48.074  42.741 122.957  1.00  0.00    -0.504 OA
ATOM     19  H   UNL     1      47.252  42.262 123.306  1.00  0.00     0.293 HD
ENDBRANCH  15  18
BRANCH  17  20
ATOM     20  O   UNL     1      50.386  44.330 123.283  1.00  0.00    -0.504 OA
ATOM     21  H   UNL     1      51.205  44.925 123.326  1.00  0.00     0.293 HD
ENDBRANCH  17  20
ENDBRANCH   1  12
BRANCH   6  22
ATOM     22  O   UNL     1      57.631  37.605 122.926  1.00  0.00    -0.507 OA
ATOM     23  H   UNL     1      57.368  36.787 123.454  1.00  0.00     0.293 HD
ENDBRANCH   6  22
BRANCH   8  24
ATOM     24  O   UNL     1      58.893  42.120 123.963  1.00  0.00    -0.508 OA
ATOM     25  H   UNL     1      58.725  43.116 123.889  1.00  0.00     0.293 HD
ENDBRANCH   8  24
TORSDOF 5
ENDMDL
MODEL 6
REMARK VINA RESULT:    -4.516     11.608     14.589
REMARK INTER + INTRA:          -5.588
REMARK INTER:                  -5.305
REMARK INTRA:                  -0.283
REMARK UNBOUND:                -0.280
REMARK SMILES O=c1cc(-c2ccc(O)c(O)c2)oc2cc(O)cc(O)c12
REMARK SMILES IDX 4 1 3 2 2 3 1 4 21 5 19 6 18 7 16 8 15 9 14 10 13 11 5 12
REMARK SMILES IDX 6 13 7 14 8 15 12 16 10 17 9 18 11 20 20 22 17 24
REMARK H PARENT 9 19 11 21 20 23 17 25
REMARK Flexibility Score: inf
ROOT
ATOM      1  C   UNL     1      52.300  54.155 126.795  1.00  0.00     0.138 A 
ATOM      2  C   UNL     1      52.478  52.871 127.328  1.00  0.00     0.100 A 
ATOM      3  C   UNL     1      53.759  52.432 127.661  1.00  0.00     0.197 A 
ATOM      4  O   UNL     1      53.879  51.298 128.194  1.00  0.00    -0.289 OA
ATOM      5  C   UNL     1      54.873  53.274 127.429  1.00  0.00     0.107 A 
ATOM      6  C   UNL     1      56.230  52.917 127.691  1.00  0.00     0.134 A 
ATOM      7  C   UNL     1      57.238  53.875 127.532  1.00  0.00     0.093 A 
ATOM      8  C   UNL     1      56.946  55.158 127.061  1.00  0.00     0.123 A 
ATOM      9  C   UNL     1      55.632  55.499 126.752  1.00  0.00     0.094 A 
ATOM     10  C   UNL     1      54.599  54.577 126.933  1.00  0.00     0.146 A 
ATOM     11  O   UNL     1      53.357  54.947 126.639  1.00  0.00    -0.456 OA
ENDROOT
BRANCH   1  12
ATOM     12  C   UNL     1      50.959  54.673 126.423  1.00  0.00     0.021 A 
ATOM     13  C   UNL     1      49.885  54.665 127.334  1.00  0.00     0.016 A 
ATOM     14  C   UNL     1      48.631  55.149 126.954  1.00  0.00     0.051 A 
ATOM     15  C   UNL     1      48.424  55.642 125.659  1.00  0.00     0.157 A 
ATOM     16  C   UNL     1      50.740  55.157 125.121  1.00  0.00     0.062 A 
ATOM     17  C   UNL     1      49.485  55.643 124.739  1.00  0.00     0.158 A 
BRANCH  15  18
ATOM     18  O   UNL     1      47.171  56.125 125.286  1.00  0.00    -0.504 OA
ATOM     19  H   UNL     1      46.930  57.104 125.380  1.00  0.00     0.293 HD
ENDBRANCH  15  18
BRANCH  17  20
ATOM     20  O   UNL     1      49.310  56.122 123.441  1.00  0.00    -0.504 OA
ATOM     21  H   UNL     1      49.158  55.503 122.654  1.00  0.00     0.293 HD
ENDBRANCH  17  20
ENDBRANCH   1  12
BRANCH   6  22
ATOM     22  O   UNL     1      56.640  51.639 128.082  1.00  0.00    -0.507 OA
ATOM     23  H   UNL     1      57.067  50.959 127.472  1.00  0.00     0.293 HD
ENDBRANCH   6  22
BRANCH   8  24
ATOM     24  O   UNL     1      57.959  56.100 126.891  1.00  0.00    -0.508 OA
ATOM     25  H   UNL     1      58.223  56.434 125.972  1.00  0.00     0.293 HD
ENDBRANCH   8  24
TORSDOF 5
ENDMDL
MODEL 7
REMARK VINA RESULT:    -4.450     14.682     16.073
REMARK INTER + INTRA:          -5.511
REMARK INTER:                  -5.199
REMARK INTRA:                  -0.312
REMARK UNBOUND:                -0.280
REMARK SMILES O=c1cc(-c2ccc(O)c(O)c2)oc2cc(O)cc(O)c12
REMARK SMILES IDX 4 1 3 2 2 3 1 4 21 5 19 6 18 7 16 8 15 9 14 10 13 11 5 12
REMARK SMILES IDX 6 13 7 14 8 15 12 16 10 17 9 18 11 20 20 22 17 24
REMARK H PARENT 9 19 11 21 20 23 17 25
REMARK Flexibility Score: inf
ROOT
ATOM      1  C   UNL     1      48.416  36.929 134.738  1.00  0.00     0.138 A 
ATOM      2  C   UNL     1      48.696  36.352 133.493  1.00  0.00     0.100 A 
ATOM      3  C   UNL     1      47.717  36.345 132.499  1.00  0.00     0.197 A 
ATOM      4  O   UNL     1      48.018  35.875 131.371  1.00  0.00    -0.289 OA
ATOM      5  C   UNL     1      46.439  36.892 132.767  1.00  0.00     0.107 A 
ATOM      6  C   UNL     1      45.350  36.903 131.845  1.00  0.00     0.134 A 
ATOM      7  C   UNL     1      44.169  37.576 132.179  1.00  0.00     0.093 A 
ATOM      8  C   UNL     1      44.016  38.186 133.428  1.00  0.00     0.123 A 
ATOM      9  C   UNL     1      45.054  38.134 134.355  1.00  0.00     0.094 A 
ATOM     10  C   UNL     1      46.256  37.500 134.038  1.00  0.00     0.146 A 
ATOM     11  O   UNL     1      47.226  37.485 134.946  1.00  0.00    -0.456 OA
ENDROOT
BRANCH   1  12
ATOM     12  C   UNL     1      49.421  36.964 135.831  1.00  0.00     0.021 A 
ATOM     13  C   UNL     1      50.796  36.799 135.576  1.00  0.00     0.016 A 
ATOM     14  C   UNL     1      51.719  36.826 136.625  1.00  0.00     0.051 A 
ATOM     15  C   UNL     1      51.287  37.009 137.944  1.00  0.00     0.157 A 
ATOM     16  C   UNL     1      48.994  37.134 137.160  1.00  0.00     0.062 A 
ATOM     17  C   UNL     1      49.917  37.162 138.211  1.00  0.00     0.158 A 
BRANCH  15  18
ATOM     18  O   UNL     1      52.212  37.037 138.987  1.00  0.00    -0.504 OA
ATOM     19  H   UNL     1      52.993  37.681 138.986  1.00  0.00     0.293 HD
ENDBRANCH  15  18
BRANCH  17  20
ATOM     20  O   UNL     1      49.453  37.342 139.515  1.00  0.00    -0.504 OA
ATOM     21  H   UNL     1      48.465  37.361 139.738  1.00  0.00     0.293 HD
ENDBRANCH  17  20
ENDBRANCH   1  12
BRANCH   6  22
ATOM     22  O   UNL     1      45.368  36.253 130.607  1.00  0.00    -0.507 OA
ATOM     23  H   UNL     1      45.430  35.254 130.482  1.00  0.00     0.293 HD
ENDBRANCH   6  22
BRANCH   8  24
ATOM     24  O   UNL     1      42.831  38.841 133.758  1.00  0.00    -0.508 OA
ATOM     25  H   UNL     1      42.442  39.563 133.164  1.00  0.00     0.293 HD
ENDBRANCH   8  24
TORSDOF 5
ENDMDL
MODEL 8
REMARK VINA RESULT:    -4.404     11.687     14.546
REMARK INTER + INTRA:          -5.456
REMARK INTER:                  -5.192
REMARK INTRA:                  -0.264
REMARK UNBOUND:                -0.280
REMARK SMILES O=c1cc(-c2ccc(O)c(O)c2)oc2cc(O)cc(O)c12
REMARK SMILES IDX 4 1 3 2 2 3 1 4 21 5 19 6 18 7 16 8 15 9 14 10 13 11 5 12
REMARK SMILES IDX 6 13 7 14 8 15 12 16 10 17 9 18 11 20 20 22 17 24
REMARK H PARENT 9 19 11 21 20 23 17 25
REMARK Flexibility Score: inf
ROOT
ATOM      1  C   UNL     1      52.459  54.439 127.164  1.00  0.00     0.138 A 
ATOM      2  C   UNL     1      51.551  54.034 128.150  1.00  0.00     0.100 A 
ATOM      3  C   UNL     1      50.180  54.149 127.917  1.00  0.00     0.197 A 
ATOM      4  O   UNL     1      49.389  53.720 128.797  1.00  0.00    -0.289 OA
ATOM      5  C   UNL     1      49.719  54.703 126.699  1.00  0.00     0.107 A 
ATOM      6  C   UNL     1      48.346  54.907 126.367  1.00  0.00     0.134 A 
ATOM      7  C   UNL     1      48.004  55.354 125.086  1.00  0.00     0.093 A 
ATOM      8  C   UNL     1      48.989  55.664 124.144  1.00  0.00     0.123 A 
ATOM      9  C   UNL     1      50.334  55.518 124.476  1.00  0.00     0.094 A 
ATOM     10  C   UNL     1      50.705  55.042 125.735  1.00  0.00     0.146 A 
ATOM     11  O   UNL     1      51.999  54.905 126.007  1.00  0.00    -0.456 OA
ENDROOT
BRANCH   1  12
ATOM     12  C   UNL     1      53.928  54.339 127.360  1.00  0.00     0.021 A 
ATOM     13  C   UNL     1      54.666  55.379 127.958  1.00  0.00     0.016 A 
ATOM     14  C   UNL     1      56.049  55.262 128.121  1.00  0.00     0.051 A 
ATOM     15  C   UNL     1      56.719  54.113 127.684  1.00  0.00     0.157 A 
ATOM     16  C   UNL     1      54.611  53.194 126.913  1.00  0.00     0.062 A 
ATOM     17  C   UNL     1      55.995  53.076 127.076  1.00  0.00     0.158 A 
BRANCH  15  18
ATOM     18  O   UNL     1      58.099  54.001 127.851  1.00  0.00    -0.504 OA
ATOM     19  H   UNL     1      58.731  54.008 127.060  1.00  0.00     0.293 HD
ENDBRANCH  15  18
BRANCH  17  20
ATOM     20  O   UNL     1      56.634  51.919 126.626  1.00  0.00    -0.504 OA
ATOM     21  H   UNL     1      57.159  51.317 127.249  1.00  0.00     0.293 HD
ENDBRANCH  17  20
ENDBRANCH   1  12
BRANCH   6  22
ATOM     22  O   UNL     1      47.289  54.711 127.261  1.00  0.00    -0.507 OA
ATOM     23  H   UNL     1      46.975  55.387 127.941  1.00  0.00     0.293 HD
ENDBRANCH   6  22
BRANCH   8  24
ATOM     24  O   UNL     1      48.641  56.123 122.875  1.00  0.00    -0.508 OA
ATOM     25  H   UNL     1      47.817  55.780 122.396  1.00  0.00     0.293 HD
ENDBRANCH   8  24
TORSDOF 5
ENDMDL
MODEL 9
REMARK VINA RESULT:    -4.403     15.704     17.103
REMARK INTER + INTRA:          -5.455
REMARK INTER:                  -5.193
REMARK INTRA:                  -0.262
REMARK UNBOUND:                -0.280
REMARK SMILES O=c1cc(-c2ccc(O)c(O)c2)oc2cc(O)cc(O)c12
REMARK SMILES IDX 4 1 3 2 2 3 1 4 21 5 19 6 18 7 16 8 15 9 14 10 13 11 5 12
REMARK SMILES IDX 6 13 7 14 8 15 12 16 10 17 9 18 11 20 20 22 17 24
REMARK H PARENT 9 19 11 21 20 23 17 25
REMARK Flexibility Score: inf
ROOT
ATOM      1  C   UNL     1      47.114  38.814 135.412  1.00  0.00     0.138 A 
ATOM      2  C   UNL     1      47.166  40.206 135.262  1.00  0.00     0.100 A 
ATOM      3  C   UNL     1      46.095  40.878 134.673  1.00  0.00     0.197 A 
ATOM      4  O   UNL     1      46.144  42.134 134.607  1.00  0.00    -0.289 OA
ATOM      5  C   UNL     1      44.979  40.145 134.203  1.00  0.00     0.107 A 
ATOM      6  C   UNL     1      43.847  40.719 133.548  1.00  0.00     0.134 A 
ATOM      7  C   UNL     1      42.750  39.909 133.232  1.00  0.00     0.093 A 
ATOM      8  C   UNL     1      42.768  38.536 133.491  1.00  0.00     0.123 A 
ATOM      9  C   UNL     1      43.889  37.958 134.081  1.00  0.00     0.094 A 
ATOM     10  C   UNL     1      44.986  38.745 134.439  1.00  0.00     0.146 A 
ATOM     11  O   UNL     1      46.030  38.156 135.013  1.00  0.00    -0.456 OA
ENDROOT
BRANCH   1  12
ATOM     12  C   UNL     1      48.226  38.049 136.032  1.00  0.00     0.021 A 
ATOM     13  C   UNL     1      49.119  37.285 135.257  1.00  0.00     0.016 A 
ATOM     14  C   UNL     1      50.150  36.567 135.868  1.00  0.00     0.051 A 
ATOM     15  C   UNL     1      50.304  36.592 137.260  1.00  0.00     0.157 A 
ATOM     16  C   UNL     1      48.379  38.059 137.430  1.00  0.00     0.062 A 
ATOM     17  C   UNL     1      49.412  37.341 138.043  1.00  0.00     0.158 A 
BRANCH  15  18
ATOM     18  O   UNL     1      51.336  35.875 137.864  1.00  0.00    -0.504 OA
ATOM     19  H   UNL     1      52.256  36.277 137.994  1.00  0.00     0.293 HD
ENDBRANCH  15  18
BRANCH  17  20
ATOM     20  O   UNL     1      49.535  37.384 139.432  1.00  0.00    -0.504 OA
ATOM     21  H   UNL     1      50.309  36.947 139.918  1.00  0.00     0.293 HD
ENDBRANCH  17  20
ENDBRANCH   1  12
BRANCH   6  22
ATOM     22  O   UNL     1      43.762  42.061 133.168  1.00  0.00    -0.507 OA
ATOM     23  H   UNL     1      44.435  42.539 132.588  1.00  0.00     0.293 HD
ENDBRANCH   6  22
BRANCH   8  24
ATOM     24  O   UNL     1      41.677  37.735 133.159  1.00  0.00    -0.508 OA
ATOM     25  H   UNL     1      41.495  36.863 133.640  1.00  0.00     0.293 HD
ENDBRANCH   8  24
TORSDOF 5
ENDMDL
