MODEL 1
REMARK VINA RESULT:    -2.348      0.000      0.000
REMARK INTER + INTRA:          -2.655
REMARK INTER:                  -2.623
REMARK INTRA:                  -0.032
REMARK UNBOUND:                -0.032
REMARK SMILES CCCC(=O)[O-]
REMARK SMILES IDX 3 1 4 2 5 3 6 4 2 5 1 6
REMARK H PARENT
REMARK Flexibility Score: inf
ROOT
ATOM      1  C   UNL     1       0.992  -0.886 -16.380  1.00  0.00     0.052 C 
ENDROOT
BRANCH   1   2
ATOM      2  C   UNL     1       0.263   0.211 -15.668  1.00  0.00     0.041 C 
ATOM      3  O   UNL     1      -0.124   1.229 -16.300  1.00  0.00    -0.550 OA
ATOM      4  O   UNL     1      -0.032   0.086 -14.316  1.00  0.00    -0.550 OA
ENDBRANCH   1   2
BRANCH   1   5
ATOM      5  C   UNL     1       0.012  -1.963 -16.850  1.00  0.00     0.003 C 
ATOM      6  C   UNL     1      -0.082  -1.996 -18.372  1.00  0.00     0.004 C 
ENDBRANCH   1   5
TORSDOF 2
ENDMDL
MODEL 2
REMARK VINA RESULT:    -2.327      0.820      1.615
REMARK INTER + INTRA:          -2.632
REMARK INTER:                  -2.623
REMARK INTRA:                  -0.009
REMARK UNBOUND:                -0.032
REMARK SMILES CCCC(=O)[O-]
REMARK SMILES IDX 3 1 4 2 5 3 6 4 2 5 1 6
REMARK H PARENT
REMARK Flexibility Score: inf
ROOT
ATOM      1  C   UNL     1       0.922  -0.507 -15.745  1.00  0.00     0.052 C 
ENDROOT
BRANCH   1   2
ATOM      2  C   UNL     1       0.183   0.538 -14.969  1.00  0.00     0.041 C 
ATOM      3  O   UNL     1      -0.123   0.334 -13.764  1.00  0.00    -0.550 OA
ATOM      4  O   UNL     1      -0.125   1.756 -15.561  1.00  0.00    -0.550 OA
ENDBRANCH   1   2
BRANCH   1   5
ATOM      5  C   UNL     1       0.435  -0.540 -17.195  1.00  0.00     0.003 C 
ATOM      6  C   UNL     1       0.241  -1.974 -17.679  1.00  0.00     0.004 C 
ENDBRANCH   1   5
TORSDOF 2
ENDMDL
MODEL 3
REMARK VINA RESULT:     0.241     14.383     14.769
REMARK INTER + INTRA:           0.238
REMARK INTER:                   0.255
REMARK INTRA:                  -0.018
REMARK UNBOUND:                -0.032
REMARK SMILES CCCC(=O)[O-]
REMARK SMILES IDX 3 1 4 2 5 3 6 4 2 5 1 6
REMARK H PARENT
REMARK Flexibility Score: inf
ROOT
ATOM      1  C   UNL     1      12.934  -5.950 -19.034  1.00  0.00     0.052 C 
ENDROOT
BRANCH   1   2
ATOM      2  C   UNL     1      14.302  -6.473 -18.725  1.00  0.00     0.041 C 
ATOM      3  O   UNL     1      15.306  -6.020 -19.337  1.00  0.00    -0.550 OA
ATOM      4  O   UNL     1      14.474  -7.425 -17.728  1.00  0.00    -0.550 OA
ENDBRANCH   1   2
BRANCH   1   5
ATOM      5  C   UNL     1      12.046  -6.007 -17.789  1.00  0.00     0.003 C 
ATOM      6  C   UNL     1      11.498  -4.627 -17.439  1.00  0.00     0.004 C 
ENDBRANCH   1   5
TORSDOF 2
ENDMDL
MODEL 4
REMARK VINA RESULT:     0.301     13.044     13.653
REMARK INTER + INTRA:           0.304
REMARK INTER:                   0.315
REMARK INTRA:                  -0.011
REMARK UNBOUND:                -0.032
REMARK SMILES CCCC(=O)[O-]
REMARK SMILES IDX 3 1 4 2 5 3 6 4 2 5 1 6
REMARK H PARENT
REMARK Flexibility Score: inf
ROOT
ATOM      1  C   UNL     1      12.980   0.739 -17.173  1.00  0.00     0.052 C 
ENDROOT
BRANCH   1   2
ATOM      2  C   UNL     1      13.942   0.942 -18.302  1.00  0.00     0.041 C 
ATOM      3  O   UNL     1      13.732   1.840 -19.159  1.00  0.00    -0.550 OA
ATOM      4  O   UNL     1      15.095   0.171 -18.379  1.00  0.00    -0.550 OA
ENDBRANCH   1   2
BRANCH   1   5
ATOM      5  C   UNL     1      12.637   2.078 -16.515  1.00  0.00     0.003 C 
ATOM      6  C   UNL     1      11.411   1.952 -15.616  1.00  0.00     0.004 C 
ENDBRANCH   1   5
TORSDOF 2
ENDMDL
MODEL 5
REMARK VINA RESULT:     0.427     12.681     13.183
REMARK INTER + INTRA:           0.445
REMARK INTER:                   0.483
REMARK INTRA:                  -0.038
REMARK UNBOUND:                -0.032
REMARK SMILES CCCC(=O)[O-]
REMARK SMILES IDX 3 1 4 2 5 3 6 4 2 5 1 6
REMARK H PARENT
REMARK Flexibility Score: inf
ROOT
ATOM      1  C   UNL     1      13.449   1.936 -17.144  1.00  0.00     0.052 C 
ENDROOT
BRANCH   1   2
ATOM      2  C   UNL     1      12.391   1.390 -16.238  1.00  0.00     0.041 C 
ATOM      3  O   UNL     1      12.280   0.146 -16.070  1.00  0.00    -0.550 OA
ATOM      4  O   UNL     1      11.559   2.256 -15.540  1.00  0.00    -0.550 OA
ENDBRANCH   1   2
BRANCH   1   5
ATOM      5  C   UNL     1      13.676   0.995 -18.330  1.00  0.00     0.003 C 
ATOM      6  C   UNL     1      15.110   0.476 -18.355  1.00  0.00     0.004 C 
ENDBRANCH   1   5
TORSDOF 2
ENDMDL
MODEL 6
REMARK VINA RESULT:     0.498     12.773     13.253
REMARK INTER + INTRA:           0.524
REMARK INTER:                   0.562
REMARK INTRA:                  -0.038
REMARK UNBOUND:                -0.032
REMARK SMILES CCCC(=O)[O-]
REMARK SMILES IDX 3 1 4 2 5 3 6 4 2 5 1 6
REMARK H PARENT
REMARK Flexibility Score: inf
ROOT
ATOM      1  C   UNL     1      13.550   1.982 -17.233  1.00  0.00     0.052 C 
ENDROOT
BRANCH   1   2
ATOM      2  C   UNL     1      12.487   1.468 -16.313  1.00  0.00     0.041 C 
ATOM      3  O   UNL     1      11.699   2.270 -15.745  1.00  0.00    -0.550 OA
ATOM      4  O   UNL     1      12.335   0.100 -16.122  1.00  0.00    -0.550 OA
ENDBRANCH   1   2
BRANCH   1   5
ATOM      5  C   UNL     1      13.756   1.019 -18.405  1.00  0.00     0.003 C 
ATOM      6  C   UNL     1      15.160   0.423 -18.389  1.00  0.00     0.004 C 
ENDBRANCH   1   5
TORSDOF 2
ENDMDL
