MODEL 1
REMARK VINA RESULT:    -2.881      0.000      0.000
REMARK INTER + INTRA:          -4.547
REMARK INTER:                  -4.229
REMARK INTRA:                  -0.318
REMARK UNBOUND:                -0.318
REMARK SMILES O=c1c(O[C@@H]2O[C@@H](CO)[C@@H](O)[C@H](O)[C@@H]2O)c(-c2ccc(O)c(O)c2)oc2cc(O)cc(O)c12
REMARK SMILES IDX 4 1 3 2 16 3 25 4 2 5 26 6 1 7 33 8 27 9 31 10 28 11 30 12
REMARK SMILES IDX 17 13 18 14 19 15 20 16 24 17 22 18 21 19 23 21 32 23 29 25
REMARK SMILES IDX 5 27 14 28 6 29 12 30 7 31 10 32 15 33 13 35 8 37 9 38 11 40
REMARK H PARENT 21 20 23 22 32 24 29 26 15 34 13 36 9 39 11 41
REMARK Flexibility Score: inf
ROOT
ATOM      1  O   UNL     1       4.142 -17.608   7.564  1.00  0.00    -0.454 OA
ENDROOT
BRANCH   1   2
ATOM      2  C   UNL     1       4.109 -16.517   6.673  1.00  0.00     0.214 A 
ATOM      3  C   UNL     1       4.005 -16.789   5.297  1.00  0.00     0.180 A 
ATOM      4  O   UNL     1       4.032 -15.795   4.419  1.00  0.00    -0.452 OA
ATOM      5  C   UNL     1       4.201 -15.170   7.088  1.00  0.00     0.239 A 
ATOM      6  C   UNL     1       4.156 -14.520   4.760  1.00  0.00     0.146 A 
ATOM      7  O   UNL     1       4.154 -14.895   8.314  1.00  0.00    -0.285 OA
ATOM      8  C   UNL     1       4.289 -14.142   6.120  1.00  0.00     0.111 A 
ATOM      9  C   UNL     1       4.144 -13.554   3.751  1.00  0.00     0.094 A 
ATOM     10  C   UNL     1       4.467 -12.759   6.427  1.00  0.00     0.134 A 
ATOM     11  C   UNL     1       4.253 -12.202   4.066  1.00  0.00     0.123 A 
ATOM     12  C   UNL     1       4.409 -11.810   5.398  1.00  0.00     0.093 A 
BRANCH   3  13
ATOM     13  C   UNL     1       3.892 -18.172   4.783  1.00  0.00     0.025 A 
ATOM     14  C   UNL     1       2.970 -18.502   3.775  1.00  0.00     0.016 A 
ATOM     15  C   UNL     1       2.875 -19.816   3.308  1.00  0.00     0.051 A 
ATOM     16  C   UNL     1       3.709 -20.813   3.832  1.00  0.00     0.157 A 
ATOM     17  C   UNL     1       4.740 -19.168   5.288  1.00  0.00     0.062 A 
ATOM     18  C   UNL     1       4.647 -20.488   4.821  1.00  0.00     0.158 A 
BRANCH  16  19
ATOM     19  O   UNL     1       3.616 -22.125   3.373  1.00  0.00    -0.504 OA
ATOM     20  H   UNL     1       2.739 -22.634   3.395  1.00  0.00     0.293 HD
ENDBRANCH  16  19
BRANCH  18  21
ATOM     21  O   UNL     1       5.481 -21.479   5.334  1.00  0.00    -0.504 OA
ATOM     22  H   UNL     1       5.758 -21.487   6.308  1.00  0.00     0.293 HD
ENDBRANCH  18  21
ENDBRANCH   3  13
BRANCH  10  23
ATOM     23  O   UNL     1       4.737 -12.274   7.710  1.00  0.00    -0.507 OA
ATOM     24  H   UNL     1       5.531 -12.550   8.269  1.00  0.00     0.293 HD
ENDBRANCH  10  23
BRANCH  11  25
ATOM     25  O   UNL     1       4.214 -11.253   3.046  1.00  0.00    -0.508 OA
ATOM     26  H   UNL     1       4.547 -10.307   3.190  1.00  0.00     0.293 HD
ENDBRANCH  11  25
ENDBRANCH   1   2
BRANCH   1  27
ATOM     27  C   UNL     1       3.132 -17.972   8.513  1.00  0.00     0.339 C 
ATOM     28  C   UNL     1       3.120 -19.499   8.724  1.00  0.00     0.214 C 
ATOM     29  O   UNL     1       3.302 -17.283   9.744  1.00  0.00    -0.332 OA
ATOM     30  C   UNL     1       4.377 -19.964   9.485  1.00  0.00     0.180 C 
ATOM     31  C   UNL     1       4.542 -17.607  10.355  1.00  0.00     0.179 C 
ATOM     32  C   UNL     1       4.583 -19.100  10.745  1.00  0.00     0.177 C 
BRANCH  28  33
ATOM     33  O   UNL     1       3.026 -20.147   7.482  1.00  0.00    -0.384 OA
ATOM     34  H   UNL     1       2.118 -19.958   7.129  1.00  0.00     0.211 HD
ENDBRANCH  28  33
BRANCH  30  35
ATOM     35  O   UNL     1       5.502 -19.876   8.645  1.00  0.00    -0.387 OA
ATOM     36  H   UNL     1       5.818 -18.935   8.685  1.00  0.00     0.211 HD
ENDBRANCH  30  35
BRANCH  31  37
ATOM     37  C   UNL     1       4.741 -16.707  11.583  1.00  0.00     0.191 C 
BRANCH  37  38
ATOM     38  O   UNL     1       5.158 -17.471  12.683  1.00  0.00    -0.394 OA
ATOM     39  H   UNL     1       5.099 -16.882  13.479  1.00  0.00     0.210 HD
ENDBRANCH  37  38
ENDBRANCH  31  37
BRANCH  32  40
ATOM     40  O   UNL     1       3.574 -19.376  11.684  1.00  0.00    -0.387 OA
ATOM     41  H   UNL     1       2.922 -18.630  11.631  1.00  0.00     0.211 HD
ENDBRANCH  32  40
ENDBRANCH   1  27
TORSDOF 12
ENDMDL
MODEL 2
REMARK VINA RESULT:    -1.229      1.473      5.989
REMARK INTER + INTRA:          -2.122
REMARK INTER:                  -3.976
REMARK INTRA:                   1.853
REMARK UNBOUND:                -0.318
REMARK SMILES O=c1c(O[C@@H]2O[C@@H](CO)[C@@H](O)[C@H](O)[C@@H]2O)c(-c2ccc(O)c(O)c2)oc2cc(O)cc(O)c12
REMARK SMILES IDX 4 1 3 2 16 3 25 4 2 5 26 6 1 7 33 8 27 9 31 10 28 11 30 12
REMARK SMILES IDX 17 13 18 14 19 15 20 16 24 17 22 18 21 19 23 21 32 23 29 25
REMARK SMILES IDX 5 27 14 28 6 29 12 30 7 31 10 32 15 33 13 35 8 37 9 38 11 40
REMARK H PARENT 21 20 23 22 32 24 29 26 15 34 13 36 9 39 11 41
REMARK Flexibility Score: inf
ROOT
ATOM      1  O   UNL     1       4.410 -16.644   8.206  1.00  0.00    -0.454 OA
ENDROOT
BRANCH   1   2
ATOM      2  C   UNL     1       4.149 -17.562   7.169  1.00  0.00     0.214 A 
ATOM      3  C   UNL     1       3.773 -17.053   5.913  1.00  0.00     0.180 A 
ATOM      4  O   UNL     1       3.460 -17.882   4.925  1.00  0.00    -0.452 OA
ATOM      5  C   UNL     1       4.221 -18.963   7.333  1.00  0.00     0.239 A 
ATOM      6  C   UNL     1       3.475 -19.202   5.046  1.00  0.00     0.146 A 
ATOM      7  O   UNL     1       4.688 -19.438   8.399  1.00  0.00    -0.285 OA
ATOM      8  C   UNL     1       3.820 -19.815   6.277  1.00  0.00     0.111 A 
ATOM      9  C   UNL     1       3.153 -19.979   3.930  1.00  0.00     0.094 A 
ATOM     10  C   UNL     1       3.775 -21.240   6.363  1.00  0.00     0.134 A 
ATOM     11  C   UNL     1       3.176 -21.369   4.007  1.00  0.00     0.123 A 
ATOM     12  C   UNL     1       3.490 -21.992   5.217  1.00  0.00     0.093 A 
BRANCH   3  13
ATOM     13  C   UNL     1       3.687 -15.598   5.656  1.00  0.00     0.025 A 
ATOM     14  C   UNL     1       2.942 -15.090   4.578  1.00  0.00     0.016 A 
ATOM     15  C   UNL     1       2.879 -13.713   4.350  1.00  0.00     0.051 A 
ATOM     16  C   UNL     1       3.546 -12.825   5.205  1.00  0.00     0.157 A 
ATOM     17  C   UNL     1       4.334 -14.704   6.523  1.00  0.00     0.062 A 
ATOM     18  C   UNL     1       4.271 -13.321   6.296  1.00  0.00     0.158 A 
BRANCH  16  19
ATOM     19  O   UNL     1       3.489 -11.451   4.980  1.00  0.00    -0.504 OA
ATOM     20  H   UNL     1       3.733 -10.784   5.703  1.00  0.00     0.293 HD
ENDBRANCH  16  19
BRANCH  18  21
ATOM     21  O   UNL     1       4.926 -12.436   7.149  1.00  0.00    -0.504 OA
ATOM     22  H   UNL     1       4.819 -12.492   8.156  1.00  0.00     0.293 HD
ENDBRANCH  18  21
ENDBRANCH   3  13
BRANCH  10  23
ATOM     23  O   UNL     1       3.965 -21.954   7.549  1.00  0.00    -0.507 OA
ATOM     24  H   UNL     1       4.474 -21.608   8.350  1.00  0.00     0.293 HD
ENDBRANCH  10  23
BRANCH  11  25
ATOM     25  O   UNL     1       2.875 -22.125   2.875  1.00  0.00    -0.508 OA
ATOM     26  H   UNL     1       2.165 -21.831   2.216  1.00  0.00     0.293 HD
ENDBRANCH  11  25
ENDBRANCH   1   2
BRANCH   1  27
ATOM     27  C   UNL     1       5.520 -16.663   9.110  1.00  0.00     0.339 C 
ATOM     28  C   UNL     1       5.560 -15.364   9.939  1.00  0.00     0.214 C 
ATOM     29  O   UNL     1       5.488 -17.809   9.950  1.00  0.00    -0.332 OA
ATOM     30  C   UNL     1       4.397 -15.314  10.949  1.00  0.00     0.180 C 
ATOM     31  C   UNL     1       4.325 -17.825  10.764  1.00  0.00     0.179 C 
ATOM     32  C   UNL     1       4.331 -16.633  11.745  1.00  0.00     0.177 C 
BRANCH  28  33
ATOM     33  O   UNL     1       5.515 -14.255   9.080  1.00  0.00    -0.384 OA
ATOM     34  H   UNL     1       5.471 -13.448   9.657  1.00  0.00     0.211 HD
ENDBRANCH  28  33
BRANCH  30  35
ATOM     35  O   UNL     1       3.185 -15.095  10.270  1.00  0.00    -0.387 OA
ATOM     36  H   UNL     1       2.511 -14.845  10.956  1.00  0.00     0.211 HD
ENDBRANCH  30  35
BRANCH  31  37
ATOM     37  C   UNL     1       4.262 -19.161  11.516  1.00  0.00     0.191 C 
BRANCH  37  38
ATOM     38  O   UNL     1       5.534 -19.511  11.994  1.00  0.00    -0.394 OA
ATOM     39  H   UNL     1       5.421 -19.767  12.946  1.00  0.00     0.210 HD
ENDBRANCH  37  38
ENDBRANCH  31  37
BRANCH  32  40
ATOM     40  O   UNL     1       5.439 -16.728  12.605  1.00  0.00    -0.387 OA
ATOM     41  H   UNL     1       5.936 -17.546  12.342  1.00  0.00     0.211 HD
ENDBRANCH  32  40
ENDBRANCH   1  27
TORSDOF 12
ENDMDL
MODEL 3
REMARK VINA RESULT:    -0.783      1.735      4.636
REMARK INTER + INTRA:          -1.467
REMARK INTER:                   0.092
REMARK INTRA:                  -1.559
REMARK UNBOUND:                -0.318
REMARK SMILES O=c1c(O[C@@H]2O[C@@H](CO)[C@@H](O)[C@H](O)[C@@H]2O)c(-c2ccc(O)c(O)c2)oc2cc(O)cc(O)c12
REMARK SMILES IDX 4 1 3 2 16 3 25 4 2 5 26 6 1 7 33 8 27 9 31 10 28 11 30 12
REMARK SMILES IDX 17 13 18 14 19 15 20 16 24 17 22 18 21 19 23 21 32 23 29 25
REMARK SMILES IDX 5 27 14 28 6 29 12 30 7 31 10 32 15 33 13 35 8 37 9 38 11 40
REMARK H PARENT 21 20 23 22 32 24 29 26 15 34 13 36 9 39 11 41
REMARK Flexibility Score: inf
ROOT
ATOM      1  O   UNL     1       4.273 -17.904   7.506  1.00  0.00    -0.454 OA
ENDROOT
BRANCH   1   2
ATOM      2  C   UNL     1       4.255 -16.574   7.042  1.00  0.00     0.214 A 
ATOM      3  C   UNL     1       4.303 -15.540   7.994  1.00  0.00     0.180 A 
ATOM      4  O   UNL     1       4.228 -14.273   7.605  1.00  0.00    -0.452 OA
ATOM      5  C   UNL     1       4.166 -16.227   5.676  1.00  0.00     0.239 A 
ATOM      6  C   UNL     1       4.105 -13.903   6.338  1.00  0.00     0.146 A 
ATOM      7  O   UNL     1       4.263 -17.126   4.802  1.00  0.00    -0.285 OA
ATOM      8  C   UNL     1       4.026 -14.869   5.303  1.00  0.00     0.111 A 
ATOM      9  C   UNL     1       4.063 -12.539   6.042  1.00  0.00     0.094 A 
ATOM     10  C   UNL     1       3.846 -14.415   3.962  1.00  0.00     0.134 A 
ATOM     11  C   UNL     1       3.954 -12.105   4.723  1.00  0.00     0.123 A 
ATOM     12  C   UNL     1       3.850 -13.042   3.691  1.00  0.00     0.093 A 
BRANCH   3  13
ATOM     13  C   UNL     1       4.409 -15.820   9.443  1.00  0.00     0.025 A 
ATOM     14  C   UNL     1       3.291 -15.722  10.289  1.00  0.00     0.016 A 
ATOM     15  C   UNL     1       3.415 -15.985  11.656  1.00  0.00     0.051 A 
ATOM     16  C   UNL     1       4.654 -16.363  12.193  1.00  0.00     0.157 A 
ATOM     17  C   UNL     1       5.642 -16.220   9.981  1.00  0.00     0.062 A 
ATOM     18  C   UNL     1       5.768 -16.485  11.353  1.00  0.00     0.158 A 
BRANCH  16  19
ATOM     19  O   UNL     1       4.783 -16.622  13.555  1.00  0.00    -0.504 OA
ATOM     20  H   UNL     1       5.052 -15.896  14.210  1.00  0.00     0.293 HD
ENDBRANCH  16  19
BRANCH  18  21
ATOM     21  O   UNL     1       6.996 -16.869  11.888  1.00  0.00    -0.504 OA
ATOM     22  H   UNL     1       7.170 -16.846  12.886  1.00  0.00     0.293 HD
ENDBRANCH  18  21
ENDBRANCH   3  13
BRANCH  10  23
ATOM     23  O   UNL     1       3.626 -15.266   2.875  1.00  0.00    -0.507 OA
ATOM     24  H   UNL     1       4.188 -15.280   2.037  1.00  0.00     0.293 HD
ENDBRANCH  10  23
BRANCH  11  25
ATOM     25  O   UNL     1       3.938 -10.739   4.447  1.00  0.00    -0.508 OA
ATOM     26  H   UNL     1       3.315 -10.346   3.753  1.00  0.00     0.293 HD
ENDBRANCH  11  25
ENDBRANCH   1   2
BRANCH   1  27
ATOM     27  C   UNL     1       3.146 -18.775   7.661  1.00  0.00     0.339 C 
ATOM     28  C   UNL     1       3.365 -20.081   6.874  1.00  0.00     0.214 C 
ATOM     29  O   UNL     1       2.875 -19.038   9.031  1.00  0.00    -0.332 OA
ATOM     30  C   UNL     1       4.460 -20.947   7.528  1.00  0.00     0.180 C 
ATOM     31  C   UNL     1       3.964 -19.699   9.659  1.00  0.00     0.179 C 
ATOM     32  C   UNL     1       4.184 -21.095   9.038  1.00  0.00     0.177 C 
BRANCH  28  33
ATOM     33  O   UNL     1       3.703 -19.781   5.544  1.00  0.00    -0.384 OA
ATOM     34  H   UNL     1       2.994 -20.178   4.973  1.00  0.00     0.211 HD
ENDBRANCH  28  33
BRANCH  30  35
ATOM     35  O   UNL     1       5.720 -20.360   7.319  1.00  0.00    -0.387 OA
ATOM     36  H   UNL     1       5.558 -19.423   7.033  1.00  0.00     0.211 HD
ENDBRANCH  30  35
BRANCH  31  37
ATOM     37  C   UNL     1       3.684 -19.799  11.164  1.00  0.00     0.191 C 
BRANCH  37  38
ATOM     38  O   UNL     1       4.767 -19.291  11.896  1.00  0.00    -0.394 OA
ATOM     39  H   UNL     1       5.582 -19.737  11.548  1.00  0.00     0.210 HD
ENDBRANCH  37  38
ENDBRANCH  31  37
BRANCH  32  40
ATOM     40  O   UNL     1       3.044 -21.892   9.240  1.00  0.00    -0.387 OA
ATOM     41  H   UNL     1       3.308 -22.616   9.866  1.00  0.00     0.211 HD
ENDBRANCH  32  40
ENDBRANCH   1  27
TORSDOF 12
ENDMDL
MODEL 4
REMARK VINA RESULT:    -0.128      1.679      6.213
REMARK INTER + INTRA:          -0.505
REMARK INTER:                  -0.142
REMARK INTRA:                  -0.363
REMARK UNBOUND:                -0.318
REMARK SMILES O=c1c(O[C@@H]2O[C@@H](CO)[C@@H](O)[C@H](O)[C@@H]2O)c(-c2ccc(O)c(O)c2)oc2cc(O)cc(O)c12
REMARK SMILES IDX 4 1 3 2 16 3 25 4 2 5 26 6 1 7 33 8 27 9 31 10 28 11 30 12
REMARK SMILES IDX 17 13 18 14 19 15 20 16 24 17 22 18 21 19 23 21 32 23 29 25
REMARK SMILES IDX 5 27 14 28 6 29 12 30 7 31 10 32 15 33 13 35 8 37 9 38 11 40
REMARK H PARENT 21 20 23 22 32 24 29 26 15 34 13 36 9 39 11 41
REMARK Flexibility Score: inf
ROOT
ATOM      1  O   UNL     1       4.393 -19.048   7.416  1.00  0.00    -0.454 OA
ENDROOT
BRANCH   1   2
ATOM      2  C   UNL     1       4.283 -18.144   8.491  1.00  0.00     0.214 A 
ATOM      3  C   UNL     1       4.007 -16.797   8.198  1.00  0.00     0.180 A 
ATOM      4  O   UNL     1       3.954 -15.900   9.174  1.00  0.00    -0.452 OA
ATOM      5  C   UNL     1       4.461 -18.515   9.842  1.00  0.00     0.239 A 
ATOM      6  C   UNL     1       4.153 -16.196  10.451  1.00  0.00     0.146 A 
ATOM      7  O   UNL     1       4.569 -19.732  10.141  1.00  0.00    -0.285 OA
ATOM      8  C   UNL     1       4.459 -17.522  10.850  1.00  0.00     0.111 A 
ATOM      9  C   UNL     1       4.046 -15.175  11.399  1.00  0.00     0.094 A 
ATOM     10  C   UNL     1       4.710 -17.775  12.232  1.00  0.00     0.134 A 
ATOM     11  C   UNL     1       4.227 -15.446  12.752  1.00  0.00     0.123 A 
ATOM     12  C   UNL     1       4.553 -16.741  13.163  1.00  0.00     0.093 A 
BRANCH   3  13
ATOM     13  C   UNL     1       3.795 -16.330   6.810  1.00  0.00     0.025 A 
ATOM     14  C   UNL     1       3.059 -17.094   5.887  1.00  0.00     0.016 A 
ATOM     15  C   UNL     1       2.877 -16.637   4.579  1.00  0.00     0.051 A 
ATOM     16  C   UNL     1       3.414 -15.405   4.180  1.00  0.00     0.157 A 
ATOM     17  C   UNL     1       4.311 -15.087   6.412  1.00  0.00     0.062 A 
ATOM     18  C   UNL     1       4.129 -14.627   5.099  1.00  0.00     0.158 A 
BRANCH  16  19
ATOM     19  O   UNL     1       3.238 -14.948   2.876  1.00  0.00    -0.504 OA
ATOM     20  H   UNL     1       2.378 -14.498   2.583  1.00  0.00     0.293 HD
ENDBRANCH  16  19
BRANCH  18  21
ATOM     21  O   UNL     1       4.654 -13.399   4.703  1.00  0.00    -0.504 OA
ATOM     22  H   UNL     1       5.640 -13.287   4.494  1.00  0.00     0.293 HD
ENDBRANCH  18  21
ENDBRANCH   3  13
BRANCH  10  23
ATOM     23  O   UNL     1       5.146 -19.005  12.732  1.00  0.00    -0.507 OA
ATOM     24  H   UNL     1       5.563 -19.734  12.172  1.00  0.00     0.293 HD
ENDBRANCH  10  23
BRANCH  11  25
ATOM     25  O   UNL     1       4.092 -14.417  13.683  1.00  0.00    -0.508 OA
ATOM     26  H   UNL     1       3.311 -14.387  14.329  1.00  0.00     0.293 HD
ENDBRANCH  11  25
ENDBRANCH   1   2
BRANCH   1  27
ATOM     27  C   UNL     1       5.602 -19.506   6.800  1.00  0.00     0.339 C 
ATOM     28  C   UNL     1       5.918 -20.947   7.244  1.00  0.00     0.214 C 
ATOM     29  O   UNL     1       5.535 -19.407   5.384  1.00  0.00    -0.332 OA
ATOM     30  C   UNL     1       4.916 -21.949   6.637  1.00  0.00     0.180 C 
ATOM     31  C   UNL     1       4.499 -20.219   4.854  1.00  0.00     0.179 C 
ATOM     32  C   UNL     1       4.788 -21.713   5.118  1.00  0.00     0.177 C 
BRANCH  28  33
ATOM     33  O   UNL     1       5.903 -21.024   8.646  1.00  0.00    -0.384 OA
ATOM     34  H   UNL     1       5.149 -20.456   8.955  1.00  0.00     0.211 HD
ENDBRANCH  28  33
BRANCH  30  35
ATOM     35  O   UNL     1       3.663 -21.805   7.258  1.00  0.00    -0.387 OA
ATOM     36  H   UNL     1       3.799 -21.985   8.226  1.00  0.00     0.211 HD
ENDBRANCH  30  35
BRANCH  31  37
ATOM     37  C   UNL     1       4.365 -19.938   3.351  1.00  0.00     0.191 C 
BRANCH  37  38
ATOM     38  O   UNL     1       3.031 -20.086   2.944  1.00  0.00    -0.394 OA
ATOM     39  H   UNL     1       3.030 -20.739   2.198  1.00  0.00     0.210 HD
ENDBRANCH  37  38
ENDBRANCH  31  37
BRANCH  32  40
ATOM     40  O   UNL     1       5.980 -22.089   4.473  1.00  0.00    -0.387 OA
ATOM     41  H   UNL     1       5.806 -22.034   3.498  1.00  0.00     0.211 HD
ENDBRANCH  32  40
ENDBRANCH   1  27
TORSDOF 12
ENDMDL
