MODEL 1
REMARK VINA RESULT:    -7.145      0.000      0.000
REMARK INTER + INTRA:         -11.558
REMARK INTER:                 -10.904
REMARK INTRA:                  -0.654
REMARK UNBOUND:                -0.654
REMARK SMILES OC[C@@H]1O[C@@H](O[C@]2(CO)O[C@H](CO)[C@H](O)[C@@H]2O)[C@H](O)[C@@H](O)[C@@H]1O
REMARK SMILES IDX 6 1 5 2 3 3 22 4 4 5 20 6 18 7 2 8 1 9 23 11 21 13 19 15
REMARK SMILES IDX 7 17 16 18 10 19 14 20 11 21 8 22 9 23 17 25 15 27 12 29
REMARK SMILES IDX 13 30
REMARK H PARENT 1 10 23 12 21 14 19 16 9 24 17 26 15 28 13 31
REMARK Flexibility Score: inf
ROOT
ATOM      1  O   UNL     1     126.828 104.600 131.183  1.00  0.00    -0.313 OA
ENDROOT
BRANCH   1   2
ATOM      2  C   UNL     1     126.381 103.835 132.296  1.00  0.00     0.285 C 
ATOM      3  C   UNL     1     124.137 104.351 131.835  1.00  0.00     0.178 C 
ATOM      4  C   UNL     1     123.938 105.148 133.147  1.00  0.00     0.177 C 
ATOM      5  O   UNL     1     125.085 103.312 132.034  1.00  0.00    -0.341 OA
ATOM      6  C   UNL     1     125.284 105.772 133.557  1.00  0.00     0.179 C 
ATOM      7  C   UNL     1     126.395 104.702 133.578  1.00  0.00     0.202 C 
BRANCH   3   8
ATOM      8  C   UNL     1     122.815 103.773 131.292  1.00  0.00     0.191 C 
BRANCH   8   9
ATOM      9  O   UNL     1     121.705 104.358 131.927  1.00  0.00    -0.394 OA
ATOM     10  H   UNL     1     121.380 105.077 131.327  1.00  0.00     0.210 HD
ENDBRANCH   8   9
ENDBRANCH   3   8
BRANCH   4  11
ATOM     11  O   UNL     1     123.480 104.317 134.182  1.00  0.00    -0.387 OA
ATOM     12  H   UNL     1     123.461 104.861 135.012  1.00  0.00     0.211 HD
ENDBRANCH   4  11
BRANCH   6  13
ATOM     13  O   UNL     1     125.646 106.806 132.671  1.00  0.00    -0.387 OA
ATOM     14  H   UNL     1     125.040 106.737 131.885  1.00  0.00     0.211 HD
ENDBRANCH   6  13
BRANCH   7  15
ATOM     15  O   UNL     1     126.235 103.868 134.700  1.00  0.00    -0.385 OA
ATOM     16  H   UNL     1     125.357 104.087 135.102  1.00  0.00     0.211 HD
ENDBRANCH   7  15
ENDBRANCH   1   2
BRANCH   1  17
ATOM     17  C   UNL     1     128.068 104.217 130.581  1.00  0.00     0.224 C 
ATOM     18  C   UNL     1     128.047 102.805 129.938  1.00  0.00     0.208 C 
ATOM     19  O   UNL     1     128.253 105.129 129.512  1.00  0.00    -0.337 OA
ATOM     20  C   UNL     1     127.456 103.059 128.569  1.00  0.00     0.180 C 
ATOM     21  C   UNL     1     127.881 104.506 128.299  1.00  0.00     0.179 C 
BRANCH  17  22
ATOM     22  C   UNL     1     129.286 104.428 131.523  1.00  0.00     0.225 C 
BRANCH  22  23
ATOM     23  O   UNL     1     130.112 103.297 131.623  1.00  0.00    -0.391 OA
ATOM     24  H   UNL     1     130.567 103.335 132.506  1.00  0.00     0.210 HD
ENDBRANCH  22  23
ENDBRANCH  17  22
BRANCH  18  25
ATOM     25  O   UNL     1     127.316 101.848 130.661  1.00  0.00    -0.385 OA
ATOM     26  H   UNL     1     127.307 101.022 130.111  1.00  0.00     0.211 HD
ENDBRANCH  18  25
BRANCH  20  27
ATOM     27  O   UNL     1     126.058 102.879 128.520  1.00  0.00    -0.387 OA
ATOM     28  H   UNL     1     125.616 103.741 128.716  1.00  0.00     0.211 HD
ENDBRANCH  20  27
BRANCH  21  29
ATOM     29  C   UNL     1     126.842 105.359 127.558  1.00  0.00     0.191 C 
BRANCH  29  30
ATOM     30  O   UNL     1     127.346 105.781 126.319  1.00  0.00    -0.394 OA
ATOM     31  H   UNL     1     127.274 105.007 125.704  1.00  0.00     0.210 HD
ENDBRANCH  29  30
ENDBRANCH  21  29
ENDBRANCH   1  17
TORSDOF 13
ENDMDL
MODEL 2
REMARK VINA RESULT:    -7.081      1.432      3.036
REMARK INTER + INTRA:         -11.461
REMARK INTER:                 -10.365
REMARK INTRA:                  -1.096
REMARK UNBOUND:                -0.654
REMARK SMILES OC[C@@H]1O[C@@H](O[C@]2(CO)O[C@H](CO)[C@H](O)[C@@H]2O)[C@H](O)[C@@H](O)[C@@H]1O
REMARK SMILES IDX 6 1 5 2 3 3 22 4 4 5 20 6 18 7 2 8 1 9 23 11 21 13 19 15
REMARK SMILES IDX 7 17 16 18 10 19 14 20 11 21 8 22 9 23 17 25 15 27 12 29
REMARK SMILES IDX 13 30
REMARK H PARENT 1 10 23 12 21 14 19 16 9 24 17 26 15 28 13 31
REMARK Flexibility Score: inf
ROOT
ATOM      1  O   UNL     1     125.816 104.369 131.425  1.00  0.00    -0.313 OA
ENDROOT
BRANCH   1   2
ATOM      2  C   UNL     1     125.841 103.943 132.782  1.00  0.00     0.285 C 
ATOM      3  C   UNL     1     123.690 104.806 133.163  1.00  0.00     0.178 C 
ATOM      4  C   UNL     1     124.179 105.868 134.178  1.00  0.00     0.177 C 
ATOM      5  O   UNL     1     124.520 103.655 133.223  1.00  0.00    -0.341 OA
ATOM      6  C   UNL     1     125.620 106.272 133.820  1.00  0.00     0.179 C 
ATOM      7  C   UNL     1     126.512 105.022 133.666  1.00  0.00     0.202 C 
BRANCH   3   8
ATOM      8  C   UNL     1     122.216 104.416 133.383  1.00  0.00     0.191 C 
BRANCH   8   9
ATOM      9  O   UNL     1     121.996 103.983 134.703  1.00  0.00    -0.394 OA
ATOM     10  H   UNL     1     122.052 102.994 134.691  1.00  0.00     0.210 HD
ENDBRANCH   8   9
ENDBRANCH   3   8
BRANCH   4  11
ATOM     11  O   UNL     1     124.153 105.366 135.490  1.00  0.00    -0.387 OA
ATOM     12  H   UNL     1     123.515 104.606 135.503  1.00  0.00     0.211 HD
ENDBRANCH   4  11
BRANCH   6  13
ATOM     13  O   UNL     1     125.648 107.016 132.624  1.00  0.00    -0.387 OA
ATOM     14  H   UNL     1     126.387 106.645 132.071  1.00  0.00     0.211 HD
ENDBRANCH   6  13
BRANCH   7  15
ATOM     15  O   UNL     1     126.790 104.473 134.932  1.00  0.00    -0.385 OA
ATOM     16  H   UNL     1     125.946 104.078 135.268  1.00  0.00     0.211 HD
ENDBRANCH   7  15
ENDBRANCH   1   2
BRANCH   1  17
ATOM     17  C   UNL     1     126.231 103.423 130.435  1.00  0.00     0.224 C 
ATOM     18  C   UNL     1     126.598 104.060 129.069  1.00  0.00     0.208 C 
ATOM     19  O   UNL     1     127.432 102.866 130.941  1.00  0.00    -0.337 OA
ATOM     20  C   UNL     1     128.035 104.490 129.265  1.00  0.00     0.180 C 
ATOM     21  C   UNL     1     128.534 103.479 130.303  1.00  0.00     0.179 C 
BRANCH  17  22
ATOM     22  C   UNL     1     125.246 102.228 130.293  1.00  0.00     0.225 C 
BRANCH  22  23
ATOM     23  O   UNL     1     123.897 102.613 130.350  1.00  0.00    -0.391 OA
ATOM     24  H   UNL     1     123.469 102.095 131.082  1.00  0.00     0.210 HD
ENDBRANCH  22  23
ENDBRANCH  17  22
BRANCH  18  25
ATOM     25  O   UNL     1     125.773 105.130 128.686  1.00  0.00    -0.385 OA
ATOM     26  H   UNL     1     124.994 105.122 129.301  1.00  0.00     0.211 HD
ENDBRANCH  18  25
BRANCH  20  27
ATOM     27  O   UNL     1     128.166 105.827 129.693  1.00  0.00    -0.387 OA
ATOM     28  H   UNL     1     128.808 106.292 129.101  1.00  0.00     0.211 HD
ENDBRANCH  20  27
BRANCH  21  29
ATOM     29  C   UNL     1     129.506 104.048 131.347  1.00  0.00     0.191 C 
BRANCH  29  30
ATOM     30  O   UNL     1     130.613 103.202 131.500  1.00  0.00    -0.394 OA
ATOM     31  H   UNL     1     131.394 103.683 131.122  1.00  0.00     0.210 HD
ENDBRANCH  29  30
ENDBRANCH  21  29
ENDBRANCH   1  17
TORSDOF 13
ENDMDL
MODEL 3
REMARK VINA RESULT:    -6.834      1.555      5.389
REMARK INTER + INTRA:         -11.084
REMARK INTER:                  -9.346
REMARK INTRA:                  -1.738
REMARK UNBOUND:                -0.654
REMARK SMILES OC[C@@H]1O[C@@H](O[C@]2(CO)O[C@H](CO)[C@H](O)[C@@H]2O)[C@H](O)[C@@H](O)[C@@H]1O
REMARK SMILES IDX 6 1 5 2 3 3 22 4 4 5 20 6 18 7 2 8 1 9 23 11 21 13 19 15
REMARK SMILES IDX 7 17 16 18 10 19 14 20 11 21 8 22 9 23 17 25 15 27 12 29
REMARK SMILES IDX 13 30
REMARK H PARENT 1 10 23 12 21 14 19 16 9 24 17 26 15 28 13 31
REMARK Flexibility Score: inf
ROOT
ATOM      1  O   UNL     1     126.326 104.365 131.666  1.00  0.00    -0.313 OA
ENDROOT
BRANCH   1   2
ATOM      2  C   UNL     1     126.947 103.363 130.870  1.00  0.00     0.285 C 
ATOM      3  C   UNL     1     127.511 104.933 129.216  1.00  0.00     0.178 C 
ATOM      4  C   UNL     1     126.603 104.288 128.142  1.00  0.00     0.177 C 
ATOM      5  O   UNL     1     127.999 103.938 130.104  1.00  0.00    -0.341 OA
ATOM      6  C   UNL     1     125.409 103.614 128.840  1.00  0.00     0.179 C 
ATOM      7  C   UNL     1     125.896 102.676 129.965  1.00  0.00     0.202 C 
BRANCH   3   8
ATOM      8  C   UNL     1     128.682 105.722 128.600  1.00  0.00     0.191 C 
BRANCH   8   9
ATOM      9  O   UNL     1     128.504 105.900 127.216  1.00  0.00    -0.394 OA
ATOM     10  H   UNL     1     128.692 105.025 126.791  1.00  0.00     0.210 HD
ENDBRANCH   8   9
ENDBRANCH   3   8
BRANCH   4  11
ATOM     11  O   UNL     1     127.303 103.327 127.395  1.00  0.00    -0.387 OA
ATOM     12  H   UNL     1     127.555 103.749 126.532  1.00  0.00     0.211 HD
ENDBRANCH   4  11
BRANCH   6  13
ATOM     13  O   UNL     1     124.536 104.578 129.381  1.00  0.00    -0.387 OA
ATOM     14  H   UNL     1     123.622 104.354 129.057  1.00  0.00     0.211 HD
ENDBRANCH   6  13
BRANCH   7  15
ATOM     15  O   UNL     1     126.458 101.513 129.408  1.00  0.00    -0.385 OA
ATOM     16  H   UNL     1     127.437 101.569 129.545  1.00  0.00     0.211 HD
ENDBRANCH   7  15
ENDBRANCH   1   2
BRANCH   1  17
ATOM     17  C   UNL     1     126.373 104.194 133.086  1.00  0.00     0.224 C 
ATOM     18  C   UNL     1     126.223 105.515 133.886  1.00  0.00     0.208 C 
ATOM     19  O   UNL     1     125.230 103.416 133.399  1.00  0.00    -0.337 OA
ATOM     20  C   UNL     1     124.724 105.706 133.956  1.00  0.00     0.180 C 
ATOM     21  C   UNL     1     124.212 104.263 133.894  1.00  0.00     0.179 C 
BRANCH  17  22
ATOM     22  C   UNL     1     127.592 103.347 133.551  1.00  0.00     0.225 C 
BRANCH  22  23
ATOM     23  O   UNL     1     128.799 104.065 133.547  1.00  0.00    -0.391 OA
ATOM     24  H   UNL     1     128.617 104.954 133.141  1.00  0.00     0.210 HD
ENDBRANCH  22  23
ENDBRANCH  17  22
BRANCH  18  25
ATOM     25  O   UNL     1     126.871 106.619 133.311  1.00  0.00    -0.385 OA
ATOM     26  H   UNL     1     127.357 107.078 134.046  1.00  0.00     0.211 HD
ENDBRANCH  18  25
BRANCH  20  27
ATOM     27  O   UNL     1     124.214 106.515 132.919  1.00  0.00    -0.387 OA
ATOM     28  H   UNL     1     124.548 107.438 133.038  1.00  0.00     0.211 HD
ENDBRANCH  20  27
BRANCH  21  29
ATOM     29  C   UNL     1     122.919 104.068 133.089  1.00  0.00     0.191 C 
BRANCH  29  30
ATOM     30  O   UNL     1     123.191 104.073 131.714  1.00  0.00    -0.394 OA
ATOM     31  H   UNL     1     123.207 103.125 131.423  1.00  0.00     0.210 HD
ENDBRANCH  29  30
ENDBRANCH  21  29
ENDBRANCH   1  17
TORSDOF 13
ENDMDL
MODEL 4
REMARK VINA RESULT:    -6.467      1.653      2.799
REMARK INTER + INTRA:         -10.524
REMARK INTER:                  -8.726
REMARK INTRA:                  -1.798
REMARK UNBOUND:                -0.654
REMARK SMILES OC[C@@H]1O[C@@H](O[C@]2(CO)O[C@H](CO)[C@H](O)[C@@H]2O)[C@H](O)[C@@H](O)[C@@H]1O
REMARK SMILES IDX 6 1 5 2 3 3 22 4 4 5 20 6 18 7 2 8 1 9 23 11 21 13 19 15
REMARK SMILES IDX 7 17 16 18 10 19 14 20 11 21 8 22 9 23 17 25 15 27 12 29
REMARK SMILES IDX 13 30
REMARK H PARENT 1 10 23 12 21 14 19 16 9 24 17 26 15 28 13 31
REMARK Flexibility Score: inf
ROOT
ATOM      1  O   UNL     1     126.355 104.149 132.232  1.00  0.00    -0.313 OA
ENDROOT
BRANCH   1   2
ATOM      2  C   UNL     1     126.252 105.196 133.189  1.00  0.00     0.285 C 
ATOM      3  C   UNL     1     125.463 103.712 134.829  1.00  0.00     0.178 C 
ATOM      4  C   UNL     1     124.072 104.384 134.922  1.00  0.00     0.177 C 
ATOM      5  O   UNL     1     126.450 104.677 134.498  1.00  0.00    -0.341 OA
ATOM      6  C   UNL     1     123.726 105.003 133.556  1.00  0.00     0.179 C 
ATOM      7  C   UNL     1     124.879 105.901 133.059  1.00  0.00     0.202 C 
BRANCH   3   8
ATOM      8  C   UNL     1     125.848 102.975 136.126  1.00  0.00     0.191 C 
BRANCH   8   9
ATOM      9  O   UNL     1     124.706 102.604 136.859  1.00  0.00    -0.394 OA
ATOM     10  H   UNL     1     123.976 102.477 136.202  1.00  0.00     0.210 HD
ENDBRANCH   8   9
ENDBRANCH   3   8
BRANCH   4  11
ATOM     11  O   UNL     1     124.059 105.391 135.901  1.00  0.00    -0.387 OA
ATOM     12  H   UNL     1     123.216 105.291 136.417  1.00  0.00     0.211 HD
ENDBRANCH   4  11
BRANCH   6  13
ATOM     13  O   UNL     1     123.472 103.998 132.602  1.00  0.00    -0.387 OA
ATOM     14  H   UNL     1     124.257 103.386 132.611  1.00  0.00     0.211 HD
ENDBRANCH   6  13
BRANCH   7  15
ATOM     15  O   UNL     1     124.905 107.098 133.797  1.00  0.00    -0.385 OA
ATOM     16  H   UNL     1     124.108 107.622 133.528  1.00  0.00     0.211 HD
ENDBRANCH   7  15
ENDBRANCH   1   2
BRANCH   1  17
ATOM     17  C   UNL     1     127.405 104.247 131.265  1.00  0.00     0.224 C 
ATOM     18  C   UNL     1     127.764 102.901 130.583  1.00  0.00     0.208 C 
ATOM     19  O   UNL     1     126.882 105.076 130.241  1.00  0.00    -0.337 OA
ATOM     20  C   UNL     1     126.744 102.796 129.471  1.00  0.00     0.180 C 
ATOM     21  C   UNL     1     126.451 104.268 129.164  1.00  0.00     0.179 C 
BRANCH  17  22
ATOM     22  C   UNL     1     128.655 104.996 131.807  1.00  0.00     0.225 C 
BRANCH  22  23
ATOM     23  O   UNL     1     129.532 104.165 132.521  1.00  0.00    -0.391 OA
ATOM     24  H   UNL     1     128.980 103.560 133.084  1.00  0.00     0.210 HD
ENDBRANCH  22  23
ENDBRANCH  17  22
BRANCH  18  25
ATOM     25  O   UNL     1     127.729 101.789 131.440  1.00  0.00    -0.385 OA
ATOM     26  H   UNL     1     127.533 100.998 130.872  1.00  0.00     0.211 HD
ENDBRANCH  18  25
BRANCH  20  27
ATOM     27  O   UNL     1     125.591 102.070 129.835  1.00  0.00    -0.387 OA
ATOM     28  H   UNL     1     125.825 101.112 129.909  1.00  0.00     0.211 HD
ENDBRANCH  20  27
BRANCH  21  29
ATOM     29  C   UNL     1     124.988 104.578 128.817  1.00  0.00     0.191 C 
BRANCH  29  30
ATOM     30  O   UNL     1     124.186 104.509 129.964  1.00  0.00    -0.394 OA
ATOM     31  H   UNL     1     124.267 103.585 130.314  1.00  0.00     0.210 HD
ENDBRANCH  29  30
ENDBRANCH  21  29
ENDBRANCH   1  17
TORSDOF 13
ENDMDL
MODEL 5
REMARK VINA RESULT:    -6.256      1.693      3.709
REMARK INTER + INTRA:         -10.201
REMARK INTER:                  -8.761
REMARK INTRA:                  -1.440
REMARK UNBOUND:                -0.654
REMARK SMILES OC[C@@H]1O[C@@H](O[C@]2(CO)O[C@H](CO)[C@H](O)[C@@H]2O)[C@H](O)[C@@H](O)[C@@H]1O
REMARK SMILES IDX 6 1 5 2 3 3 22 4 4 5 20 6 18 7 2 8 1 9 23 11 21 13 19 15
REMARK SMILES IDX 7 17 16 18 10 19 14 20 11 21 8 22 9 23 17 25 15 27 12 29
REMARK SMILES IDX 13 30
REMARK H PARENT 1 10 23 12 21 14 19 16 9 24 17 26 15 28 13 31
REMARK Flexibility Score: inf
ROOT
ATOM      1  O   UNL     1     125.748 104.698 131.771  1.00  0.00    -0.313 OA
ENDROOT
BRANCH   1   2
ATOM      2  C   UNL     1     124.525 104.629 132.494  1.00  0.00     0.285 C 
ATOM      3  C   UNL     1     125.129 106.469 133.823  1.00  0.00     0.178 C 
ATOM      4  C   UNL     1     125.182 105.643 135.131  1.00  0.00     0.177 C 
ATOM      5  O   UNL     1     124.155 105.927 132.943  1.00  0.00    -0.341 OA
ATOM      6  C   UNL     1     125.570 104.194 134.789  1.00  0.00     0.179 C 
ATOM      7  C   UNL     1     124.660 103.637 133.674  1.00  0.00     0.202 C 
BRANCH   3   8
ATOM      8  C   UNL     1     124.847 107.961 134.080  1.00  0.00     0.191 C 
BRANCH   8   9
ATOM      9  O   UNL     1     124.941 108.269 135.450  1.00  0.00    -0.394 OA
ATOM     10  H   UNL     1     125.242 109.211 135.510  1.00  0.00     0.210 HD
ENDBRANCH   8   9
ENDBRANCH   3   8
BRANCH   4  11
ATOM     11  O   UNL     1     123.939 105.646 135.784  1.00  0.00    -0.387 OA
ATOM     12  H   UNL     1     123.237 105.718 135.086  1.00  0.00     0.211 HD
ENDBRANCH   4  11
BRANCH   6  13
ATOM     13  O   UNL     1     126.914 104.121 134.375  1.00  0.00    -0.387 OA
ATOM     14  H   UNL     1     126.933 104.367 133.411  1.00  0.00     0.211 HD
ENDBRANCH   6  13
BRANCH   7  15
ATOM     15  O   UNL     1     123.381 103.362 134.193  1.00  0.00    -0.385 OA
ATOM     16  H   UNL     1     123.276 102.377 134.199  1.00  0.00     0.211 HD
ENDBRANCH   7  15
ENDBRANCH   1   2
BRANCH   1  17
ATOM     17  C   UNL     1     126.086 103.577 130.949  1.00  0.00     0.224 C 
ATOM     18  C   UNL     1     126.485 103.955 129.498  1.00  0.00     0.208 C 
ATOM     19  O   UNL     1     127.250 103.026 131.543  1.00  0.00    -0.337 OA
ATOM     20  C   UNL     1     127.950 104.308 129.625  1.00  0.00     0.180 C 
ATOM     21  C   UNL     1     128.387 103.447 130.816  1.00  0.00     0.179 C 
BRANCH  17  22
ATOM     22  C   UNL     1     125.019 102.447 131.002  1.00  0.00     0.225 C 
BRANCH  22  23
ATOM     23  O   UNL     1     124.170 102.435 129.884  1.00  0.00    -0.391 OA
ATOM     24  H   UNL     1     123.385 101.868 130.110  1.00  0.00     0.210 HD
ENDBRANCH  22  23
ENDBRANCH  17  22
BRANCH  18  25
ATOM     25  O   UNL     1     125.734 105.004 128.944  1.00  0.00    -0.385 OA
ATOM     26  H   UNL     1     124.981 105.175 129.568  1.00  0.00     0.211 HD
ENDBRANCH  18  25
BRANCH  20  27
ATOM     27  O   UNL     1     128.179 105.684 129.830  1.00  0.00    -0.387 OA
ATOM     28  H   UNL     1     129.154 105.847 129.856  1.00  0.00     0.211 HD
ENDBRANCH  20  27
BRANCH  21  29
ATOM     29  C   UNL     1     129.405 104.109 131.755  1.00  0.00     0.191 C 
BRANCH  29  30
ATOM     30  O   UNL     1     128.788 105.104 132.525  1.00  0.00    -0.394 OA
ATOM     31  H   UNL     1     129.320 105.192 133.357  1.00  0.00     0.210 HD
ENDBRANCH  29  30
ENDBRANCH  21  29
ENDBRANCH   1  17
TORSDOF 13
ENDMDL
MODEL 6
REMARK VINA RESULT:    -5.889      1.782      5.823
REMARK INTER + INTRA:          -9.642
REMARK INTER:                  -8.653
REMARK INTRA:                  -0.989
REMARK UNBOUND:                -0.654
REMARK SMILES OC[C@@H]1O[C@@H](O[C@]2(CO)O[C@H](CO)[C@H](O)[C@@H]2O)[C@H](O)[C@@H](O)[C@@H]1O
REMARK SMILES IDX 6 1 5 2 3 3 22 4 4 5 20 6 18 7 2 8 1 9 23 11 21 13 19 15
REMARK SMILES IDX 7 17 16 18 10 19 14 20 11 21 8 22 9 23 17 25 15 27 12 29
REMARK SMILES IDX 13 30
REMARK H PARENT 1 10 23 12 21 14 19 16 9 24 17 26 15 28 13 31
REMARK Flexibility Score: inf
ROOT
ATOM      1  O   UNL     1     126.566 104.477 133.266  1.00  0.00    -0.313 OA
ENDROOT
BRANCH   1   2
ATOM      2  C   UNL     1     126.861 103.290 132.540  1.00  0.00     0.285 C 
ATOM      3  C   UNL     1     128.923 104.159 131.826  1.00  0.00     0.178 C 
ATOM      4  C   UNL     1     128.519 104.183 130.333  1.00  0.00     0.177 C 
ATOM      5  O   UNL     1     128.268 103.089 132.493  1.00  0.00    -0.341 OA
ATOM      6  C   UNL     1     126.997 104.390 130.233  1.00  0.00     0.179 C 
ATOM      7  C   UNL     1     126.251 103.370 131.119  1.00  0.00     0.202 C 
BRANCH   3   8
ATOM      8  C   UNL     1     130.448 104.058 132.022  1.00  0.00     0.191 C 
BRANCH   8   9
ATOM      9  O   UNL     1     131.137 104.450 130.860  1.00  0.00    -0.394 OA
ATOM     10  H   UNL     1     131.416 105.391 130.998  1.00  0.00     0.210 HD
ENDBRANCH   8   9
ENDBRANCH   3   8
BRANCH   4  11
ATOM     11  O   UNL     1     128.864 102.980 129.694  1.00  0.00    -0.387 OA
ATOM     12  H   UNL     1     129.779 102.738 129.992  1.00  0.00     0.211 HD
ENDBRANCH   4  11
BRANCH   6  13
ATOM     13  O   UNL     1     126.644 105.696 130.624  1.00  0.00    -0.387 OA
ATOM     14  H   UNL     1     125.650 105.743 130.610  1.00  0.00     0.211 HD
ENDBRANCH   6  13
BRANCH   7  15
ATOM     15  O   UNL     1     126.297 102.096 130.525  1.00  0.00    -0.385 OA
ATOM     16  H   UNL     1     126.103 101.436 131.238  1.00  0.00     0.211 HD
ENDBRANCH   7  15
ENDBRANCH   1   2
BRANCH   1  17
ATOM     17  C   UNL     1     125.756 104.343 134.438  1.00  0.00     0.224 C 
ATOM     18  C   UNL     1     125.174 105.683 134.960  1.00  0.00     0.208 C 
ATOM     19  O   UNL     1     124.644 103.567 134.027  1.00  0.00    -0.337 OA
ATOM     20  C   UNL     1     123.931 105.868 134.119  1.00  0.00     0.180 C 
ATOM     21  C   UNL     1     123.541 104.421 133.798  1.00  0.00     0.179 C 
BRANCH  17  22
ATOM     22  C   UNL     1     126.449 103.514 135.557  1.00  0.00     0.225 C 
BRANCH  22  23
ATOM     23  O   UNL     1     125.614 103.261 136.657  1.00  0.00    -0.391 OA
ATOM     24  H   UNL     1     125.199 102.368 136.518  1.00  0.00     0.210 HD
ENDBRANCH  22  23
ENDBRANCH  17  22
BRANCH  18  25
ATOM     25  O   UNL     1     126.050 106.775 134.859  1.00  0.00    -0.385 OA
ATOM     26  H   UNL     1     125.909 107.329 135.670  1.00  0.00     0.211 HD
ENDBRANCH  18  25
BRANCH  20  27
ATOM     27  O   UNL     1     124.148 106.647 132.963  1.00  0.00    -0.387 OA
ATOM     28  H   UNL     1     123.963 107.595 133.176  1.00  0.00     0.211 HD
ENDBRANCH  20  27
BRANCH  21  29
ATOM     29  C   UNL     1     122.979 104.199 132.387  1.00  0.00     0.191 C 
BRANCH  29  30
ATOM     30  O   UNL     1     121.593 104.408 132.372  1.00  0.00    -0.394 OA
ATOM     31  H   UNL     1     121.174 103.562 132.675  1.00  0.00     0.210 HD
ENDBRANCH  29  30
ENDBRANCH  21  29
ENDBRANCH   1  17
TORSDOF 13
ENDMDL
MODEL 7
REMARK VINA RESULT:    -5.797      1.629      5.771
REMARK INTER + INTRA:          -9.502
REMARK INTER:                  -8.443
REMARK INTRA:                  -1.058
REMARK UNBOUND:                -0.654
REMARK SMILES OC[C@@H]1O[C@@H](O[C@]2(CO)O[C@H](CO)[C@H](O)[C@@H]2O)[C@H](O)[C@@H](O)[C@@H]1O
REMARK SMILES IDX 6 1 5 2 3 3 22 4 4 5 20 6 18 7 2 8 1 9 23 11 21 13 19 15
REMARK SMILES IDX 7 17 16 18 10 19 14 20 11 21 8 22 9 23 17 25 15 27 12 29
REMARK SMILES IDX 13 30
REMARK H PARENT 1 10 23 12 21 14 19 16 9 24 17 26 15 28 13 31
REMARK Flexibility Score: inf
ROOT
ATOM      1  O   UNL     1     125.240 104.636 132.088  1.00  0.00    -0.313 OA
ENDROOT
BRANCH   1   2
ATOM      2  C   UNL     1     125.766 103.379 131.680  1.00  0.00     0.285 C 
ATOM      3  C   UNL     1     127.959 104.062 132.169  1.00  0.00     0.178 C 
ATOM      4  C   UNL     1     128.425 103.991 130.695  1.00  0.00     0.177 C 
ATOM      5  O   UNL     1     126.952 103.091 132.410  1.00  0.00    -0.341 OA
ATOM      6  C   UNL     1     127.224 104.281 129.779  1.00  0.00     0.179 C 
ATOM      7  C   UNL     1     126.026 103.382 130.154  1.00  0.00     0.202 C 
BRANCH   3   8
ATOM      8  C   UNL     1     129.123 103.885 133.164  1.00  0.00     0.191 C 
BRANCH   8   9
ATOM      9  O   UNL     1     128.648 103.603 134.458  1.00  0.00    -0.394 OA
ATOM     10  H   UNL     1     129.398 103.783 135.081  1.00  0.00     0.210 HD
ENDBRANCH   8   9
ENDBRANCH   3   8
BRANCH   4  11
ATOM     11  O   UNL     1     128.945 102.722 130.388  1.00  0.00    -0.387 OA
ATOM     12  H   UNL     1     128.282 102.049 130.690  1.00  0.00     0.211 HD
ENDBRANCH   4  11
BRANCH   6  13
ATOM     13  O   UNL     1     126.841 105.633 129.871  1.00  0.00    -0.387 OA
ATOM     14  H   UNL     1     127.289 106.006 130.677  1.00  0.00     0.211 HD
ENDBRANCH   6  13
BRANCH   7  15
ATOM     15  O   UNL     1     126.264 102.064 129.724  1.00  0.00    -0.385 OA
ATOM     16  H   UNL     1     127.193 101.838 129.983  1.00  0.00     0.211 HD
ENDBRANCH   7  15
ENDBRANCH   1   2
BRANCH   1  17
ATOM     17  C   UNL     1     124.017 104.624 132.831  1.00  0.00     0.224 C 
ATOM     18  C   UNL     1     124.133 103.955 134.226  1.00  0.00     0.208 C 
ATOM     19  O   UNL     1     123.723 105.988 133.076  1.00  0.00    -0.337 OA
ATOM     20  C   UNL     1     124.656 105.072 135.101  1.00  0.00     0.180 C 
ATOM     21  C   UNL     1     124.105 106.317 134.396  1.00  0.00     0.179 C 
BRANCH  17  22
ATOM     22  C   UNL     1     122.816 104.082 132.005  1.00  0.00     0.225 C 
BRANCH  22  23
ATOM     23  O   UNL     1     121.569 104.419 132.554  1.00  0.00    -0.391 OA
ATOM     24  H   UNL     1     121.612 105.372 132.833  1.00  0.00     0.210 HD
ENDBRANCH  22  23
ENDBRANCH  17  22
BRANCH  18  25
ATOM     25  O   UNL     1     124.963 102.822 134.260  1.00  0.00    -0.385 OA
ATOM     26  H   UNL     1     124.384 102.040 134.064  1.00  0.00     0.211 HD
ENDBRANCH  18  25
BRANCH  20  27
ATOM     27  O   UNL     1     126.062 105.082 135.215  1.00  0.00    -0.387 OA
ATOM     28  H   UNL     1     126.455 105.230 134.320  1.00  0.00     0.211 HD
ENDBRANCH  20  27
BRANCH  21  29
ATOM     29  C   UNL     1     125.047 107.530 134.393  1.00  0.00     0.191 C 
BRANCH  29  30
ATOM     30  O   UNL     1     126.188 107.263 133.624  1.00  0.00    -0.394 OA
ATOM     31  H   UNL     1     126.938 107.136 134.260  1.00  0.00     0.210 HD
ENDBRANCH  29  30
ENDBRANCH  21  29
ENDBRANCH   1  17
TORSDOF 13
ENDMDL
MODEL 8
REMARK VINA RESULT:    -5.662      1.739      3.384
REMARK INTER + INTRA:          -9.295
REMARK INTER:                  -7.703
REMARK INTRA:                  -1.592
REMARK UNBOUND:                -0.654
REMARK SMILES OC[C@@H]1O[C@@H](O[C@]2(CO)O[C@H](CO)[C@H](O)[C@@H]2O)[C@H](O)[C@@H](O)[C@@H]1O
REMARK SMILES IDX 6 1 5 2 3 3 22 4 4 5 20 6 18 7 2 8 1 9 23 11 21 13 19 15
REMARK SMILES IDX 7 17 16 18 10 19 14 20 11 21 8 22 9 23 17 25 15 27 12 29
REMARK SMILES IDX 13 30
REMARK H PARENT 1 10 23 12 21 14 19 16 9 24 17 26 15 28 13 31
REMARK Flexibility Score: inf
ROOT
ATOM      1  O   UNL     1     126.729 104.286 130.706  1.00  0.00    -0.313 OA
ENDROOT
BRANCH   1   2
ATOM      2  C   UNL     1     126.822 105.348 131.648  1.00  0.00     0.285 C 
ATOM      3  C   UNL     1     127.163 103.840 133.416  1.00  0.00     0.178 C 
ATOM      4  C   UNL     1     125.838 104.208 134.128  1.00  0.00     0.177 C 
ATOM      5  O   UNL     1     127.674 104.968 132.722  1.00  0.00    -0.341 OA
ATOM      6  C   UNL     1     124.812 104.650 133.070  1.00  0.00     0.179 C 
ATOM      7  C   UNL     1     125.411 105.737 132.153  1.00  0.00     0.202 C 
BRANCH   3   8
ATOM      8  C   UNL     1     128.220 103.286 134.390  1.00  0.00     0.191 C 
BRANCH   8   9
ATOM      9  O   UNL     1     127.721 103.227 135.704  1.00  0.00    -0.394 OA
ATOM     10  H   UNL     1     127.100 102.455 135.738  1.00  0.00     0.210 HD
ENDBRANCH   8   9
ENDBRANCH   3   8
BRANCH   4  11
ATOM     11  O   UNL     1     126.030 105.250 135.049  1.00  0.00    -0.387 OA
ATOM     12  H   UNL     1     125.957 106.105 134.550  1.00  0.00     0.211 HD
ENDBRANCH   4  11
BRANCH   6  13
ATOM     13  O   UNL     1     124.397 103.555 132.288  1.00  0.00    -0.387 OA
ATOM     14  H   UNL     1     123.412 103.471 132.409  1.00  0.00     0.211 HD
ENDBRANCH   6  13
BRANCH   7  15
ATOM     15  O   UNL     1     125.491 106.958 132.847  1.00  0.00    -0.385 OA
ATOM     16  H   UNL     1     124.927 106.870 133.656  1.00  0.00     0.211 HD
ENDBRANCH   7  15
ENDBRANCH   1   2
BRANCH   1  17
ATOM     17  C   UNL     1     127.062 104.585 129.347  1.00  0.00     0.224 C 
ATOM     18  C   UNL     1     127.869 103.469 128.635  1.00  0.00     0.208 C 
ATOM     19  O   UNL     1     125.817 104.659 128.673  1.00  0.00    -0.337 OA
ATOM     20  C   UNL     1     126.794 102.514 128.164  1.00  0.00     0.180 C 
ATOM     21  C   UNL     1     125.594 103.449 127.977  1.00  0.00     0.179 C 
BRANCH  17  22
ATOM     22  C   UNL     1     127.707 105.990 129.181  1.00  0.00     0.225 C 
BRANCH  22  23
ATOM     23  O   UNL     1     128.784 106.002 128.280  1.00  0.00    -0.391 OA
ATOM     24  H   UNL     1     128.408 105.919 127.364  1.00  0.00     0.210 HD
ENDBRANCH  22  23
ENDBRANCH  17  22
BRANCH  18  25
ATOM     25  O   UNL     1     128.823 102.833 129.446  1.00  0.00    -0.385 OA
ATOM     26  H   UNL     1     129.263 103.546 129.978  1.00  0.00     0.211 HD
ENDBRANCH  18  25
BRANCH  20  27
ATOM     27  O   UNL     1     126.538 101.467 129.073  1.00  0.00    -0.387 OA
ATOM     28  H   UNL     1     126.963 101.683 129.940  1.00  0.00     0.211 HD
ENDBRANCH  20  27
BRANCH  21  29
ATOM     29  C   UNL     1     124.237 102.849 128.372  1.00  0.00     0.191 C 
BRANCH  29  30
ATOM     30  O   UNL     1     124.171 102.656 129.759  1.00  0.00    -0.394 OA
ATOM     31  H   UNL     1     124.399 103.526 130.179  1.00  0.00     0.210 HD
ENDBRANCH  29  30
ENDBRANCH  21  29
ENDBRANCH   1  17
TORSDOF 13
ENDMDL
MODEL 9
REMARK VINA RESULT:    -5.573      1.446      5.706
REMARK INTER + INTRA:          -9.159
REMARK INTER:                  -8.667
REMARK INTRA:                  -0.491
REMARK UNBOUND:                -0.654
REMARK SMILES OC[C@@H]1O[C@@H](O[C@]2(CO)O[C@H](CO)[C@H](O)[C@@H]2O)[C@H](O)[C@@H](O)[C@@H]1O
REMARK SMILES IDX 6 1 5 2 3 3 22 4 4 5 20 6 18 7 2 8 1 9 23 11 21 13 19 15
REMARK SMILES IDX 7 17 16 18 10 19 14 20 11 21 8 22 9 23 17 25 15 27 12 29
REMARK SMILES IDX 13 30
REMARK H PARENT 1 10 23 12 21 14 19 16 9 24 17 26 15 28 13 31
REMARK Flexibility Score: inf
ROOT
ATOM      1  O   UNL     1     125.374 103.880 132.315  1.00  0.00    -0.313 OA
ENDROOT
BRANCH   1   2
ATOM      2  C   UNL     1     126.387 104.824 131.989  1.00  0.00     0.285 C 
ATOM      3  C   UNL     1     126.440 104.098 129.756  1.00  0.00     0.178 C 
ATOM      4  C   UNL     1     127.891 103.567 129.851  1.00  0.00     0.177 C 
ATOM      5  O   UNL     1     126.270 105.208 130.625  1.00  0.00    -0.341 OA
ATOM      6  C   UNL     1     128.162 103.115 131.297  1.00  0.00     0.179 C 
ATOM      7  C   UNL     1     127.784 104.231 132.294  1.00  0.00     0.202 C 
BRANCH   3   8
ATOM      8  C   UNL     1     126.046 104.479 128.317  1.00  0.00     0.191 C 
BRANCH   8   9
ATOM      9  O   UNL     1     126.883 103.852 127.376  1.00  0.00    -0.394 OA
ATOM     10  H   UNL     1     127.251 103.045 127.818  1.00  0.00     0.210 HD
ENDBRANCH   8   9
ENDBRANCH   3   8
BRANCH   4  11
ATOM     11  O   UNL     1     128.819 104.559 129.495  1.00  0.00    -0.387 OA
ATOM     12  H   UNL     1     128.436 105.064 128.731  1.00  0.00     0.211 HD
ENDBRANCH   4  11
BRANCH   6  13
ATOM     13  O   UNL     1     127.433 101.950 131.601  1.00  0.00    -0.387 OA
ATOM     14  H   UNL     1     126.978 101.667 130.762  1.00  0.00     0.211 HD
ENDBRANCH   6  13
BRANCH   7  15
ATOM     15  O   UNL     1     128.742 105.260 132.246  1.00  0.00    -0.385 OA
ATOM     16  H   UNL     1     128.293 106.089 132.549  1.00  0.00     0.211 HD
ENDBRANCH   7  15
ENDBRANCH   1   2
BRANCH   1  17
ATOM     17  C   UNL     1     124.101 104.398 132.712  1.00  0.00     0.224 C 
ATOM     18  C   UNL     1     123.690 104.020 134.160  1.00  0.00     0.208 C 
ATOM     19  O   UNL     1     124.260 105.806 132.706  1.00  0.00    -0.337 OA
ATOM     20  C   UNL     1     124.382 105.071 134.999  1.00  0.00     0.180 C 
ATOM     21  C   UNL     1     124.457 106.258 134.031  1.00  0.00     0.179 C 
BRANCH  17  22
ATOM     22  C   UNL     1     122.980 104.102 131.675  1.00  0.00     0.225 C 
BRANCH  22  23
ATOM     23  O   UNL     1     121.689 104.352 132.168  1.00  0.00    -0.391 OA
ATOM     24  H   UNL     1     121.054 103.805 131.635  1.00  0.00     0.210 HD
ENDBRANCH  22  23
ENDBRANCH  17  22
BRANCH  18  25
ATOM     25  O   UNL     1     124.046 102.717 134.544  1.00  0.00    -0.385 OA
ATOM     26  H   UNL     1     123.308 102.122 134.247  1.00  0.00     0.211 HD
ENDBRANCH  18  25
BRANCH  20  27
ATOM     27  O   UNL     1     125.648 104.667 135.470  1.00  0.00    -0.387 OA
ATOM     28  H   UNL     1     126.021 105.382 136.042  1.00  0.00     0.211 HD
ENDBRANCH  20  27
BRANCH  21  29
ATOM     29  C   UNL     1     125.743 107.091 134.125  1.00  0.00     0.191 C 
BRANCH  29  30
ATOM     30  O   UNL     1     125.903 107.602 135.421  1.00  0.00    -0.394 OA
ATOM     31  H   UNL     1     125.980 108.587 135.331  1.00  0.00     0.210 HD
ENDBRANCH  29  30
ENDBRANCH  21  29
ENDBRANCH   1  17
TORSDOF 13
ENDMDL
