MODEL 1
REMARK VINA RESULT:    -5.307      0.000      0.000
REMARK INTER + INTRA:          -8.294
REMARK INTER:                  -7.478
REMARK INTRA:                  -0.816
REMARK UNBOUND:                -0.816
REMARK SMILES COc1ccc(-c2cc(=O)c3c(OC)c(OC)c(OC)c(OC)c3o2)cc1OC
REMARK SMILES IDX 7 1 8 2 9 3 10 4 11 5 24 6 25 7 21 8 18 9 15 10 12 11 6 12
REMARK SMILES IDX 3 13 27 14 4 15 26 16 5 17 2 18 1 19 28 20 29 21 22 22 23 23
REMARK SMILES IDX 13 24 14 25 19 26 20 27 16 28 17 29
REMARK H PARENT
REMARK Flexibility Score: inf
ROOT
ATOM      1  C   UNL     1     130.674 100.543  91.614  1.00  0.00     0.138 A 
ATOM      2  C   UNL     1     129.635 101.465  91.421  1.00  0.00     0.100 A 
ATOM      3  C   UNL     1     129.817 102.791  91.813  1.00  0.00     0.197 A 
ATOM      4  O   UNL     1     128.877 103.611  91.632  1.00  0.00    -0.289 OA
ATOM      5  C   UNL     1     131.039 103.186  92.400  1.00  0.00     0.115 A 
ATOM      6  C   UNL     1     132.029 102.197  92.576  1.00  0.00     0.188 A 
ATOM      7  O   UNL     1     131.805 100.945  92.184  1.00  0.00    -0.452 OA
ATOM      8  C   UNL     1     133.258 102.503  93.175  1.00  0.00     0.209 A 
ATOM      9  C   UNL     1     133.534 103.833  93.580  1.00  0.00     0.211 A 
ATOM     10  C   UNL     1     132.563 104.842  93.347  1.00  0.00     0.208 A 
ATOM     11  C   UNL     1     131.295 104.505  92.826  1.00  0.00     0.179 A 
ENDROOT
BRANCH   1  12
ATOM     12  C   UNL     1     130.543  99.118  91.214  1.00  0.00     0.021 A 
ATOM     13  C   UNL     1     130.356  96.415  90.422  1.00  0.00     0.160 A 
ATOM     14  C   UNL     1     131.606  96.967  90.737  1.00  0.00     0.161 A 
ATOM     15  C   UNL     1     129.205  97.219  90.497  1.00  0.00     0.051 A 
ATOM     16  C   UNL     1     131.694  98.317  91.127  1.00  0.00     0.062 A 
ATOM     17  C   UNL     1     129.298  98.557  90.884  1.00  0.00     0.016 A 
BRANCH  13  18
ATOM     18  O   UNL     1     130.300  95.066  90.035  1.00  0.00    -0.493 OA
ATOM     19  C   UNL     1     129.737  94.023  90.825  1.00  0.00     0.278 C 
ENDBRANCH  13  18
BRANCH  14  20
ATOM     20  O   UNL     1     132.739  96.141  90.650  1.00  0.00    -0.493 OA
ATOM     21  C   UNL     1     134.023  96.473  91.170  1.00  0.00     0.278 C 
ENDBRANCH  14  20
ENDBRANCH   1  12
BRANCH   8  22
ATOM     22  O   UNL     1     134.160 101.431  93.332  1.00  0.00    -0.490 OA
ATOM     23  C   UNL     1     135.271 101.116  92.501  1.00  0.00     0.278 C 
ENDBRANCH   8  22
BRANCH  11  24
ATOM     24  O   UNL     1     130.285 105.472  92.729  1.00  0.00    -0.492 OA
ATOM     25  C   UNL     1     129.622 106.013  93.868  1.00  0.00     0.278 C 
ENDBRANCH  11  24
BRANCH   9  26
ATOM     26  O   UNL     1     134.774 104.108  94.186  1.00  0.00    -0.490 OA
ATOM     27  C   UNL     1     135.041 104.226  95.579  1.00  0.00     0.279 C 
ENDBRANCH   9  26
BRANCH  10  28
ATOM     28  O   UNL     1     132.869 106.180  93.606  1.00  0.00    -0.490 OA
ATOM     29  C   UNL     1     133.465 107.024  92.626  1.00  0.00     0.278 C 
ENDBRANCH  10  28
TORSDOF 7
ENDMDL
MODEL 2
REMARK VINA RESULT:    -5.295      4.623      6.625
REMARK INTER + INTRA:          -8.278
REMARK INTER:                  -7.653
REMARK INTRA:                  -0.625
REMARK UNBOUND:                -0.816
REMARK SMILES COc1ccc(-c2cc(=O)c3c(OC)c(OC)c(OC)c(OC)c3o2)cc1OC
REMARK SMILES IDX 7 1 8 2 9 3 10 4 11 5 24 6 25 7 21 8 18 9 15 10 12 11 6 12
REMARK SMILES IDX 3 13 27 14 4 15 26 16 5 17 2 18 1 19 28 20 29 21 22 22 23 23
REMARK SMILES IDX 13 24 14 25 19 26 20 27 16 28 17 29
REMARK H PARENT
REMARK Flexibility Score: inf
ROOT
ATOM      1  C   UNL     1     134.792 103.118  94.289  1.00  0.00     0.138 A 
ATOM      2  C   UNL     1     133.669 102.404  94.730  1.00  0.00     0.100 A 
ATOM      3  C   UNL     1     132.405 102.988  94.630  1.00  0.00     0.197 A 
ATOM      4  O   UNL     1     131.403 102.336  95.026  1.00  0.00    -0.289 OA
ATOM      5  C   UNL     1     132.276 104.288  94.094  1.00  0.00     0.115 A 
ATOM      6  C   UNL     1     133.455 104.949  93.689  1.00  0.00     0.188 A 
ATOM      7  O   UNL     1     134.635 104.346  93.804  1.00  0.00    -0.452 OA
ATOM      8  C   UNL     1     133.413 106.250  93.171  1.00  0.00     0.209 A 
ATOM      9  C   UNL     1     132.167 106.907  93.014  1.00  0.00     0.211 A 
ATOM     10  C   UNL     1     130.975 106.221  93.364  1.00  0.00     0.208 A 
ATOM     11  C   UNL     1     131.036 104.947  93.967  1.00  0.00     0.179 A 
ENDROOT
BRANCH   1  12
ATOM     12  C   UNL     1     136.162 102.549  94.363  1.00  0.00     0.021 A 
ATOM     13  C   UNL     1     138.746 101.428  94.554  1.00  0.00     0.160 A 
ATOM     14  C   UNL     1     137.620 100.644  94.846  1.00  0.00     0.161 A 
ATOM     15  C   UNL     1     138.577 102.771  94.175  1.00  0.00     0.051 A 
ATOM     16  C   UNL     1     136.334 101.210  94.753  1.00  0.00     0.062 A 
ATOM     17  C   UNL     1     137.299 103.326  94.085  1.00  0.00     0.016 A 
BRANCH  13  18
ATOM     18  O   UNL     1     140.016 100.836  94.656  1.00  0.00    -0.493 OA
ATOM     19  C   UNL     1     141.147 101.214  93.878  1.00  0.00     0.278 C 
ENDBRANCH  13  18
BRANCH  14  20
ATOM     20  O   UNL     1     137.820  99.307  95.225  1.00  0.00    -0.493 OA
ATOM     21  C   UNL     1     137.725  98.193  94.342  1.00  0.00     0.278 C 
ENDBRANCH  14  20
ENDBRANCH   1  12
BRANCH   8  22
ATOM     22  O   UNL     1     134.654 106.826  92.831  1.00  0.00    -0.490 OA
ATOM     23  C   UNL     1     135.256 106.866  91.542  1.00  0.00     0.278 C 
ENDBRANCH   8  22
BRANCH  11  24
ATOM     24  O   UNL     1     129.872 104.328  94.444  1.00  0.00    -0.492 OA
ATOM     25  C   UNL     1     128.876 103.787  93.582  1.00  0.00     0.278 C 
ENDBRANCH  11  24
BRANCH   9  26
ATOM     26  O   UNL     1     132.158 108.217  92.500  1.00  0.00    -0.490 OA
ATOM     27  C   UNL     1     131.966 108.605  91.144  1.00  0.00     0.279 C 
ENDBRANCH   9  26
BRANCH  10  28
ATOM     28  O   UNL     1     129.731 106.793  93.083  1.00  0.00    -0.490 OA
ATOM     29  C   UNL     1     129.032 107.589  94.034  1.00  0.00     0.278 C 
ENDBRANCH  10  28
TORSDOF 7
ENDMDL
MODEL 3
REMARK VINA RESULT:    -5.143      5.000      8.386
REMARK INTER + INTRA:          -8.064
REMARK INTER:                  -7.456
REMARK INTRA:                  -0.608
REMARK UNBOUND:                -0.816
REMARK SMILES COc1ccc(-c2cc(=O)c3c(OC)c(OC)c(OC)c(OC)c3o2)cc1OC
REMARK SMILES IDX 7 1 8 2 9 3 10 4 11 5 24 6 25 7 21 8 18 9 15 10 12 11 6 12
REMARK SMILES IDX 3 13 27 14 4 15 26 16 5 17 2 18 1 19 28 20 29 21 22 22 23 23
REMARK SMILES IDX 13 24 14 25 19 26 20 27 16 28 17 29
REMARK H PARENT
REMARK Flexibility Score: inf
ROOT
ATOM      1  C   UNL     1     134.901 103.106  94.373  1.00  0.00     0.138 A 
ATOM      2  C   UNL     1     134.979 101.717  94.548  1.00  0.00     0.100 A 
ATOM      3  C   UNL     1     136.223 101.090  94.489  1.00  0.00     0.197 A 
ATOM      4  O   UNL     1     136.282  99.841  94.649  1.00  0.00    -0.289 OA
ATOM      5  C   UNL     1     137.384 101.859  94.250  1.00  0.00     0.115 A 
ATOM      6  C   UNL     1     137.221 103.249  94.068  1.00  0.00     0.188 A 
ATOM      7  O   UNL     1     136.011 103.797  94.136  1.00  0.00    -0.452 OA
ATOM      8  C   UNL     1     138.320 104.076  93.801  1.00  0.00     0.209 A 
ATOM      9  C   UNL     1     139.623 103.522  93.748  1.00  0.00     0.211 A 
ATOM     10  C   UNL     1     139.796 102.135  93.992  1.00  0.00     0.208 A 
ATOM     11  C   UNL     1     138.674 101.297  94.170  1.00  0.00     0.179 A 
ENDROOT
BRANCH   1  12
ATOM     12  C   UNL     1     133.606 103.833  94.431  1.00  0.00     0.021 A 
ATOM     13  C   UNL     1     131.179 105.272  94.534  1.00  0.00     0.160 A 
ATOM     14  C   UNL     1     132.232 105.733  93.731  1.00  0.00     0.161 A 
ATOM     15  C   UNL     1     131.345 104.097  95.288  1.00  0.00     0.051 A 
ATOM     16  C   UNL     1     133.442 105.013  93.687  1.00  0.00     0.062 A 
ATOM     17  C   UNL     1     132.547 103.388  95.240  1.00  0.00     0.016 A 
BRANCH  13  18
ATOM     18  O   UNL     1     129.985 106.010  94.558  1.00  0.00    -0.493 OA
ATOM     19  C   UNL     1     128.876 105.779  93.696  1.00  0.00     0.278 C 
ENDBRANCH  13  18
BRANCH  14  20
ATOM     20  O   UNL     1     132.039 106.911  92.991  1.00  0.00    -0.493 OA
ATOM     21  C   UNL     1     133.055 107.873  92.723  1.00  0.00     0.278 C 
ENDBRANCH  14  20
ENDBRANCH   1  12
BRANCH   8  22
ATOM     22  O   UNL     1     138.038 105.443  93.603  1.00  0.00    -0.490 OA
ATOM     23  C   UNL     1     138.168 106.493  94.555  1.00  0.00     0.278 C 
ENDBRANCH   8  22
BRANCH  11  24
ATOM     24  O   UNL     1     138.831  99.907  94.268  1.00  0.00    -0.492 OA
ATOM     25  C   UNL     1     139.262  99.261  95.462  1.00  0.00     0.278 C 
ENDBRANCH  11  24
BRANCH   9  26
ATOM     26  O   UNL     1     140.706 104.378  93.470  1.00  0.00    -0.490 OA
ATOM     27  C   UNL     1     141.574 104.997  94.412  1.00  0.00     0.279 C 
ENDBRANCH   9  26
BRANCH  10  28
ATOM     28  O   UNL     1     141.082 101.596  94.087  1.00  0.00    -0.490 OA
ATOM     29  C   UNL     1     141.850 101.261  92.936  1.00  0.00     0.278 C 
ENDBRANCH  10  28
TORSDOF 7
ENDMDL
MODEL 4
REMARK VINA RESULT:    -5.118      3.427      7.614
REMARK INTER + INTRA:          -8.028
REMARK INTER:                  -7.325
REMARK INTRA:                  -0.703
REMARK UNBOUND:                -0.816
REMARK SMILES COc1ccc(-c2cc(=O)c3c(OC)c(OC)c(OC)c(OC)c3o2)cc1OC
REMARK SMILES IDX 7 1 8 2 9 3 10 4 11 5 24 6 25 7 21 8 18 9 15 10 12 11 6 12
REMARK SMILES IDX 3 13 27 14 4 15 26 16 5 17 2 18 1 19 28 20 29 21 22 22 23 23
REMARK SMILES IDX 13 24 14 25 19 26 20 27 16 28 17 29
REMARK H PARENT
REMARK Flexibility Score: inf
ROOT
ATOM      1  C   UNL     1     135.884 102.454  94.496  1.00  0.00     0.138 A 
ATOM      2  C   UNL     1     135.244 103.219  95.481  1.00  0.00     0.100 A 
ATOM      3  C   UNL     1     133.858 103.375  95.432  1.00  0.00     0.197 A 
ATOM      4  O   UNL     1     133.294 104.062  96.325  1.00  0.00    -0.289 OA
ATOM      5  C   UNL     1     133.122 102.765  94.393  1.00  0.00     0.115 A 
ATOM      6  C   UNL     1     133.840 102.026  93.430  1.00  0.00     0.188 A 
ATOM      7  O   UNL     1     135.161 101.907  93.523  1.00  0.00    -0.452 OA
ATOM      8  C   UNL     1     133.185 101.413  92.353  1.00  0.00     0.209 A 
ATOM      9  C   UNL     1     131.774 101.502  92.243  1.00  0.00     0.211 A 
ATOM     10  C   UNL     1     131.045 102.194  93.244  1.00  0.00     0.208 A 
ATOM     11  C   UNL     1     131.722 102.882  94.273  1.00  0.00     0.179 A 
ENDROOT
BRANCH   1  12
ATOM     12  C   UNL     1     137.355 102.246  94.496  1.00  0.00     0.021 A 
ATOM     13  C   UNL     1     140.154 101.882  94.436  1.00  0.00     0.160 A 
ATOM     14  C   UNL     1     139.584 103.020  93.849  1.00  0.00     0.161 A 
ATOM     15  C   UNL     1     139.322 100.925  95.045  1.00  0.00     0.051 A 
ATOM     16  C   UNL     1     138.187 103.194  93.878  1.00  0.00     0.062 A 
ATOM     17  C   UNL     1     137.937 101.104  95.071  1.00  0.00     0.016 A 
BRANCH  13  18
ATOM     18  O   UNL     1     141.550 101.735  94.391  1.00  0.00    -0.493 OA
ATOM     19  C   UNL     1     142.251 100.986  93.404  1.00  0.00     0.278 C 
ENDBRANCH  13  18
BRANCH  14  20
ATOM     20  O   UNL     1     140.439 103.957  93.245  1.00  0.00    -0.493 OA
ATOM     21  C   UNL     1     140.791 105.214  93.813  1.00  0.00     0.278 C 
ENDBRANCH  14  20
ENDBRANCH   1  12
BRANCH   8  22
ATOM     22  O   UNL     1     134.004 100.729  91.432  1.00  0.00    -0.490 OA
ATOM     23  C   UNL     1     134.461 101.205  90.172  1.00  0.00     0.278 C 
ENDBRANCH   8  22
BRANCH  11  24
ATOM     24  O   UNL     1     131.014 103.684  95.180  1.00  0.00    -0.492 OA
ATOM     25  C   UNL     1     130.560 104.996  94.859  1.00  0.00     0.278 C 
ENDBRANCH  11  24
BRANCH   9  26
ATOM     26  O   UNL     1     131.146 100.884  91.146  1.00  0.00    -0.490 OA
ATOM     27  C   UNL     1     130.677  99.542  91.069  1.00  0.00     0.279 C 
ENDBRANCH   9  26
BRANCH  10  28
ATOM     28  O   UNL     1     129.647 102.171  93.232  1.00  0.00    -0.490 OA
ATOM     29  C   UNL     1     128.883 103.018  92.381  1.00  0.00     0.278 C 
ENDBRANCH  10  28
TORSDOF 7
ENDMDL
MODEL 5
REMARK VINA RESULT:    -5.071      2.678      4.381
REMARK INTER + INTRA:          -7.962
REMARK INTER:                  -7.147
REMARK INTRA:                  -0.815
REMARK UNBOUND:                -0.816
REMARK SMILES COc1ccc(-c2cc(=O)c3c(OC)c(OC)c(OC)c(OC)c3o2)cc1OC
REMARK SMILES IDX 7 1 8 2 9 3 10 4 11 5 24 6 25 7 21 8 18 9 15 10 12 11 6 12
REMARK SMILES IDX 3 13 27 14 4 15 26 16 5 17 2 18 1 19 28 20 29 21 22 22 23 23
REMARK SMILES IDX 13 24 14 25 19 26 20 27 16 28 17 29
REMARK H PARENT
REMARK Flexibility Score: inf
ROOT
ATOM      1  C   UNL     1     134.144  99.349  91.698  1.00  0.00     0.138 A 
ATOM      2  C   UNL     1     133.421 100.548  91.630  1.00  0.00     0.100 A 
ATOM      3  C   UNL     1     133.987 101.717  92.138  1.00  0.00     0.197 A 
ATOM      4  O   UNL     1     133.329 102.790  92.069  1.00  0.00    -0.289 OA
ATOM      5  C   UNL     1     135.275 101.677  92.716  1.00  0.00     0.115 A 
ATOM      6  C   UNL     1     135.932 100.429  92.763  1.00  0.00     0.188 A 
ATOM      7  O   UNL     1     135.348  99.344  92.262  1.00  0.00    -0.452 OA
ATOM      8  C   UNL     1     137.200 100.301  93.344  1.00  0.00     0.209 A 
ATOM      9  C   UNL     1     137.857 101.445  93.863  1.00  0.00     0.211 A 
ATOM     10  C   UNL     1     137.224 102.711  93.762  1.00  0.00     0.208 A 
ATOM     11  C   UNL     1     135.910 102.814  93.256  1.00  0.00     0.179 A 
ENDROOT
BRANCH   1  12
ATOM     12  C   UNL     1     133.598  98.072  91.169  1.00  0.00     0.021 A 
ATOM     13  C   UNL     1     132.505  95.656  90.200  1.00  0.00     0.160 A 
ATOM     14  C   UNL     1     131.663  96.739  90.489  1.00  0.00     0.161 A 
ATOM     15  C   UNL     1     133.891  95.783  90.403  1.00  0.00     0.051 A 
ATOM     16  C   UNL     1     132.213  97.940  90.976  1.00  0.00     0.062 A 
ATOM     17  C   UNL     1     134.431  96.976  90.885  1.00  0.00     0.016 A 
BRANCH  13  18
ATOM     18  O   UNL     1     131.928  94.471  89.716  1.00  0.00    -0.493 OA
ATOM     19  C   UNL     1     132.622  93.486  88.958  1.00  0.00     0.278 C 
ENDBRANCH  13  18
BRANCH  14  20
ATOM     20  O   UNL     1     130.283  96.583  90.280  1.00  0.00    -0.493 OA
ATOM     21  C   UNL     1     129.275  96.963  91.213  1.00  0.00     0.278 C 
ENDBRANCH  14  20
ENDBRANCH   1  12
BRANCH   8  22
ATOM     22  O   UNL     1     137.748  99.003  93.367  1.00  0.00    -0.490 OA
ATOM     23  C   UNL     1     137.792  98.110  94.474  1.00  0.00     0.278 C 
ENDBRANCH   8  22
BRANCH  11  24
ATOM     24  O   UNL     1     135.228 104.038  93.287  1.00  0.00    -0.492 OA
ATOM     25  C   UNL     1     134.747 104.624  94.493  1.00  0.00     0.278 C 
ENDBRANCH  11  24
BRANCH   9  26
ATOM     26  O   UNL     1     139.127 101.283  94.448  1.00  0.00    -0.490 OA
ATOM     27  C   UNL     1     140.385 101.286  93.783  1.00  0.00     0.279 C 
ENDBRANCH   9  26
BRANCH  10  28
ATOM     28  O   UNL     1     137.912 103.869  94.135  1.00  0.00    -0.490 OA
ATOM     29  C   UNL     1     138.702 104.612  93.211  1.00  0.00     0.278 C 
ENDBRANCH  10  28
TORSDOF 7
ENDMDL
MODEL 6
REMARK VINA RESULT:    -5.048      3.366      4.926
REMARK INTER + INTRA:          -7.929
REMARK INTER:                  -7.167
REMARK INTRA:                  -0.762
REMARK UNBOUND:                -0.816
REMARK SMILES COc1ccc(-c2cc(=O)c3c(OC)c(OC)c(OC)c(OC)c3o2)cc1OC
REMARK SMILES IDX 7 1 8 2 9 3 10 4 11 5 24 6 25 7 21 8 18 9 15 10 12 11 6 12
REMARK SMILES IDX 3 13 27 14 4 15 26 16 5 17 2 18 1 19 28 20 29 21 22 22 23 23
REMARK SMILES IDX 13 24 14 25 19 26 20 27 16 28 17 29
REMARK H PARENT
REMARK Flexibility Score: inf
ROOT
ATOM      1  C   UNL     1     133.500 102.706  93.278  1.00  0.00     0.138 A 
ATOM      2  C   UNL     1     132.156 102.480  93.606  1.00  0.00     0.100 A 
ATOM      3  C   UNL     1     131.257 103.546  93.581  1.00  0.00     0.197 A 
ATOM      4  O   UNL     1     130.051 103.330  93.875  1.00  0.00    -0.289 OA
ATOM      5  C   UNL     1     131.712 104.836  93.230  1.00  0.00     0.115 A 
ATOM      6  C   UNL     1     133.082 104.987  92.929  1.00  0.00     0.188 A 
ATOM      7  O   UNL     1     133.897 103.936  92.967  1.00  0.00    -0.452 OA
ATOM      8  C   UNL     1     133.616 106.239  92.598  1.00  0.00     0.209 A 
ATOM      9  C   UNL     1     132.766 107.371  92.525  1.00  0.00     0.211 A 
ATOM     10  C   UNL     1     131.377 107.210  92.767  1.00  0.00     0.208 A 
ATOM     11  C   UNL     1     130.866 105.963  93.188  1.00  0.00     0.179 A 
ENDROOT
BRANCH   1  12
ATOM     12  C   UNL     1     134.504 101.611  93.281  1.00  0.00     0.021 A 
ATOM     13  C   UNL     1     136.370  99.493  93.249  1.00  0.00     0.160 A 
ATOM     14  C   UNL     1     135.546  99.716  92.137  1.00  0.00     0.161 A 
ATOM     15  C   UNL     1     136.253 100.325  94.377  1.00  0.00     0.051 A 
ATOM     16  C   UNL     1     134.614 100.771  92.160  1.00  0.00     0.062 A 
ATOM     17  C   UNL     1     135.327 101.370  94.394  1.00  0.00     0.016 A 
BRANCH  13  18
ATOM     18  O   UNL     1     137.289  98.432  93.198  1.00  0.00    -0.493 OA
ATOM     19  C   UNL     1     137.829  97.777  94.340  1.00  0.00     0.278 C 
ENDBRANCH  13  18
BRANCH  14  20
ATOM     20  O   UNL     1     135.682  98.867  91.026  1.00  0.00    -0.493 OA
ATOM     21  C   UNL     1     134.745  98.777  89.958  1.00  0.00     0.278 C 
ENDBRANCH  14  20
ENDBRANCH   1  12
BRANCH   8  22
ATOM     22  O   UNL     1     135.003 106.280  92.350  1.00  0.00    -0.490 OA
ATOM     23  C   UNL     1     136.029 106.631  93.271  1.00  0.00     0.278 C 
ENDBRANCH   8  22
BRANCH  11  24
ATOM     24  O   UNL     1     129.522 105.835  93.566  1.00  0.00    -0.492 OA
ATOM     25  C   UNL     1     128.974 106.493  94.704  1.00  0.00     0.278 C 
ENDBRANCH  11  24
BRANCH   9  26
ATOM     26  O   UNL     1     133.333 108.617  92.198  1.00  0.00    -0.490 OA
ATOM     27  C   UNL     1     133.598 109.124  90.895  1.00  0.00     0.279 C 
ENDBRANCH   9  26
BRANCH  10  28
ATOM     28  O   UNL     1     130.502 108.280  92.561  1.00  0.00    -0.490 OA
ATOM     29  C   UNL     1     129.932 108.557  91.286  1.00  0.00     0.278 C 
ENDBRANCH  10  28
TORSDOF 7
ENDMDL
MODEL 7
REMARK VINA RESULT:    -5.033      1.549      3.735
REMARK INTER + INTRA:          -7.908
REMARK INTER:                  -7.216
REMARK INTRA:                  -0.692
REMARK UNBOUND:                -0.816
REMARK SMILES COc1ccc(-c2cc(=O)c3c(OC)c(OC)c(OC)c(OC)c3o2)cc1OC
REMARK SMILES IDX 7 1 8 2 9 3 10 4 11 5 24 6 25 7 21 8 18 9 15 10 12 11 6 12
REMARK SMILES IDX 3 13 27 14 4 15 26 16 5 17 2 18 1 19 28 20 29 21 22 22 23 23
REMARK SMILES IDX 13 24 14 25 19 26 20 27 16 28 17 29
REMARK H PARENT
REMARK Flexibility Score: inf
ROOT
ATOM      1  C   UNL     1     133.332 100.144  91.511  1.00  0.00     0.138 A 
ATOM      2  C   UNL     1     134.535 100.745  91.115  1.00  0.00     0.100 A 
ATOM      3  C   UNL     1     134.757 102.090  91.411  1.00  0.00     0.197 A 
ATOM      4  O   UNL     1     135.844 102.618  91.052  1.00  0.00    -0.289 OA
ATOM      5  C   UNL     1     133.769 102.827  92.099  1.00  0.00     0.115 A 
ATOM      6  C   UNL     1     132.578 102.156  92.449  1.00  0.00     0.188 A 
ATOM      7  O   UNL     1     132.417 100.872  92.144  1.00  0.00    -0.452 OA
ATOM      8  C   UNL     1     131.539 102.825  93.109  1.00  0.00     0.209 A 
ATOM      9  C   UNL     1     131.694 104.188  93.469  1.00  0.00     0.211 A 
ATOM     10  C   UNL     1     132.915 104.847  93.172  1.00  0.00     0.208 A 
ATOM     11  C   UNL     1     133.918 104.190  92.428  1.00  0.00     0.179 A 
ENDROOT
BRANCH   1  12
ATOM     12  C   UNL     1     133.038  98.715  91.231  1.00  0.00     0.021 A 
ATOM     13  C   UNL     1     132.425  96.004  90.735  1.00  0.00     0.160 A 
ATOM     14  C   UNL     1     131.391  96.941  90.874  1.00  0.00     0.161 A 
ATOM     15  C   UNL     1     133.762  96.424  90.851  1.00  0.00     0.051 A 
ATOM     16  C   UNL     1     131.703  98.291  91.126  1.00  0.00     0.062 A 
ATOM     17  C   UNL     1     134.065  97.764  91.101  1.00  0.00     0.016 A 
BRANCH  13  18
ATOM     18  O   UNL     1     132.084  94.665  90.485  1.00  0.00    -0.493 OA
ATOM     19  C   UNL     1     132.157  94.038  89.209  1.00  0.00     0.278 C 
ENDBRANCH  13  18
BRANCH  14  20
ATOM     20  O   UNL     1     130.065  96.492  90.756  1.00  0.00    -0.493 OA
ATOM     21  C   UNL     1     128.921  97.238  91.158  1.00  0.00     0.278 C 
ENDBRANCH  14  20
ENDBRANCH   1  12
BRANCH   8  22
ATOM     22  O   UNL     1     130.381 102.068  93.380  1.00  0.00    -0.490 OA
ATOM     23  C   UNL     1     129.174 102.048  92.626  1.00  0.00     0.278 C 
ENDBRANCH   8  22
BRANCH  11  24
ATOM     24  O   UNL     1     135.063 104.882  92.010  1.00  0.00    -0.492 OA
ATOM     25  C   UNL     1     136.098 105.275  92.907  1.00  0.00     0.278 C 
ENDBRANCH  11  24
BRANCH   9  26
ATOM     26  O   UNL     1     130.629 104.835  94.124  1.00  0.00    -0.490 OA
ATOM     27  C   UNL     1     129.616 105.638  93.529  1.00  0.00     0.279 C 
ENDBRANCH   9  26
BRANCH  10  28
ATOM     28  O   UNL     1     133.143 106.143  93.644  1.00  0.00    -0.490 OA
ATOM     29  C   UNL     1     132.867 107.295  92.855  1.00  0.00     0.278 C 
ENDBRANCH  10  28
TORSDOF 7
ENDMDL
MODEL 8
REMARK VINA RESULT:    -5.020      2.051      4.845
REMARK INTER + INTRA:          -7.890
REMARK INTER:                  -7.101
REMARK INTRA:                  -0.789
REMARK UNBOUND:                -0.816
REMARK SMILES COc1ccc(-c2cc(=O)c3c(OC)c(OC)c(OC)c(OC)c3o2)cc1OC
REMARK SMILES IDX 7 1 8 2 9 3 10 4 11 5 24 6 25 7 21 8 18 9 15 10 12 11 6 12
REMARK SMILES IDX 3 13 27 14 4 15 26 16 5 17 2 18 1 19 28 20 29 21 22 22 23 23
REMARK SMILES IDX 13 24 14 25 19 26 20 27 16 28 17 29
REMARK H PARENT
REMARK Flexibility Score: inf
ROOT
ATOM      1  C   UNL     1     134.746  98.860  91.885  1.00  0.00     0.138 A 
ATOM      2  C   UNL     1     136.015  98.621  92.433  1.00  0.00     0.100 A 
ATOM      3  C   UNL     1     136.658  99.639  93.137  1.00  0.00     0.197 A 
ATOM      4  O   UNL     1     137.796  99.412  93.627  1.00  0.00    -0.289 OA
ATOM      5  C   UNL     1     136.026 100.894  93.285  1.00  0.00     0.115 A 
ATOM      6  C   UNL     1     134.758 101.062  92.690  1.00  0.00     0.188 A 
ATOM      7  O   UNL     1     134.188 100.057  92.030  1.00  0.00    -0.452 OA
ATOM      8  C   UNL     1     134.079 102.284  92.769  1.00  0.00     0.209 A 
ATOM      9  C   UNL     1     134.651 103.364  93.487  1.00  0.00     0.211 A 
ATOM     10  C   UNL     1     135.898 103.178  94.138  1.00  0.00     0.208 A 
ATOM     11  C   UNL     1     136.615 101.972  93.976  1.00  0.00     0.179 A 
ENDROOT
BRANCH   1  12
ATOM     12  C   UNL     1     134.009  97.814  91.130  1.00  0.00     0.021 A 
ATOM     13  C   UNL     1     132.554  95.837  89.736  1.00  0.00     0.160 A 
ATOM     14  C   UNL     1     131.882  96.929  90.303  1.00  0.00     0.161 A 
ATOM     15  C   UNL     1     133.949  95.732  89.875  1.00  0.00     0.051 A 
ATOM     16  C   UNL     1     132.613  97.911  91.001  1.00  0.00     0.062 A 
ATOM     17  C   UNL     1     134.668  96.708  90.567  1.00  0.00     0.016 A 
BRANCH  13  18
ATOM     18  O   UNL     1     131.799  94.874  89.047  1.00  0.00    -0.493 OA
ATOM     19  C   UNL     1     131.426  93.607  89.581  1.00  0.00     0.278 C 
ENDBRANCH  13  18
BRANCH  14  20
ATOM     20  O   UNL     1     130.488  97.006  90.152  1.00  0.00    -0.493 OA
ATOM     21  C   UNL     1     129.545  96.618  91.146  1.00  0.00     0.278 C 
ENDBRANCH  14  20
ENDBRANCH   1  12
BRANCH   8  22
ATOM     22  O   UNL     1     132.834 102.351  92.110  1.00  0.00    -0.490 OA
ATOM     23  C   UNL     1     131.547 102.161  92.687  1.00  0.00     0.278 C 
ENDBRANCH   8  22
BRANCH  11  24
ATOM     24  O   UNL     1     137.909 101.837  94.497  1.00  0.00    -0.492 OA
ATOM     25  C   UNL     1     139.060 102.380  93.856  1.00  0.00     0.278 C 
ENDBRANCH  11  24
BRANCH   9  26
ATOM     26  O   UNL     1     133.948 104.583  93.542  1.00  0.00    -0.490 OA
ATOM     27  C   UNL     1     133.045 105.008  94.556  1.00  0.00     0.279 C 
ENDBRANCH   9  26
BRANCH  10  28
ATOM     28  O   UNL     1     136.410 104.179  94.968  1.00  0.00    -0.490 OA
ATOM     29  C   UNL     1     137.086 105.320  94.451  1.00  0.00     0.278 C 
ENDBRANCH  10  28
TORSDOF 7
ENDMDL
MODEL 9
REMARK VINA RESULT:    -4.999      2.904      5.655
REMARK INTER + INTRA:          -7.861
REMARK INTER:                  -7.023
REMARK INTRA:                  -0.838
REMARK UNBOUND:                -0.816
REMARK SMILES COc1ccc(-c2cc(=O)c3c(OC)c(OC)c(OC)c(OC)c3o2)cc1OC
REMARK SMILES IDX 7 1 8 2 9 3 10 4 11 5 24 6 25 7 21 8 18 9 15 10 12 11 6 12
REMARK SMILES IDX 3 13 27 14 4 15 26 16 5 17 2 18 1 19 28 20 29 21 22 22 23 23
REMARK SMILES IDX 13 24 14 25 19 26 20 27 16 28 17 29
REMARK H PARENT
REMARK Flexibility Score: inf
ROOT
ATOM      1  C   UNL     1     134.816  98.670  91.290  1.00  0.00     0.138 A 
ATOM      2  C   UNL     1     135.949  98.444  90.495  1.00  0.00     0.100 A 
ATOM      3  C   UNL     1     137.100  99.202  90.713  1.00  0.00     0.197 A 
ATOM      4  O   UNL     1     138.112  98.988  89.995  1.00  0.00    -0.289 OA
ATOM      5  C   UNL     1     137.107 100.186  91.726  1.00  0.00     0.115 A 
ATOM      6  C   UNL     1     135.923 100.366  92.472  1.00  0.00     0.188 A 
ATOM      7  O   UNL     1     134.853  99.615  92.224  1.00  0.00    -0.452 OA
ATOM      8  C   UNL     1     135.842 101.339  93.476  1.00  0.00     0.209 A 
ATOM      9  C   UNL     1     136.974 102.137  93.779  1.00  0.00     0.211 A 
ATOM     10  C   UNL     1     138.184 101.915  93.071  1.00  0.00     0.208 A 
ATOM     11  C   UNL     1     138.228 100.995  92.002  1.00  0.00     0.179 A 
ENDROOT
BRANCH   1  12
ATOM     12  C   UNL     1     133.563  97.892  91.110  1.00  0.00     0.021 A 
ATOM     13  C   UNL     1     131.151  96.457  90.809  1.00  0.00     0.160 A 
ATOM     14  C   UNL     1     131.120  97.849  90.980  1.00  0.00     0.161 A 
ATOM     15  C   UNL     1     132.387  95.787  90.796  1.00  0.00     0.051 A 
ATOM     16  C   UNL     1     132.327  98.559  91.134  1.00  0.00     0.062 A 
ATOM     17  C   UNL     1     133.579  96.496  90.949  1.00  0.00     0.016 A 
BRANCH  13  18
ATOM     18  O   UNL     1     129.932  95.776  90.659  1.00  0.00    -0.493 OA
ATOM     19  C   UNL     1     129.411  94.839  91.595  1.00  0.00     0.278 C 
ENDBRANCH  13  18
BRANCH  14  20
ATOM     20  O   UNL     1     129.871  98.491  90.992  1.00  0.00    -0.493 OA
ATOM     21  C   UNL     1     129.344  99.253  89.911  1.00  0.00     0.278 C 
ENDBRANCH  14  20
ENDBRANCH   1  12
BRANCH   8  22
ATOM     22  O   UNL     1     134.601 101.455  94.134  1.00  0.00    -0.490 OA
ATOM     23  C   UNL     1     133.577 102.410  93.874  1.00  0.00     0.278 C 
ENDBRANCH   8  22
BRANCH  11  24
ATOM     24  O   UNL     1     139.378 100.877  91.210  1.00  0.00    -0.492 OA
ATOM     25  C   UNL     1     139.783 101.880  90.282  1.00  0.00     0.278 C 
ENDBRANCH  11  24
BRANCH   9  26
ATOM     26  O   UNL     1     136.859 103.112  94.787  1.00  0.00    -0.490 OA
ATOM     27  C   UNL     1     136.568 104.495  94.614  1.00  0.00     0.279 C 
ENDBRANCH   9  26
BRANCH  10  28
ATOM     28  O   UNL     1     139.349 102.588  93.451  1.00  0.00    -0.490 OA
ATOM     29  C   UNL     1     140.279 102.031  94.374  1.00  0.00     0.278 C 
ENDBRANCH  10  28
TORSDOF 7
ENDMDL
