MODEL 1
REMARK VINA RESULT:    -3.158      0.000      0.000
REMARK INTER + INTRA:          -3.743
REMARK INTER:                  -3.712
REMARK INTRA:                  -0.031
REMARK UNBOUND:                -0.031
REMARK SMILES CCCCC(=O)[O-]
REMARK SMILES IDX 4 1 5 2 6 3 7 4 3 5 2 6 1 7
REMARK H PARENT
REMARK Flexibility Score: inf
ROOT
ATOM      1  C   UNL     1       5.322  -5.668  -7.653  1.00  0.00     0.053 C 
ENDROOT
BRANCH   1   2
ATOM      2  C   UNL     1       5.315  -5.451  -6.173  1.00  0.00     0.041 C 
ATOM      3  O   UNL     1       5.916  -4.462  -5.673  1.00  0.00    -0.550 OA
ATOM      4  O   UNL     1       4.604  -6.312  -5.347  1.00  0.00    -0.550 OA
ENDBRANCH   1   2
BRANCH   1   5
ATOM      5  C   UNL     1       5.558  -4.342  -8.387  1.00  0.00     0.006 C 
BRANCH   5   6
ATOM      6  C   UNL     1       4.530  -4.096  -9.502  1.00  0.00    -0.003 C 
ATOM      7  C   UNL     1       3.840  -2.737  -9.380  1.00  0.00     0.004 C 
ENDBRANCH   5   6
ENDBRANCH   1   5
TORSDOF 3
ENDMDL
MODEL 2
REMARK VINA RESULT:    -3.102     19.463     20.114
REMARK INTER + INTRA:          -3.678
REMARK INTER:                  -3.618
REMARK INTRA:                  -0.060
REMARK UNBOUND:                -0.031
REMARK SMILES CCCCC(=O)[O-]
REMARK SMILES IDX 4 1 5 2 6 3 7 4 3 5 2 6 1 7
REMARK H PARENT
REMARK Flexibility Score: inf
ROOT
ATOM      1  C   UNL     1      -9.417  -3.565   7.630  1.00  0.00     0.053 C 
ENDROOT
BRANCH   1   2
ATOM      2  C   UNL     1      -8.703  -2.559   6.785  1.00  0.00     0.041 C 
ATOM      3  O   UNL     1      -8.912  -2.509   5.544  1.00  0.00    -0.550 OA
ATOM      4  O   UNL     1      -7.841  -1.642   7.374  1.00  0.00    -0.550 OA
ENDBRANCH   1   2
BRANCH   1   5
ATOM      5  C   UNL     1      -9.427  -4.935   6.940  1.00  0.00     0.006 C 
BRANCH   5   6
ATOM      6  C   UNL     1      -8.132  -5.724   7.180  1.00  0.00    -0.003 C 
ATOM      7  C   UNL     1      -8.142  -7.097   6.507  1.00  0.00     0.004 C 
ENDBRANCH   5   6
ENDBRANCH   1   5
TORSDOF 3
ENDMDL
MODEL 3
REMARK VINA RESULT:    -2.988     10.393     11.235
REMARK INTER + INTRA:          -3.543
REMARK INTER:                  -3.469
REMARK INTRA:                  -0.074
REMARK UNBOUND:                -0.031
REMARK SMILES CCCCC(=O)[O-]
REMARK SMILES IDX 4 1 5 2 6 3 7 4 3 5 2 6 1 7
REMARK H PARENT
REMARK Flexibility Score: inf
ROOT
ATOM      1  C   UNL     1       4.275  -6.824   2.740  1.00  0.00     0.053 C 
ENDROOT
BRANCH   1   2
ATOM      2  C   UNL     1       3.480  -8.016   2.309  1.00  0.00     0.041 C 
ATOM      3  O   UNL     1       3.527  -8.412   1.114  1.00  0.00    -0.550 OA
ATOM      4  O   UNL     1       2.725  -8.721   3.238  1.00  0.00    -0.550 OA
ENDBRANCH   1   2
BRANCH   1   5
ATOM      5  C   UNL     1       5.369  -7.240   3.731  1.00  0.00     0.006 C 
BRANCH   5   6
ATOM      6  C   UNL     1       6.516  -8.006   3.054  1.00  0.00    -0.003 C 
ATOM      7  C   UNL     1       7.890  -7.618   3.600  1.00  0.00     0.004 C 
ENDBRANCH   5   6
ENDBRANCH   1   5
TORSDOF 3
ENDMDL
MODEL 4
REMARK VINA RESULT:    -2.907      2.276      2.769
REMARK INTER + INTRA:          -3.448
REMARK INTER:                  -3.349
REMARK INTRA:                  -0.100
REMARK UNBOUND:                -0.031
REMARK SMILES CCCCC(=O)[O-]
REMARK SMILES IDX 4 1 5 2 6 3 7 4 3 5 2 6 1 7
REMARK H PARENT
REMARK Flexibility Score: inf
ROOT
ATOM      1  C   UNL     1       5.033  -6.530  -6.389  1.00  0.00     0.053 C 
ENDROOT
BRANCH   1   2
ATOM      2  C   UNL     1       5.326  -5.064  -6.419  1.00  0.00     0.041 C 
ATOM      3  O   UNL     1       6.019  -4.535  -5.510  1.00  0.00    -0.550 OA
ATOM      4  O   UNL     1       4.876  -4.287  -7.480  1.00  0.00    -0.550 OA
ENDBRANCH   1   2
BRANCH   1   5
ATOM      5  C   UNL     1       5.734  -7.241  -7.554  1.00  0.00     0.006 C 
BRANCH   5   6
ATOM      6  C   UNL     1       4.742  -7.855  -8.552  1.00  0.00    -0.003 C 
ATOM      7  C   UNL     1       4.439  -6.930  -9.731  1.00  0.00     0.004 C 
ENDBRANCH   5   6
ENDBRANCH   1   5
TORSDOF 3
ENDMDL
MODEL 5
REMARK VINA RESULT:    -2.866      9.947     11.171
REMARK INTER + INTRA:          -3.400
REMARK INTER:                  -3.313
REMARK INTRA:                  -0.087
REMARK UNBOUND:                -0.031
REMARK SMILES CCCCC(=O)[O-]
REMARK SMILES IDX 4 1 5 2 6 3 7 4 3 5 2 6 1 7
REMARK H PARENT
REMARK Flexibility Score: inf
ROOT
ATOM      1  C   UNL     1       4.817  -6.804   3.152  1.00  0.00     0.053 C 
ENDROOT
BRANCH   1   2
ATOM      2  C   UNL     1       6.078  -7.072   3.911  1.00  0.00     0.041 C 
ATOM      3  O   UNL     1       7.091  -7.531   3.318  1.00  0.00    -0.550 OA
ATOM      4  O   UNL     1       6.153  -6.769   5.265  1.00  0.00    -0.550 OA
ENDBRANCH   1   2
BRANCH   1   5
ATOM      5  C   UNL     1       3.858  -7.995   3.271  1.00  0.00     0.006 C 
BRANCH   5   6
ATOM      6  C   UNL     1       3.333  -8.468   1.907  1.00  0.00    -0.003 C 
ATOM      7  C   UNL     1       4.448  -8.658   0.878  1.00  0.00     0.004 C 
ENDBRANCH   5   6
ENDBRANCH   1   5
TORSDOF 3
ENDMDL
MODEL 6
REMARK VINA RESULT:    -2.805     23.412     23.984
REMARK INTER + INTRA:          -3.328
REMARK INTER:                  -3.228
REMARK INTRA:                  -0.100
REMARK UNBOUND:                -0.031
REMARK SMILES CCCCC(=O)[O-]
REMARK SMILES IDX 4 1 5 2 6 3 7 4 3 5 2 6 1 7
REMARK H PARENT
REMARK Flexibility Score: inf
ROOT
ATOM      1  C   UNL     1      -5.050   8.918   9.291  1.00  0.00     0.053 C 
ENDROOT
BRANCH   1   2
ATOM      2  C   UNL     1      -5.028  10.059   8.324  1.00  0.00     0.041 C 
ATOM      3  O   UNL     1      -4.421  11.125   8.612  1.00  0.00    -0.550 OA
ATOM      4  O   UNL     1      -5.636   9.929   7.082  1.00  0.00    -0.550 OA
ENDBRANCH   1   2
BRANCH   1   5
ATOM      5  C   UNL     1      -5.845   7.741   8.712  1.00  0.00     0.006 C 
BRANCH   5   6
ATOM      6  C   UNL     1      -7.163   7.495   9.460  1.00  0.00    -0.003 C 
ATOM      7  C   UNL     1      -8.394   7.833   8.617  1.00  0.00     0.004 C 
ENDBRANCH   5   6
ENDBRANCH   1   5
TORSDOF 3
ENDMDL
MODEL 7
REMARK VINA RESULT:    -2.777     18.576     19.285
REMARK INTER + INTRA:          -3.296
REMARK INTER:                  -3.257
REMARK INTRA:                  -0.039
REMARK UNBOUND:                -0.031
REMARK SMILES CCCCC(=O)[O-]
REMARK SMILES IDX 4 1 5 2 6 3 7 4 3 5 2 6 1 7
REMARK H PARENT
REMARK Flexibility Score: inf
ROOT
ATOM      1  C   UNL     1       6.152   8.215   7.243  1.00  0.00     0.053 C 
ENDROOT
BRANCH   1   2
ATOM      2  C   UNL     1       6.151   7.390   8.491  1.00  0.00     0.041 C 
ATOM      3  O   UNL     1       6.272   6.138   8.424  1.00  0.00    -0.550 OA
ATOM      4  O   UNL     1       6.065   8.007   9.733  1.00  0.00    -0.550 OA
ENDBRANCH   1   2
BRANCH   1   5
ATOM      5  C   UNL     1       6.203   7.312   6.004  1.00  0.00     0.006 C 
BRANCH   5   6
ATOM      6  C   UNL     1       6.922   7.975   4.821  1.00  0.00    -0.003 C 
ATOM      7  C   UNL     1       6.850   9.502   4.865  1.00  0.00     0.004 C 
ENDBRANCH   5   6
ENDBRANCH   1   5
TORSDOF 3
ENDMDL
