MODEL 1
REMARK VINA RESULT:    -3.969      0.000      0.000
REMARK INTER + INTRA:          -4.590
REMARK INTER:                  -4.781
REMARK INTRA:                   0.191
REMARK UNBOUND:                 0.191
REMARK SMILES O=c1c(O)c(-c2ccc(O)c(O)c2)oc2cc(O)cc(O)c12
REMARK SMILES IDX 5 1 3 2 2 3 1 4 22 5 20 6 19 7 17 8 16 9 15 10 14 11 6 12
REMARK SMILES IDX 7 13 8 14 9 15 13 16 11 17 10 18 12 20 4 22 21 24 18 26
REMARK H PARENT 10 19 12 21 4 23 21 25 18 27
REMARK Flexibility Score: inf
ROOT
ATOM      1  C   UNL     1      -8.525  16.602  33.256  1.00  0.00     0.180 A 
ATOM      2  C   UNL     1      -7.149  16.831  33.425  1.00  0.00     0.208 A 
ATOM      3  C   UNL     1      -6.608  16.796  34.721  1.00  0.00     0.238 A 
ATOM      4  O   UNL     1      -5.385  17.055  34.872  1.00  0.00    -0.285 OA
ATOM      5  C   UNL     1      -7.445  16.519  35.827  1.00  0.00     0.111 A 
ATOM      6  C   UNL     1      -6.997  16.419  37.179  1.00  0.00     0.134 A 
ATOM      7  C   UNL     1      -7.934  16.270  38.208  1.00  0.00     0.093 A 
ATOM      8  C   UNL     1      -9.295  16.151  37.931  1.00  0.00     0.123 A 
ATOM      9  C   UNL     1      -9.740  16.187  36.608  1.00  0.00     0.094 A 
ATOM     10  C   UNL     1      -8.832  16.371  35.562  1.00  0.00     0.146 A 
ATOM     11  O   UNL     1      -9.296  16.409  34.319  1.00  0.00    -0.452 OA
ENDROOT
BRANCH   1  12
ATOM     12  C   UNL     1      -9.164  16.598  31.919  1.00  0.00     0.025 A 
ATOM     13  C   UNL     1     -10.496  17.019  31.790  1.00  0.00     0.016 A 
ATOM     14  C   UNL     1     -11.125  17.003  30.541  1.00  0.00     0.051 A 
ATOM     15  C   UNL     1     -10.439  16.552  29.409  1.00  0.00     0.157 A 
ATOM     16  C   UNL     1      -8.482  16.126  30.784  1.00  0.00     0.062 A 
ATOM     17  C   UNL     1      -9.112  16.106  29.530  1.00  0.00     0.158 A 
BRANCH  15  18
ATOM     18  O   UNL     1     -11.091  16.550  28.177  1.00  0.00    -0.504 OA
ATOM     19  H   UNL     1     -10.976  17.299  27.505  1.00  0.00     0.293 HD
ENDBRANCH  15  18
BRANCH  17  20
ATOM     20  O   UNL     1      -8.427  15.643  28.409  1.00  0.00    -0.504 OA
ATOM     21  H   UNL     1      -8.621  14.733  28.006  1.00  0.00     0.293 HD
ENDBRANCH  17  20
ENDBRANCH   1  12
BRANCH   2  22
ATOM     22  O   UNL     1      -6.343  17.125  32.322  1.00  0.00    -0.502 OA
ATOM     23  H   UNL     1      -5.996  16.409  31.695  1.00  0.00     0.293 HD
ENDBRANCH   2  22
BRANCH   6  24
ATOM     24  O   UNL     1      -5.651  16.435  37.558  1.00  0.00    -0.507 OA
ATOM     25  H   UNL     1      -4.929  15.872  37.135  1.00  0.00     0.293 HD
ENDBRANCH   6  24
BRANCH   8  26
ATOM     26  O   UNL     1     -10.199  15.988  38.979  1.00  0.00    -0.508 OA
ATOM     27  H   UNL     1     -10.309  15.096  39.449  1.00  0.00     0.293 HD
ENDBRANCH   8  26
TORSDOF 6
ENDMDL
