MODEL 1
REMARK VINA RESULT:    -5.292      0.000      0.000
REMARK INTER + INTRA:          -6.113
REMARK INTER:                  -5.910
REMARK INTRA:                  -0.203
REMARK UNBOUND:                -0.203
REMARK SMILES CC(C)c1ccc(C(=O)[O-])cc1
REMARK SMILES IDX 7 1 6 2 11 3 5 4 12 5 4 6 8 7 9 8 10 9 2 10 1 11 3 12
REMARK H PARENT
REMARK Flexibility Score: inf
ROOT
ATOM      1  C   UNL     1     110.288 -48.795  32.889  1.00  0.00    -0.003 A 
ATOM      2  C   UNL     1     111.408 -49.608  32.654  1.00  0.00     0.010 A 
ATOM      3  C   UNL     1     110.065 -47.687  32.055  1.00  0.00     0.010 A 
ATOM      4  C   UNL     1     112.288 -49.320  31.607  1.00  0.00     0.004 A 
ATOM      5  C   UNL     1     110.944 -47.397  31.008  1.00  0.00     0.004 A 
ATOM      6  C   UNL     1     112.065 -48.210  30.771  1.00  0.00    -0.045 A 
ENDROOT
BRANCH   1   7
ATOM      7  C   UNL     1     109.360 -49.105  33.999  1.00  0.00     0.071 C 
ATOM      8  O   UNL     1     108.744 -50.204  34.030  1.00  0.00    -0.545 OA
ATOM      9  O   UNL     1     109.154 -48.187  35.022  1.00  0.00    -0.545 OA
ENDBRANCH   1   7
BRANCH   6  10
ATOM     10  C   UNL     1     113.011 -47.885  29.630  1.00  0.00     0.013 C 
ATOM     11  C   UNL     1     112.648 -48.676  28.367  1.00  0.00     0.012 C 
ATOM     12  C   UNL     1     114.469 -48.129  30.034  1.00  0.00     0.012 C 
ENDBRANCH   6  10
TORSDOF 2
ENDMDL
MODEL 2
REMARK VINA RESULT:    -5.288      0.106      1.399
REMARK INTER + INTRA:          -6.109
REMARK INTER:                  -5.905
REMARK INTRA:                  -0.204
REMARK UNBOUND:                -0.203
REMARK SMILES CC(C)c1ccc(C(=O)[O-])cc1
REMARK SMILES IDX 7 1 6 2 11 3 5 4 12 5 4 6 8 7 9 8 10 9 2 10 1 11 3 12
REMARK H PARENT
REMARK Flexibility Score: inf
ROOT
ATOM      1  C   UNL     1     110.281 -48.772  32.911  1.00  0.00    -0.003 A 
ATOM      2  C   UNL     1     109.986 -47.713  32.038  1.00  0.00     0.010 A 
ATOM      3  C   UNL     1     111.463 -49.506  32.716  1.00  0.00     0.010 A 
ATOM      4  C   UNL     1     110.855 -47.393  30.991  1.00  0.00     0.004 A 
ATOM      5  C   UNL     1     112.333 -49.186  31.670  1.00  0.00     0.004 A 
ATOM      6  C   UNL     1     112.040 -48.127  30.796  1.00  0.00    -0.045 A 
ENDROOT
BRANCH   1   7
ATOM      7  C   UNL     1     109.357 -49.107  34.018  1.00  0.00     0.071 C 
ATOM      8  O   UNL     1     108.777 -50.224  34.052  1.00  0.00    -0.545 OA
ATOM      9  O   UNL     1     109.117 -48.191  35.036  1.00  0.00    -0.545 OA
ENDBRANCH   1   7
BRANCH   6  10
ATOM     10  C   UNL     1     112.993 -47.790  29.664  1.00  0.00     0.013 C 
ATOM     11  C   UNL     1     112.709 -48.652  28.427  1.00  0.00     0.012 C 
ATOM     12  C   UNL     1     114.452 -47.928  30.110  1.00  0.00     0.012 C 
ENDBRANCH   6  10
TORSDOF 2
ENDMDL
MODEL 3
REMARK VINA RESULT:    -5.066      3.657      5.266
REMARK INTER + INTRA:          -5.862
REMARK INTER:                  -5.648
REMARK INTRA:                  -0.213
REMARK UNBOUND:                -0.203
REMARK SMILES CC(C)c1ccc(C(=O)[O-])cc1
REMARK SMILES IDX 7 1 6 2 11 3 5 4 12 5 4 6 8 7 9 8 10 9 2 10 1 11 3 12
REMARK H PARENT
REMARK Flexibility Score: inf
ROOT
ATOM      1  C   UNL     1     113.751 -49.669  29.579  1.00  0.00    -0.003 A 
ATOM      2  C   UNL     1     113.805 -50.272  28.312  1.00  0.00     0.010 A 
ATOM      3  C   UNL     1     114.951 -49.296  30.207  1.00  0.00     0.010 A 
ATOM      4  C   UNL     1     115.033 -50.496  27.684  1.00  0.00     0.004 A 
ATOM      5  C   UNL     1     116.180 -49.520  29.579  1.00  0.00     0.004 A 
ATOM      6  C   UNL     1     116.236 -50.122  28.312  1.00  0.00    -0.045 A 
ENDROOT
BRANCH   1   7
ATOM      7  C   UNL     1     112.448 -49.434  30.240  1.00  0.00     0.071 C 
ATOM      8  O   UNL     1     112.175 -49.992  31.336  1.00  0.00    -0.545 OA
ATOM      9  O   UNL     1     111.505 -48.593  29.658  1.00  0.00    -0.545 OA
ENDBRANCH   1   7
BRANCH   6  10
ATOM     10  C   UNL     1     117.576 -50.360  27.642  1.00  0.00     0.013 C 
ATOM     11  C   UNL     1     117.640 -51.756  27.011  1.00  0.00     0.012 C 
ATOM     12  C   UNL     1     118.732 -50.145  28.625  1.00  0.00     0.012 C 
ENDBRANCH   6  10
TORSDOF 2
ENDMDL
MODEL 4
REMARK VINA RESULT:    -5.037      2.626      3.678
REMARK INTER + INTRA:          -5.828
REMARK INTER:                  -5.629
REMARK INTRA:                  -0.199
REMARK UNBOUND:                -0.203
REMARK SMILES CC(C)c1ccc(C(=O)[O-])cc1
REMARK SMILES IDX 7 1 6 2 11 3 5 4 12 5 4 6 8 7 9 8 10 9 2 10 1 11 3 12
REMARK H PARENT
REMARK Flexibility Score: inf
ROOT
ATOM      1  C   UNL     1     110.358 -50.943  32.367  1.00  0.00    -0.003 A 
ATOM      2  C   UNL     1     109.860 -49.989  33.270  1.00  0.00     0.010 A 
ATOM      3  C   UNL     1     110.888 -50.508  31.141  1.00  0.00     0.010 A 
ATOM      4  C   UNL     1     109.891 -48.628  32.953  1.00  0.00     0.004 A 
ATOM      5  C   UNL     1     110.919 -49.147  30.824  1.00  0.00     0.004 A 
ATOM      6  C   UNL     1     110.422 -48.191  31.725  1.00  0.00    -0.045 A 
ENDROOT
BRANCH   1   7
ATOM      7  C   UNL     1     110.323 -52.383  32.707  1.00  0.00     0.071 C 
ATOM      8  O   UNL     1     111.356 -52.965  33.133  1.00  0.00    -0.545 OA
ATOM      9  O   UNL     1     109.149 -53.113  32.559  1.00  0.00    -0.545 OA
ENDBRANCH   1   7
BRANCH   6  10
ATOM     10  C   UNL     1     110.462 -46.717  31.369  1.00  0.00     0.013 C 
ATOM     11  C   UNL     1     111.255 -45.918  32.410  1.00  0.00     0.012 C 
ATOM     12  C   UNL     1     109.048 -46.151  31.198  1.00  0.00     0.012 C 
ENDBRANCH   6  10
TORSDOF 2
ENDMDL
MODEL 5
REMARK VINA RESULT:    -4.989      3.496      5.320
REMARK INTER + INTRA:          -5.775
REMARK INTER:                  -5.555
REMARK INTRA:                  -0.220
REMARK UNBOUND:                -0.203
REMARK SMILES CC(C)c1ccc(C(=O)[O-])cc1
REMARK SMILES IDX 7 1 6 2 11 3 5 4 12 5 4 6 8 7 9 8 10 9 2 10 1 11 3 12
REMARK H PARENT
REMARK Flexibility Score: inf
ROOT
ATOM      1  C   UNL     1     114.156 -48.018  30.012  1.00  0.00    -0.003 A 
ATOM      2  C   UNL     1     114.027 -49.176  29.228  1.00  0.00     0.010 A 
ATOM      3  C   UNL     1     115.442 -47.564  30.350  1.00  0.00     0.010 A 
ATOM      4  C   UNL     1     115.161 -49.867  28.791  1.00  0.00     0.004 A 
ATOM      5  C   UNL     1     116.576 -48.254  29.912  1.00  0.00     0.004 A 
ATOM      6  C   UNL     1     116.450 -49.413  29.128  1.00  0.00    -0.045 A 
ENDROOT
BRANCH   1   7
ATOM      7  C   UNL     1     112.952 -47.291  30.473  1.00  0.00     0.071 C 
ATOM      8  O   UNL     1     113.029 -46.083  30.822  1.00  0.00    -0.545 OA
ATOM      9  O   UNL     1     111.720 -47.932  30.528  1.00  0.00    -0.545 OA
ENDBRANCH   1   7
BRANCH   6  10
ATOM     10  C   UNL     1     117.689 -50.152  28.660  1.00  0.00     0.013 C 
ATOM     11  C   UNL     1     118.862 -49.187  28.448  1.00  0.00     0.012 C 
ATOM     12  C   UNL     1     117.403 -50.960  27.390  1.00  0.00     0.012 C 
ENDBRANCH   6  10
TORSDOF 2
ENDMDL
MODEL 6
REMARK VINA RESULT:    -4.919      5.112      6.900
REMARK INTER + INTRA:          -5.697
REMARK INTER:                  -5.484
REMARK INTRA:                  -0.214
REMARK UNBOUND:                -0.203
REMARK SMILES CC(C)c1ccc(C(=O)[O-])cc1
REMARK SMILES IDX 7 1 6 2 11 3 5 4 12 5 4 6 8 7 9 8 10 9 2 10 1 11 3 12
REMARK H PARENT
REMARK Flexibility Score: inf
ROOT
ATOM      1  C   UNL     1     116.304 -49.996  28.455  1.00  0.00    -0.003 A 
ATOM      2  C   UNL     1     115.132 -50.479  27.852  1.00  0.00     0.010 A 
ATOM      3  C   UNL     1     116.198 -49.056  29.494  1.00  0.00     0.010 A 
ATOM      4  C   UNL     1     113.878 -50.034  28.280  1.00  0.00     0.004 A 
ATOM      5  C   UNL     1     114.944 -48.610  29.922  1.00  0.00     0.004 A 
ATOM      6  C   UNL     1     113.770 -49.093  29.321  1.00  0.00    -0.045 A 
ENDROOT
BRANCH   1   7
ATOM      7  C   UNL     1     117.629 -50.471  27.998  1.00  0.00     0.071 C 
ATOM      8  O   UNL     1     117.722 -51.457  27.219  1.00  0.00    -0.545 OA
ATOM      9  O   UNL     1     118.790 -49.836  28.425  1.00  0.00    -0.545 OA
ENDBRANCH   1   7
BRANCH   6  10
ATOM     10  C   UNL     1     112.416 -48.600  29.796  1.00  0.00     0.013 C 
ATOM     11  C   UNL     1     112.541 -47.260  30.531  1.00  0.00     0.012 C 
ATOM     12  C   UNL     1     111.723 -49.649  30.672  1.00  0.00     0.012 C 
ENDBRANCH   6  10
TORSDOF 2
ENDMDL
MODEL 7
REMARK VINA RESULT:    -4.915      5.103      6.891
REMARK INTER + INTRA:          -5.693
REMARK INTER:                  -5.479
REMARK INTRA:                  -0.214
REMARK UNBOUND:                -0.203
REMARK SMILES CC(C)c1ccc(C(=O)[O-])cc1
REMARK SMILES IDX 7 1 6 2 11 3 5 4 12 5 4 6 8 7 9 8 10 9 2 10 1 11 3 12
REMARK H PARENT
REMARK Flexibility Score: inf
ROOT
ATOM      1  C   UNL     1     116.315 -49.965  28.495  1.00  0.00    -0.003 A 
ATOM      2  C   UNL     1     116.226 -48.986  29.497  1.00  0.00     0.010 A 
ATOM      3  C   UNL     1     115.132 -50.463  27.922  1.00  0.00     0.010 A 
ATOM      4  C   UNL     1     114.980 -48.513  29.919  1.00  0.00     0.004 A 
ATOM      5  C   UNL     1     113.886 -49.990  28.343  1.00  0.00     0.004 A 
ATOM      6  C   UNL     1     113.795 -49.010  29.346  1.00  0.00    -0.045 A 
ENDROOT
BRANCH   1   7
ATOM      7  C   UNL     1     117.636 -50.463  28.051  1.00  0.00     0.071 C 
ATOM      8  O   UNL     1     117.720 -51.423  27.240  1.00  0.00    -0.545 OA
ATOM      9  O   UNL     1     118.805 -49.878  28.527  1.00  0.00    -0.545 OA
ENDBRANCH   1   7
BRANCH   6  10
ATOM     10  C   UNL     1     112.436 -48.505  29.794  1.00  0.00     0.013 C 
ATOM     11  C   UNL     1     112.564 -47.191  30.574  1.00  0.00     0.012 C 
ATOM     12  C   UNL     1     111.696 -49.566  30.615  1.00  0.00     0.012 C 
ENDBRANCH   6  10
TORSDOF 2
ENDMDL
MODEL 8
REMARK VINA RESULT:    -4.849      5.709      7.229
REMARK INTER + INTRA:          -5.619
REMARK INTER:                  -5.409
REMARK INTRA:                  -0.210
REMARK UNBOUND:                -0.203
REMARK SMILES CC(C)c1ccc(C(=O)[O-])cc1
REMARK SMILES IDX 7 1 6 2 11 3 5 4 12 5 4 6 8 7 9 8 10 9 2 10 1 11 3 12
REMARK H PARENT
REMARK Flexibility Score: inf
ROOT
ATOM      1  C   UNL     1     116.113 -49.752  28.548  1.00  0.00    -0.003 A 
ATOM      2  C   UNL     1     115.348 -48.990  29.445  1.00  0.00     0.010 A 
ATOM      3  C   UNL     1     117.513 -49.726  28.655  1.00  0.00     0.010 A 
ATOM      4  C   UNL     1     115.969 -48.218  30.431  1.00  0.00     0.004 A 
ATOM      5  C   UNL     1     118.136 -48.955  29.641  1.00  0.00     0.004 A 
ATOM      6  C   UNL     1     117.372 -48.192  30.539  1.00  0.00    -0.045 A 
ENDROOT
BRANCH   1   7
ATOM      7  C   UNL     1     115.449 -50.568  27.507  1.00  0.00     0.071 C 
ATOM      8  O   UNL     1     116.094 -51.447  26.875  1.00  0.00    -0.545 OA
ATOM      9  O   UNL     1     114.105 -50.373  27.210  1.00  0.00    -0.545 OA
ENDBRANCH   1   7
BRANCH   6  10
ATOM     10  C   UNL     1     118.061 -47.358  31.604  1.00  0.00     0.013 C 
ATOM     11  C   UNL     1     118.193 -48.139  32.918  1.00  0.00     0.012 C 
ATOM     12  C   UNL     1     117.330 -46.029  31.823  1.00  0.00     0.012 C 
ENDBRANCH   6  10
TORSDOF 2
ENDMDL
MODEL 9
REMARK VINA RESULT:    -4.758      4.108      5.794
REMARK INTER + INTRA:          -5.517
REMARK INTER:                  -5.303
REMARK INTRA:                  -0.214
REMARK UNBOUND:                -0.203
REMARK SMILES CC(C)c1ccc(C(=O)[O-])cc1
REMARK SMILES IDX 7 1 6 2 11 3 5 4 12 5 4 6 8 7 9 8 10 9 2 10 1 11 3 12
REMARK H PARENT
REMARK Flexibility Score: inf
ROOT
ATOM      1  C   UNL     1     114.138 -49.581  28.985  1.00  0.00    -0.003 A 
ATOM      2  C   UNL     1     112.985 -48.945  28.500  1.00  0.00     0.010 A 
ATOM      3  C   UNL     1     114.292 -49.746  30.372  1.00  0.00     0.010 A 
ATOM      4  C   UNL     1     112.004 -48.483  29.382  1.00  0.00     0.004 A 
ATOM      5  C   UNL     1     113.312 -49.285  31.255  1.00  0.00     0.004 A 
ATOM      6  C   UNL     1     112.158 -48.648  30.772  1.00  0.00    -0.045 A 
ENDROOT
BRANCH   1   7
ATOM      7  C   UNL     1     115.173 -50.069  28.046  1.00  0.00     0.071 C 
ATOM      8  O   UNL     1     114.863 -50.416  26.875  1.00  0.00    -0.545 OA
ATOM      9  O   UNL     1     116.502 -50.153  28.445  1.00  0.00    -0.545 OA
ENDBRANCH   1   7
BRANCH   6  10
ATOM     10  C   UNL     1     111.101 -48.151  31.741  1.00  0.00     0.013 C 
ATOM     11  C   UNL     1     110.474 -49.315  32.519  1.00  0.00     0.012 C 
ATOM     12  C   UNL     1     110.030 -47.329  31.018  1.00  0.00     0.012 C 
ENDBRANCH   6  10
TORSDOF 2
ENDMDL
