MODEL 1
REMARK VINA RESULT:    -3.678      0.000      0.000
REMARK INTER + INTRA:          -5.418
REMARK INTER:                  -5.183
REMARK INTRA:                  -0.235
REMARK UNBOUND:                -0.235
REMARK SMILES CCCCCCCCC(=O)[O-]
REMARK SMILES IDX 6 1 7 2 8 3 9 4 10 5 11 6 5 7 4 8 3 9 2 10 1 11
REMARK H PARENT
REMARK Flexibility Score: inf
ROOT
ATOM      1  C   UNL     1      -0.209   6.040   9.461  1.00  0.00     0.000 C 
ENDROOT
BRANCH   1   2
ATOM      2  C   UNL     1      -1.310   5.012   9.176  1.00  0.00     0.006 C 
BRANCH   2   3
ATOM      3  C   UNL     1      -0.986   3.664   9.827  1.00  0.00     0.053 C 
BRANCH   3   4
ATOM      4  C   UNL     1      -2.071   2.674   9.550  1.00  0.00     0.041 C 
ATOM      5  O   UNL     1      -1.867   1.714   8.761  1.00  0.00    -0.550 OA
ATOM      6  O   UNL     1      -3.325   2.837  10.125  1.00  0.00    -0.550 OA
ENDBRANCH   3   4
ENDBRANCH   2   3
ENDBRANCH   1   2
BRANCH   1   7
ATOM      7  C   UNL     1      -0.676   7.458   9.113  1.00  0.00     0.000 C 
BRANCH   7   8
ATOM      8  C   UNL     1      -0.037   7.944   7.806  1.00  0.00    -0.000 C 
BRANCH   8   9
ATOM      9  C   UNL     1       1.200   8.811   8.087  1.00  0.00    -0.000 C 
BRANCH   9  10
ATOM     10  C   UNL     1       2.318   8.596   7.056  1.00  0.00    -0.003 C 
ATOM     11  C   UNL     1       3.504   7.816   7.625  1.00  0.00     0.004 C 
ENDBRANCH   9  10
ENDBRANCH   8   9
ENDBRANCH   7   8
ENDBRANCH   1   7
TORSDOF 7
ENDMDL
MODEL 2
REMARK VINA RESULT:    -3.650      3.698      6.062
REMARK INTER + INTRA:          -5.379
REMARK INTER:                  -5.014
REMARK INTRA:                  -0.365
REMARK UNBOUND:                -0.235
REMARK SMILES CCCCCCCCC(=O)[O-]
REMARK SMILES IDX 6 1 7 2 8 3 9 4 10 5 11 6 5 7 4 8 3 9 2 10 1 11
REMARK H PARENT
REMARK Flexibility Score: inf
ROOT
ATOM      1  C   UNL     1       1.150   6.955   9.592  1.00  0.00     0.000 C 
ENDROOT
BRANCH   1   2
ATOM      2  C   UNL     1       0.562   8.084   8.738  1.00  0.00     0.006 C 
BRANCH   2   3
ATOM      3  C   UNL     1       1.665   9.006   8.210  1.00  0.00     0.053 C 
BRANCH   3   4
ATOM      4  C   UNL     1       2.336   8.393   7.023  1.00  0.00     0.041 C 
ATOM      5  O   UNL     1       1.807   8.477   5.882  1.00  0.00    -0.550 OA
ATOM      6  O   UNL     1       3.521   7.687   7.180  1.00  0.00    -0.550 OA
ENDBRANCH   3   4
ENDBRANCH   2   3
ENDBRANCH   1   2
BRANCH   1   7
ATOM      7  C   UNL     1       0.150   5.804   9.751  1.00  0.00     0.000 C 
BRANCH   7   8
ATOM      8  C   UNL     1      -1.133   6.075   8.954  1.00  0.00    -0.000 C 
BRANCH   8   9
ATOM      9  C   UNL     1      -2.043   4.837   8.939  1.00  0.00    -0.000 C 
BRANCH   9  10
ATOM     10  C   UNL     1      -1.401   3.624   9.628  1.00  0.00    -0.003 C 
ATOM     11  C   UNL     1      -1.998   2.296   9.164  1.00  0.00     0.004 C 
ENDBRANCH   9  10
ENDBRANCH   8   9
ENDBRANCH   7   8
ENDBRANCH   1   7
TORSDOF 7
ENDMDL
MODEL 3
REMARK VINA RESULT:    -3.409      4.375      6.676
REMARK INTER + INTRA:          -5.040
REMARK INTER:                  -4.803
REMARK INTRA:                  -0.237
REMARK UNBOUND:                -0.235
REMARK SMILES CCCCCCCCC(=O)[O-]
REMARK SMILES IDX 6 1 7 2 8 3 9 4 10 5 11 6 5 7 4 8 3 9 2 10 1 11
REMARK H PARENT
REMARK Flexibility Score: inf
ROOT
ATOM      1  C   UNL     1       0.908   8.201   7.416  1.00  0.00     0.000 C 
ENDROOT
BRANCH   1   2
ATOM      2  C   UNL     1       2.280   8.870   7.264  1.00  0.00     0.006 C 
BRANCH   2   3
ATOM      3  C   UNL     1       3.408   7.894   7.609  1.00  0.00     0.053 C 
BRANCH   3   4
ATOM      4  C   UNL     1       4.557   8.621   8.231  1.00  0.00     0.041 C 
ATOM      5  O   UNL     1       4.349   9.513   9.097  1.00  0.00    -0.550 OA
ATOM      6  O   UNL     1       5.856   8.350   7.822  1.00  0.00    -0.550 OA
ENDBRANCH   3   4
ENDBRANCH   2   3
ENDBRANCH   1   2
BRANCH   1   7
ATOM      7  C   UNL     1       0.747   7.584   8.810  1.00  0.00     0.000 C 
BRANCH   7   8
ATOM      8  C   UNL     1      -0.624   6.914   8.962  1.00  0.00    -0.000 C 
BRANCH   8   9
ATOM      9  C   UNL     1      -0.486   5.513   9.576  1.00  0.00    -0.000 C 
BRANCH   9  10
ATOM     10  C   UNL     1      -1.609   4.562   9.136  1.00  0.00    -0.003 C 
ATOM     11  C   UNL     1      -1.337   3.107   9.519  1.00  0.00     0.004 C 
ENDBRANCH   9  10
ENDBRANCH   8   9
ENDBRANCH   7   8
ENDBRANCH   1   7
TORSDOF 7
ENDMDL
MODEL 4
REMARK VINA RESULT:    -3.340      4.447      6.678
REMARK INTER + INTRA:          -4.942
REMARK INTER:                  -4.494
REMARK INTRA:                  -0.449
REMARK UNBOUND:                -0.235
REMARK SMILES CCCCCCCCC(=O)[O-]
REMARK SMILES IDX 6 1 7 2 8 3 9 4 10 5 11 6 5 7 4 8 3 9 2 10 1 11
REMARK H PARENT
REMARK Flexibility Score: inf
ROOT
ATOM      1  C   UNL     1       2.566   8.228   7.614  1.00  0.00     0.000 C 
ENDROOT
BRANCH   1   2
ATOM      2  C   UNL     1       3.203   9.622   7.620  1.00  0.00     0.006 C 
BRANCH   2   3
ATOM      3  C   UNL     1       4.176   9.777   8.792  1.00  0.00     0.053 C 
BRANCH   3   4
ATOM      4  C   UNL     1       5.174   8.663   8.794  1.00  0.00     0.041 C 
ATOM      5  O   UNL     1       5.253   7.885   9.782  1.00  0.00    -0.550 OA
ATOM      6  O   UNL     1       6.049   8.511   7.727  1.00  0.00    -0.550 OA
ENDBRANCH   3   4
ENDBRANCH   2   3
ENDBRANCH   1   2
BRANCH   1   7
ATOM      7  C   UNL     1       1.074   8.305   7.267  1.00  0.00     0.000 C 
BRANCH   7   8
ATOM      8  C   UNL     1       0.206   7.980   8.489  1.00  0.00    -0.000 C 
BRANCH   8   9
ATOM      9  C   UNL     1       0.946   7.044   9.456  1.00  0.00    -0.000 C 
BRANCH   9  10
ATOM     10  C   UNL     1       0.158   5.760   9.756  1.00  0.00    -0.003 C 
ATOM     11  C   UNL     1      -1.166   5.688   8.994  1.00  0.00     0.004 C 
ENDBRANCH   9  10
ENDBRANCH   8   9
ENDBRANCH   7   8
ENDBRANCH   1   7
TORSDOF 7
ENDMDL
MODEL 5
REMARK VINA RESULT:    -3.299     16.144     18.323
REMARK INTER + INTRA:          -4.885
REMARK INTER:                  -4.185
REMARK INTRA:                  -0.699
REMARK UNBOUND:                -0.235
REMARK SMILES CCCCCCCCC(=O)[O-]
REMARK SMILES IDX 6 1 7 2 8 3 9 4 10 5 11 6 5 7 4 8 3 9 2 10 1 11
REMARK H PARENT
REMARK Flexibility Score: inf
ROOT
ATOM      1  C   UNL     1      -7.455  -4.525  -2.848  1.00  0.00     0.000 C 
ENDROOT
BRANCH   1   2
ATOM      2  C   UNL     1      -8.019  -3.125  -2.575  1.00  0.00     0.006 C 
BRANCH   2   3
ATOM      3  C   UNL     1      -9.478  -3.201  -2.118  1.00  0.00     0.053 C 
BRANCH   3   4
ATOM      4  C   UNL     1      -9.879  -1.932  -1.436  1.00  0.00     0.041 C 
ATOM      5  O   UNL     1     -10.096  -1.919  -0.195  1.00  0.00    -0.550 OA
ATOM      6  O   UNL     1     -10.060  -0.771  -2.177  1.00  0.00    -0.550 OA
ENDBRANCH   3   4
ENDBRANCH   2   3
ENDBRANCH   1   2
BRANCH   1   7
ATOM      7  C   UNL     1      -8.537  -5.598  -2.681  1.00  0.00     0.000 C 
BRANCH   7   8
ATOM      8  C   UNL     1      -8.713  -6.409  -3.971  1.00  0.00    -0.000 C 
BRANCH   8   9
ATOM      9  C   UNL     1     -10.003  -6.007  -4.702  1.00  0.00    -0.000 C 
BRANCH   9  10
ATOM     10  C   UNL     1      -9.738  -5.081  -5.899  1.00  0.00    -0.003 C 
ATOM     11  C   UNL     1     -10.125  -3.628  -5.620  1.00  0.00     0.004 C 
ENDBRANCH   9  10
ENDBRANCH   8   9
ENDBRANCH   7   8
ENDBRANCH   1   7
TORSDOF 7
ENDMDL
MODEL 6
REMARK VINA RESULT:    -3.297     18.346     20.388
REMARK INTER + INTRA:          -4.882
REMARK INTER:                  -4.519
REMARK INTRA:                  -0.362
REMARK UNBOUND:                -0.235
REMARK SMILES CCCCCCCCC(=O)[O-]
REMARK SMILES IDX 6 1 7 2 8 3 9 4 10 5 11 6 5 7 4 8 3 9 2 10 1 11
REMARK H PARENT
REMARK Flexibility Score: inf
ROOT
ATOM      1  C   UNL     1      -9.217  -5.540  -5.050  1.00  0.00     0.000 C 
ENDROOT
BRANCH   1   2
ATOM      2  C   UNL     1      -9.747  -6.405  -6.200  1.00  0.00     0.006 C 
BRANCH   2   3
ATOM      3  C   UNL     1     -10.069  -5.549  -7.429  1.00  0.00     0.053 C 
BRANCH   3   4
ATOM      4  C   UNL     1      -9.327  -6.050  -8.625  1.00  0.00     0.041 C 
ATOM      5  O   UNL     1      -9.698  -5.724  -9.784  1.00  0.00    -0.550 OA
ATOM      6  O   UNL     1      -8.254  -6.917  -8.466  1.00  0.00    -0.550 OA
ENDBRANCH   3   4
ENDBRANCH   2   3
ENDBRANCH   1   2
BRANCH   1   7
ATOM      7  C   UNL     1      -9.111  -6.352  -3.754  1.00  0.00     0.000 C 
BRANCH   7   8
ATOM      8  C   UNL     1      -8.275  -5.609  -2.704  1.00  0.00    -0.000 C 
BRANCH   8   9
ATOM      9  C   UNL     1      -7.777  -4.262  -3.251  1.00  0.00    -0.000 C 
BRANCH   9  10
ATOM     10  C   UNL     1      -7.843  -3.140  -2.204  1.00  0.00    -0.003 C 
ATOM     11  C   UNL     1      -9.194  -2.424  -2.189  1.00  0.00     0.004 C 
ENDBRANCH   9  10
ENDBRANCH   8   9
ENDBRANCH   7   8
ENDBRANCH   1   7
TORSDOF 7
ENDMDL
MODEL 7
REMARK VINA RESULT:    -3.224      2.835      4.843
REMARK INTER + INTRA:          -4.778
REMARK INTER:                  -4.518
REMARK INTRA:                  -0.261
REMARK UNBOUND:                -0.235
REMARK SMILES CCCCCCCCC(=O)[O-]
REMARK SMILES IDX 6 1 7 2 8 3 9 4 10 5 11 6 5 7 4 8 3 9 2 10 1 11
REMARK H PARENT
REMARK Flexibility Score: inf
ROOT
ATOM      1  C   UNL     1      -3.442   2.441   9.153  1.00  0.00     0.000 C 
ENDROOT
BRANCH   1   2
ATOM      2  C   UNL     1      -4.104   1.380  10.039  1.00  0.00     0.006 C 
BRANCH   2   3
ATOM      3  C   UNL     1      -5.622   1.363   9.835  1.00  0.00     0.053 C 
BRANCH   3   4
ATOM      4  C   UNL     1      -6.012   0.259   8.905  1.00  0.00     0.041 C 
ATOM      5  O   UNL     1      -5.144  -0.299   8.183  1.00  0.00    -0.550 OA
ATOM      6  O   UNL     1      -7.343  -0.122   8.798  1.00  0.00    -0.550 OA
ENDBRANCH   3   4
ENDBRANCH   2   3
ENDBRANCH   1   2
BRANCH   1   7
ATOM      7  C   UNL     1      -1.920   2.258   9.118  1.00  0.00     0.000 C 
BRANCH   7   8
ATOM      8  C   UNL     1      -1.204   3.476   9.717  1.00  0.00    -0.000 C 
BRANCH   8   9
ATOM      9  C   UNL     1      -2.001   4.764   9.460  1.00  0.00    -0.000 C 
BRANCH   9  10
ATOM     10  C   UNL     1      -1.143   5.874   8.835  1.00  0.00    -0.003 C 
ATOM     11  C   UNL     1       0.182   6.081   9.569  1.00  0.00     0.004 C 
ENDBRANCH   9  10
ENDBRANCH   8   9
ENDBRANCH   7   8
ENDBRANCH   1   7
TORSDOF 7
ENDMDL
MODEL 8
REMARK VINA RESULT:    -3.154     17.094     19.129
REMARK INTER + INTRA:          -4.680
REMARK INTER:                  -4.263
REMARK INTRA:                  -0.417
REMARK UNBOUND:                -0.235
REMARK SMILES CCCCCCCCC(=O)[O-]
REMARK SMILES IDX 6 1 7 2 8 3 9 4 10 5 11 6 5 7 4 8 3 9 2 10 1 11
REMARK H PARENT
REMARK Flexibility Score: inf
ROOT
ATOM      1  C   UNL     1      -9.240  -5.672  -2.751  1.00  0.00     0.000 C 
ENDROOT
BRANCH   1   2
ATOM      2  C   UNL     1      -9.988  -6.318  -3.924  1.00  0.00     0.006 C 
BRANCH   2   3
ATOM      3  C   UNL     1      -9.017  -6.738  -5.031  1.00  0.00     0.053 C 
BRANCH   3   4
ATOM      4  C   UNL     1      -9.385  -6.087  -6.325  1.00  0.00     0.041 C 
ATOM      5  O   UNL     1     -10.125  -5.067  -6.334  1.00  0.00    -0.550 OA
ATOM      6  O   UNL     1      -8.953  -6.633  -7.526  1.00  0.00    -0.550 OA
ENDBRANCH   3   4
ENDBRANCH   2   3
ENDBRANCH   1   2
BRANCH   1   7
ATOM      7  C   UNL     1      -8.280  -4.582  -3.243  1.00  0.00     0.000 C 
BRANCH   7   8
ATOM      8  C   UNL     1      -8.941  -3.199  -3.187  1.00  0.00    -0.000 C 
BRANCH   8   9
ATOM      9  C   UNL     1      -9.978  -3.131  -2.055  1.00  0.00    -0.000 C 
BRANCH   9  10
ATOM     10  C   UNL     1      -9.956  -1.785  -1.315  1.00  0.00    -0.003 C 
ATOM     11  C   UNL     1     -10.073  -0.588  -2.259  1.00  0.00     0.004 C 
ENDBRANCH   9  10
ENDBRANCH   8   9
ENDBRANCH   7   8
ENDBRANCH   1   7
TORSDOF 7
ENDMDL
MODEL 9
REMARK VINA RESULT:    -3.134      4.962      6.389
REMARK INTER + INTRA:          -4.651
REMARK INTER:                  -4.447
REMARK INTRA:                  -0.204
REMARK UNBOUND:                -0.235
REMARK SMILES CCCCCCCCC(=O)[O-]
REMARK SMILES IDX 6 1 7 2 8 3 9 4 10 5 11 6 5 7 4 8 3 9 2 10 1 11
REMARK H PARENT
REMARK Flexibility Score: inf
ROOT
ATOM      1  C   UNL     1      -4.602   5.292   8.618  1.00  0.00     0.000 C 
ENDROOT
BRANCH   1   2
ATOM      2  C   UNL     1      -4.834   3.834   9.033  1.00  0.00     0.006 C 
BRANCH   2   3
ATOM      3  C   UNL     1      -3.627   3.281   9.796  1.00  0.00     0.053 C 
BRANCH   3   4
ATOM      4  C   UNL     1      -3.102   2.052   9.124  1.00  0.00     0.041 C 
ATOM      5  O   UNL     1      -1.861   1.874   9.008  1.00  0.00    -0.550 OA
ATOM      6  O   UNL     1      -3.983   1.125   8.583  1.00  0.00    -0.550 OA
ENDBRANCH   3   4
ENDBRANCH   2   3
ENDBRANCH   1   2
BRANCH   1   7
ATOM      7  C   UNL     1      -5.727   6.198   9.133  1.00  0.00     0.000 C 
BRANCH   7   8
ATOM      8  C   UNL     1      -6.946   6.145   8.204  1.00  0.00    -0.000 C 
BRANCH   8   9
ATOM      9  C   UNL     1      -6.745   7.051   6.979  1.00  0.00    -0.000 C 
BRANCH   9  10
ATOM     10  C   UNL     1      -7.886   6.927   5.959  1.00  0.00    -0.003 C 
ATOM     11  C   UNL     1      -8.387   8.283   5.464  1.00  0.00     0.004 C 
ENDBRANCH   9  10
ENDBRANCH   8   9
ENDBRANCH   7   8
ENDBRANCH   1   7
TORSDOF 7
ENDMDL
