MODEL 1
REMARK VINA RESULT:    -4.650      0.000      0.000
REMARK INTER + INTRA:          -6.976
REMARK INTER:                  -6.281
REMARK INTRA:                  -0.695
REMARK UNBOUND:                -0.695
REMARK SMILES O=C[C@H](O)[C@@H](O)[C@H](O)CO
REMARK SMILES IDX 7 1 9 2 10 3 5 5 3 6 2 7 1 8 4 9 6 11 8 13
REMARK H PARENT 10 4 4 10 6 12 8 14
REMARK Flexibility Score: inf
ROOT
ATOM      1  C   UNL     1     -11.717 -17.228 -14.966  1.00  0.00     0.171 C 
ENDROOT
BRANCH   1   2
ATOM      2  C   UNL     1     -10.186 -17.390 -14.919  1.00  0.00     0.190 C 
BRANCH   2   3
ATOM      3  O   UNL     1      -9.717 -17.236 -13.606  1.00  0.00    -0.394 OA
ATOM      4  H   UNL     1     -10.415 -16.732 -13.111  1.00  0.00     0.210 HD
ENDBRANCH   2   3
ENDBRANCH   1   2
BRANCH   1   5
ATOM      5  C   UNL     1     -12.447 -18.598 -14.930  1.00  0.00     0.181 C 
BRANCH   5   6
ATOM      6  C   UNL     1     -13.181 -18.903 -16.257  1.00  0.00     0.209 C 
BRANCH   6   7
ATOM      7  C   UNL     1     -14.022 -20.146 -16.154  1.00  0.00     0.258 C 
ATOM      8  O   UNL     1     -14.260 -20.648 -15.067  1.00  0.00    -0.300 OA
ENDBRANCH   6   7
BRANCH   6   9
ATOM      9  O   UNL     1     -12.248 -19.084 -17.291  1.00  0.00    -0.383 OA
ATOM     10  H   UNL     1     -12.663 -19.697 -17.953  1.00  0.00     0.211 HD
ENDBRANCH   6   9
ENDBRANCH   5   6
BRANCH   5  11
ATOM     11  O   UNL     1     -11.523 -19.628 -14.676  1.00  0.00    -0.387 OA
ATOM     12  H   UNL     1     -10.956 -19.722 -15.487  1.00  0.00     0.211 HD
ENDBRANCH   5  11
ENDBRANCH   1   5
BRANCH   1  13
ATOM     13  O   UNL     1     -12.105 -16.473 -16.088  1.00  0.00    -0.388 OA
ATOM     14  H   UNL     1     -12.898 -15.935 -15.831  1.00  0.00     0.211 HD
ENDBRANCH   1  13
TORSDOF 8
ENDMDL
MODEL 2
REMARK VINA RESULT:    -4.641      1.151      1.655
REMARK INTER + INTRA:          -6.963
REMARK INTER:                  -6.451
REMARK INTRA:                  -0.513
REMARK UNBOUND:                -0.695
REMARK SMILES O=C[C@H](O)[C@@H](O)[C@H](O)CO
REMARK SMILES IDX 7 1 9 2 10 3 5 5 3 6 2 7 1 8 4 9 6 11 8 13
REMARK H PARENT 10 4 4 10 6 12 8 14
REMARK Flexibility Score: inf
ROOT
ATOM      1  C   UNL     1     -11.741 -17.686 -14.810  1.00  0.00     0.171 C 
ENDROOT
BRANCH   1   2
ATOM      2  C   UNL     1     -10.272 -17.232 -14.912  1.00  0.00     0.190 C 
BRANCH   2   3
ATOM      3  O   UNL     1      -9.694 -17.155 -13.637  1.00  0.00    -0.394 OA
ATOM      4  H   UNL     1      -8.727 -17.350 -13.750  1.00  0.00     0.210 HD
ENDBRANCH   2   3
ENDBRANCH   1   2
BRANCH   1   5
ATOM      5  C   UNL     1     -11.992 -19.016 -15.571  1.00  0.00     0.181 C 
BRANCH   5   6
ATOM      6  C   UNL     1     -13.189 -19.804 -14.988  1.00  0.00     0.209 C 
BRANCH   6   7
ATOM      7  C   UNL     1     -14.226 -20.094 -16.038  1.00  0.00     0.258 C 
ATOM      8  O   UNL     1     -14.141 -21.091 -16.738  1.00  0.00    -0.300 OA
ENDBRANCH   6   7
BRANCH   6   9
ATOM      9  O   UNL     1     -13.796 -19.065 -13.959  1.00  0.00    -0.383 OA
ATOM     10  H   UNL     1     -13.590 -19.529 -13.106  1.00  0.00     0.211 HD
ENDBRANCH   6   9
ENDBRANCH   5   6
BRANCH   5  11
ATOM     11  O   UNL     1     -12.242 -18.752 -16.930  1.00  0.00    -0.387 OA
ATOM     12  H   UNL     1     -11.512 -19.176 -17.452  1.00  0.00     0.211 HD
ENDBRANCH   5  11
ENDBRANCH   1   5
BRANCH   1  13
ATOM     13  O   UNL     1     -12.609 -16.671 -15.257  1.00  0.00    -0.388 OA
ATOM     14  H   UNL     1     -12.146 -16.176 -15.982  1.00  0.00     0.211 HD
ENDBRANCH   1  13
TORSDOF 8
ENDMDL
MODEL 3
REMARK VINA RESULT:    -4.494     12.593     13.793
REMARK INTER + INTRA:          -6.764
REMARK INTER:                  -6.640
REMARK INTRA:                  -0.124
REMARK UNBOUND:                -0.695
REMARK SMILES O=C[C@H](O)[C@@H](O)[C@H](O)CO
REMARK SMILES IDX 7 1 9 2 10 3 5 5 3 6 2 7 1 8 4 9 6 11 8 13
REMARK H PARENT 10 4 4 10 6 12 8 14
REMARK Flexibility Score: inf
ROOT
ATOM      1  C   UNL     1      -1.975 -11.948 -21.715  1.00  0.00     0.171 C 
ENDROOT
BRANCH   1   2
ATOM      2  C   UNL     1      -1.100 -12.785 -20.762  1.00  0.00     0.190 C 
BRANCH   2   3
ATOM      3  O   UNL     1       0.135 -13.074 -21.359  1.00  0.00    -0.394 OA
ATOM      4  H   UNL     1      -0.064 -13.520 -22.224  1.00  0.00     0.210 HD
ENDBRANCH   2   3
ENDBRANCH   1   2
BRANCH   1   5
ATOM      5  C   UNL     1      -3.244 -11.401 -21.007  1.00  0.00     0.181 C 
BRANCH   5   6
ATOM      6  C   UNL     1      -3.216  -9.860 -20.871  1.00  0.00     0.209 C 
BRANCH   6   7
ATOM      7  C   UNL     1      -4.600  -9.273 -20.920  1.00  0.00     0.258 C 
ATOM      8  O   UNL     1      -4.815  -8.234 -21.526  1.00  0.00    -0.300 OA
ENDBRANCH   6   7
BRANCH   6   9
ATOM      9  O   UNL     1      -2.461  -9.298 -21.914  1.00  0.00    -0.383 OA
ATOM     10  H   UNL     1      -2.283  -8.353 -21.668  1.00  0.00     0.211 HD
ENDBRANCH   6   9
ENDBRANCH   5   6
BRANCH   5  11
ATOM     11  O   UNL     1      -4.394 -11.771 -21.729  1.00  0.00    -0.387 OA
ATOM     12  H   UNL     1      -4.130 -12.498 -22.351  1.00  0.00     0.211 HD
ENDBRANCH   5  11
ENDBRANCH   1   5
BRANCH   1  13
ATOM     13  O   UNL     1      -2.312 -12.690 -22.863  1.00  0.00    -0.388 OA
ATOM     14  H   UNL     1      -2.163 -12.108 -23.652  1.00  0.00     0.211 HD
ENDBRANCH   1  13
TORSDOF 8
ENDMDL
MODEL 4
REMARK VINA RESULT:    -4.477      1.466      4.075
REMARK INTER + INTRA:          -6.743
REMARK INTER:                  -6.273
REMARK INTRA:                  -0.469
REMARK UNBOUND:                -0.695
REMARK SMILES O=C[C@H](O)[C@@H](O)[C@H](O)CO
REMARK SMILES IDX 7 1 9 2 10 3 5 5 3 6 2 7 1 8 4 9 6 11 8 13
REMARK H PARENT 10 4 4 10 6 12 8 14
REMARK Flexibility Score: inf
ROOT
ATOM      1  C   UNL     1     -12.239 -19.034 -15.708  1.00  0.00     0.171 C 
ENDROOT
BRANCH   1   2
ATOM      2  C   UNL     1     -13.755 -19.131 -15.453  1.00  0.00     0.190 C 
BRANCH   2   3
ATOM      3  O   UNL     1     -14.008 -19.400 -14.101  1.00  0.00    -0.394 OA
ATOM      4  H   UNL     1     -13.135 -19.344 -13.630  1.00  0.00     0.210 HD
ENDBRANCH   2   3
ENDBRANCH   1   2
BRANCH   1   5
ATOM      5  C   UNL     1     -11.515 -18.220 -14.602  1.00  0.00     0.181 C 
BRANCH   5   6
ATOM      6  C   UNL     1     -10.038 -17.931 -14.963  1.00  0.00     0.209 C 
BRANCH   6   7
ATOM      7  C   UNL     1      -9.164 -17.897 -13.740  1.00  0.00     0.258 C 
ATOM      8  O   UNL     1      -7.953 -18.024 -13.836  1.00  0.00    -0.300 OA
ENDBRANCH   6   7
BRANCH   6   9
ATOM      9  O   UNL     1      -9.936 -16.690 -15.614  1.00  0.00    -0.383 OA
ATOM     10  H   UNL     1     -10.272 -16.002 -14.983  1.00  0.00     0.211 HD
ENDBRANCH   6   9
ENDBRANCH   5   6
BRANCH   5  11
ATOM     11  O   UNL     1     -12.178 -16.996 -14.395  1.00  0.00    -0.387 OA
ATOM     12  H   UNL     1     -13.054 -17.203 -13.977  1.00  0.00     0.211 HD
ENDBRANCH   5  11
ENDBRANCH   1   5
BRANCH   1  13
ATOM     13  O   UNL     1     -11.980 -18.502 -16.985  1.00  0.00    -0.388 OA
ATOM     14  H   UNL     1     -12.854 -18.335 -17.425  1.00  0.00     0.211 HD
ENDBRANCH   1  13
TORSDOF 8
ENDMDL
MODEL 5
REMARK VINA RESULT:    -4.458      1.355      4.111
REMARK INTER + INTRA:          -6.717
REMARK INTER:                  -5.768
REMARK INTRA:                  -0.949
REMARK UNBOUND:                -0.695
REMARK SMILES O=C[C@H](O)[C@@H](O)[C@H](O)CO
REMARK SMILES IDX 7 1 9 2 10 3 5 5 3 6 2 7 1 8 4 9 6 11 8 13
REMARK H PARENT 10 4 4 10 6 12 8 14
REMARK Flexibility Score: inf
ROOT
ATOM      1  C   UNL     1     -13.327 -19.506 -15.417  1.00  0.00     0.171 C 
ENDROOT
BRANCH   1   2
ATOM      2  C   UNL     1     -14.259 -20.325 -16.331  1.00  0.00     0.190 C 
BRANCH   2   3
ATOM      3  O   UNL     1     -14.687 -19.547 -17.416  1.00  0.00    -0.394 OA
ATOM      4  H   UNL     1     -15.441 -20.036 -17.838  1.00  0.00     0.210 HD
ENDBRANCH   2   3
ENDBRANCH   1   2
BRANCH   1   5
ATOM      5  C   UNL     1     -12.853 -18.194 -16.097  1.00  0.00     0.181 C 
BRANCH   5   6
ATOM      6  C   UNL     1     -12.178 -17.229 -15.094  1.00  0.00     0.209 C 
BRANCH   6   7
ATOM      7  C   UNL     1     -10.680 -17.249 -15.226  1.00  0.00     0.258 C 
ATOM      8  O   UNL     1     -10.026 -18.171 -14.763  1.00  0.00    -0.300 OA
ENDBRANCH   6   7
BRANCH   6   9
ATOM      9  O   UNL     1     -12.510 -17.593 -13.778  1.00  0.00    -0.383 OA
ATOM     10  H   UNL     1     -13.476 -17.823 -13.774  1.00  0.00     0.211 HD
ENDBRANCH   6   9
ENDBRANCH   5   6
BRANCH   5  11
ATOM     11  O   UNL     1     -11.939 -18.490 -17.126  1.00  0.00    -0.387 OA
ATOM     12  H   UNL     1     -11.513 -19.358 -16.901  1.00  0.00     0.211 HD
ENDBRANCH   5  11
ENDBRANCH   1   5
BRANCH   1  13
ATOM     13  O   UNL     1     -12.234 -20.285 -14.992  1.00  0.00    -0.388 OA
ATOM     14  H   UNL     1     -11.439 -19.998 -15.512  1.00  0.00     0.211 HD
ENDBRANCH   1  13
TORSDOF 8
ENDMDL
MODEL 6
REMARK VINA RESULT:    -4.331      1.781      4.271
REMARK INTER + INTRA:          -6.545
REMARK INTER:                  -5.900
REMARK INTRA:                  -0.645
REMARK UNBOUND:                -0.695
REMARK SMILES O=C[C@H](O)[C@@H](O)[C@H](O)CO
REMARK SMILES IDX 7 1 9 2 10 3 5 5 3 6 2 7 1 8 4 9 6 11 8 13
REMARK H PARENT 10 4 4 10 6 12 8 14
REMARK Flexibility Score: inf
ROOT
ATOM      1  C   UNL     1     -14.141 -20.522 -16.660  1.00  0.00     0.171 C 
ENDROOT
BRANCH   1   2
ATOM      2  C   UNL     1     -15.117 -21.602 -16.157  1.00  0.00     0.190 C 
BRANCH   2   3
ATOM      3  O   UNL     1     -16.377 -21.042 -15.901  1.00  0.00    -0.394 OA
ATOM      4  H   UNL     1     -16.715 -20.693 -16.767  1.00  0.00     0.210 HD
ENDBRANCH   2   3
ENDBRANCH   1   2
BRANCH   1   5
ATOM      5  C   UNL     1     -13.320 -19.896 -15.501  1.00  0.00     0.181 C 
BRANCH   5   6
ATOM      6  C   UNL     1     -12.281 -18.868 -16.010  1.00  0.00     0.209 C 
BRANCH   6   7
ATOM      7  C   UNL     1     -12.673 -17.460 -15.655  1.00  0.00     0.258 C 
ATOM      8  O   UNL     1     -12.502 -17.032 -14.524  1.00  0.00    -0.300 OA
ENDBRANCH   6   7
BRANCH   6   9
ATOM      9  O   UNL     1     -12.164 -18.955 -17.407  1.00  0.00    -0.383 OA
ATOM     10  H   UNL     1     -11.508 -18.265 -17.688  1.00  0.00     0.211 HD
ENDBRANCH   6   9
ENDBRANCH   5   6
BRANCH   5  11
ATOM     11  O   UNL     1     -14.183 -19.255 -14.593  1.00  0.00    -0.387 OA
ATOM     12  H   UNL     1     -14.902 -18.823 -15.124  1.00  0.00     0.211 HD
ENDBRANCH   5  11
ENDBRANCH   1   5
BRANCH   1  13
ATOM     13  O   UNL     1     -14.824 -19.533 -17.393  1.00  0.00    -0.388 OA
ATOM     14  H   UNL     1     -14.153 -18.877 -17.714  1.00  0.00     0.211 HD
ENDBRANCH   1  13
TORSDOF 8
ENDMDL
MODEL 7
REMARK VINA RESULT:    -4.285      1.379      1.986
REMARK INTER + INTRA:          -6.482
REMARK INTER:                  -5.565
REMARK INTRA:                  -0.917
REMARK UNBOUND:                -0.695
REMARK SMILES O=C[C@H](O)[C@@H](O)[C@H](O)CO
REMARK SMILES IDX 7 1 9 2 10 3 5 5 3 6 2 7 1 8 4 9 6 11 8 13
REMARK H PARENT 10 4 4 10 6 12 8 14
REMARK Flexibility Score: inf
ROOT
ATOM      1  C   UNL     1     -11.951 -18.546 -15.576  1.00  0.00     0.171 C 
ENDROOT
BRANCH   1   2
ATOM      2  C   UNL     1     -11.499 -17.239 -14.897  1.00  0.00     0.190 C 
BRANCH   2   3
ATOM      3  O   UNL     1     -12.611 -16.471 -14.525  1.00  0.00    -0.394 OA
ATOM      4  H   UNL     1     -13.088 -16.981 -13.819  1.00  0.00     0.210 HD
ENDBRANCH   2   3
ENDBRANCH   1   2
BRANCH   1   5
ATOM      5  C   UNL     1     -13.493 -18.605 -15.754  1.00  0.00     0.181 C 
BRANCH   5   6
ATOM      6  C   UNL     1     -13.910 -19.525 -16.926  1.00  0.00     0.209 C 
BRANCH   6   7
ATOM      7  C   UNL     1     -14.400 -20.860 -16.436  1.00  0.00     0.258 C 
ATOM      8  O   UNL     1     -13.659 -21.607 -15.817  1.00  0.00    -0.300 OA
ENDBRANCH   6   7
BRANCH   6   9
ATOM      9  O   UNL     1     -12.815 -19.743 -17.779  1.00  0.00    -0.383 OA
ATOM     10  H   UNL     1     -13.020 -20.553 -18.315  1.00  0.00     0.211 HD
ENDBRANCH   6   9
ENDBRANCH   5   6
BRANCH   5  11
ATOM     11  O   UNL     1     -14.094 -19.076 -14.572  1.00  0.00    -0.387 OA
ATOM     12  H   UNL     1     -13.536 -18.764 -13.812  1.00  0.00     0.211 HD
ENDBRANCH   5  11
ENDBRANCH   1   5
BRANCH   1  13
ATOM     13  O   UNL     1     -11.476 -19.666 -14.869  1.00  0.00    -0.388 OA
ATOM     14  H   UNL     1     -11.161 -19.352 -13.982  1.00  0.00     0.211 HD
ENDBRANCH   1  13
TORSDOF 8
ENDMDL
MODEL 8
REMARK VINA RESULT:    -4.185     12.069     13.485
REMARK INTER + INTRA:          -6.348
REMARK INTER:                  -6.151
REMARK INTRA:                  -0.197
REMARK UNBOUND:                -0.695
REMARK SMILES O=C[C@H](O)[C@@H](O)[C@H](O)CO
REMARK SMILES IDX 7 1 9 2 10 3 5 5 3 6 2 7 1 8 4 9 6 11 8 13
REMARK H PARENT 10 4 4 10 6 12 8 14
REMARK Flexibility Score: inf
ROOT
ATOM      1  C   UNL     1      -4.076  -9.567 -21.418  1.00  0.00     0.171 C 
ENDROOT
BRANCH   1   2
ATOM      2  C   UNL     1      -4.778  -8.966 -20.186  1.00  0.00     0.190 C 
BRANCH   2   3
ATOM      3  O   UNL     1      -3.878  -8.197 -19.436  1.00  0.00    -0.394 OA
ATOM      4  H   UNL     1      -3.151  -8.809 -19.147  1.00  0.00     0.210 HD
ENDBRANCH   2   3
ENDBRANCH   1   2
BRANCH   1   5
ATOM      5  C   UNL     1      -3.999 -11.116 -21.345  1.00  0.00     0.181 C 
BRANCH   5   6
ATOM      6  C   UNL     1      -2.598 -11.610 -20.916  1.00  0.00     0.209 C 
BRANCH   6   7
ATOM      7  C   UNL     1      -1.763 -12.012 -22.101  1.00  0.00     0.258 C 
ATOM      8  O   UNL     1      -0.839 -11.308 -22.479  1.00  0.00    -0.300 OA
ENDBRANCH   6   7
BRANCH   6   9
ATOM      9  O   UNL     1      -2.719 -12.721 -20.065  1.00  0.00    -0.383 OA
ATOM     10  H   UNL     1      -2.248 -13.477 -20.504  1.00  0.00     0.211 HD
ENDBRANCH   6   9
ENDBRANCH   5   6
BRANCH   5  11
ATOM     11  O   UNL     1      -4.951 -11.600 -20.428  1.00  0.00    -0.387 OA
ATOM     12  H   UNL     1      -5.226 -12.503 -20.738  1.00  0.00     0.211 HD
ENDBRANCH   5  11
ENDBRANCH   1   5
BRANCH   1  13
ATOM     13  O   UNL     1      -2.799  -9.001 -21.591  1.00  0.00    -0.388 OA
ATOM     14  H   UNL     1      -2.693  -8.781 -22.553  1.00  0.00     0.211 HD
ENDBRANCH   1  13
TORSDOF 8
ENDMDL
MODEL 9
REMARK VINA RESULT:    -4.107      1.475      3.955
REMARK INTER + INTRA:          -6.242
REMARK INTER:                  -6.179
REMARK INTRA:                  -0.063
REMARK UNBOUND:                -0.695
REMARK SMILES O=C[C@H](O)[C@@H](O)[C@H](O)CO
REMARK SMILES IDX 7 1 9 2 10 3 5 5 3 6 2 7 1 8 4 9 6 11 8 13
REMARK H PARENT 10 4 4 10 6 12 8 14
REMARK Flexibility Score: inf
ROOT
ATOM      1  C   UNL     1     -13.838 -19.361 -16.132  1.00  0.00     0.171 C 
ENDROOT
BRANCH   1   2
ATOM      2  C   UNL     1     -13.024 -20.294 -17.048  1.00  0.00     0.190 C 
BRANCH   2   3
ATOM      3  O   UNL     1     -12.766 -19.672 -18.277  1.00  0.00    -0.394 OA
ATOM      4  H   UNL     1     -12.256 -18.843 -18.077  1.00  0.00     0.210 HD
ENDBRANCH   2   3
ENDBRANCH   1   2
BRANCH   1   5
ATOM      5  C   UNL     1     -13.139 -19.134 -14.765  1.00  0.00     0.181 C 
BRANCH   5   6
ATOM      6  C   UNL     1     -12.618 -17.686 -14.610  1.00  0.00     0.209 C 
BRANCH   6   7
ATOM      7  C   UNL     1     -12.123 -17.131 -15.918  1.00  0.00     0.258 C 
ATOM      8  O   UNL     1     -10.944 -16.849 -16.069  1.00  0.00    -0.300 OA
ENDBRANCH   6   7
BRANCH   6   9
ATOM      9  O   UNL     1     -11.559 -17.651 -13.687  1.00  0.00    -0.383 OA
ATOM     10  H   UNL     1     -11.455 -18.572 -13.330  1.00  0.00     0.211 HD
ENDBRANCH   6   9
ENDBRANCH   5   6
BRANCH   5  11
ATOM     11  O   UNL     1     -14.036 -19.407 -13.715  1.00  0.00    -0.387 OA
ATOM     12  H   UNL     1     -13.528 -19.331 -12.866  1.00  0.00     0.211 HD
ENDBRANCH   5  11
ENDBRANCH   1   5
BRANCH   1  13
ATOM     13  O   UNL     1     -15.147 -19.849 -15.960  1.00  0.00    -0.388 OA
ATOM     14  H   UNL     1     -15.124 -20.527 -15.237  1.00  0.00     0.211 HD
ENDBRANCH   1  13
TORSDOF 8
ENDMDL
