MODEL 1
REMARK VINA RESULT:    -2.714      0.000      0.000
REMARK INTER + INTRA:          -2.714
REMARK INTER:                  -2.714
REMARK INTRA:                   0.000
REMARK UNBOUND:                 0.000
REMARK SMILES CC(=O)[O-]
REMARK SMILES IDX 1 1 2 2 3 3 4 4
REMARK H PARENT
REMARK Flexibility Score: inf
ROOT
ATOM      1  C   UNL     1      15.316  34.269  14.100  1.00  0.00     0.063 C 
ATOM      2  C   UNL     1      13.876  34.191  13.720  1.00  0.00     0.038 C 
ATOM      3  O   UNL     1      13.054  35.024  14.182  1.00  0.00    -0.550 OA
ATOM      4  O   UNL     1      13.448  33.232  12.811  1.00  0.00    -0.550 OA
ENDROOT
TORSDOF 0
ENDMDL
MODEL 2
REMARK VINA RESULT:    -2.683      1.393      1.762
REMARK INTER + INTRA:          -2.683
REMARK INTER:                  -2.683
REMARK INTRA:                   0.000
REMARK UNBOUND:                 0.000
REMARK SMILES CC(=O)[O-]
REMARK SMILES IDX 1 1 2 2 3 3 4 4
REMARK H PARENT
REMARK Flexibility Score: inf
ROOT
ATOM      1  C   UNL     1      13.769  33.002  12.835  1.00  0.00     0.063 C 
ATOM      2  C   UNL     1      14.032  34.183  13.707  1.00  0.00     0.038 C 
ATOM      3  O   UNL     1      13.084  34.741  14.317  1.00  0.00    -0.550 OA
ATOM      4  O   UNL     1      15.333  34.634  13.893  1.00  0.00    -0.550 OA
ENDROOT
TORSDOF 0
ENDMDL
MODEL 3
REMARK VINA RESULT:    -2.431      1.394      1.966
REMARK INTER + INTRA:          -2.431
REMARK INTER:                  -2.431
REMARK INTRA:                   0.000
REMARK UNBOUND:                 0.000
REMARK SMILES CC(=O)[O-]
REMARK SMILES IDX 1 1 2 2 3 3 4 4
REMARK H PARENT
REMARK Flexibility Score: inf
ROOT
ATOM      1  C   UNL     1      13.493  35.371  13.605  1.00  0.00     0.063 C 
ATOM      2  C   UNL     1      14.019  33.978  13.514  1.00  0.00     0.038 C 
ATOM      3  O   UNL     1      13.387  33.106  12.863  1.00  0.00    -0.550 OA
ATOM      4  O   UNL     1      15.236  33.654  14.100  1.00  0.00    -0.550 OA
ENDROOT
TORSDOF 0
ENDMDL
MODEL 4
REMARK VINA RESULT:    -2.268     15.794     16.280
REMARK INTER + INTRA:          -2.268
REMARK INTER:                  -2.268
REMARK INTRA:                   0.000
REMARK UNBOUND:                 0.000
REMARK SMILES CC(=O)[O-]
REMARK SMILES IDX 1 1 2 2 3 3 4 4
REMARK H PARENT
REMARK Flexibility Score: inf
ROOT
ATOM      1  C   UNL     1       6.853  47.854   9.433  1.00  0.00     0.063 C 
ATOM      2  C   UNL     1       5.431  47.428   9.572  1.00  0.00     0.038 C 
ATOM      3  O   UNL     1       4.584  47.761   8.702  1.00  0.00    -0.550 OA
ATOM      4  O   UNL     1       5.049  46.616  10.631  1.00  0.00    -0.550 OA
ENDROOT
TORSDOF 0
ENDMDL
MODEL 5
REMARK VINA RESULT:    -2.254      9.380      9.783
REMARK INTER + INTRA:          -2.254
REMARK INTER:                  -2.254
REMARK INTRA:                   0.000
REMARK UNBOUND:                 0.000
REMARK SMILES CC(=O)[O-]
REMARK SMILES IDX 1 1 2 2 3 3 4 4
REMARK H PARENT
REMARK Flexibility Score: inf
ROOT
ATOM      1  C   UNL     1       4.504  32.043  15.884  1.00  0.00     0.063 C 
ATOM      2  C   UNL     1       4.654  31.576  14.476  1.00  0.00     0.038 C 
ATOM      3  O   UNL     1       3.754  30.875  13.944  1.00  0.00    -0.550 OA
ATOM      4  O   UNL     1       5.761  31.960  13.730  1.00  0.00    -0.550 OA
ENDROOT
TORSDOF 0
ENDMDL
MODEL 6
REMARK VINA RESULT:    -2.211     16.102     16.589
REMARK INTER + INTRA:          -2.211
REMARK INTER:                  -2.211
REMARK INTRA:                   0.000
REMARK UNBOUND:                 0.000
REMARK SMILES CC(=O)[O-]
REMARK SMILES IDX 1 1 2 2 3 3 4 4
REMARK H PARENT
REMARK Flexibility Score: inf
ROOT
ATOM      1  C   UNL     1       4.057  48.045   8.371  1.00  0.00     0.063 C 
ATOM      2  C   UNL     1       4.790  47.053   9.209  1.00  0.00     0.038 C 
ATOM      3  O   UNL     1       4.393  45.860   9.266  1.00  0.00    -0.550 OA
ATOM      4  O   UNL     1       5.943  47.430   9.885  1.00  0.00    -0.550 OA
ENDROOT
TORSDOF 0
ENDMDL
MODEL 7
REMARK VINA RESULT:    -2.199     15.531     15.811
REMARK INTER + INTRA:          -2.199
REMARK INTER:                  -2.199
REMARK INTRA:                   0.000
REMARK UNBOUND:                 0.000
REMARK SMILES CC(=O)[O-]
REMARK SMILES IDX 1 1 2 2 3 3 4 4
REMARK H PARENT
REMARK Flexibility Score: inf
ROOT
ATOM      1  C   UNL     1       5.380  47.210   9.771  1.00  0.00     0.063 C 
ATOM      2  C   UNL     1       4.339  46.205  10.128  1.00  0.00     0.038 C 
ATOM      3  O   UNL     1       3.540  46.432  11.074  1.00  0.00    -0.550 OA
ATOM      4  O   UNL     1       4.213  45.039   9.383  1.00  0.00    -0.550 OA
ENDROOT
TORSDOF 0
ENDMDL
MODEL 8
REMARK VINA RESULT:    -2.195     14.022     14.331
REMARK INTER + INTRA:          -2.195
REMARK INTER:                  -2.195
REMARK INTRA:                   0.000
REMARK UNBOUND:                 0.000
REMARK SMILES CC(=O)[O-]
REMARK SMILES IDX 1 1 2 2 3 3 4 4
REMARK H PARENT
REMARK Flexibility Score: inf
ROOT
ATOM      1  C   UNL     1       3.845  44.351  12.370  1.00  0.00     0.063 C 
ATOM      2  C   UNL     1       3.397  43.509  11.224  1.00  0.00     0.038 C 
ATOM      3  O   UNL     1       2.193  43.153  11.136  1.00  0.00    -0.550 OA
ATOM      4  O   UNL     1       4.294  43.164  10.222  1.00  0.00    -0.550 OA
ENDROOT
TORSDOF 0
ENDMDL
MODEL 9
REMARK VINA RESULT:    -2.195     14.651     14.912
REMARK INTER + INTRA:          -2.195
REMARK INTER:                  -2.195
REMARK INTRA:                   0.000
REMARK UNBOUND:                 0.000
REMARK SMILES CC(=O)[O-]
REMARK SMILES IDX 1 1 2 2 3 3 4 4
REMARK H PARENT
REMARK Flexibility Score: inf
ROOT
ATOM      1  C   UNL     1       3.750  44.364  12.223  1.00  0.00     0.063 C 
ATOM      2  C   UNL     1       4.172  45.097  10.994  1.00  0.00     0.038 C 
ATOM      3  O   UNL     1       4.623  46.269  11.081  1.00  0.00    -0.550 OA
ATOM      4  O   UNL     1       4.120  44.468   9.757  1.00  0.00    -0.550 OA
ENDROOT
TORSDOF 0
ENDMDL
