MODEL 1
REMARK VINA RESULT:    -6.804      0.000      0.000
REMARK INTER + INTRA:         -11.613
REMARK INTER:                 -10.384
REMARK INTRA:                  -1.229
REMARK UNBOUND:                -1.229
REMARK SMILES CC(=O)CCC=C(C)CCC=C(C)CCC=C(C)C
REMARK SMILES IDX 10 1 11 2 12 3 13 4 14 5 15 6 16 7 18 8 17 9 19 10 9 11 7 12
REMARK SMILES IDX 6 13 8 14 5 15 4 16 2 17 3 18 1 19
REMARK H PARENT
REMARK Flexibility Score: inf
ROOT
ATOM      1  C   UNL     1     -14.400  11.996   2.857  1.00  0.00     0.032 C 
ENDROOT
BRANCH   1   2
ATOM      2  C   UNL     1     -13.901  12.493   4.189  1.00  0.00    -0.028 C 
ATOM      3  C   UNL     1     -13.253  11.729   5.099  1.00  0.00    -0.077 C 
ATOM      4  C   UNL     1     -13.011  10.254   4.874  1.00  0.00     0.039 C 
BRANCH   3   5
ATOM      5  C   UNL     1     -12.765  12.370   6.379  1.00  0.00     0.034 C 
BRANCH   5   6
ATOM      6  C   UNL     1     -12.837  11.380   7.548  1.00  0.00     0.032 C 
BRANCH   6   7
ATOM      7  C   UNL     1     -14.008  11.697   8.445  1.00  0.00    -0.028 C 
ATOM      8  C   UNL     1     -15.437   9.875   7.488  1.00  0.00     0.039 C 
ATOM      9  C   UNL     1     -15.192  11.045   8.413  1.00  0.00    -0.080 C 
ATOM     10  C   UNL     1     -16.287  11.498   9.344  1.00  0.00     0.039 C 
ENDBRANCH   6   7
ENDBRANCH   5   6
ENDBRANCH   3   5
ENDBRANCH   1   2
BRANCH   1  11
ATOM     11  C   UNL     1     -13.430  12.382   1.736  1.00  0.00     0.034 C 
BRANCH  11  12
ATOM     12  C   UNL     1     -14.171  12.562   0.427  1.00  0.00    -0.077 C 
ATOM     13  C   UNL     1     -14.431  13.775  -0.113  1.00  0.00    -0.028 C 
ATOM     14  C   UNL     1     -14.707  11.339  -0.272  1.00  0.00     0.039 C 
BRANCH  13  15
ATOM     15  C   UNL     1     -13.962  15.090   0.457  1.00  0.00     0.035 C 
BRANCH  15  16
ATOM     16  C   UNL     1     -14.898  15.564   1.574  1.00  0.00     0.079 C 
BRANCH  16  17
ATOM     17  C   UNL     1     -16.029  16.381   1.007  1.00  0.00     0.130 C 
ATOM     18  O   UNL     1     -17.130  15.869   0.869  1.00  0.00    -0.300 OA
ATOM     19  C   UNL     1     -15.839  17.818   0.621  1.00  0.00     0.087 C 
ENDBRANCH  16  17
ENDBRANCH  15  16
ENDBRANCH  13  15
ENDBRANCH  11  12
ENDBRANCH   1  11
TORSDOF 9
ENDMDL
MODEL 2
REMARK VINA RESULT:    -6.760      2.344      7.286
REMARK INTER + INTRA:         -11.547
REMARK INTER:                 -10.573
REMARK INTRA:                  -0.973
REMARK UNBOUND:                -1.229
REMARK SMILES CC(=O)CCC=C(C)CCC=C(C)CCC=C(C)C
REMARK SMILES IDX 10 1 11 2 12 3 13 4 14 5 15 6 16 7 18 8 17 9 19 10 9 11 7 12
REMARK SMILES IDX 6 13 8 14 5 15 4 16 2 17 3 18 1 19
REMARK H PARENT
REMARK Flexibility Score: inf
ROOT
ATOM      1  C   UNL     1     -13.700  11.511   2.401  1.00  0.00     0.032 C 
ENDROOT
BRANCH   1   2
ATOM      2  C   UNL     1     -13.601  12.740   1.535  1.00  0.00    -0.028 C 
ATOM      3  C   UNL     1     -14.076  12.826   0.270  1.00  0.00    -0.077 C 
ATOM      4  C   UNL     1     -14.719  11.647  -0.422  1.00  0.00     0.039 C 
BRANCH   3   5
ATOM      5  C   UNL     1     -13.951  14.139  -0.471  1.00  0.00     0.034 C 
BRANCH   5   6
ATOM      6  C   UNL     1     -13.267  15.197   0.403  1.00  0.00     0.032 C 
BRANCH   6   7
ATOM      7  C   UNL     1     -13.984  16.520   0.300  1.00  0.00    -0.028 C 
ATOM      8  C   UNL     1     -16.019  15.690   1.502  1.00  0.00     0.039 C 
ATOM      9  C   UNL     1     -15.231  16.750   0.768  1.00  0.00    -0.080 C 
ATOM     10  C   UNL     1     -15.836  18.114   0.560  1.00  0.00     0.039 C 
ENDBRANCH   6   7
ENDBRANCH   5   6
ENDBRANCH   3   5
ENDBRANCH   1   2
BRANCH   1  11
ATOM     11  C   UNL     1     -14.464  11.817   3.692  1.00  0.00     0.034 C 
BRANCH  11  12
ATOM     12  C   UNL     1     -13.795  12.943   4.455  1.00  0.00    -0.077 C 
ATOM     13  C   UNL     1     -12.944  12.733   5.485  1.00  0.00    -0.028 C 
ATOM     14  C   UNL     1     -14.148  14.364   4.098  1.00  0.00     0.039 C 
BRANCH  13  15
ATOM     15  C   UNL     1     -12.487  11.376   5.961  1.00  0.00     0.035 C 
BRANCH  15  16
ATOM     16  C   UNL     1     -12.523  11.294   7.491  1.00  0.00     0.079 C 
BRANCH  16  17
ATOM     17  C   UNL     1     -13.937  11.413   7.995  1.00  0.00     0.130 C 
ATOM     18  O   UNL     1     -14.191  12.199   8.895  1.00  0.00    -0.300 OA
ATOM     19  C   UNL     1     -15.049  10.596   7.405  1.00  0.00     0.087 C 
ENDBRANCH  16  17
ENDBRANCH  15  16
ENDBRANCH  13  15
ENDBRANCH  11  12
ENDBRANCH   1  11
TORSDOF 9
ENDMDL
MODEL 3
REMARK VINA RESULT:    -6.663      2.624      7.512
REMARK INTER + INTRA:         -11.397
REMARK INTER:                 -10.477
REMARK INTRA:                  -0.920
REMARK UNBOUND:                -1.229
REMARK SMILES CC(=O)CCC=C(C)CCC=C(C)CCC=C(C)C
REMARK SMILES IDX 10 1 11 2 12 3 13 4 14 5 15 6 16 7 18 8 17 9 19 10 9 11 7 12
REMARK SMILES IDX 6 13 8 14 5 15 4 16 2 17 3 18 1 19
REMARK H PARENT
REMARK Flexibility Score: inf
ROOT
ATOM      1  C   UNL     1     -13.918  10.658   4.063  1.00  0.00     0.032 C 
ENDROOT
BRANCH   1   2
ATOM      2  C   UNL     1     -14.109  11.917   3.256  1.00  0.00    -0.028 C 
ATOM      3  C   UNL     1     -14.018  11.984   1.907  1.00  0.00    -0.077 C 
ATOM      4  C   UNL     1     -13.655  10.778   1.072  1.00  0.00     0.039 C 
BRANCH   3   5
ATOM      5  C   UNL     1     -14.280  13.306   1.220  1.00  0.00     0.034 C 
BRANCH   5   6
ATOM      6  C   UNL     1     -14.252  14.460   2.228  1.00  0.00     0.032 C 
BRANCH   6   7
ATOM      7  C   UNL     1     -15.205  15.554   1.814  1.00  0.00    -0.028 C 
ATOM      8  C   UNL     1     -13.583  16.573   0.199  1.00  0.00     0.039 C 
ATOM      9  C   UNL     1     -14.910  16.525   0.921  1.00  0.00    -0.080 C 
ATOM     10  C   UNL     1     -15.951  17.576   0.632  1.00  0.00     0.039 C 
ENDBRANCH   6   7
ENDBRANCH   5   6
ENDBRANCH   3   5
ENDBRANCH   1   2
BRANCH   1  11
ATOM     11  C   UNL     1     -12.593  10.701   4.830  1.00  0.00     0.034 C 
BRANCH  11  12
ATOM     12  C   UNL     1     -12.572  11.870   5.795  1.00  0.00    -0.077 C 
ATOM     13  C   UNL     1     -13.169  11.835   7.008  1.00  0.00    -0.028 C 
ATOM     14  C   UNL     1     -11.917  13.154   5.357  1.00  0.00     0.039 C 
BRANCH  13  15
ATOM     15  C   UNL     1     -13.859  10.628   7.595  1.00  0.00     0.035 C 
BRANCH  15  16
ATOM     16  C   UNL     1     -15.368  10.870   7.718  1.00  0.00     0.079 C 
BRANCH  16  17
ATOM     17  C   UNL     1     -15.769  10.994   9.164  1.00  0.00     0.130 C 
ATOM     18  O   UNL     1     -14.911  11.207  10.009  1.00  0.00    -0.300 OA
ATOM     19  C   UNL     1     -17.201  10.875   9.592  1.00  0.00     0.087 C 
ENDBRANCH  16  17
ENDBRANCH  15  16
ENDBRANCH  13  15
ENDBRANCH  11  12
ENDBRANCH   1  11
TORSDOF 9
ENDMDL
MODEL 4
REMARK VINA RESULT:    -6.641      1.421      2.035
REMARK INTER + INTRA:         -11.365
REMARK INTER:                  -9.933
REMARK INTRA:                  -1.432
REMARK UNBOUND:                -1.229
REMARK SMILES CC(=O)CCC=C(C)CCC=C(C)CCC=C(C)C
REMARK SMILES IDX 10 1 11 2 12 3 13 4 14 5 15 6 16 7 18 8 17 9 19 10 9 11 7 12
REMARK SMILES IDX 6 13 8 14 5 15 4 16 2 17 3 18 1 19
REMARK H PARENT
REMARK Flexibility Score: inf
ROOT
ATOM      1  C   UNL     1     -12.895  12.575   3.716  1.00  0.00     0.032 C 
ENDROOT
BRANCH   1   2
ATOM      2  C   UNL     1     -13.268  12.866   5.147  1.00  0.00    -0.028 C 
ATOM      3  C   UNL     1     -13.175  11.973   6.160  1.00  0.00    -0.077 C 
ATOM      4  C   UNL     1     -12.727  10.549   5.929  1.00  0.00     0.039 C 
BRANCH   3   5
ATOM      5  C   UNL     1     -13.539  12.414   7.560  1.00  0.00     0.034 C 
BRANCH   5   6
ATOM      6  C   UNL     1     -13.585  11.216   8.516  1.00  0.00     0.032 C 
BRANCH   6   7
ATOM      7  C   UNL     1     -14.815  11.275   9.388  1.00  0.00    -0.028 C 
ATOM      8  C   UNL     1     -16.194   9.905   7.807  1.00  0.00     0.039 C 
ATOM      9  C   UNL     1     -16.002  10.711   9.071  1.00  0.00    -0.080 C 
ATOM     10  C   UNL     1     -17.157  10.884  10.024  1.00  0.00     0.039 C 
ENDBRANCH   6   7
ENDBRANCH   5   6
ENDBRANCH   3   5
ENDBRANCH   1   2
BRANCH   1  11
ATOM     11  C   UNL     1     -14.122  12.122   2.917  1.00  0.00     0.034 C 
BRANCH  11  12
ATOM     12  C   UNL     1     -13.701  11.327   1.698  1.00  0.00    -0.077 C 
ATOM     13  C   UNL     1     -14.048  11.672   0.436  1.00  0.00    -0.028 C 
ATOM     14  C   UNL     1     -12.922  10.053   1.902  1.00  0.00     0.039 C 
BRANCH  13  15
ATOM     15  C   UNL     1     -14.818  12.914   0.064  1.00  0.00     0.035 C 
BRANCH  15  16
ATOM     16  C   UNL     1     -13.872  14.012  -0.436  1.00  0.00     0.079 C 
BRANCH  16  17
ATOM     17  C   UNL     1     -13.949  15.225   0.453  1.00  0.00     0.130 C 
ATOM     18  O   UNL     1     -13.140  16.129   0.308  1.00  0.00    -0.300 OA
ATOM     19  C   UNL     1     -15.008  15.355   1.508  1.00  0.00     0.087 C 
ENDBRANCH  16  17
ENDBRANCH  15  16
ENDBRANCH  13  15
ENDBRANCH  11  12
ENDBRANCH   1  11
TORSDOF 9
ENDMDL
MODEL 5
REMARK VINA RESULT:    -6.479      1.189      1.733
REMARK INTER + INTRA:         -11.117
REMARK INTER:                 -10.136
REMARK INTRA:                  -0.981
REMARK UNBOUND:                -1.229
REMARK SMILES CC(=O)CCC=C(C)CCC=C(C)CCC=C(C)C
REMARK SMILES IDX 10 1 11 2 12 3 13 4 14 5 15 6 16 7 18 8 17 9 19 10 9 11 7 12
REMARK SMILES IDX 6 13 8 14 5 15 4 16 2 17 3 18 1 19
REMARK H PARENT
REMARK Flexibility Score: inf
ROOT
ATOM      1  C   UNL     1     -13.521  13.256   3.254  1.00  0.00     0.032 C 
ENDROOT
BRANCH   1   2
ATOM      2  C   UNL     1     -13.269  11.880   3.813  1.00  0.00    -0.028 C 
ATOM      3  C   UNL     1     -12.662  11.633   4.998  1.00  0.00    -0.077 C 
ATOM      4  C   UNL     1     -12.123  12.747   5.864  1.00  0.00     0.039 C 
BRANCH   3   5
ATOM      5  C   UNL     1     -12.515  10.201   5.461  1.00  0.00     0.034 C 
BRANCH   5   6
ATOM      6  C   UNL     1     -12.759  10.086   6.970  1.00  0.00     0.032 C 
BRANCH   6   7
ATOM      7  C   UNL     1     -14.236  10.015   7.268  1.00  0.00    -0.028 C 
ATOM      8  C   UNL     1     -14.184  12.001   8.795  1.00  0.00     0.039 C 
ATOM      9  C   UNL     1     -14.886  10.854   8.105  1.00  0.00    -0.080 C 
ATOM     10  C   UNL     1     -16.360  10.639   8.336  1.00  0.00     0.039 C 
ENDBRANCH   6   7
ENDBRANCH   5   6
ENDBRANCH   3   5
ENDBRANCH   1   2
BRANCH   1  11
ATOM     11  C   UNL     1     -14.697  13.236   2.273  1.00  0.00     0.034 C 
BRANCH  11  12
ATOM     12  C   UNL     1     -14.205  13.370   0.846  1.00  0.00    -0.077 C 
ATOM     13  C   UNL     1     -13.772  14.540   0.322  1.00  0.00    -0.028 C 
ATOM     14  C   UNL     1     -14.268  12.163  -0.054  1.00  0.00     0.039 C 
BRANCH  13  15
ATOM     15  C   UNL     1     -13.644  15.832   1.089  1.00  0.00     0.035 C 
BRANCH  15  16
ATOM     16  C   UNL     1     -14.188  17.008   0.270  1.00  0.00     0.079 C 
BRANCH  16  17
ATOM     17  C   UNL     1     -15.601  17.331   0.680  1.00  0.00     0.130 C 
ATOM     18  O   UNL     1     -15.957  18.499   0.740  1.00  0.00    -0.300 OA
ATOM     19  C   UNL     1     -16.588  16.250   1.005  1.00  0.00     0.087 C 
ENDBRANCH  16  17
ENDBRANCH  15  16
ENDBRANCH  13  15
ENDBRANCH  11  12
ENDBRANCH   1  11
TORSDOF 9
ENDMDL
MODEL 6
REMARK VINA RESULT:    -6.448      2.349      7.583
REMARK INTER + INTRA:         -11.070
REMARK INTER:                  -9.873
REMARK INTRA:                  -1.198
REMARK UNBOUND:                -1.229
REMARK SMILES CC(=O)CCC=C(C)CCC=C(C)CCC=C(C)C
REMARK SMILES IDX 10 1 11 2 12 3 13 4 14 5 15 6 16 7 18 8 17 9 19 10 9 11 7 12
REMARK SMILES IDX 6 13 8 14 5 15 4 16 2 17 3 18 1 19
REMARK H PARENT
REMARK Flexibility Score: inf
ROOT
ATOM      1  C   UNL     1     -14.001  11.171   4.222  1.00  0.00     0.032 C 
ENDROOT
BRANCH   1   2
ATOM      2  C   UNL     1     -13.578  11.896   2.970  1.00  0.00    -0.028 C 
ATOM      3  C   UNL     1     -13.851  13.196   2.709  1.00  0.00    -0.077 C 
ATOM      4  C   UNL     1     -14.673  14.044   3.652  1.00  0.00     0.039 C 
BRANCH   3   5
ATOM      5  C   UNL     1     -13.324  13.813   1.432  1.00  0.00     0.034 C 
BRANCH   5   6
ATOM      6  C   UNL     1     -14.474  14.333   0.561  1.00  0.00     0.032 C 
BRANCH   6   7
ATOM      7  C   UNL     1     -14.563  15.837   0.637  1.00  0.00    -0.028 C 
ATOM      8  C   UNL     1     -17.063  15.840   0.781  1.00  0.00     0.039 C 
ATOM      9  C   UNL     1     -15.721  16.530   0.711  1.00  0.00    -0.080 C 
ATOM     10  C   UNL     1     -15.656  18.035   0.743  1.00  0.00     0.039 C 
ENDBRANCH   6   7
ENDBRANCH   5   6
ENDBRANCH   3   5
ENDBRANCH   1   2
BRANCH   1  11
ATOM     11  C   UNL     1     -12.788  10.851   5.100  1.00  0.00     0.034 C 
BRANCH  11  12
ATOM     12  C   UNL     1     -12.562  11.950   6.119  1.00  0.00    -0.077 C 
ATOM     13  C   UNL     1     -13.117  11.937   7.354  1.00  0.00    -0.028 C 
ATOM     14  C   UNL     1     -11.741  13.148   5.717  1.00  0.00     0.039 C 
BRANCH  13  15
ATOM     15  C   UNL     1     -13.956  10.813   7.908  1.00  0.00     0.035 C 
BRANCH  15  16
ATOM     16  C   UNL     1     -14.932  11.334   8.969  1.00  0.00     0.079 C 
BRANCH  16  17
ATOM     17  C   UNL     1     -16.323  10.818   8.710  1.00  0.00     0.130 C 
ATOM     18  O   UNL     1     -16.584  10.310   7.629  1.00  0.00    -0.300 OA
ATOM     19  C   UNL     1     -17.395  10.901   9.755  1.00  0.00     0.087 C 
ENDBRANCH  16  17
ENDBRANCH  15  16
ENDBRANCH  13  15
ENDBRANCH  11  12
ENDBRANCH   1  11
TORSDOF 9
ENDMDL
MODEL 7
REMARK VINA RESULT:    -6.409      2.178      7.403
REMARK INTER + INTRA:         -11.010
REMARK INTER:                 -10.094
REMARK INTRA:                  -0.917
REMARK UNBOUND:                -1.229
REMARK SMILES CC(=O)CCC=C(C)CCC=C(C)CCC=C(C)C
REMARK SMILES IDX 10 1 11 2 12 3 13 4 14 5 15 6 16 7 18 8 17 9 19 10 9 11 7 12
REMARK SMILES IDX 6 13 8 14 5 15 4 16 2 17 3 18 1 19
REMARK H PARENT
REMARK Flexibility Score: inf
ROOT
ATOM      1  C   UNL     1     -13.071  12.610   3.807  1.00  0.00     0.032 C 
ENDROOT
BRANCH   1   2
ATOM      2  C   UNL     1     -13.730  12.773   2.462  1.00  0.00    -0.028 C 
ATOM      3  C   UNL     1     -13.724  11.834   1.487  1.00  0.00    -0.077 C 
ATOM      4  C   UNL     1     -12.991  10.523   1.647  1.00  0.00     0.039 C 
BRANCH   3   5
ATOM      5  C   UNL     1     -14.467  12.112   0.199  1.00  0.00     0.034 C 
BRANCH   5   6
ATOM      6  C   UNL     1     -14.242  13.557  -0.261  1.00  0.00     0.032 C 
BRANCH   6   7
ATOM      7  C   UNL     1     -15.400  14.434   0.147  1.00  0.00    -0.028 C 
ATOM      8  C   UNL     1     -13.922  16.326   0.862  1.00  0.00     0.039 C 
ATOM      9  C   UNL     1     -15.271  15.671   0.675  1.00  0.00    -0.080 C 
ATOM     10  C   UNL     1     -16.520  16.417   1.071  1.00  0.00     0.039 C 
ENDBRANCH   6   7
ENDBRANCH   5   6
ENDBRANCH   3   5
ENDBRANCH   1   2
BRANCH   1  11
ATOM     11  C   UNL     1     -14.023  11.936   4.800  1.00  0.00     0.034 C 
BRANCH  11  12
ATOM     12  C   UNL     1     -13.266  10.984   5.705  1.00  0.00    -0.077 C 
ATOM     13  C   UNL     1     -13.226  11.121   7.050  1.00  0.00    -0.028 C 
ATOM     14  C   UNL     1     -12.463   9.876   5.074  1.00  0.00     0.039 C 
BRANCH  13  15
ATOM     15  C   UNL     1     -13.976  12.171   7.832  1.00  0.00     0.035 C 
BRANCH  15  16
ATOM     16  C   UNL     1     -14.637  11.557   9.071  1.00  0.00     0.079 C 
BRANCH  16  17
ATOM     17  C   UNL     1     -16.062  11.170   8.775  1.00  0.00     0.130 C 
ATOM     18  O   UNL     1     -16.379  10.873   7.633  1.00  0.00    -0.300 OA
ATOM     19  C   UNL     1     -17.102  11.128   9.856  1.00  0.00     0.087 C 
ENDBRANCH  16  17
ENDBRANCH  15  16
ENDBRANCH  13  15
ENDBRANCH  11  12
ENDBRANCH   1  11
TORSDOF 9
ENDMDL
MODEL 8
REMARK VINA RESULT:    -6.068      1.813      3.558
REMARK INTER + INTRA:         -10.491
REMARK INTER:                  -9.277
REMARK INTRA:                  -1.213
REMARK UNBOUND:                -1.229
REMARK SMILES CC(=O)CCC=C(C)CCC=C(C)CCC=C(C)C
REMARK SMILES IDX 10 1 11 2 12 3 13 4 14 5 15 6 16 7 18 8 17 9 19 10 9 11 7 12
REMARK SMILES IDX 6 13 8 14 5 15 4 16 2 17 3 18 1 19
REMARK H PARENT
REMARK Flexibility Score: inf
ROOT
ATOM      1  C   UNL     1     -14.112  14.567   3.259  1.00  0.00     0.032 C 
ENDROOT
BRANCH   1   2
ATOM      2  C   UNL     1     -14.357  13.173   3.778  1.00  0.00    -0.028 C 
ATOM      3  C   UNL     1     -13.523  12.508   4.612  1.00  0.00    -0.077 C 
ATOM      4  C   UNL     1     -12.211  13.102   5.068  1.00  0.00     0.039 C 
BRANCH   3   5
ATOM      5  C   UNL     1     -13.916  11.128   5.093  1.00  0.00     0.034 C 
BRANCH   5   6
ATOM      6  C   UNL     1     -13.706  10.997   6.606  1.00  0.00     0.032 C 
BRANCH   6   7
ATOM      7  C   UNL     1     -15.030  10.956   7.327  1.00  0.00    -0.028 C 
ATOM      8  C   UNL     1     -14.065  11.805   9.477  1.00  0.00     0.039 C 
ATOM      9  C   UNL     1     -15.202  11.293   8.624  1.00  0.00    -0.080 C 
ATOM     10  C   UNL     1     -16.580  11.167   9.222  1.00  0.00     0.039 C 
ENDBRANCH   6   7
ENDBRANCH   5   6
ENDBRANCH   3   5
ENDBRANCH   1   2
BRANCH   1  11
ATOM     11  C   UNL     1     -15.037  14.877   2.078  1.00  0.00     0.034 C 
BRANCH  11  12
ATOM     12  C   UNL     1     -14.242  14.983   0.792  1.00  0.00    -0.077 C 
ATOM     13  C   UNL     1     -14.209  14.000  -0.138  1.00  0.00    -0.028 C 
ATOM     14  C   UNL     1     -13.394  16.208   0.568  1.00  0.00     0.039 C 
BRANCH  13  15
ATOM     15  C   UNL     1     -15.002  12.719  -0.065  1.00  0.00     0.035 C 
BRANCH  15  16
ATOM     16  C   UNL     1     -14.077  11.500  -0.154  1.00  0.00     0.079 C 
BRANCH  16  17
ATOM     17  C   UNL     1     -13.943  10.837   1.192  1.00  0.00     0.130 C 
ATOM     18  O   UNL     1     -14.916  10.771   1.928  1.00  0.00    -0.300 OA
ATOM     19  C   UNL     1     -12.643  10.242   1.645  1.00  0.00     0.087 C 
ENDBRANCH  16  17
ENDBRANCH  15  16
ENDBRANCH  13  15
ENDBRANCH  11  12
ENDBRANCH   1  11
TORSDOF 9
ENDMDL
MODEL 9
REMARK VINA RESULT:    -5.292      2.613      7.756
REMARK INTER + INTRA:          -9.305
REMARK INTER:                  -8.904
REMARK INTRA:                  -0.402
REMARK UNBOUND:                -1.229
REMARK SMILES CC(=O)CCC=C(C)CCC=C(C)CCC=C(C)C
REMARK SMILES IDX 10 1 11 2 12 3 13 4 14 5 15 6 16 7 18 8 17 9 19 10 9 11 7 12
REMARK SMILES IDX 6 13 8 14 5 15 4 16 2 17 3 18 1 19
REMARK H PARENT
REMARK Flexibility Score: inf
ROOT
ATOM      1  C   UNL     1     -12.688  12.607   6.216  1.00  0.00     0.032 C 
ENDROOT
BRANCH   1   2
ATOM      2  C   UNL     1     -12.725  12.464   4.716  1.00  0.00    -0.028 C 
ATOM      3  C   UNL     1     -12.848  11.286   4.062  1.00  0.00    -0.077 C 
ATOM      4  C   UNL     1     -12.908   9.968   4.797  1.00  0.00     0.039 C 
BRANCH   3   5
ATOM      5  C   UNL     1     -12.919  11.292   2.551  1.00  0.00     0.034 C 
BRANCH   5   6
ATOM      6  C   UNL     1     -14.197  11.986   2.066  1.00  0.00     0.032 C 
BRANCH   6   7
ATOM      7  C   UNL     1     -13.866  13.128   1.137  1.00  0.00    -0.028 C 
ATOM      8  C   UNL     1     -14.857  14.858   2.653  1.00  0.00     0.039 C 
ATOM      9  C   UNL     1     -14.178  14.421   1.376  1.00  0.00    -0.080 C 
ATOM     10  C   UNL     1     -13.816  15.451   0.336  1.00  0.00     0.039 C 
ENDBRANCH   6   7
ENDBRANCH   5   6
ENDBRANCH   3   5
ENDBRANCH   1   2
BRANCH   1  11
ATOM     11  C   UNL     1     -13.694  11.660   6.877  1.00  0.00     0.034 C 
BRANCH  11  12
ATOM     12  C   UNL     1     -13.174  11.176   8.215  1.00  0.00    -0.077 C 
ATOM     13  C   UNL     1     -13.928  11.163   9.339  1.00  0.00    -0.028 C 
ATOM     14  C   UNL     1     -11.730  10.757   8.318  1.00  0.00     0.039 C 
BRANCH  13  15
ATOM     15  C   UNL     1     -15.386  11.546   9.402  1.00  0.00     0.035 C 
BRANCH  15  16
ATOM     16  C   UNL     1     -16.222  10.408   9.998  1.00  0.00     0.079 C 
BRANCH  16  17
ATOM     17  C   UNL     1     -17.529  10.269   9.265  1.00  0.00     0.130 C 
ATOM     18  O   UNL     1     -17.529   9.884   8.105  1.00  0.00    -0.300 OA
ATOM     19  C   UNL     1     -18.837  10.580   9.930  1.00  0.00     0.087 C 
ENDBRANCH  16  17
ENDBRANCH  15  16
ENDBRANCH  13  15
ENDBRANCH  11  12
ENDBRANCH   1  11
TORSDOF 9
ENDMDL
