MODEL 1
REMARK VINA RESULT:    69.647      0.000      0.000
REMARK INTER + INTRA:          94.911
REMARK INTER:                  96.112
REMARK INTRA:                  -1.201
REMARK UNBOUND:                -1.201
REMARK SMILES O=C([O-])[C@H]1O[C@H](Oc2cc3oc(-c4ccccc4)cc(=O)c3c(O)c2O)[C@@H](O)[C@H](O)[C@@H]1O
REMARK SMILES IDX 7 1 6 2 4 3 31 4 5 5 29 6 27 7 2 8 1 9 3 10 32 11 30 13
REMARK SMILES IDX 28 15 8 17 25 18 9 19 23 20 10 21 22 22 11 23 20 24 12 25
REMARK SMILES IDX 19 26 21 27 26 28 24 30 13 32 14 33 18 34 15 35 17 36 16 37
REMARK H PARENT 32 12 30 14 28 16 26 29 24 31
REMARK Flexibility Score: inf
ROOT
ATOM      1  O   UNL     1      10.260  95.693  -1.498  1.00  0.00    -0.458 OA
ENDROOT
BRANCH   1   2
ATOM      2  C   UNL     1      11.652  96.013  -1.490  1.00  0.00     0.339 C 
ATOM      3  C   UNL     1      13.668  95.709  -2.709  1.00  0.00     0.199 C 
ATOM      4  C   UNL     1      14.201  96.858  -1.807  1.00  0.00     0.180 C 
ATOM      5  O   UNL     1      12.253  95.510  -2.669  1.00  0.00    -0.328 OA
ATOM      6  C   UNL     1      13.211  98.032  -1.839  1.00  0.00     0.181 C 
ATOM      7  C   UNL     1      11.794  97.552  -1.425  1.00  0.00     0.214 C 
BRANCH   3   8
ATOM      8  C   UNL     1      14.380  94.416  -2.427  1.00  0.00     0.073 C 
ATOM      9  O   UNL     1      13.731  93.346  -2.277  1.00  0.00    -0.547 OA
ATOM     10  O   UNL     1      15.765  94.397  -2.304  1.00  0.00    -0.547 OA
ENDBRANCH   3   8
BRANCH   4  11
ATOM     11  O   UNL     1      15.463  97.289  -2.248  1.00  0.00    -0.387 OA
ATOM     12  H   UNL     1      15.544  97.009  -3.199  1.00  0.00     0.211 HD
ENDBRANCH   4  11
BRANCH   6  13
ATOM     13  O   UNL     1      13.158  98.573  -3.137  1.00  0.00    -0.387 OA
ATOM     14  H   UNL     1      12.200  98.708  -3.360  1.00  0.00     0.211 HD
ENDBRANCH   6  13
BRANCH   7  15
ATOM     15  O   UNL     1      11.463  98.017  -0.140  1.00  0.00    -0.384 OA
ATOM     16  H   UNL     1      10.507  97.798   0.022  1.00  0.00     0.211 HD
ENDBRANCH   7  15
ENDBRANCH   1   2
BRANCH   1  17
ATOM     17  C   UNL     1       9.496  95.299  -0.384  1.00  0.00     0.172 A 
ATOM     18  C   UNL     1       8.673  96.252   0.236  1.00  0.00     0.201 A 
ATOM     19  C   UNL     1       9.559  94.001   0.140  1.00  0.00     0.098 A 
ATOM     20  C   UNL     1       7.929  95.925   1.381  1.00  0.00     0.176 A 
ATOM     21  C   UNL     1       8.805  93.646   1.259  1.00  0.00     0.146 A 
ATOM     22  C   UNL     1       7.953  94.590   1.886  1.00  0.00     0.111 A 
ATOM     23  O   UNL     1       8.907  92.403   1.720  1.00  0.00    -0.456 OA
ATOM     24  C   UNL     1       7.172  94.121   2.971  1.00  0.00     0.197 A 
ATOM     25  C   UNL     1       8.217  91.950   2.762  1.00  0.00     0.138 A 
ATOM     26  C   UNL     1       7.320  92.804   3.415  1.00  0.00     0.100 A 
ATOM     27  O   UNL     1       6.320  94.847   3.545  1.00  0.00    -0.289 OA
BRANCH  18  28
ATOM     28  O   UNL     1       8.601  97.555  -0.264  1.00  0.00    -0.502 OA
ATOM     29  H   UNL     1       8.773  97.777  -1.238  1.00  0.00     0.293 HD
ENDBRANCH  18  28
BRANCH  20  30
ATOM     30  O   UNL     1       7.221  96.971   1.979  1.00  0.00    -0.504 OA
ATOM     31  H   UNL     1       6.228  97.127   1.894  1.00  0.00     0.293 HD
ENDBRANCH  20  30
BRANCH  25  32
ATOM     32  C   UNL     1       8.428  90.549   3.202  1.00  0.00     0.017 A 
ATOM     33  C   UNL     1       7.315  89.718   3.426  1.00  0.00     0.012 A 
ATOM     34  C   UNL     1       9.718  90.030   3.433  1.00  0.00     0.012 A 
ATOM     35  C   UNL     1       7.487  88.394   3.841  1.00  0.00     0.001 A 
ATOM     36  C   UNL     1       9.884  88.706   3.851  1.00  0.00     0.001 A 
ATOM     37  C   UNL     1       8.770  87.887   4.053  1.00  0.00     0.000 A 
ENDBRANCH  25  32
ENDBRANCH   1  17
TORSDOF 9
ENDMDL
