MODEL 1
REMARK VINA RESULT:    -3.292      0.000      0.000
REMARK INTER + INTRA:          -3.310
REMARK INTER:                  -4.061
REMARK INTRA:                   0.751
REMARK UNBOUND:                 0.751
REMARK SMILES CC1=CC=CC(C)(C)CC1=O
REMARK SMILES IDX 1 1 2 2 3 3 10 4 11 5 9 6 4 8 5 9 6 10 7 11 8 12
REMARK H PARENT
REMARK Flexibility Score: 80.00
ROOT
ATOM      1  C   UNL     1       6.367 -14.911  21.852  1.00  0.00     0.048 C 
ATOM      2  C   UNL     1       7.372 -15.426  22.856  1.00  0.00    -0.008 C 
ATOM      3  C   UNL     1       8.005 -14.518  23.629  1.00  0.00     0.007 C 
ENDROOT
BRANCH   2   4
ATOM      4  C   UNL     1       7.528 -16.898  22.962  1.00  0.00     0.159 C 
ATOM      5  O   UNL     1       6.687 -17.642  22.387  1.00  0.00    -0.295 OA
BRANCH   4   6
ATOM      6  C   UNL     1       8.645 -17.559  23.710  1.00  0.00     0.091 CG0
ATOM      7  G   UNL     1       8.675 -17.192  25.210  1.00  0.00     0.000 G0
ENDBRANCH   4   6
ENDBRANCH   2   4
BRANCH   3   8
ATOM      8  C   UNL     1       9.006 -14.716  24.704  1.00  0.00    -0.003 C 
ATOM      9  C   UNL     1       9.300 -15.828  25.389  1.00  0.00    -0.020 C 
BRANCH   9  10
ATOM     10  C   UNL     1       8.674 -17.190  25.201  1.00  0.00    -0.010 CG0
ATOM     11  C   UNL     1       9.561 -18.233  25.919  1.00  0.00     0.016 C 
ATOM     12  C   UNL     1       7.274 -17.223  25.856  1.00  0.00     0.016 C 
ATOM     13  G   UNL     1       8.638 -17.542  23.698  1.00  0.00     0.000 G0
ENDBRANCH   9  10
ENDBRANCH   3   8
TORSDOF 0
ENDMDL
MODEL 2
REMARK VINA RESULT:    -3.283      2.117      3.190
REMARK INTER + INTRA:          -3.299
REMARK INTER:                  -4.053
REMARK INTRA:                   0.754
REMARK UNBOUND:                 0.751
REMARK SMILES CC1=CC=CC(C)(C)CC1=O
REMARK SMILES IDX 1 1 2 2 3 3 10 4 11 5 9 6 4 8 5 9 6 10 7 11 8 12
REMARK H PARENT
REMARK Flexibility Score: 80.00
ROOT
ATOM      1  C   UNL     1       7.379 -16.419  20.987  1.00  0.00     0.048 C 
ATOM      2  C   UNL     1       7.115 -17.412  22.094  1.00  0.00    -0.008 C 
ATOM      3  C   UNL     1       7.078 -18.721  21.767  1.00  0.00     0.007 C 
ENDROOT
BRANCH   2   4
ATOM      4  C   UNL     1       6.991 -16.871  23.471  1.00  0.00     0.159 C 
ATOM      5  O   UNL     1       7.303 -15.667  23.682  1.00  0.00    -0.295 OA
BRANCH   4   6
ATOM      6  C   UNL     1       6.500 -17.676  24.635  1.00  0.00     0.091 CG0
ATOM      7  G   UNL     1       7.362 -18.926  24.918  1.00  0.00     0.000 G0
ENDBRANCH   4   6
ENDBRANCH   2   4
BRANCH   3   8
ATOM      8  C   UNL     1       6.869 -19.912  22.624  1.00  0.00    -0.003 C 
ATOM      9  C   UNL     1       6.987 -20.026  23.953  1.00  0.00    -0.020 C 
BRANCH   9  10
ATOM     10  C   UNL     1       7.346 -18.923  24.920  1.00  0.00    -0.010 CG0
ATOM     11  C   UNL     1       7.008 -19.403  26.350  1.00  0.00     0.016 C 
ATOM     12  C   UNL     1       8.865 -18.640  24.858  1.00  0.00     0.016 C 
ATOM     13  G   UNL     1       6.494 -17.670  24.620  1.00  0.00     0.000 G0
ENDBRANCH   9  10
ENDBRANCH   3   8
TORSDOF 0
ENDMDL
MODEL 3
REMARK VINA RESULT:    -3.241      1.762      2.605
REMARK INTER + INTRA:          -3.247
REMARK INTER:                  -3.996
REMARK INTRA:                   0.749
REMARK UNBOUND:                 0.751
REMARK SMILES CC1=CC=CC(C)(C)CC1=O
REMARK SMILES IDX 1 1 2 2 3 3 10 4 11 5 9 6 4 8 5 9 6 10 7 11 8 12
REMARK H PARENT
REMARK Flexibility Score: 80.00
ROOT
ATOM      1  C   UNL     1       7.357 -14.387  22.869  1.00  0.00     0.048 C 
ATOM      2  C   UNL     1       7.789 -15.474  23.825  1.00  0.00    -0.008 C 
ATOM      3  C   UNL     1       6.960 -16.527  23.992  1.00  0.00     0.007 C 
ENDROOT
BRANCH   2   4
ATOM      4  C   UNL     1       9.127 -15.332  24.451  1.00  0.00     0.159 C 
ATOM      5  O   UNL     1       9.914 -14.449  24.010  1.00  0.00    -0.295 OA
BRANCH   4   6
ATOM      6  C   UNL     1       9.600 -16.176  25.595  1.00  0.00     0.091 CG0
ATOM      7  G   UNL     1       9.626 -17.685  25.268  1.00  0.00     0.000 G0
ENDBRANCH   4   6
ENDBRANCH   2   4
BRANCH   3   8
ATOM      8  C   UNL     1       7.119 -17.741  24.827  1.00  0.00    -0.003 C 
ATOM      9  C   UNL     1       8.231 -18.254  25.368  1.00  0.00    -0.020 C 
BRANCH   9  10
ATOM     10  C   UNL     1       9.625 -17.679  25.269  1.00  0.00    -0.010 CG0
ATOM     11  C   UNL     1      10.511 -18.372  26.329  1.00  0.00     0.016 C 
ATOM     12  C   UNL     1      10.223 -17.981  23.876  1.00  0.00     0.016 C 
ATOM     13  G   UNL     1       9.588 -16.168  25.587  1.00  0.00     0.000 G0
ENDBRANCH   9  10
ENDBRANCH   3   8
TORSDOF 0
ENDMDL
MODEL 4
REMARK VINA RESULT:    -3.221      2.957      4.558
REMARK INTER + INTRA:          -3.223
REMARK INTER:                  -3.972
REMARK INTRA:                   0.749
REMARK UNBOUND:                 0.751
REMARK SMILES CC1=CC=CC(C)(C)CC1=O
REMARK SMILES IDX 1 1 2 2 3 3 10 4 11 5 9 6 4 8 5 9 6 10 7 11 8 12
REMARK H PARENT
REMARK Flexibility Score: 80.00
ROOT
ATOM      1  C   UNL     1       7.537 -21.882  21.111  1.00  0.00     0.048 C 
ATOM      2  C   UNL     1       7.245 -20.455  21.510  1.00  0.00    -0.008 C 
ATOM      3  C   UNL     1       6.720 -20.242  22.736  1.00  0.00     0.007 C 
ENDROOT
BRANCH   2   4
ATOM      4  C   UNL     1       7.630 -19.391  20.549  1.00  0.00     0.159 C 
ATOM      5  O   UNL     1       8.351 -19.697  19.560  1.00  0.00    -0.295 OA
BRANCH   4   6
ATOM      6  C   UNL     1       7.196 -17.963  20.678  1.00  0.00     0.091 CG0
ATOM      7  G   UNL     1       7.668 -17.300  21.991  1.00  0.00     0.000 G0
ENDBRANCH   4   6
ENDBRANCH   2   4
BRANCH   3   8
ATOM      8  C   UNL     1       6.357 -18.973  23.410  1.00  0.00    -0.003 C 
ATOM      9  C   UNL     1       6.750 -17.725  23.126  1.00  0.00    -0.020 C 
BRANCH   9  10
ATOM     10  C   UNL     1       7.664 -17.306  21.999  1.00  0.00    -0.010 CG0
ATOM     11  C   UNL     1       7.549 -15.774  21.826  1.00  0.00     0.016 C 
ATOM     12  C   UNL     1       9.131 -17.637  22.358  1.00  0.00     0.016 C 
ATOM     13  G   UNL     1       7.207 -17.974  20.683  1.00  0.00     0.000 G0
ENDBRANCH   9  10
ENDBRANCH   3   8
TORSDOF 0
ENDMDL
MODEL 5
REMARK VINA RESULT:    -3.194      2.018      3.385
REMARK INTER + INTRA:          -3.189
REMARK INTER:                  -3.939
REMARK INTRA:                   0.749
REMARK UNBOUND:                 0.751
REMARK SMILES CC1=CC=CC(C)(C)CC1=O
REMARK SMILES IDX 1 1 2 2 3 3 10 4 11 5 9 6 4 8 5 9 6 10 7 11 8 12
REMARK H PARENT
REMARK Flexibility Score: 80.00
ROOT
ATOM      1  C   UNL     1       6.680 -20.766  21.877  1.00  0.00     0.048 C 
ATOM      2  C   UNL     1       6.877 -19.761  22.987  1.00  0.00    -0.008 C 
ATOM      3  C   UNL     1       6.782 -20.205  24.259  1.00  0.00     0.007 C 
ENDROOT
BRANCH   2   4
ATOM      4  C   UNL     1       7.233 -18.376  22.589  1.00  0.00     0.159 C 
ATOM      5  O   UNL     1       7.545 -18.149  21.388  1.00  0.00    -0.295 OA
BRANCH   4   6
ATOM      6  C   UNL     1       7.233 -17.217  23.538  1.00  0.00     0.091 CG0
ATOM      7  G   UNL     1       8.185 -17.412  24.738  1.00  0.00     0.000 G0
ENDBRANCH   4   6
ENDBRANCH   2   4
BRANCH   3   8
ATOM      8  C   UNL     1       6.949 -19.474  25.538  1.00  0.00    -0.003 C 
ATOM      9  C   UNL     1       7.543 -18.296  25.765  1.00  0.00    -0.020 C 
BRANCH   9  10
ATOM     10  C   UNL     1       8.179 -17.397  24.730  1.00  0.00    -0.010 CG0
ATOM     11  C   UNL     1       8.396 -16.005  25.367  1.00  0.00     0.016 C 
ATOM     12  C   UNL     1       9.561 -17.956  24.322  1.00  0.00     0.016 C 
ATOM     13  G   UNL     1       7.224 -17.231  23.527  1.00  0.00     0.000 G0
ENDBRANCH   9  10
ENDBRANCH   3   8
TORSDOF 0
ENDMDL
MODEL 6
REMARK VINA RESULT:    -3.191      7.068      8.574
REMARK INTER + INTRA:          -3.186
REMARK INTER:                  -3.950
REMARK INTRA:                   0.763
REMARK UNBOUND:                 0.751
REMARK SMILES CC1=CC=CC(C)(C)CC1=O
REMARK SMILES IDX 1 1 2 2 3 3 10 4 11 5 9 6 4 8 5 9 6 10 7 11 8 12
REMARK H PARENT
REMARK Flexibility Score: 80.00
ROOT
ATOM      1  C   UNL     1      18.315 -21.162  23.629  1.00  0.00     0.048 C 
ATOM      2  C   UNL     1      17.032 -20.366  23.667  1.00  0.00    -0.008 C 
ATOM      3  C   UNL     1      16.859 -19.412  22.727  1.00  0.00     0.007 C 
ENDROOT
BRANCH   2   4
ATOM      4  C   UNL     1      16.030 -20.747  24.693  1.00  0.00     0.159 C 
ATOM      5  O   UNL     1      16.201 -21.815  25.343  1.00  0.00    -0.295 OA
BRANCH   4   6
ATOM      6  C   UNL     1      14.822 -19.923  25.016  1.00  0.00     0.091 CG0
ATOM      7  G   UNL     1      13.885 -19.716  23.805  1.00  0.00     0.000 G0
ENDBRANCH   4   6
ENDBRANCH   2   4
BRANCH   3   8
ATOM      8  C   UNL     1      15.713 -18.501  22.495  1.00  0.00    -0.003 C 
ATOM      9  C   UNL     1      14.450 -18.607  22.925  1.00  0.00    -0.020 C 
BRANCH   9  10
ATOM     10  C   UNL     1      13.889 -19.705  23.799  1.00  0.00    -0.010 CG0
ATOM     11  C   UNL     1      12.511 -19.245  24.328  1.00  0.00     0.016 C 
ATOM     12  C   UNL     1      13.675 -20.988  22.963  1.00  0.00     0.016 C 
ATOM     13  G   UNL     1      14.818 -19.931  25.012  1.00  0.00     0.000 G0
ENDBRANCH   9  10
ENDBRANCH   3   8
TORSDOF 0
ENDMDL
MODEL 7
REMARK VINA RESULT:    -3.190      2.016      3.274
REMARK INTER + INTRA:          -3.184
REMARK INTER:                  -3.934
REMARK INTRA:                   0.750
REMARK UNBOUND:                 0.751
REMARK SMILES CC1=CC=CC(C)(C)CC1=O
REMARK SMILES IDX 1 1 2 2 3 3 10 4 11 5 9 6 4 8 5 9 6 10 7 11 8 12
REMARK H PARENT
REMARK Flexibility Score: 80.00
ROOT
ATOM      1  C   UNL     1       8.632 -14.752  24.727  1.00  0.00     0.048 C 
ATOM      2  C   UNL     1       8.050 -15.834  23.848  1.00  0.00    -0.008 C 
ATOM      3  C   UNL     1       8.357 -15.805  22.533  1.00  0.00     0.007 C 
ENDROOT
BRANCH   2   4
ATOM      4  C   UNL     1       7.245 -16.887  24.515  1.00  0.00     0.159 C 
ATOM      5  O   UNL     1       7.243 -16.944  25.776  1.00  0.00    -0.295 OA
BRANCH   4   6
ATOM      6  C   UNL     1       6.416 -17.889  23.773  1.00  0.00     0.091 CG0
ATOM      7  G   UNL     1       7.238 -18.751  22.789  1.00  0.00     0.000 G0
ENDBRANCH   4   6
ENDBRANCH   2   4
BRANCH   3   8
ATOM      8  C   UNL     1       7.965 -16.730  21.443  1.00  0.00    -0.003 C 
ATOM      9  C   UNL     1       7.503 -17.984  21.526  1.00  0.00    -0.020 C 
BRANCH   9  10
ATOM     10  C   UNL     1       7.241 -18.762  22.795  1.00  0.00    -0.010 CG0
ATOM     11  C   UNL     1       6.387 -20.000  22.436  1.00  0.00     0.016 C 
ATOM     12  C   UNL     1       8.577 -19.261  23.393  1.00  0.00     0.016 C 
ATOM     13  G   UNL     1       6.434 -17.891  23.782  1.00  0.00     0.000 G0
ENDBRANCH   9  10
ENDBRANCH   3   8
TORSDOF 0
ENDMDL
MODEL 8
REMARK VINA RESULT:    -3.176      1.945      2.905
REMARK INTER + INTRA:          -3.168
REMARK INTER:                  -3.917
REMARK INTRA:                   0.749
REMARK UNBOUND:                 0.751
REMARK SMILES CC1=CC=CC(C)(C)CC1=O
REMARK SMILES IDX 1 1 2 2 3 3 10 4 11 5 9 6 4 8 5 9 6 10 7 11 8 12
REMARK H PARENT
REMARK Flexibility Score: 80.00
ROOT
ATOM      1  C   UNL     1      10.925 -14.957  23.248  1.00  0.00     0.048 C 
ATOM      2  C   UNL     1       9.701 -15.637  23.815  1.00  0.00    -0.008 C 
ATOM      3  C   UNL     1       8.514 -15.385  23.224  1.00  0.00     0.007 C 
ENDROOT
BRANCH   2   4
ATOM      4  C   UNL     1       9.914 -16.588  24.935  1.00  0.00     0.159 C 
ATOM      5  O   UNL     1      11.092 -16.942  25.216  1.00  0.00    -0.295 OA
BRANCH   4   6
ATOM      6  C   UNL     1       8.802 -17.149  25.767  1.00  0.00     0.091 CG0
ATOM      7  G   UNL     1       7.778 -17.963  24.945  1.00  0.00     0.000 G0
ENDBRANCH   4   6
ENDBRANCH   2   4
BRANCH   3   8
ATOM      8  C   UNL     1       7.164 -15.914  23.533  1.00  0.00    -0.003 C 
ATOM      9  C   UNL     1       6.826 -16.997  24.244  1.00  0.00    -0.020 C 
BRANCH   9  10
ATOM     10  C   UNL     1       7.772 -17.946  24.941  1.00  0.00    -0.010 CG0
ATOM     11  C   UNL     1       6.953 -18.810  25.927  1.00  0.00     0.016 C 
ATOM     12  C   UNL     1       8.428 -18.891  23.909  1.00  0.00     0.016 C 
ATOM     13  G   UNL     1       8.809 -17.141  25.755  1.00  0.00     0.000 G0
ENDBRANCH   9  10
ENDBRANCH   3   8
TORSDOF 0
ENDMDL
MODEL 9
REMARK VINA RESULT:    -3.132      3.283      4.615
REMARK INTER + INTRA:          -3.113
REMARK INTER:                  -3.865
REMARK INTRA:                   0.752
REMARK UNBOUND:                 0.751
REMARK SMILES CC1=CC=CC(C)(C)CC1=O
REMARK SMILES IDX 1 1 2 2 3 3 10 4 11 5 9 6 4 8 5 9 6 10 7 11 8 12
REMARK H PARENT
REMARK Flexibility Score: 80.00
ROOT
ATOM      1  C   UNL     1       6.446 -17.683  24.591  1.00  0.00     0.048 C 
ATOM      2  C   UNL     1       6.790 -18.288  23.250  1.00  0.00    -0.008 C 
ATOM      3  C   UNL     1       7.171 -17.448  22.264  1.00  0.00     0.007 C 
ENDROOT
BRANCH   2   4
ATOM      4  C   UNL     1       6.753 -19.768  23.146  1.00  0.00     0.159 C 
ATOM      5  O   UNL     1       6.643 -20.449  24.202  1.00  0.00    -0.295 OA
BRANCH   4   6
ATOM      6  C   UNL     1       6.828 -20.508  21.846  1.00  0.00     0.091 CG0
ATOM      7  G   UNL     1       8.117 -20.210  21.049  1.00  0.00     0.000 G0
ENDBRANCH   4   6
ENDBRANCH   2   4
BRANCH   3   8
ATOM      8  C   UNL     1       7.589 -17.740  20.872  1.00  0.00    -0.003 C 
ATOM      9  C   UNL     1       8.004 -18.898  20.341  1.00  0.00    -0.020 C 
BRANCH   9  10
ATOM     10  C   UNL     1       8.121 -20.223  21.057  1.00  0.00    -0.010 CG0
ATOM     11  C   UNL     1       8.282 -21.335  19.995  1.00  0.00     0.016 C 
ATOM     12  C   UNL     1       9.383 -20.230  21.951  1.00  0.00     0.016 C 
ATOM     13  G   UNL     1       6.826 -20.501  21.852  1.00  0.00     0.000 G0
ENDBRANCH   9  10
ENDBRANCH   3   8
TORSDOF 0
ENDMDL
