MODEL 1
REMARK VINA RESULT:    -2.007      0.000      0.000
REMARK INTER + INTRA:          -2.007
REMARK INTER:                  -2.007
REMARK INTRA:                   0.000
REMARK UNBOUND:                 0.000
REMARK SMILES CC1=CC(=O)[C@H]2C[C@@H]1C2(C)C
REMARK SMILES IDX 1 1 2 2 3 3 4 4 5 5 6 6 7 7 8 8 9 9 10 10 11 11
REMARK H PARENT
REMARK Flexibility Score: inf
ROOT
ATOM      1  C   UNL     1       8.021  -8.118 -21.197  1.00  0.00     0.040 C 
ATOM      2  C   UNL     1       7.435  -7.243 -22.259  1.00  0.00    -0.066 C 
ATOM      3  C   UNL     1       6.191  -7.473 -22.760  1.00  0.00     0.047 C 
ATOM      4  C   UNL     1       5.730  -6.545 -23.844  1.00  0.00     0.159 C 
ATOM      5  O   UNL     1       4.616  -6.678 -24.413  1.00  0.00    -0.295 OA
ATOM      6  C   UNL     1       6.708  -5.427 -24.207  1.00  0.00     0.067 C 
ATOM      7  C   UNL     1       7.175  -4.876 -22.842  1.00  0.00     0.021 C 
ATOM      8  C   UNL     1       8.202  -6.030 -22.825  1.00  0.00     0.022 C 
ATOM      9  C   UNL     1       8.125  -6.046 -24.380  1.00  0.00    -0.019 C 
ATOM     10  C   UNL     1       9.124  -5.058 -25.031  1.00  0.00     0.012 C 
ATOM     11  C   UNL     1       8.249  -7.415 -25.107  1.00  0.00     0.012 C 
ENDROOT
TORSDOF 0
ENDMDL
MODEL 2
REMARK VINA RESULT:    -0.346      1.774      3.057
REMARK INTER + INTRA:          -0.346
REMARK INTER:                  -0.346
REMARK INTRA:                   0.000
REMARK UNBOUND:                 0.000
REMARK SMILES CC1=CC(=O)[C@H]2C[C@@H]1C2(C)C
REMARK SMILES IDX 1 1 2 2 3 3 4 4 5 5 6 6 7 7 8 8 9 9 10 10 11 11
REMARK H PARENT
REMARK Flexibility Score: inf
ROOT
ATOM      1  C   UNL     1       7.161  -8.190 -21.355  1.00  0.00     0.040 C 
ATOM      2  C   UNL     1       7.237  -7.352 -22.592  1.00  0.00    -0.066 C 
ATOM      3  C   UNL     1       8.289  -6.520 -22.821  1.00  0.00     0.047 C 
ATOM      4  C   UNL     1       8.232  -5.710 -24.082  1.00  0.00     0.159 C 
ATOM      5  O   UNL     1       9.125  -4.876 -24.385  1.00  0.00    -0.295 OA
ATOM      6  C   UNL     1       7.015  -5.967 -24.970  1.00  0.00     0.067 C 
ATOM      7  C   UNL     1       6.900  -7.506 -25.016  1.00  0.00     0.021 C 
ATOM      8  C   UNL     1       6.139  -7.403 -23.675  1.00  0.00     0.022 C 
ATOM      9  C   UNL     1       5.740  -5.954 -24.079  1.00  0.00    -0.019 C 
ATOM     10  C   UNL     1       4.436  -5.911 -24.915  1.00  0.00     0.012 C 
ATOM     11  C   UNL     1       5.634  -4.883 -22.956  1.00  0.00     0.012 C 
ENDROOT
TORSDOF 0
ENDMDL
MODEL 3
REMARK VINA RESULT:    -0.079      1.758      3.163
REMARK INTER + INTRA:          -0.079
REMARK INTER:                  -0.079
REMARK INTRA:                   0.000
REMARK UNBOUND:                 0.000
REMARK SMILES CC1=CC(=O)[C@H]2C[C@@H]1C2(C)C
REMARK SMILES IDX 1 1 2 2 3 3 4 4 5 5 6 6 7 7 8 8 9 9 10 10 11 11
REMARK H PARENT
REMARK Flexibility Score: inf
ROOT
ATOM      1  C   UNL     1       5.047  -5.572 -24.207  1.00  0.00     0.040 C 
ATOM      2  C   UNL     1       6.467  -6.023 -24.078  1.00  0.00    -0.066 C 
ATOM      3  C   UNL     1       6.943  -7.078 -24.794  1.00  0.00     0.047 C 
ATOM      4  C   UNL     1       8.375  -7.452 -24.552  1.00  0.00     0.159 C 
ATOM      5  O   UNL     1       8.919  -8.432 -25.124  1.00  0.00    -0.295 OA
ATOM      6  C   UNL     1       9.125  -6.561 -23.561  1.00  0.00     0.067 C 
ATOM      7  C   UNL     1       8.746  -5.125 -23.984  1.00  0.00     0.021 C 
ATOM      8  C   UNL     1       7.464  -5.308 -23.142  1.00  0.00     0.022 C 
ATOM      9  C   UNL     1       8.236  -6.365 -22.300  1.00  0.00    -0.019 C 
ATOM     10  C   UNL     1       9.015  -5.727 -21.122  1.00  0.00     0.012 C 
ATOM     11  C   UNL     1       7.446  -7.589 -21.756  1.00  0.00     0.012 C 
ENDROOT
TORSDOF 0
ENDMDL
