MODEL 1
REMARK VINA RESULT:    -5.495      0.000      0.000
REMARK INTER + INTRA:          -5.977
REMARK INTER:                  -5.977
REMARK INTRA:                   0.000
REMARK UNBOUND:                 0.000
REMARK SMILES Cc1cc(O)c2c(c1)C(=O)c1cc(O)cc(O)c1C2=O
REMARK SMILES IDX 1 1 2 2 8 3 7 4 6 5 4 6 3 7 19 8 20 9 18 10 11 11 9 12 10 13
REMARK SMILES IDX 12 14 13 15 15 16 16 17 5 18 17 20 14 22
REMARK H PARENT 5 19 17 21 14 23
REMARK Flexibility Score: inf
ROOT
ATOM      1  C   UNL     1      19.773   3.124   9.683  1.00  0.00     0.044 C 
ATOM      2  C   UNL     1      19.950   1.840   8.928  1.00  0.00    -0.047 A 
ATOM      3  C   UNL     1      19.416   1.700   7.641  1.00  0.00     0.016 A 
ATOM      4  C   UNL     1      19.542   0.489   6.940  1.00  0.00     0.038 A 
ATOM      5  C   UNL     1      20.209  -0.602   7.538  1.00  0.00     0.076 A 
ATOM      6  C   UNL     1      20.723  -0.466   8.848  1.00  0.00     0.127 A 
ATOM      7  C   UNL     1      20.585   0.749   9.532  1.00  0.00     0.050 A 
ATOM      8  C   UNL     1      20.371  -1.862   6.767  1.00  0.00     0.201 C 
ATOM      9  O   UNL     1      21.250  -2.694   7.117  1.00  0.00    -0.288 OA
ATOM     10  C   UNL     1      19.581  -2.087   5.524  1.00  0.00     0.076 A 
ATOM     11  C   UNL     1      18.968  -0.971   4.907  1.00  0.00     0.041 A 
ATOM     12  C   UNL     1      18.980   0.352   5.577  1.00  0.00     0.194 C 
ATOM     13  O   UNL     1      18.495   1.359   4.993  1.00  0.00    -0.289 OA
ATOM     14  C   UNL     1      18.340  -1.119   3.659  1.00  0.00     0.059 A 
ATOM     15  C   UNL     1      18.298  -2.364   3.028  1.00  0.00     0.120 A 
ATOM     16  C   UNL     1      18.858  -3.476   3.653  1.00  0.00     0.093 A 
ATOM     17  C   UNL     1      19.466  -3.362   4.907  1.00  0.00     0.131 A 
ENDROOT
BRANCH   6  18
ATOM     18  O   UNL     1      21.359  -1.535   9.478  1.00  0.00    -0.507 OA
ATOM     19  H   UNL     1      21.344  -1.647  10.485  1.00  0.00     0.293 HD
ENDBRANCH   6  18
BRANCH  17  20
ATOM     20  O   UNL     1      19.905  -4.543   5.511  1.00  0.00    -0.507 OA
ATOM     21  H   UNL     1      19.326  -5.118   6.106  1.00  0.00     0.293 HD
ENDBRANCH  17  20
BRANCH  15  22
ATOM     22  O   UNL     1      17.690  -2.510   1.782  1.00  0.00    -0.508 OA
ATOM     23  H   UNL     1      16.979  -1.863   1.459  1.00  0.00     0.293 HD
ENDBRANCH  15  22
TORSDOF 3
ENDMDL
MODEL 2
REMARK VINA RESULT:    -5.492      1.573      3.392
REMARK INTER + INTRA:          -5.973
REMARK INTER:                  -5.973
REMARK INTRA:                   0.000
REMARK UNBOUND:                 0.000
REMARK SMILES Cc1cc(O)c2c(c1)C(=O)c1cc(O)cc(O)c1C2=O
REMARK SMILES IDX 1 1 2 2 8 3 7 4 6 5 4 6 3 7 19 8 20 9 18 10 11 11 9 12 10 13
REMARK SMILES IDX 12 14 13 15 15 16 16 17 5 18 17 20 14 22
REMARK H PARENT 5 19 17 21 14 23
REMARK Flexibility Score: inf
ROOT
ATOM      1  C   UNL     1      23.129  -1.578  10.014  1.00  0.00     0.044 C 
ATOM      2  C   UNL     1      22.027  -1.226   9.059  1.00  0.00    -0.047 A 
ATOM      3  C   UNL     1      21.530  -2.190   8.171  1.00  0.00     0.016 A 
ATOM      4  C   UNL     1      20.525  -1.861   7.245  1.00  0.00     0.038 A 
ATOM      5  C   UNL     1      20.012  -0.548   7.203  1.00  0.00     0.076 A 
ATOM      6  C   UNL     1      20.535   0.429   8.082  1.00  0.00     0.127 A 
ATOM      7  C   UNL     1      21.538   0.083   8.996  1.00  0.00     0.050 A 
ATOM      8  C   UNL     1      18.919  -0.227   6.247  1.00  0.00     0.201 C 
ATOM      9  O   UNL     1      18.213   0.799   6.435  1.00  0.00    -0.288 OA
ATOM     10  C   UNL     1      18.589  -1.172   5.144  1.00  0.00     0.076 A 
ATOM     11  C   UNL     1      19.064  -2.502   5.234  1.00  0.00     0.041 A 
ATOM     12  C   UNL     1      20.001  -2.887   6.316  1.00  0.00     0.194 C 
ATOM     13  O   UNL     1      20.368  -4.089   6.434  1.00  0.00    -0.289 OA
ATOM     14  C   UNL     1      18.652  -3.457   4.289  1.00  0.00     0.059 A 
ATOM     15  C   UNL     1      17.790  -3.102   3.249  1.00  0.00     0.120 A 
ATOM     16  C   UNL     1      17.357  -1.783   3.129  1.00  0.00     0.093 A 
ATOM     17  C   UNL     1      17.772  -0.806   4.039  1.00  0.00     0.131 A 
ENDROOT
BRANCH   6  18
ATOM     18  O   UNL     1      20.070   1.743   8.043  1.00  0.00    -0.507 OA
ATOM     19  H   UNL     1      19.283   2.014   7.465  1.00  0.00     0.293 HD
ENDBRANCH   6  18
BRANCH  17  20
ATOM     20  O   UNL     1      17.380   0.510   3.785  1.00  0.00    -0.507 OA
ATOM     21  H   UNL     1      17.766   1.313   4.262  1.00  0.00     0.293 HD
ENDBRANCH  17  20
BRANCH  15  22
ATOM     22  O   UNL     1      17.366  -4.050   2.321  1.00  0.00    -0.508 OA
ATOM     23  H   UNL     1      16.549  -3.897   1.740  1.00  0.00     0.293 HD
ENDBRANCH  15  22
TORSDOF 3
ENDMDL
MODEL 3
REMARK VINA RESULT:    -5.217      2.929      6.201
REMARK INTER + INTRA:          -5.675
REMARK INTER:                  -5.675
REMARK INTRA:                   0.000
REMARK UNBOUND:                 0.000
REMARK SMILES Cc1cc(O)c2c(c1)C(=O)c1cc(O)cc(O)c1C2=O
REMARK SMILES IDX 1 1 2 2 8 3 7 4 6 5 4 6 3 7 19 8 20 9 18 10 11 11 9 12 10 13
REMARK SMILES IDX 12 14 13 15 15 16 16 17 5 18 17 20 14 22
REMARK H PARENT 5 19 17 21 14 23
REMARK Flexibility Score: inf
ROOT
ATOM      1  C   UNL     1      15.859  -5.129   4.748  1.00  0.00     0.044 C 
ATOM      2  C   UNL     1      17.007  -4.241   4.369  1.00  0.00    -0.047 A 
ATOM      3  C   UNL     1      18.041  -3.997   5.282  1.00  0.00     0.016 A 
ATOM      4  C   UNL     1      19.101  -3.135   4.951  1.00  0.00     0.038 A 
ATOM      5  C   UNL     1      19.124  -2.503   3.690  1.00  0.00     0.076 A 
ATOM      6  C   UNL     1      18.065  -2.730   2.781  1.00  0.00     0.127 A 
ATOM      7  C   UNL     1      17.016  -3.591   3.130  1.00  0.00     0.050 A 
ATOM      8  C   UNL     1      20.274  -1.628   3.340  1.00  0.00     0.201 C 
ATOM      9  O   UNL     1      20.500  -1.357   2.130  1.00  0.00    -0.288 OA
ATOM     10  C   UNL     1      21.217  -1.172   4.398  1.00  0.00     0.076 A 
ATOM     11  C   UNL     1      21.219  -1.856   5.636  1.00  0.00     0.041 A 
ATOM     12  C   UNL     1      20.193  -2.888   5.919  1.00  0.00     0.194 C 
ATOM     13  O   UNL     1      20.240  -3.545   6.996  1.00  0.00    -0.289 OA
ATOM     14  C   UNL     1      22.192  -1.550   6.603  1.00  0.00     0.059 A 
ATOM     15  C   UNL     1      23.149  -0.563   6.360  1.00  0.00     0.120 A 
ATOM     16  C   UNL     1      23.122   0.147   5.162  1.00  0.00     0.093 A 
ATOM     17  C   UNL     1      22.150  -0.118   4.193  1.00  0.00     0.131 A 
ENDROOT
BRANCH   6  18
ATOM     18  O   UNL     1      18.044  -2.096   1.539  1.00  0.00    -0.507 OA
ATOM     19  H   UNL     1      17.585  -1.203   1.404  1.00  0.00     0.293 HD
ENDBRANCH   6  18
BRANCH  17  20
ATOM     20  O   UNL     1      22.127   0.711   3.069  1.00  0.00    -0.507 OA
ATOM     21  H   UNL     1      21.511   1.505   2.970  1.00  0.00     0.293 HD
ENDBRANCH  17  20
BRANCH  15  22
ATOM     22  O   UNL     1      24.125  -0.269   7.311  1.00  0.00    -0.508 OA
ATOM     23  H   UNL     1      25.009   0.153   7.050  1.00  0.00     0.293 HD
ENDBRANCH  15  22
TORSDOF 3
ENDMDL
MODEL 4
REMARK VINA RESULT:    -5.212      2.994      5.409
REMARK INTER + INTRA:          -5.669
REMARK INTER:                  -5.669
REMARK INTRA:                   0.000
REMARK UNBOUND:                 0.000
REMARK SMILES Cc1cc(O)c2c(c1)C(=O)c1cc(O)cc(O)c1C2=O
REMARK SMILES IDX 1 1 2 2 8 3 7 4 6 5 4 6 3 7 19 8 20 9 18 10 11 11 9 12 10 13
REMARK SMILES IDX 12 14 13 15 15 16 16 17 5 18 17 20 14 22
REMARK H PARENT 5 19 17 21 14 23
REMARK Flexibility Score: inf
ROOT
ATOM      1  C   UNL     1      15.948  -5.186   3.609  1.00  0.00     0.044 C 
ATOM      2  C   UNL     1      16.902  -4.087   3.973  1.00  0.00    -0.047 A 
ATOM      3  C   UNL     1      17.219  -3.092   3.040  1.00  0.00     0.016 A 
ATOM      4  C   UNL     1      18.141  -2.079   3.356  1.00  0.00     0.038 A 
ATOM      5  C   UNL     1      18.761  -2.066   4.623  1.00  0.00     0.076 A 
ATOM      6  C   UNL     1      18.460  -3.088   5.553  1.00  0.00     0.127 A 
ATOM      7  C   UNL     1      17.539  -4.089   5.219  1.00  0.00     0.050 A 
ATOM      8  C   UNL     1      19.703  -0.965   4.957  1.00  0.00     0.201 C 
ATOM      9  O   UNL     1      19.976  -0.728   6.164  1.00  0.00    -0.288 OA
ATOM     10  C   UNL     1      20.227  -0.077   3.883  1.00  0.00     0.076 A 
ATOM     11  C   UNL     1      19.556  -0.061   2.637  1.00  0.00     0.041 A 
ATOM     12  C   UNL     1      18.465  -1.028   2.366  1.00  0.00     0.194 C 
ATOM     13  O   UNL     1      17.823  -0.965   1.282  1.00  0.00    -0.289 OA
ATOM     14  C   UNL     1      19.932   0.868   1.652  1.00  0.00     0.059 A 
ATOM     15  C   UNL     1      20.974   1.768   1.884  1.00  0.00     0.120 A 
ATOM     16  C   UNL     1      21.669   1.725   3.091  1.00  0.00     0.093 A 
ATOM     17  C   UNL     1      21.335   0.794   4.078  1.00  0.00     0.131 A 
ENDROOT
BRANCH   6  18
ATOM     18  O   UNL     1      19.079  -3.119   6.802  1.00  0.00    -0.507 OA
ATOM     19  H   UNL     1      18.742  -3.714   7.550  1.00  0.00     0.293 HD
ENDBRANCH   6  18
BRANCH  17  20
ATOM     20  O   UNL     1      22.150   0.745   5.212  1.00  0.00    -0.507 OA
ATOM     21  H   UNL     1      22.237  -0.066   5.807  1.00  0.00     0.293 HD
ENDBRANCH  17  20
BRANCH  15  22
ATOM     22  O   UNL     1      21.337   2.701   0.915  1.00  0.00    -0.508 OA
ATOM     23  H   UNL     1      21.893   3.517   1.147  1.00  0.00     0.293 HD
ENDBRANCH  15  22
TORSDOF 3
ENDMDL
MODEL 5
REMARK VINA RESULT:    -5.154      3.107      5.970
REMARK INTER + INTRA:          -5.606
REMARK INTER:                  -5.606
REMARK INTRA:                   0.000
REMARK UNBOUND:                 0.000
REMARK SMILES Cc1cc(O)c2c(c1)C(=O)c1cc(O)cc(O)c1C2=O
REMARK SMILES IDX 1 1 2 2 8 3 7 4 6 5 4 6 3 7 19 8 20 9 18 10 11 11 9 12 10 13
REMARK SMILES IDX 12 14 13 15 15 16 16 17 5 18 17 20 14 22
REMARK H PARENT 5 19 17 21 14 23
REMARK Flexibility Score: inf
ROOT
ATOM      1  C   UNL     1      22.290   3.123   0.367  1.00  0.00     0.044 C 
ATOM      2  C   UNL     1      21.307   2.056   0.752  1.00  0.00    -0.047 A 
ATOM      3  C   UNL     1      21.341   1.497   2.036  1.00  0.00     0.016 A 
ATOM      4  C   UNL     1      20.452   0.470   2.395  1.00  0.00     0.038 A 
ATOM      5  C   UNL     1      19.517  -0.010   1.453  1.00  0.00     0.076 A 
ATOM      6  C   UNL     1      19.504   0.538   0.149  1.00  0.00     0.127 A 
ATOM      7  C   UNL     1      20.400   1.560  -0.191  1.00  0.00     0.050 A 
ATOM      8  C   UNL     1      18.555  -1.067   1.861  1.00  0.00     0.201 C 
ATOM      9  O   UNL     1      17.507  -1.246   1.184  1.00  0.00    -0.288 OA
ATOM     10  C   UNL     1      18.771  -1.829   3.122  1.00  0.00     0.076 A 
ATOM     11  C   UNL     1      19.668  -1.301   4.081  1.00  0.00     0.041 A 
ATOM     12  C   UNL     1      20.490  -0.111   3.756  1.00  0.00     0.194 C 
ATOM     13  O   UNL     1      21.237   0.399   4.636  1.00  0.00    -0.289 OA
ATOM     14  C   UNL     1      19.786  -1.913   5.340  1.00  0.00     0.059 A 
ATOM     15  C   UNL     1      19.037  -3.050   5.651  1.00  0.00     0.120 A 
ATOM     16  C   UNL     1      18.188  -3.601   4.694  1.00  0.00     0.093 A 
ATOM     17  C   UNL     1      18.070  -3.029   3.424  1.00  0.00     0.131 A 
ENDROOT
BRANCH   6  18
ATOM     18  O   UNL     1      18.613   0.063  -0.814  1.00  0.00    -0.507 OA
ATOM     19  H   UNL     1      17.759  -0.419  -0.559  1.00  0.00     0.293 HD
ENDBRANCH   6  18
BRANCH  17  20
ATOM     20  O   UNL     1      17.281  -3.705   2.490  1.00  0.00    -0.507 OA
ATOM     21  H   UNL     1      16.458  -3.309   2.059  1.00  0.00     0.293 HD
ENDBRANCH  17  20
BRANCH  15  22
ATOM     22  O   UNL     1      19.140  -3.649   6.905  1.00  0.00    -0.508 OA
ATOM     23  H   UNL     1      19.939  -3.484   7.507  1.00  0.00     0.293 HD
ENDBRANCH  15  22
TORSDOF 3
ENDMDL
MODEL 6
REMARK VINA RESULT:    -5.142      2.025      5.218
REMARK INTER + INTRA:          -5.593
REMARK INTER:                  -5.593
REMARK INTRA:                   0.000
REMARK UNBOUND:                 0.000
REMARK SMILES Cc1cc(O)c2c(c1)C(=O)c1cc(O)cc(O)c1C2=O
REMARK SMILES IDX 1 1 2 2 8 3 7 4 6 5 4 6 3 7 19 8 20 9 18 10 11 11 9 12 10 13
REMARK SMILES IDX 12 14 13 15 15 16 16 17 5 18 17 20 14 22
REMARK H PARENT 5 19 17 21 14 23
REMARK Flexibility Score: inf
ROOT
ATOM      1  C   UNL     1      18.490   1.936   1.424  1.00  0.00     0.044 C 
ATOM      2  C   UNL     1      18.650   0.726   2.297  1.00  0.00    -0.047 A 
ATOM      3  C   UNL     1      19.268   0.837   3.548  1.00  0.00     0.016 A 
ATOM      4  C   UNL     1      19.458  -0.297   4.357  1.00  0.00     0.038 A 
ATOM      5  C   UNL     1      19.028  -1.562   3.905  1.00  0.00     0.076 A 
ATOM      6  C   UNL     1      18.429  -1.675   2.629  1.00  0.00     0.127 A 
ATOM      7  C   UNL     1      18.250  -0.534   1.836  1.00  0.00     0.050 A 
ATOM      8  C   UNL     1      19.199  -2.744   4.790  1.00  0.00     0.201 C 
ATOM      9  O   UNL     1      18.516  -3.781   4.577  1.00  0.00    -0.288 OA
ATOM     10  C   UNL     1      20.083  -2.662   5.986  1.00  0.00     0.076 A 
ATOM     11  C   UNL     1      20.455  -1.382   6.460  1.00  0.00     0.041 A 
ATOM     12  C   UNL     1      20.107  -0.169   5.682  1.00  0.00     0.194 C 
ATOM     13  O   UNL     1      20.379   0.974   6.141  1.00  0.00    -0.289 OA
ATOM     14  C   UNL     1      21.165  -1.262   7.666  1.00  0.00     0.059 A 
ATOM     15  C   UNL     1      21.523  -2.397   8.396  1.00  0.00     0.120 A 
ATOM     16  C   UNL     1      21.200  -3.662   7.910  1.00  0.00     0.093 A 
ATOM     17  C   UNL     1      20.518  -3.813   6.700  1.00  0.00     0.131 A 
ENDROOT
BRANCH   6  18
ATOM     18  O   UNL     1      18.023  -2.916   2.140  1.00  0.00    -0.507 OA
ATOM     19  H   UNL     1      17.939  -3.726   2.744  1.00  0.00     0.293 HD
ENDBRANCH   6  18
BRANCH  17  20
ATOM     20  O   UNL     1      20.329  -5.115   6.231  1.00  0.00    -0.507 OA
ATOM     21  H   UNL     1      19.470  -5.443   5.814  1.00  0.00     0.293 HD
ENDBRANCH  17  20
BRANCH  15  22
ATOM     22  O   UNL     1      22.212  -2.280   9.602  1.00  0.00    -0.508 OA
ATOM     23  H   UNL     1      22.581  -3.093  10.083  1.00  0.00     0.293 HD
ENDBRANCH  15  22
TORSDOF 3
ENDMDL
MODEL 7
REMARK VINA RESULT:    -5.127     12.035     14.893
REMARK INTER + INTRA:          -5.576
REMARK INTER:                  -5.576
REMARK INTRA:                   0.000
REMARK UNBOUND:                 0.000
REMARK SMILES Cc1cc(O)c2c(c1)C(=O)c1cc(O)cc(O)c1C2=O
REMARK SMILES IDX 1 1 2 2 8 3 7 4 6 5 4 6 3 7 19 8 20 9 18 10 11 11 9 12 10 13
REMARK SMILES IDX 12 14 13 15 15 16 16 17 5 18 17 20 14 22
REMARK H PARENT 5 19 17 21 14 23
REMARK Flexibility Score: inf
ROOT
ATOM      1  C   UNL     1       3.875   1.748   2.114  1.00  0.00     0.044 C 
ATOM      2  C   UNL     1       4.768   1.705   0.909  1.00  0.00    -0.047 A 
ATOM      3  C   UNL     1       6.058   1.168   1.007  1.00  0.00     0.016 A 
ATOM      4  C   UNL     1       6.917   1.158  -0.105  1.00  0.00     0.038 A 
ATOM      5  C   UNL     1       6.481   1.700  -1.333  1.00  0.00     0.076 A 
ATOM      6  C   UNL     1       5.189   2.266  -1.421  1.00  0.00     0.127 A 
ATOM      7  C   UNL     1       4.348   2.268  -0.301  1.00  0.00     0.050 A 
ATOM      8  C   UNL     1       7.387   1.644  -2.511  1.00  0.00     0.201 C 
ATOM      9  O   UNL     1       6.907   1.777  -3.668  1.00  0.00    -0.288 OA
ATOM     10  C   UNL     1       8.829   1.318  -2.332  1.00  0.00     0.076 A 
ATOM     11  C   UNL     1       9.237   0.721  -1.115  1.00  0.00     0.041 A 
ATOM     12  C   UNL     1       8.276   0.583   0.005  1.00  0.00     0.194 C 
ATOM     13  O   UNL     1       8.623  -0.012   1.063  1.00  0.00    -0.289 OA
ATOM     14  C   UNL     1      10.559   0.268  -0.967  1.00  0.00     0.059 A 
ATOM     15  C   UNL     1      11.481   0.415  -2.005  1.00  0.00     0.120 A 
ATOM     16  C   UNL     1      11.097   1.045  -3.188  1.00  0.00     0.093 A 
ATOM     17  C   UNL     1       9.797   1.530  -3.352  1.00  0.00     0.131 A 
ENDROOT
BRANCH   6  18
ATOM     18  O   UNL     1       4.741   2.837  -2.612  1.00  0.00    -0.507 OA
ATOM     19  H   UNL     1       4.356   3.774  -2.643  1.00  0.00     0.293 HD
ENDBRANCH   6  18
BRANCH  17  20
ATOM     20  O   UNL     1       9.525   2.243  -4.523  1.00  0.00    -0.507 OA
ATOM     21  H   UNL     1      10.056   2.144  -5.376  1.00  0.00     0.293 HD
ENDBRANCH  17  20
BRANCH  15  22
ATOM     22  O   UNL     1      12.788  -0.049  -1.867  1.00  0.00    -0.508 OA
ATOM     23  H   UNL     1      12.988  -0.959  -1.469  1.00  0.00     0.293 HD
ENDBRANCH  15  22
TORSDOF 3
ENDMDL
MODEL 8
REMARK VINA RESULT:    -5.041      2.133      2.198
REMARK INTER + INTRA:          -5.483
REMARK INTER:                  -5.483
REMARK INTRA:                   0.000
REMARK UNBOUND:                 0.000
REMARK SMILES Cc1cc(O)c2c(c1)C(=O)c1cc(O)cc(O)c1C2=O
REMARK SMILES IDX 1 1 2 2 8 3 7 4 6 5 4 6 3 7 19 8 20 9 18 10 11 11 9 12 10 13
REMARK SMILES IDX 12 14 13 15 15 16 16 17 5 18 17 20 14 22
REMARK H PARENT 5 19 17 21 14 23
REMARK Flexibility Score: inf
ROOT
ATOM      1  C   UNL     1      23.815   1.399   8.174  1.00  0.00     0.044 C 
ATOM      2  C   UNL     1      22.855   0.362   7.670  1.00  0.00    -0.047 A 
ATOM      3  C   UNL     1      22.317   0.467   6.381  1.00  0.00     0.016 A 
ATOM      4  C   UNL     1      21.387  -0.478   5.913  1.00  0.00     0.038 A 
ATOM      5  C   UNL     1      20.985  -1.541   6.749  1.00  0.00     0.076 A 
ATOM      6  C   UNL     1      21.510  -1.628   8.060  1.00  0.00     0.127 A 
ATOM      7  C   UNL     1      22.434  -0.676   8.509  1.00  0.00     0.050 A 
ATOM      8  C   UNL     1      20.033  -2.555   6.225  1.00  0.00     0.201 C 
ATOM      9  O   UNL     1      19.946  -3.675   6.794  1.00  0.00    -0.288 OA
ATOM     10  C   UNL     1      19.276  -2.292   4.970  1.00  0.00     0.076 A 
ATOM     11  C   UNL     1      19.729  -1.259   4.115  1.00  0.00     0.041 A 
ATOM     12  C   UNL     1      20.828  -0.363   4.547  1.00  0.00     0.194 C 
ATOM     13  O   UNL     1      21.277   0.511   3.756  1.00  0.00    -0.289 OA
ATOM     14  C   UNL     1      19.129  -1.078   2.857  1.00  0.00     0.059 A 
ATOM     15  C   UNL     1      18.076  -1.898   2.448  1.00  0.00     0.120 A 
ATOM     16  C   UNL     1      17.594  -2.886   3.305  1.00  0.00     0.093 A 
ATOM     17  C   UNL     1      18.154  -3.070   4.572  1.00  0.00     0.131 A 
ENDROOT
BRANCH   6  18
ATOM     18  O   UNL     1      21.109  -2.649   8.921  1.00  0.00    -0.507 OA
ATOM     19  H   UNL     1      21.146  -2.543   9.928  1.00  0.00     0.293 HD
ENDBRANCH   6  18
BRANCH  17  20
ATOM     20  O   UNL     1      17.543  -4.007   5.409  1.00  0.00    -0.507 OA
ATOM     21  H   UNL     1      17.499  -4.996   5.207  1.00  0.00     0.293 HD
ENDBRANCH  17  20
BRANCH  15  22
ATOM     22  O   UNL     1      17.491  -1.732   1.194  1.00  0.00    -0.508 OA
ATOM     23  H   UNL     1      17.823  -1.030   0.542  1.00  0.00     0.293 HD
ENDBRANCH  15  22
TORSDOF 3
ENDMDL
MODEL 9
REMARK VINA RESULT:    -4.987      1.904      6.157
REMARK INTER + INTRA:          -5.424
REMARK INTER:                  -5.424
REMARK INTRA:                   0.000
REMARK UNBOUND:                 0.000
REMARK SMILES Cc1cc(O)c2c(c1)C(=O)c1cc(O)cc(O)c1C2=O
REMARK SMILES IDX 1 1 2 2 8 3 7 4 6 5 4 6 3 7 19 8 20 9 18 10 11 11 9 12 10 13
REMARK SMILES IDX 12 14 13 15 15 16 16 17 5 18 17 20 14 22
REMARK H PARENT 5 19 17 21 14 23
REMARK Flexibility Score: inf
ROOT
ATOM      1  C   UNL     1      16.994  -4.155   3.353  1.00  0.00     0.044 C 
ATOM      2  C   UNL     1      17.763  -3.178   4.194  1.00  0.00    -0.047 A 
ATOM      3  C   UNL     1      18.751  -3.633   5.076  1.00  0.00     0.016 A 
ATOM      4  C   UNL     1      19.450  -2.731   5.897  1.00  0.00     0.038 A 
ATOM      5  C   UNL     1      19.152  -1.353   5.838  1.00  0.00     0.076 A 
ATOM      6  C   UNL     1      18.134  -0.901   4.966  1.00  0.00     0.127 A 
ATOM      7  C   UNL     1      17.447  -1.816   4.158  1.00  0.00     0.050 A 
ATOM      8  C   UNL     1      19.929  -0.408   6.682  1.00  0.00     0.201 C 
ATOM      9  O   UNL     1      19.940   0.818   6.390  1.00  0.00    -0.288 OA
ATOM     10  C   UNL     1      20.779  -0.920   7.792  1.00  0.00     0.076 A 
ATOM     11  C   UNL     1      21.115  -2.294   7.801  1.00  0.00     0.041 A 
ATOM     12  C   UNL     1      20.497  -3.220   6.821  1.00  0.00     0.194 C 
ATOM     13  O   UNL     1      20.852  -4.430   6.787  1.00  0.00    -0.289 OA
ATOM     14  C   UNL     1      22.032  -2.784   8.748  1.00  0.00     0.059 A 
ATOM     15  C   UNL     1      22.602  -1.929   9.692  1.00  0.00     0.120 A 
ATOM     16  C   UNL     1      22.238  -0.585   9.718  1.00  0.00     0.093 A 
ATOM     17  C   UNL     1      21.309  -0.076   8.806  1.00  0.00     0.131 A 
ENDROOT
BRANCH   6  18
ATOM     18  O   UNL     1      17.795   0.450   4.909  1.00  0.00    -0.507 OA
ATOM     19  H   UNL     1      17.153   0.811   4.212  1.00  0.00     0.293 HD
ENDBRANCH   6  18
BRANCH  17  20
ATOM     20  O   UNL     1      20.918   1.256   8.969  1.00  0.00    -0.507 OA
ATOM     21  H   UNL     1      20.977   1.755   9.845  1.00  0.00     0.293 HD
ENDBRANCH  17  20
BRANCH  15  22
ATOM     22  O   UNL     1      23.524  -2.409  10.621  1.00  0.00    -0.508 OA
ATOM     23  H   UNL     1      23.358  -2.336  11.619  1.00  0.00     0.293 HD
ENDBRANCH  15  22
TORSDOF 3
ENDMDL
