MODEL 1
REMARK VINA RESULT:    -5.410      0.000      0.000
REMARK INTER + INTRA:          -6.815
REMARK INTER:                  -6.517
REMARK INTRA:                  -0.299
REMARK UNBOUND:                -0.299
REMARK SMILES Oc1cc(O)c2cc(O)c(-c3ccc(O)c(O)c3)[o+]c2c1
REMARK SMILES IDX 10 1 19 2 20 3 21 4 2 5 3 6 4 7 6 8 7 9 8 10 11 11 12 12
REMARK SMILES IDX 13 13 14 14 18 15 16 16 15 17 17 19 9 21 1 23 5 25
REMARK H PARENT 15 18 17 20 9 22 1 24 5 26
REMARK Flexibility Score: inf
ROOT
ATOM      1  C   UNL     1      45.585  16.250  -4.463  1.00  0.00     0.402 A 
ATOM      2  O   UNL     1      46.603  15.450  -4.157  1.00  0.00    -0.202 OA
ATOM      3  C   UNL     1      47.814  15.572  -4.691  1.00  0.00     0.368 A 
ATOM      4  C   UNL     1      48.821  14.684  -4.304  1.00  0.00     0.162 A 
ATOM      5  C   UNL     1      50.101  14.791  -4.846  1.00  0.00     0.128 A 
ATOM      6  C   UNL     1      50.381  15.793  -5.782  1.00  0.00     0.093 A 
ATOM      7  C   UNL     1      49.390  16.696  -6.186  1.00  0.00     0.136 A 
ATOM      8  C   UNL     1      48.085  16.589  -5.639  1.00  0.00     0.125 A 
ATOM      9  C   UNL     1      47.026  17.440  -5.994  1.00  0.00     0.078 A 
ATOM     10  C   UNL     1      45.765  17.270  -5.416  1.00  0.00     0.223 A 
ENDROOT
BRANCH   1  11
ATOM     11  C   UNL     1      44.285  16.019  -3.791  1.00  0.00     0.087 A 
ATOM     12  C   UNL     1      43.532  14.884  -4.121  1.00  0.00     0.022 A 
ATOM     13  C   UNL     1      42.313  14.636  -3.488  1.00  0.00     0.051 A 
ATOM     14  C   UNL     1      41.830  15.505  -2.504  1.00  0.00     0.157 A 
ATOM     15  C   UNL     1      43.814  16.883  -2.788  1.00  0.00     0.068 A 
ATOM     16  C   UNL     1      42.594  16.640  -2.144  1.00  0.00     0.158 A 
BRANCH  14  17
ATOM     17  O   UNL     1      40.601  15.205  -1.914  1.00  0.00    -0.504 OA
ATOM     18  H   UNL     1      40.493  14.612  -1.104  1.00  0.00     0.293 HD
ENDBRANCH  14  17
BRANCH  16  19
ATOM     19  O   UNL     1      42.188  17.541  -1.158  1.00  0.00    -0.504 OA
ATOM     20  H   UNL     1      41.315  17.471  -0.655  1.00  0.00     0.293 HD
ENDBRANCH  16  19
ENDBRANCH   1  11
BRANCH  10  21
ATOM     21  O   UNL     1      44.701  18.083  -5.805  1.00  0.00    -0.500 OA
ATOM     22  H   UNL     1      44.022  17.780  -6.493  1.00  0.00     0.294 HD
ENDBRANCH  10  21
BRANCH   5  23
ATOM     23  O   UNL     1      51.093  13.896  -4.448  1.00  0.00    -0.507 OA
ATOM     24  H   UNL     1      50.866  12.966  -4.117  1.00  0.00     0.293 HD
ENDBRANCH   5  23
BRANCH   7  25
ATOM     25  O   UNL     1      49.750  17.671  -7.122  1.00  0.00    -0.507 OA
ATOM     26  H   UNL     1      50.604  17.657  -7.659  1.00  0.00     0.293 HD
ENDBRANCH   7  25
TORSDOF 6
ENDMDL
MODEL 2
REMARK VINA RESULT:    -5.350      3.172      4.179
REMARK INTER + INTRA:          -6.743
REMARK INTER:                  -6.556
REMARK INTRA:                  -0.187
REMARK UNBOUND:                -0.299
REMARK SMILES Oc1cc(O)c2cc(O)c(-c3ccc(O)c(O)c3)[o+]c2c1
REMARK SMILES IDX 10 1 19 2 20 3 21 4 2 5 3 6 4 7 6 8 7 9 8 10 11 11 12 12
REMARK SMILES IDX 13 13 14 14 18 15 16 16 15 17 17 19 9 21 1 23 5 25
REMARK H PARENT 15 18 17 20 9 22 1 24 5 26
REMARK Flexibility Score: inf
ROOT
ATOM      1  C   UNL     1      48.623  14.086  -4.746  1.00  0.00     0.402 A 
ATOM      2  O   UNL     1      49.561  13.263  -5.210  1.00  0.00    -0.202 OA
ATOM      3  C   UNL     1      50.725  13.681  -5.695  1.00  0.00     0.368 A 
ATOM      4  C   UNL     1      51.648  12.738  -6.156  1.00  0.00     0.162 A 
ATOM      5  C   UNL     1      52.879  13.148  -6.667  1.00  0.00     0.128 A 
ATOM      6  C   UNL     1      53.194  14.511  -6.717  1.00  0.00     0.093 A 
ATOM      7  C   UNL     1      52.287  15.475  -6.260  1.00  0.00     0.136 A 
ATOM      8  C   UNL     1      51.032  15.062  -5.743  1.00  0.00     0.125 A 
ATOM      9  C   UNL     1      50.057  15.958  -5.275  1.00  0.00     0.078 A 
ATOM     10  C   UNL     1      48.841  15.476  -4.783  1.00  0.00     0.223 A 
ENDROOT
BRANCH   1  11
ATOM     11  C   UNL     1      47.370  13.497  -4.222  1.00  0.00     0.087 A 
ATOM     12  C   UNL     1      46.164  13.729  -4.900  1.00  0.00     0.022 A 
ATOM     13  C   UNL     1      44.974  13.169  -4.434  1.00  0.00     0.051 A 
ATOM     14  C   UNL     1      44.964  12.356  -3.296  1.00  0.00     0.157 A 
ATOM     15  C   UNL     1      47.368  12.664  -3.091  1.00  0.00     0.068 A 
ATOM     16  C   UNL     1      46.179  12.094  -2.619  1.00  0.00     0.158 A 
BRANCH  14  17
ATOM     17  O   UNL     1      43.739  11.832  -2.878  1.00  0.00    -0.504 OA
ATOM     18  H   UNL     1      43.638  10.959  -2.381  1.00  0.00     0.293 HD
ENDBRANCH  14  17
BRANCH  16  19
ATOM     19  O   UNL     1      46.251  11.278  -1.489  1.00  0.00    -0.504 OA
ATOM     20  H   UNL     1      46.588  11.588  -0.589  1.00  0.00     0.293 HD
ENDBRANCH  16  19
ENDBRANCH   1  11
BRANCH  10  21
ATOM     21  O   UNL     1      47.853  16.367  -4.365  1.00  0.00    -0.500 OA
ATOM     22  H   UNL     1      47.190  16.771  -5.016  1.00  0.00     0.294 HD
ENDBRANCH  10  21
BRANCH   5  23
ATOM     23  O   UNL     1      53.786  12.193  -7.123  1.00  0.00    -0.507 OA
ATOM     24  H   UNL     1      54.637  11.985  -6.614  1.00  0.00     0.293 HD
ENDBRANCH   5  23
BRANCH   7  25
ATOM     25  O   UNL     1      52.678  16.816  -6.341  1.00  0.00    -0.507 OA
ATOM     26  H   UNL     1      52.349  17.543  -5.723  1.00  0.00     0.293 HD
ENDBRANCH   7  25
TORSDOF 6
ENDMDL
MODEL 3
REMARK VINA RESULT:    -5.267      1.604      2.388
REMARK INTER + INTRA:          -6.644
REMARK INTER:                  -6.868
REMARK INTRA:                   0.224
REMARK UNBOUND:                -0.299
REMARK SMILES Oc1cc(O)c2cc(O)c(-c3ccc(O)c(O)c3)[o+]c2c1
REMARK SMILES IDX 10 1 19 2 20 3 21 4 2 5 3 6 4 7 6 8 7 9 8 10 11 11 12 12
REMARK SMILES IDX 13 13 14 14 18 15 16 16 15 17 17 19 9 21 1 23 5 25
REMARK H PARENT 15 18 17 20 9 22 1 24 5 26
REMARK Flexibility Score: inf
ROOT
ATOM      1  C   UNL     1      45.450  16.037  -3.703  1.00  0.00     0.402 A 
ATOM      2  O   UNL     1      45.987  14.988  -3.085  1.00  0.00    -0.202 OA
ATOM      3  C   UNL     1      47.111  14.402  -3.483  1.00  0.00     0.368 A 
ATOM      4  C   UNL     1      47.597  13.306  -2.766  1.00  0.00     0.162 A 
ATOM      5  C   UNL     1      48.777  12.674  -3.158  1.00  0.00     0.128 A 
ATOM      6  C   UNL     1      49.478  13.139  -4.276  1.00  0.00     0.093 A 
ATOM      7  C   UNL     1      49.013  14.236  -5.011  1.00  0.00     0.136 A 
ATOM      8  C   UNL     1      47.812  14.880  -4.617  1.00  0.00     0.125 A 
ATOM      9  C   UNL     1      47.263  15.977  -5.301  1.00  0.00     0.078 A 
ATOM     10  C   UNL     1      46.072  16.557  -4.855  1.00  0.00     0.223 A 
ENDROOT
BRANCH   1  11
ATOM     11  C   UNL     1      44.198  16.608  -3.158  1.00  0.00     0.087 A 
ATOM     12  C   UNL     1      43.957  17.984  -3.282  1.00  0.00     0.022 A 
ATOM     13  C   UNL     1      42.775  18.542  -2.791  1.00  0.00     0.051 A 
ATOM     14  C   UNL     1      41.805  17.738  -2.183  1.00  0.00     0.157 A 
ATOM     15  C   UNL     1      43.216  15.794  -2.567  1.00  0.00     0.068 A 
ATOM     16  C   UNL     1      42.026  16.344  -2.076  1.00  0.00     0.158 A 
BRANCH  14  17
ATOM     17  O   UNL     1      40.648  18.358  -1.707  1.00  0.00    -0.504 OA
ATOM     18  H   UNL     1      40.390  18.397  -0.732  1.00  0.00     0.293 HD
ENDBRANCH  14  17
BRANCH  16  19
ATOM     19  O   UNL     1      41.096  15.476  -1.501  1.00  0.00    -0.504 OA
ATOM     20  H   UNL     1      40.707  15.596  -0.577  1.00  0.00     0.293 HD
ENDBRANCH  16  19
ENDBRANCH   1  11
BRANCH  10  21
ATOM     21  O   UNL     1      45.500  17.614  -5.562  1.00  0.00    -0.500 OA
ATOM     22  H   UNL     1      44.496  17.733  -5.623  1.00  0.00     0.294 HD
ENDBRANCH  10  21
BRANCH   5  23
ATOM     23  O   UNL     1      49.246  11.581  -2.430  1.00  0.00    -0.507 OA
ATOM     24  H   UNL     1      49.996  11.676  -1.757  1.00  0.00     0.293 HD
ENDBRANCH   5  23
BRANCH   7  25
ATOM     25  O   UNL     1      49.773  14.642  -6.112  1.00  0.00    -0.507 OA
ATOM     26  H   UNL     1      49.878  15.601  -6.409  1.00  0.00     0.293 HD
ENDBRANCH   7  25
TORSDOF 6
ENDMDL
MODEL 4
REMARK VINA RESULT:    -5.258      1.158      2.699
REMARK INTER + INTRA:          -6.633
REMARK INTER:                  -6.350
REMARK INTRA:                  -0.283
REMARK UNBOUND:                -0.299
REMARK SMILES Oc1cc(O)c2cc(O)c(-c3ccc(O)c(O)c3)[o+]c2c1
REMARK SMILES IDX 10 1 19 2 20 3 21 4 2 5 3 6 4 7 6 8 7 9 8 10 11 11 12 12
REMARK SMILES IDX 13 13 14 14 18 15 16 16 15 17 17 19 9 21 1 23 5 25
REMARK H PARENT 15 18 17 20 9 22 1 24 5 26
REMARK Flexibility Score: inf
ROOT
ATOM      1  C   UNL     1      46.175  15.030  -3.918  1.00  0.00     0.402 A 
ATOM      2  O   UNL     1      46.729  15.939  -4.716  1.00  0.00    -0.202 OA
ATOM      3  C   UNL     1      48.014  15.927  -5.056  1.00  0.00     0.368 A 
ATOM      4  C   UNL     1      48.503  16.925  -5.903  1.00  0.00     0.162 A 
ATOM      5  C   UNL     1      49.845  16.934  -6.279  1.00  0.00     0.128 A 
ATOM      6  C   UNL     1      50.709  15.940  -5.807  1.00  0.00     0.093 A 
ATOM      7  C   UNL     1      50.244  14.928  -4.957  1.00  0.00     0.136 A 
ATOM      8  C   UNL     1      48.879  14.916  -4.571  1.00  0.00     0.125 A 
ATOM      9  C   UNL     1      48.328  13.950  -3.713  1.00  0.00     0.078 A 
ATOM     10  C   UNL     1      46.973  14.007  -3.372  1.00  0.00     0.223 A 
ENDROOT
BRANCH   1  11
ATOM     11  C   UNL     1      44.729  15.145  -3.621  1.00  0.00     0.087 A 
ATOM     12  C   UNL     1      43.832  14.236  -4.201  1.00  0.00     0.022 A 
ATOM     13  C   UNL     1      42.467  14.315  -3.921  1.00  0.00     0.051 A 
ATOM     14  C   UNL     1      41.972  15.288  -3.045  1.00  0.00     0.157 A 
ATOM     15  C   UNL     1      44.239  16.110  -2.724  1.00  0.00     0.068 A 
ATOM     16  C   UNL     1      42.872  16.193  -2.434  1.00  0.00     0.158 A 
BRANCH  14  17
ATOM     17  O   UNL     1      40.596  15.318  -2.812  1.00  0.00    -0.504 OA
ATOM     18  H   UNL     1      39.916  14.843  -3.388  1.00  0.00     0.293 HD
ENDBRANCH  14  17
BRANCH  16  19
ATOM     19  O   UNL     1      42.456  17.178  -1.535  1.00  0.00    -0.504 OA
ATOM     20  H   UNL     1      42.067  16.982  -0.624  1.00  0.00     0.293 HD
ENDBRANCH  16  19
ENDBRANCH   1  11
BRANCH  10  21
ATOM     21  O   UNL     1      46.436  13.077  -2.482  1.00  0.00    -0.500 OA
ATOM     22  H   UNL     1      47.027  12.475  -1.920  1.00  0.00     0.294 HD
ENDBRANCH  10  21
BRANCH   5  23
ATOM     23  O   UNL     1      50.315  17.938  -7.125  1.00  0.00    -0.507 OA
ATOM     24  H   UNL     1      50.098  17.942  -8.114  1.00  0.00     0.293 HD
ENDBRANCH   5  23
BRANCH   7  25
ATOM     25  O   UNL     1      51.168  13.969  -4.532  1.00  0.00    -0.507 OA
ATOM     26  H   UNL     1      51.354  13.103  -5.016  1.00  0.00     0.293 HD
ENDBRANCH   7  25
TORSDOF 6
ENDMDL
MODEL 5
REMARK VINA RESULT:    -5.129      1.999      3.127
REMARK INTER + INTRA:          -6.478
REMARK INTER:                  -6.432
REMARK INTRA:                  -0.045
REMARK UNBOUND:                -0.299
REMARK SMILES Oc1cc(O)c2cc(O)c(-c3ccc(O)c(O)c3)[o+]c2c1
REMARK SMILES IDX 10 1 19 2 20 3 21 4 2 5 3 6 4 7 6 8 7 9 8 10 11 11 12 12
REMARK SMILES IDX 13 13 14 14 18 15 16 16 15 17 17 19 9 21 1 23 5 25
REMARK H PARENT 15 18 17 20 9 22 1 24 5 26
REMARK Flexibility Score: inf
ROOT
ATOM      1  C   UNL     1      46.177  15.933  -4.147  1.00  0.00     0.402 A 
ATOM      2  O   UNL     1      47.343  16.368  -4.619  1.00  0.00    -0.202 OA
ATOM      3  C   UNL     1      48.441  15.621  -4.654  1.00  0.00     0.368 A 
ATOM      4  C   UNL     1      49.619  16.167  -5.171  1.00  0.00     0.162 A 
ATOM      5  C   UNL     1      50.785  15.405  -5.224  1.00  0.00     0.128 A 
ATOM      6  C   UNL     1      50.778  14.085  -4.758  1.00  0.00     0.093 A 
ATOM      7  C   UNL     1      49.610  13.514  -4.236  1.00  0.00     0.136 A 
ATOM      8  C   UNL     1      48.422  14.287  -4.178  1.00  0.00     0.125 A 
ATOM      9  C   UNL     1      47.210  13.803  -3.659  1.00  0.00     0.078 A 
ATOM     10  C   UNL     1      46.081  14.627  -3.630  1.00  0.00     0.223 A 
ENDROOT
BRANCH   1  11
ATOM     11  C   UNL     1      45.021  16.858  -4.170  1.00  0.00     0.087 A 
ATOM     12  C   UNL     1      44.637  17.450  -5.381  1.00  0.00     0.022 A 
ATOM     13  C   UNL     1      43.540  18.311  -5.430  1.00  0.00     0.051 A 
ATOM     14  C   UNL     1      42.795  18.586  -4.277  1.00  0.00     0.157 A 
ATOM     15  C   UNL     1      44.263  17.114  -3.014  1.00  0.00     0.068 A 
ATOM     16  C   UNL     1      43.158  17.973  -3.055  1.00  0.00     0.158 A 
BRANCH  14  17
ATOM     17  O   UNL     1      41.713  19.461  -4.392  1.00  0.00    -0.504 OA
ATOM     18  H   UNL     1      41.090  19.690  -3.632  1.00  0.00     0.293 HD
ENDBRANCH  14  17
BRANCH  16  19
ATOM     19  O   UNL     1      42.452  18.182  -1.868  1.00  0.00    -0.504 OA
ATOM     20  H   UNL     1      42.068  19.073  -1.590  1.00  0.00     0.293 HD
ENDBRANCH  16  19
ENDBRANCH   1  11
BRANCH  10  21
ATOM     21  O   UNL     1      44.891  14.163  -3.070  1.00  0.00    -0.500 OA
ATOM     22  H   UNL     1      44.701  14.247  -2.079  1.00  0.00     0.294 HD
ENDBRANCH  10  21
BRANCH   5  23
ATOM     23  O   UNL     1      51.950  15.967  -5.743  1.00  0.00    -0.507 OA
ATOM     24  H   UNL     1      52.082  16.088  -6.740  1.00  0.00     0.293 HD
ENDBRANCH   5  23
BRANCH   7  25
ATOM     25  O   UNL     1      49.684  12.189  -3.794  1.00  0.00    -0.507 OA
ATOM     26  H   UNL     1      50.238  11.881  -3.009  1.00  0.00     0.293 HD
ENDBRANCH   7  25
TORSDOF 6
ENDMDL
MODEL 6
REMARK VINA RESULT:    -5.029      1.448      7.277
REMARK INTER + INTRA:          -6.356
REMARK INTER:                  -6.401
REMARK INTRA:                   0.045
REMARK UNBOUND:                -0.299
REMARK SMILES Oc1cc(O)c2cc(O)c(-c3ccc(O)c(O)c3)[o+]c2c1
REMARK SMILES IDX 10 1 19 2 20 3 21 4 2 5 3 6 4 7 6 8 7 9 8 10 11 11 12 12
REMARK SMILES IDX 13 13 14 14 18 15 16 16 15 17 17 19 9 21 1 23 5 25
REMARK H PARENT 15 18 17 20 9 22 1 24 5 26
REMARK Flexibility Score: inf
ROOT
ATOM      1  C   UNL     1      45.762  16.398  -4.187  1.00  0.00     0.402 A 
ATOM      2  O   UNL     1      45.075  17.533  -4.083  1.00  0.00    -0.202 OA
ATOM      3  C   UNL     1      43.909  17.626  -3.452  1.00  0.00     0.368 A 
ATOM      4  C   UNL     1      43.265  18.864  -3.393  1.00  0.00     0.162 A 
ATOM      5  C   UNL     1      42.043  18.992  -2.733  1.00  0.00     0.128 A 
ATOM      6  C   UNL     1      41.458  17.875  -2.127  1.00  0.00     0.093 A 
ATOM      7  C   UNL     1      42.084  16.623  -2.171  1.00  0.00     0.136 A 
ATOM      8  C   UNL     1      43.326  16.489  -2.843  1.00  0.00     0.125 A 
ATOM      9  C   UNL     1      44.019  15.271  -2.949  1.00  0.00     0.078 A 
ATOM     10  C   UNL     1      45.237  15.216  -3.632  1.00  0.00     0.223 A 
ENDROOT
BRANCH   1  11
ATOM     11  C   UNL     1      47.055  16.424  -4.908  1.00  0.00     0.087 A 
ATOM     12  C   UNL     1      47.185  17.210  -6.062  1.00  0.00     0.022 A 
ATOM     13  C   UNL     1      48.400  17.265  -6.746  1.00  0.00     0.051 A 
ATOM     14  C   UNL     1      49.512  16.551  -6.286  1.00  0.00     0.157 A 
ATOM     15  C   UNL     1      48.175  15.723  -4.430  1.00  0.00     0.068 A 
ATOM     16  C   UNL     1      49.400  15.775  -5.108  1.00  0.00     0.158 A 
BRANCH  14  17
ATOM     17  O   UNL     1      50.696  16.642  -7.020  1.00  0.00    -0.504 OA
ATOM     18  H   UNL     1      50.855  17.317  -7.754  1.00  0.00     0.293 HD
ENDBRANCH  14  17
BRANCH  16  19
ATOM     19  O   UNL     1      50.470  15.052  -4.577  1.00  0.00    -0.504 OA
ATOM     20  H   UNL     1      50.697  15.021  -3.594  1.00  0.00     0.293 HD
ENDBRANCH  16  19
ENDBRANCH   1  11
BRANCH  10  21
ATOM     21  O   UNL     1      45.901  13.998  -3.780  1.00  0.00    -0.500 OA
ATOM     22  H   UNL     1      46.417  13.576  -3.017  1.00  0.00     0.294 HD
ENDBRANCH  10  21
BRANCH   5  23
ATOM     23  O   UNL     1      41.415  20.236  -2.686  1.00  0.00    -0.507 OA
ATOM     24  H   UNL     1      41.311  20.744  -1.816  1.00  0.00     0.293 HD
ENDBRANCH   5  23
BRANCH   7  25
ATOM     25  O   UNL     1      41.437  15.557  -1.537  1.00  0.00    -0.507 OA
ATOM     26  H   UNL     1      40.943  14.822  -2.022  1.00  0.00     0.293 HD
ENDBRANCH   7  25
TORSDOF 6
ENDMDL
MODEL 7
REMARK VINA RESULT:    -5.021      1.365      6.711
REMARK INTER + INTRA:          -6.347
REMARK INTER:                  -6.699
REMARK INTRA:                   0.351
REMARK UNBOUND:                -0.299
REMARK SMILES Oc1cc(O)c2cc(O)c(-c3ccc(O)c(O)c3)[o+]c2c1
REMARK SMILES IDX 10 1 19 2 20 3 21 4 2 5 3 6 4 7 6 8 7 9 8 10 11 11 12 12
REMARK SMILES IDX 13 13 14 14 18 15 16 16 15 17 17 19 9 21 1 23 5 25
REMARK H PARENT 15 18 17 20 9 22 1 24 5 26
REMARK Flexibility Score: inf
ROOT
ATOM      1  C   UNL     1      46.684  16.369  -4.849  1.00  0.00     0.402 A 
ATOM      2  O   UNL     1      45.851  15.997  -3.881  1.00  0.00    -0.202 OA
ATOM      3  C   UNL     1      44.626  16.493  -3.741  1.00  0.00     0.368 A 
ATOM      4  C   UNL     1      43.823  16.036  -2.692  1.00  0.00     0.162 A 
ATOM      5  C   UNL     1      42.533  16.536  -2.523  1.00  0.00     0.128 A 
ATOM      6  C   UNL     1      42.038  17.501  -3.408  1.00  0.00     0.093 A 
ATOM      7  C   UNL     1      42.822  17.974  -4.467  1.00  0.00     0.136 A 
ATOM      8  C   UNL     1      44.136  17.470  -4.641  1.00  0.00     0.125 A 
ATOM      9  C   UNL     1      44.998  17.895  -5.665  1.00  0.00     0.078 A 
ATOM     10  C   UNL     1      46.283  17.355  -5.770  1.00  0.00     0.223 A 
ENDROOT
BRANCH   1  11
ATOM     11  C   UNL     1      48.021  15.735  -4.906  1.00  0.00     0.087 A 
ATOM     12  C   UNL     1      49.083  16.420  -5.514  1.00  0.00     0.022 A 
ATOM     13  C   UNL     1      50.356  15.850  -5.563  1.00  0.00     0.051 A 
ATOM     14  C   UNL     1      50.599  14.595  -4.994  1.00  0.00     0.157 A 
ATOM     15  C   UNL     1      48.266  14.484  -4.314  1.00  0.00     0.068 A 
ATOM     16  C   UNL     1      49.541  13.906  -4.355  1.00  0.00     0.158 A 
BRANCH  14  17
ATOM     17  O   UNL     1      51.892  14.077  -5.083  1.00  0.00    -0.504 OA
ATOM     18  H   UNL     1      52.197  13.440  -5.805  1.00  0.00     0.293 HD
ENDBRANCH  14  17
BRANCH  16  19
ATOM     19  O   UNL     1      49.711  12.660  -3.748  1.00  0.00    -0.504 OA
ATOM     20  H   UNL     1      50.550  12.378  -3.263  1.00  0.00     0.293 HD
ENDBRANCH  16  19
ENDBRANCH   1  11
BRANCH  10  21
ATOM     21  O   UNL     1      47.156  17.813  -6.756  1.00  0.00    -0.500 OA
ATOM     22  H   UNL     1      47.049  17.547  -7.728  1.00  0.00     0.294 HD
ENDBRANCH  10  21
BRANCH   5  23
ATOM     23  O   UNL     1      41.747  16.069  -1.471  1.00  0.00    -0.507 OA
ATOM     24  H   UNL     1      41.676  15.080  -1.261  1.00  0.00     0.293 HD
ENDBRANCH   5  23
BRANCH   7  25
ATOM     25  O   UNL     1      42.253  18.935  -5.309  1.00  0.00    -0.507 OA
ATOM     26  H   UNL     1      42.311  18.915  -6.317  1.00  0.00     0.293 HD
ENDBRANCH   7  25
TORSDOF 6
ENDMDL
MODEL 8
REMARK VINA RESULT:    -4.962      2.214      7.068
REMARK INTER + INTRA:          -6.276
REMARK INTER:                  -6.244
REMARK INTRA:                  -0.032
REMARK UNBOUND:                -0.299
REMARK SMILES Oc1cc(O)c2cc(O)c(-c3ccc(O)c(O)c3)[o+]c2c1
REMARK SMILES IDX 10 1 19 2 20 3 21 4 2 5 3 6 4 7 6 8 7 9 8 10 11 11 12 12
REMARK SMILES IDX 13 13 14 14 18 15 16 16 15 17 17 19 9 21 1 23 5 25
REMARK H PARENT 15 18 17 20 9 22 1 24 5 26
REMARK Flexibility Score: inf
ROOT
ATOM      1  C   UNL     1      44.782  15.556  -3.250  1.00  0.00     0.402 A 
ATOM      2  O   UNL     1      44.684  16.882  -3.197  1.00  0.00    -0.202 OA
ATOM      3  C   UNL     1      43.534  17.523  -3.014  1.00  0.00     0.368 A 
ATOM      4  C   UNL     1      43.533  18.919  -2.971  1.00  0.00     0.162 A 
ATOM      5  C   UNL     1      42.342  19.617  -2.776  1.00  0.00     0.128 A 
ATOM      6  C   UNL     1      41.141  18.917  -2.622  1.00  0.00     0.093 A 
ATOM      7  C   UNL     1      41.115  17.517  -2.660  1.00  0.00     0.136 A 
ATOM      8  C   UNL     1      42.324  16.803  -2.861  1.00  0.00     0.125 A 
ATOM      9  C   UNL     1      42.392  15.402  -2.927  1.00  0.00     0.078 A 
ATOM     10  C   UNL     1      43.621  14.769  -3.133  1.00  0.00     0.223 A 
ENDROOT
BRANCH   1  11
ATOM     11  C   UNL     1      46.122  14.959  -3.449  1.00  0.00     0.087 A 
ATOM     12  C   UNL     1      46.979  15.497  -4.420  1.00  0.00     0.022 A 
ATOM     13  C   UNL     1      48.253  14.962  -4.613  1.00  0.00     0.051 A 
ATOM     14  C   UNL     1      48.705  13.893  -3.831  1.00  0.00     0.157 A 
ATOM     15  C   UNL     1      46.580  13.899  -2.647  1.00  0.00     0.068 A 
ATOM     16  C   UNL     1      47.859  13.359  -2.831  1.00  0.00     0.158 A 
BRANCH  14  17
ATOM     17  O   UNL     1      49.987  13.400  -4.079  1.00  0.00    -0.504 OA
ATOM     18  H   UNL     1      50.624  13.096  -3.356  1.00  0.00     0.293 HD
ENDBRANCH  14  17
BRANCH  16  19
ATOM     19  O   UNL     1      48.247  12.306  -1.999  1.00  0.00    -0.504 OA
ATOM     20  H   UNL     1      48.353  11.352  -2.310  1.00  0.00     0.293 HD
ENDBRANCH  16  19
ENDBRANCH   1  11
BRANCH  10  21
ATOM     21  O   UNL     1      43.682  13.380  -3.248  1.00  0.00    -0.500 OA
ATOM     22  H   UNL     1      42.893  12.838  -3.579  1.00  0.00     0.294 HD
ENDBRANCH  10  21
BRANCH   5  23
ATOM     23  O   UNL     1      42.361  21.011  -2.736  1.00  0.00    -0.507 OA
ATOM     24  H   UNL     1      43.075  21.517  -2.226  1.00  0.00     0.293 HD
ENDBRANCH   5  23
BRANCH   7  25
ATOM     25  O   UNL     1      39.875  16.892  -2.494  1.00  0.00    -0.507 OA
ATOM     26  H   UNL     1      39.481  16.636  -1.601  1.00  0.00     0.293 HD
ENDBRANCH   7  25
TORSDOF 6
ENDMDL
MODEL 9
REMARK VINA RESULT:    -4.750      1.889      7.367
REMARK INTER + INTRA:          -6.020
REMARK INTER:                  -6.123
REMARK INTRA:                   0.103
REMARK UNBOUND:                -0.299
REMARK SMILES Oc1cc(O)c2cc(O)c(-c3ccc(O)c(O)c3)[o+]c2c1
REMARK SMILES IDX 10 1 19 2 20 3 21 4 2 5 3 6 4 7 6 8 7 9 8 10 11 11 12 12
REMARK SMILES IDX 13 13 14 14 18 15 16 16 15 17 17 19 9 21 1 23 5 25
REMARK H PARENT 15 18 17 20 9 22 1 24 5 26
REMARK Flexibility Score: inf
ROOT
ATOM      1  C   UNL     1      48.207  15.147  -4.658  1.00  0.00     0.402 A 
ATOM      2  O   UNL     1      47.580  16.141  -5.282  1.00  0.00    -0.202 OA
ATOM      3  C   UNL     1      46.351  16.538  -4.971  1.00  0.00     0.368 A 
ATOM      4  C   UNL     1      45.777  17.595  -5.683  1.00  0.00     0.162 A 
ATOM      5  C   UNL     1      44.490  18.035  -5.375  1.00  0.00     0.128 A 
ATOM      6  C   UNL     1      43.769  17.417  -4.348  1.00  0.00     0.093 A 
ATOM      7  C   UNL     1      44.322  16.357  -3.618  1.00  0.00     0.136 A 
ATOM      8  C   UNL     1      45.630  15.904  -3.930  1.00  0.00     0.125 A 
ATOM      9  C   UNL     1      46.258  14.841  -3.262  1.00  0.00     0.078 A 
ATOM     10  C   UNL     1      47.549  14.448  -3.629  1.00  0.00     0.223 A 
ENDROOT
BRANCH   1  11
ATOM     11  C   UNL     1      49.581  14.803  -5.090  1.00  0.00     0.087 A 
ATOM     12  C   UNL     1      49.936  13.456  -5.250  1.00  0.00     0.022 A 
ATOM     13  C   UNL     1      51.220  13.110  -5.674  1.00  0.00     0.051 A 
ATOM     14  C   UNL     1      52.168  14.098  -5.962  1.00  0.00     0.157 A 
ATOM     15  C   UNL     1      50.524  15.799  -5.399  1.00  0.00     0.068 A 
ATOM     16  C   UNL     1      51.813  15.461  -5.829  1.00  0.00     0.158 A 
BRANCH  14  17
ATOM     17  O   UNL     1      53.437  13.685  -6.375  1.00  0.00    -0.504 OA
ATOM     18  H   UNL     1      53.849  13.931  -7.263  1.00  0.00     0.293 HD
ENDBRANCH  14  17
BRANCH  16  19
ATOM     19  O   UNL     1      52.697  16.502  -6.117  1.00  0.00    -0.504 OA
ATOM     20  H   UNL     1      52.904  17.259  -5.481  1.00  0.00     0.293 HD
ENDBRANCH  16  19
ENDBRANCH   1  11
BRANCH  10  21
ATOM     21  O   UNL     1      48.154  13.360  -2.999  1.00  0.00    -0.500 OA
ATOM     22  H   UNL     1      49.138  13.154  -3.123  1.00  0.00     0.294 HD
ENDBRANCH  10  21
BRANCH   5  23
ATOM     23  O   UNL     1      43.934  19.090  -6.097  1.00  0.00    -0.507 OA
ATOM     24  H   UNL     1      44.107  19.203  -7.089  1.00  0.00     0.293 HD
ENDBRANCH   5  23
BRANCH   7  25
ATOM     25  O   UNL     1      43.539  15.796  -2.605  1.00  0.00    -0.507 OA
ATOM     26  H   UNL     1      43.860  15.630  -1.662  1.00  0.00     0.293 HD
ENDBRANCH   7  25
TORSDOF 6
ENDMDL
