MODEL 1
REMARK VINA RESULT:    -5.742      0.000      0.000
REMARK INTER + INTRA:          -6.608
REMARK INTER:                  -6.413
REMARK INTRA:                  -0.195
REMARK UNBOUND:                -0.195
REMARK SMILES CC(C)c1ccc(C=O)cc1
REMARK SMILES IDX 4 1 5 2 6 3 7 4 10 5 11 6 2 7 1 8 3 9 8 10 9 11
REMARK H PARENT
REMARK Flexibility Score: inf
ROOT
ATOM      1  C   UNL     1      18.948  26.160  36.284  1.00  0.00    -0.045 A 
ATOM      2  C   UNL     1      19.816  27.239  36.514  1.00  0.00     0.005 A 
ATOM      3  C   UNL     1      19.310  28.515  36.781  1.00  0.00     0.012 A 
ATOM      4  C   UNL     1      17.925  28.734  36.823  1.00  0.00     0.014 A 
ATOM      5  C   UNL     1      17.052  27.658  36.594  1.00  0.00     0.012 A 
ATOM      6  C   UNL     1      17.559  26.383  36.327  1.00  0.00     0.005 A 
ENDROOT
BRANCH   1   7
ATOM      7  C   UNL     1      19.511  24.781  35.995  1.00  0.00     0.013 C 
ATOM      8  C   UNL     1      20.810  24.871  35.186  1.00  0.00     0.012 C 
ATOM      9  C   UNL     1      18.478  23.899  35.282  1.00  0.00     0.012 C 
ENDBRANCH   1   7
BRANCH   4  10
ATOM     10  C   UNL     1      17.410  30.087  37.106  1.00  0.00     0.260 C 
ATOM     11  O   UNL     1      18.170  31.091  37.081  1.00  0.00    -0.298 OA
ENDBRANCH   4  10
TORSDOF 2
ENDMDL
MODEL 2
REMARK VINA RESULT:    -4.914      2.833      5.096
REMARK INTER + INTRA:          -5.684
REMARK INTER:                  -5.489
REMARK INTRA:                  -0.195
REMARK UNBOUND:                -0.195
REMARK SMILES CC(C)c1ccc(C=O)cc1
REMARK SMILES IDX 4 1 5 2 6 3 7 4 10 5 11 6 2 7 1 8 3 9 8 10 9 11
REMARK H PARENT
REMARK Flexibility Score: inf
ROOT
ATOM      1  C   UNL     1      20.124  30.356  36.793  1.00  0.00    -0.045 A 
ATOM      2  C   UNL     1      20.860  29.215  36.432  1.00  0.00     0.005 A 
ATOM      3  C   UNL     1      20.251  27.956  36.403  1.00  0.00     0.012 A 
ATOM      4  C   UNL     1      18.896  27.815  36.734  1.00  0.00     0.014 A 
ATOM      5  C   UNL     1      18.156  28.953  37.096  1.00  0.00     0.012 A 
ATOM      6  C   UNL     1      18.764  30.211  37.125  1.00  0.00     0.005 A 
ENDROOT
BRANCH   1   7
ATOM      7  C   UNL     1      20.797  31.715  36.821  1.00  0.00     0.013 C 
ATOM      8  C   UNL     1      19.770  32.844  36.675  1.00  0.00     0.012 C 
ATOM      9  C   UNL     1      21.884  31.817  35.743  1.00  0.00     0.012 C 
ENDBRANCH   1   7
BRANCH   4  10
ATOM     10  C   UNL     1      18.272  26.480  36.698  1.00  0.00     0.260 C 
ATOM     11  O   UNL     1      18.906  25.476  36.275  1.00  0.00    -0.298 OA
ENDBRANCH   4  10
TORSDOF 2
ENDMDL
MODEL 3
REMARK VINA RESULT:    -4.688      3.259      4.584
REMARK INTER + INTRA:          -5.431
REMARK INTER:                  -5.237
REMARK INTRA:                  -0.195
REMARK UNBOUND:                -0.195
REMARK SMILES CC(C)c1ccc(C=O)cc1
REMARK SMILES IDX 4 1 5 2 6 3 7 4 10 5 11 6 2 7 1 8 3 9 8 10 9 11
REMARK H PARENT
REMARK Flexibility Score: inf
ROOT
ATOM      1  C   UNL     1      19.771  29.815  36.774  1.00  0.00    -0.045 A 
ATOM      2  C   UNL     1      21.001  29.706  36.103  1.00  0.00     0.005 A 
ATOM      3  C   UNL     1      21.736  30.849  35.775  1.00  0.00     0.012 A 
ATOM      4  C   UNL     1      21.255  32.123  36.111  1.00  0.00     0.014 A 
ATOM      5  C   UNL     1      20.026  32.238  36.782  1.00  0.00     0.012 A 
ATOM      6  C   UNL     1      19.292  31.095  37.110  1.00  0.00     0.005 A 
ENDROOT
BRANCH   1   7
ATOM      7  C   UNL     1      18.984  28.567  37.125  1.00  0.00     0.013 C 
ATOM      8  C   UNL     1      19.536  27.340  36.391  1.00  0.00     0.012 C 
ATOM      9  C   UNL     1      17.489  28.756  36.835  1.00  0.00     0.012 C 
ENDBRANCH   1   7
BRANCH   4  10
ATOM     10  C   UNL     1      22.045  33.316  35.756  1.00  0.00     0.260 C 
ATOM     11  O   UNL     1      22.944  33.264  34.875  1.00  0.00    -0.298 OA
ENDBRANCH   4  10
TORSDOF 2
ENDMDL
MODEL 4
REMARK VINA RESULT:    -4.193     16.819     18.287
REMARK INTER + INTRA:          -4.878
REMARK INTER:                  -4.690
REMARK INTRA:                  -0.188
REMARK UNBOUND:                -0.195
REMARK SMILES CC(C)c1ccc(C=O)cc1
REMARK SMILES IDX 4 1 5 2 6 3 7 4 10 5 11 6 2 7 1 8 3 9 8 10 9 11
REMARK H PARENT
REMARK Flexibility Score: inf
ROOT
ATOM      1  C   UNL     1      20.341  22.833  18.841  1.00  0.00    -0.045 A 
ATOM      2  C   UNL     1      21.720  23.080  18.941  1.00  0.00     0.005 A 
ATOM      3  C   UNL     1      22.500  22.389  19.874  1.00  0.00     0.012 A 
ATOM      4  C   UNL     1      21.915  21.440  20.724  1.00  0.00     0.014 A 
ATOM      5  C   UNL     1      20.536  21.189  20.628  1.00  0.00     0.012 A 
ATOM      6  C   UNL     1      19.757  21.879  19.695  1.00  0.00     0.005 A 
ENDROOT
BRANCH   1   7
ATOM      7  C   UNL     1      19.507  23.589  17.824  1.00  0.00     0.013 C 
ATOM      8  C   UNL     1      18.784  22.626  16.875  1.00  0.00     0.012 C 
ATOM      9  C   UNL     1      20.363  24.594  17.042  1.00  0.00     0.012 C 
ENDBRANCH   1   7
BRANCH   4  10
ATOM     10  C   UNL     1      22.754  20.722  21.702  1.00  0.00     0.260 C 
ATOM     11  O   UNL     1      22.804  19.463  21.716  1.00  0.00    -0.298 OA
ENDBRANCH   4  10
TORSDOF 2
ENDMDL
MODEL 5
REMARK VINA RESULT:    -4.154     15.735     17.187
REMARK INTER + INTRA:          -4.835
REMARK INTER:                  -4.651
REMARK INTRA:                  -0.183
REMARK UNBOUND:                -0.195
REMARK SMILES CC(C)c1ccc(C=O)cc1
REMARK SMILES IDX 4 1 5 2 6 3 7 4 10 5 11 6 2 7 1 8 3 9 8 10 9 11
REMARK H PARENT
REMARK Flexibility Score: inf
ROOT
ATOM      1  C   UNL     1      19.683  23.676  19.245  1.00  0.00    -0.045 A 
ATOM      2  C   UNL     1      18.797  22.614  19.003  1.00  0.00     0.005 A 
ATOM      3  C   UNL     1      18.080  22.032  20.053  1.00  0.00     0.012 A 
ATOM      4  C   UNL     1      18.238  22.501  21.365  1.00  0.00     0.014 A 
ATOM      5  C   UNL     1      19.123  23.564  21.613  1.00  0.00     0.012 A 
ATOM      6  C   UNL     1      19.838  24.146  20.563  1.00  0.00     0.005 A 
ENDROOT
BRANCH   1   7
ATOM      7  C   UNL     1      20.454  24.298  18.096  1.00  0.00     0.013 C 
ATOM      8  C   UNL     1      19.519  24.667  16.938  1.00  0.00     0.012 C 
ATOM      9  C   UNL     1      21.582  23.374  17.621  1.00  0.00     0.012 C 
ENDBRANCH   1   7
BRANCH   4  10
ATOM     10  C   UNL     1      17.474  21.875  22.460  1.00  0.00     0.260 C 
ATOM     11  O   UNL     1      17.351  22.445  23.577  1.00  0.00    -0.298 OA
ENDBRANCH   4  10
TORSDOF 2
ENDMDL
MODEL 6
REMARK VINA RESULT:    -4.128      4.020      6.464
REMARK INTER + INTRA:          -4.806
REMARK INTER:                  -4.616
REMARK INTRA:                  -0.190
REMARK UNBOUND:                -0.195
REMARK SMILES CC(C)c1ccc(C=O)cc1
REMARK SMILES IDX 4 1 5 2 6 3 7 4 10 5 11 6 2 7 1 8 3 9 8 10 9 11
REMARK H PARENT
REMARK Flexibility Score: inf
ROOT
ATOM      1  C   UNL     1      20.869  32.491  36.021  1.00  0.00    -0.045 A 
ATOM      2  C   UNL     1      21.772  31.480  35.653  1.00  0.00     0.005 A 
ATOM      3  C   UNL     1      21.537  30.150  36.015  1.00  0.00     0.012 A 
ATOM      4  C   UNL     1      20.395  29.806  36.752  1.00  0.00     0.014 A 
ATOM      5  C   UNL     1      19.488  30.814  37.122  1.00  0.00     0.012 A 
ATOM      6  C   UNL     1      19.723  32.143  36.760  1.00  0.00     0.005 A 
ENDROOT
BRANCH   1   7
ATOM      7  C   UNL     1      21.136  33.930  35.621  1.00  0.00     0.013 C 
ATOM      8  C   UNL     1      19.878  34.790  35.777  1.00  0.00     0.012 C 
ATOM      9  C   UNL     1      21.688  34.014  34.192  1.00  0.00     0.012 C 
ENDBRANCH   1   7
BRANCH   4  10
ATOM     10  C   UNL     1      20.164  28.398  37.125  1.00  0.00     0.260 C 
ATOM     11  O   UNL     1      19.329  27.689  36.503  1.00  0.00    -0.298 OA
ENDBRANCH   4  10
TORSDOF 2
ENDMDL
MODEL 7
REMARK VINA RESULT:    -4.099     15.748     17.165
REMARK INTER + INTRA:          -4.773
REMARK INTER:                  -4.591
REMARK INTRA:                  -0.182
REMARK UNBOUND:                -0.195
REMARK SMILES CC(C)c1ccc(C=O)cc1
REMARK SMILES IDX 4 1 5 2 6 3 7 4 10 5 11 6 2 7 1 8 3 9 8 10 9 11
REMARK H PARENT
REMARK Flexibility Score: inf
ROOT
ATOM      1  C   UNL     1      19.634  23.615  19.240  1.00  0.00    -0.045 A 
ATOM      2  C   UNL     1      19.771  24.076  20.560  1.00  0.00     0.005 A 
ATOM      3  C   UNL     1      19.045  23.485  21.599  1.00  0.00     0.012 A 
ATOM      4  C   UNL     1      18.168  22.423  21.337  1.00  0.00     0.014 A 
ATOM      5  C   UNL     1      18.027  21.958  20.019  1.00  0.00     0.012 A 
ATOM      6  C   UNL     1      18.753  22.548  18.981  1.00  0.00     0.005 A 
ENDROOT
BRANCH   1   7
ATOM      7  C   UNL     1      20.427  24.264  18.123  1.00  0.00     0.013 C 
ATOM      8  C   UNL     1      19.511  24.703  16.975  1.00  0.00     0.012 C 
ATOM      9  C   UNL     1      21.536  23.332  17.617  1.00  0.00     0.012 C 
ENDBRANCH   1   7
BRANCH   4  10
ATOM     10  C   UNL     1      17.411  21.813  22.446  1.00  0.00     0.260 C 
ATOM     11  O   UNL     1      17.330  22.379  23.569  1.00  0.00    -0.298 OA
ENDBRANCH   4  10
TORSDOF 2
ENDMDL
MODEL 8
REMARK VINA RESULT:    -4.000     15.651     17.125
REMARK INTER + INTRA:          -4.663
REMARK INTER:                  -4.469
REMARK INTRA:                  -0.194
REMARK UNBOUND:                -0.195
REMARK SMILES CC(C)c1ccc(C=O)cc1
REMARK SMILES IDX 4 1 5 2 6 3 7 4 10 5 11 6 2 7 1 8 3 9 8 10 9 11
REMARK H PARENT
REMARK Flexibility Score: inf
ROOT
ATOM      1  C   UNL     1      18.328  22.516  20.904  1.00  0.00    -0.045 A 
ATOM      2  C   UNL     1      18.441  22.044  19.586  1.00  0.00     0.005 A 
ATOM      3  C   UNL     1      19.327  22.648  18.688  1.00  0.00     0.012 A 
ATOM      4  C   UNL     1      20.116  23.735  19.093  1.00  0.00     0.014 A 
ATOM      5  C   UNL     1      20.007  24.210  20.410  1.00  0.00     0.012 A 
ATOM      6  C   UNL     1      19.121  23.606  21.307  1.00  0.00     0.005 A 
ENDROOT
BRANCH   1   7
ATOM      7  C   UNL     1      17.362  21.851  21.867  1.00  0.00     0.013 C 
ATOM      8  C   UNL     1      17.567  22.362  23.298  1.00  0.00     0.012 C 
ATOM      9  C   UNL     1      17.484  20.323  21.806  1.00  0.00     0.012 C 
ENDBRANCH   1   7
BRANCH   4  10
ATOM     10  C   UNL     1      21.045  24.359  18.132  1.00  0.00     0.260 C 
ATOM     11  O   UNL     1      21.441  23.736  17.111  1.00  0.00    -0.298 OA
ENDBRANCH   4  10
TORSDOF 2
ENDMDL
MODEL 9
REMARK VINA RESULT:    -3.754     16.070     17.543
REMARK INTER + INTRA:          -4.388
REMARK INTER:                  -4.197
REMARK INTRA:                  -0.192
REMARK UNBOUND:                -0.195
REMARK SMILES CC(C)c1ccc(C=O)cc1
REMARK SMILES IDX 4 1 5 2 6 3 7 4 10 5 11 6 2 7 1 8 3 9 8 10 9 11
REMARK H PARENT
REMARK Flexibility Score: inf
ROOT
ATOM      1  C   UNL     1      19.095  23.394  19.165  1.00  0.00    -0.045 A 
ATOM      2  C   UNL     1      19.203  23.680  20.536  1.00  0.00     0.005 A 
ATOM      3  C   UNL     1      18.583  22.860  21.484  1.00  0.00     0.012 A 
ATOM      4  C   UNL     1      17.845  21.739  21.078  1.00  0.00     0.014 A 
ATOM      5  C   UNL     1      17.735  21.448  19.708  1.00  0.00     0.012 A 
ATOM      6  C   UNL     1      18.354  22.268  18.761  1.00  0.00     0.005 A 
ENDROOT
BRANCH   1   7
ATOM      7  C   UNL     1      19.773  24.292  18.147  1.00  0.00     0.013 C 
ATOM      8  C   UNL     1      20.134  23.515  16.876  1.00  0.00     0.012 C 
ATOM      9  C   UNL     1      21.010  24.974  18.746  1.00  0.00     0.012 C 
ENDBRANCH   1   7
BRANCH   4  10
ATOM     10  C   UNL     1      17.198  20.886  22.092  1.00  0.00     0.260 C 
ATOM     11  O   UNL     1      17.417  19.646  22.135  1.00  0.00    -0.298 OA
ENDBRANCH   4  10
TORSDOF 2
ENDMDL
