MODEL 1
REMARK VINA RESULT:    -2.304      0.000      0.000
REMARK INTER + INTRA:          -2.506
REMARK INTER:                  -2.506
REMARK INTRA:                   0.000
REMARK UNBOUND:                 0.000
REMARK SMILES [NH3+]CC(=O)[O-]
REMARK SMILES IDX 2 1 1 2 3 6 4 7 5 8
REMARK H PARENT 1 3 1 4 1 5
REMARK Flexibility Score: inf
ROOT
ATOM      1  C   UNL     1       2.985   0.379  -9.493  1.00  0.00     0.312 C 
ENDROOT
BRANCH   1   2
ATOM      2  N   UNL     1       4.247   0.362  -8.755  1.00  0.00    -0.353 N 
ATOM      3  H   UNL     1       4.077   0.694  -7.779  1.00  0.00     0.344 HD
ATOM      4  H   UNL     1       4.939   0.999  -9.215  1.00  0.00     0.344 HD
ATOM      5  H   UNL     1       4.630  -0.610  -8.722  1.00  0.00     0.344 HD
ENDBRANCH   1   2
BRANCH   1   6
ATOM      6  C   UNL     1       1.863  -0.113  -8.632  1.00  0.00     0.096 C 
ATOM      7  O   UNL     1       1.075  -0.996  -9.062  1.00  0.00    -0.544 OA
ATOM      8  O   UNL     1       1.655   0.442  -7.376  1.00  0.00    -0.544 OA
ENDBRANCH   1   6
TORSDOF 2
ENDMDL
MODEL 2
REMARK VINA RESULT:    -2.238      1.427      1.681
REMARK INTER + INTRA:          -2.435
REMARK INTER:                  -2.435
REMARK INTRA:                   0.000
REMARK UNBOUND:                 0.000
REMARK SMILES [NH3+]CC(=O)[O-]
REMARK SMILES IDX 2 1 1 2 3 6 4 7 5 8
REMARK H PARENT 1 3 1 4 1 5
REMARK Flexibility Score: inf
ROOT
ATOM      1  C   UNL     1       2.364   0.128  -8.812  1.00  0.00     0.312 C 
ENDROOT
BRANCH   1   2
ATOM      2  N   UNL     1       3.740   0.537  -9.089  1.00  0.00    -0.353 N 
ATOM      3  H   UNL     1       3.948   1.416  -8.563  1.00  0.00     0.344 HD
ATOM      4  H   UNL     1       3.861   0.718 -10.113  1.00  0.00     0.344 HD
ATOM      5  H   UNL     1       4.405  -0.209  -8.781  1.00  0.00     0.344 HD
ENDBRANCH   1   2
BRANCH   1   6
ATOM      6  C   UNL     1       2.071   0.214  -7.346  1.00  0.00     0.096 C 
ATOM      7  O   UNL     1       1.049   0.827  -6.941  1.00  0.00    -0.544 OA
ATOM      8  O   UNL     1       2.954  -0.337  -6.427  1.00  0.00    -0.544 OA
ENDBRANCH   1   6
TORSDOF 2
ENDMDL
MODEL 3
REMARK VINA RESULT:    -2.235      1.701      1.968
REMARK INTER + INTRA:          -2.432
REMARK INTER:                  -2.432
REMARK INTRA:                   0.000
REMARK UNBOUND:                 0.000
REMARK SMILES [NH3+]CC(=O)[O-]
REMARK SMILES IDX 2 1 1 2 3 6 4 7 5 8
REMARK H PARENT 1 3 1 4 1 5
REMARK Flexibility Score: inf
ROOT
ATOM      1  C   UNL     1       1.828   0.283  -7.198  1.00  0.00     0.312 C 
ENDROOT
BRANCH   1   2
ATOM      2  N   UNL     1       3.025  -0.166  -6.489  1.00  0.00    -0.353 N 
ATOM      3  H   UNL     1       2.887  -1.154  -6.176  1.00  0.00     0.344 HD
ATOM      4  H   UNL     1       3.191   0.436  -5.649  1.00  0.00     0.344 HD
ATOM      5  H   UNL     1       3.855  -0.124  -7.124  1.00  0.00     0.344 HD
ENDBRANCH   1   2
BRANCH   1   6
ATOM      6  C   UNL     1       1.885  -0.117  -8.640  1.00  0.00     0.096 C 
ATOM      7  O   UNL     1       1.082  -0.976  -9.089  1.00  0.00    -0.544 OA
ATOM      8  O   UNL     1       2.858   0.419  -9.472  1.00  0.00    -0.544 OA
ENDBRANCH   1   6
TORSDOF 2
ENDMDL
MODEL 4
REMARK VINA RESULT:    -2.072      6.732      7.130
REMARK INTER + INTRA:          -2.254
REMARK INTER:                  -2.254
REMARK INTRA:                   0.000
REMARK UNBOUND:                 0.000
REMARK SMILES [NH3+]CC(=O)[O-]
REMARK SMILES IDX 2 1 1 2 3 6 4 7 5 8
REMARK H PARENT 1 3 1 4 1 5
REMARK Flexibility Score: inf
ROOT
ATOM      1  C   UNL     1      -1.860  -4.414 -11.084  1.00  0.00     0.312 C 
ENDROOT
BRANCH   1   2
ATOM      2  N   UNL     1      -0.909  -3.629 -10.299  1.00  0.00    -0.353 N 
ATOM      3  H   UNL     1      -0.014  -4.163 -10.212  1.00  0.00     0.344 HD
ATOM      4  H   UNL     1      -1.294  -3.452  -9.342  1.00  0.00     0.344 HD
ATOM      5  H   UNL     1      -0.716  -2.718 -10.776  1.00  0.00     0.344 HD
ENDBRANCH   1   2
BRANCH   1   6
ATOM      6  C   UNL     1      -1.142  -5.292 -12.062  1.00  0.00     0.096 C 
ATOM      7  O   UNL     1      -0.412  -4.782 -12.952  1.00  0.00    -0.544 OA
ATOM      8  O   UNL     1      -1.321  -6.669 -12.023  1.00  0.00    -0.544 OA
ENDBRANCH   1   6
TORSDOF 2
ENDMDL
MODEL 5
REMARK VINA RESULT:    -1.973      6.658      6.989
REMARK INTER + INTRA:          -2.146
REMARK INTER:                  -2.146
REMARK INTRA:                   0.000
REMARK UNBOUND:                 0.000
REMARK SMILES [NH3+]CC(=O)[O-]
REMARK SMILES IDX 2 1 1 2 3 6 4 7 5 8
REMARK H PARENT 1 3 1 4 1 5
REMARK Flexibility Score: inf
ROOT
ATOM      1  C   UNL     1      -1.828  -4.276 -11.045  1.00  0.00     0.312 C 
ENDROOT
BRANCH   1   2
ATOM      2  N   UNL     1      -0.805  -3.555 -10.291  1.00  0.00    -0.353 N 
ATOM      3  H   UNL     1      -1.249  -2.748  -9.796  1.00  0.00     0.344 HD
ATOM      4  H   UNL     1      -0.070  -3.191 -10.941  1.00  0.00     0.344 HD
ATOM      5  H   UNL     1      -0.368  -4.188  -9.582  1.00  0.00     0.344 HD
ENDBRANCH   1   2
BRANCH   1   6
ATOM      6  C   UNL     1      -1.199  -5.226 -12.016  1.00  0.00     0.096 C 
ATOM      7  O   UNL     1      -1.395  -6.465 -11.907  1.00  0.00    -0.544 OA
ATOM      8  O   UNL     1      -0.354  -4.747 -13.009  1.00  0.00    -0.544 OA
ENDBRANCH   1   6
TORSDOF 2
ENDMDL
MODEL 6
REMARK VINA RESULT:    -1.895      5.727      6.093
REMARK INTER + INTRA:          -2.061
REMARK INTER:                  -2.061
REMARK INTRA:                   0.000
REMARK UNBOUND:                 0.000
REMARK SMILES [NH3+]CC(=O)[O-]
REMARK SMILES IDX 2 1 1 2 3 6 4 7 5 8
REMARK H PARENT 1 3 1 4 1 5
REMARK Flexibility Score: inf
ROOT
ATOM      1  C   UNL     1      -1.809  -4.683 -10.911  1.00  0.00     0.312 C 
ENDROOT
BRANCH   1   2
ATOM      2  N   UNL     1      -1.417  -5.396 -12.125  1.00  0.00    -0.353 N 
ATOM      3  H   UNL     1      -2.263  -5.554 -12.718  1.00  0.00     0.344 HD
ATOM      4  H   UNL     1      -0.999  -6.323 -11.878  1.00  0.00     0.344 HD
ATOM      5  H   UNL     1      -0.724  -4.829 -12.666  1.00  0.00     0.344 HD
ENDBRANCH   1   2
BRANCH   1   6
ATOM      6  C   UNL     1      -0.926  -3.495 -10.687  1.00  0.00     0.096 C 
ATOM      7  O   UNL     1       0.216  -3.447 -11.214  1.00  0.00    -0.544 OA
ATOM      8  O   UNL     1      -1.345  -2.465  -9.853  1.00  0.00    -0.544 OA
ENDBRANCH   1   6
TORSDOF 2
ENDMDL
MODEL 7
REMARK VINA RESULT:    -1.837      5.723      6.167
REMARK INTER + INTRA:          -1.998
REMARK INTER:                  -1.998
REMARK INTRA:                   0.000
REMARK UNBOUND:                 0.000
REMARK SMILES [NH3+]CC(=O)[O-]
REMARK SMILES IDX 2 1 1 2 3 6 4 7 5 8
REMARK H PARENT 1 3 1 4 1 5
REMARK Flexibility Score: inf
ROOT
ATOM      1  C   UNL     1      -1.873  -4.606 -10.968  1.00  0.00     0.312 C 
ENDROOT
BRANCH   1   2
ATOM      2  N   UNL     1      -1.390  -5.358 -12.125  1.00  0.00    -0.353 N 
ATOM      3  H   UNL     1      -2.131  -6.029 -12.430  1.00  0.00     0.344 HD
ATOM      4  H   UNL     1      -0.529  -5.895 -11.870  1.00  0.00     0.344 HD
ATOM      5  H   UNL     1      -1.178  -4.704 -12.914  1.00  0.00     0.344 HD
ENDBRANCH   1   2
BRANCH   1   6
ATOM      6  C   UNL     1      -0.950  -3.470 -10.652  1.00  0.00     0.096 C 
ATOM      7  O   UNL     1      -1.328  -2.541  -9.892  1.00  0.00    -0.544 OA
ATOM      8  O   UNL     1       0.308  -3.413 -11.238  1.00  0.00    -0.544 OA
ENDBRANCH   1   6
TORSDOF 2
ENDMDL
MODEL 8
REMARK VINA RESULT:    -1.329      2.268      2.396
REMARK INTER + INTRA:          -1.445
REMARK INTER:                  -1.445
REMARK INTRA:                   0.000
REMARK UNBOUND:                 0.000
REMARK SMILES [NH3+]CC(=O)[O-]
REMARK SMILES IDX 2 1 1 2 3 6 4 7 5 8
REMARK H PARENT 1 3 1 4 1 5
REMARK Flexibility Score: inf
ROOT
ATOM      1  C   UNL     1       2.211  -0.779 -10.095  1.00  0.00     0.312 C 
ENDROOT
BRANCH   1   2
ATOM      2  N   UNL     1       1.134  -1.602  -9.549  1.00  0.00    -0.353 N 
ATOM      3  H   UNL     1       1.544  -2.462  -9.119  1.00  0.00     0.344 HD
ATOM      4  H   UNL     1       0.477  -1.885 -10.314  1.00  0.00     0.344 HD
ATOM      5  H   UNL     1       0.613  -1.070  -8.815  1.00  0.00     0.344 HD
ENDBRANCH   1   2
BRANCH   1   6
ATOM      6  C   UNL     1       2.788   0.109  -9.036  1.00  0.00     0.096 C 
ATOM      7  O   UNL     1       3.952   0.571  -9.163  1.00  0.00    -0.544 OA
ATOM      8  O   UNL     1       2.059   0.382  -7.885  1.00  0.00    -0.544 OA
ENDBRANCH   1   6
TORSDOF 2
ENDMDL
MODEL 9
REMARK VINA RESULT:    -1.013      6.643      7.022
REMARK INTER + INTRA:          -1.102
REMARK INTER:                  -1.102
REMARK INTRA:                   0.000
REMARK UNBOUND:                 0.000
REMARK SMILES [NH3+]CC(=O)[O-]
REMARK SMILES IDX 2 1 1 2 3 6 4 7 5 8
REMARK H PARENT 1 3 1 4 1 5
REMARK Flexibility Score: inf
ROOT
ATOM      1  C   UNL     1      -0.630   3.137  -4.831  1.00  0.00     0.312 C 
ENDROOT
BRANCH   1   2
ATOM      2  N   UNL     1      -1.118   2.791  -6.164  1.00  0.00    -0.353 N 
ATOM      3  H   UNL     1      -0.870   3.558  -6.830  1.00  0.00     0.344 HD
ATOM      4  H   UNL     1      -2.159   2.680  -6.147  1.00  0.00     0.344 HD
ATOM      5  H   UNL     1      -0.673   1.902  -6.490  1.00  0.00     0.344 HD
ENDBRANCH   1   2
BRANCH   1   6
ATOM      6  C   UNL     1      -1.448   4.241  -4.237  1.00  0.00     0.096 C 
ATOM      7  O   UNL     1      -1.678   4.263  -3.000  1.00  0.00    -0.544 OA
ATOM      8  O   UNL     1      -2.001   5.216  -5.058  1.00  0.00    -0.544 OA
ENDBRANCH   1   6
TORSDOF 2
ENDMDL
