MODEL 1
REMARK VINA RESULT:    -6.018      0.000      0.000
REMARK INTER + INTRA:         -20.003
REMARK INTER:                 -15.164
REMARK INTRA:                  -4.839
REMARK UNBOUND:                -4.839
REMARK SMILES CCCCCCCCCCCCCCCCCCCCCCCCCCCC(=O)[O-]
REMARK SMILES IDX 15 1 16 2 17 3 18 4 19 5 20 6 21 7 22 8 23 9 24 10 25 11
REMARK SMILES IDX 26 12 27 13 28 14 29 15 30 16 14 17 13 18 12 19 11 20 10 21
REMARK SMILES IDX 9 22 8 23 7 24 6 25 5 26 4 27 3 28 2 29 1 30
REMARK H PARENT
REMARK Flexibility Score: inf
ROOT
ATOM      1  C   UNL     1     100.872 105.136 229.219  1.00  0.00     0.000 C 
ENDROOT
BRANCH   1   2
ATOM      2  C   UNL     1     101.177 103.665 228.898  1.00  0.00     0.000 C 
BRANCH   2   3
ATOM      3  C   UNL     1     101.978 103.011 230.031  1.00  0.00     0.000 C 
BRANCH   3   4
ATOM      4  C   UNL     1     103.461 103.406 229.961  1.00  0.00     0.000 C 
BRANCH   4   5
ATOM      5  C   UNL     1     104.402 102.191 229.999  1.00  0.00     0.000 C 
BRANCH   5   6
ATOM      6  C   UNL     1     104.841 101.824 231.428  1.00  0.00     0.000 C 
BRANCH   6   7
ATOM      7  C   UNL     1     106.365 101.967 231.632  1.00  0.00     0.000 C 
BRANCH   7   8
ATOM      8  C   UNL     1     106.793 103.336 232.198  1.00  0.00     0.000 C 
BRANCH   8   9
ATOM      9  C   UNL     1     107.850 104.091 231.368  1.00  0.00     0.000 C 
BRANCH   9  10
ATOM     10  C   UNL     1     107.631 104.048 229.844  1.00  0.00     0.000 C 
BRANCH  10  11
ATOM     11  C   UNL     1     108.686 103.195 229.119  1.00  0.00     0.000 C 
BRANCH  11  12
ATOM     12  C   UNL     1     109.841 102.770 230.040  1.00  0.00     0.006 C 
BRANCH  12  13
ATOM     13  C   UNL     1     111.167 103.456 229.689  1.00  0.00     0.053 C 
BRANCH  13  14
ATOM     14  C   UNL     1     111.751 104.119 230.897  1.00  0.00     0.041 C 
ATOM     15  O   UNL     1     112.921 103.837 231.269  1.00  0.00    -0.550 OA
ATOM     16  O   UNL     1     110.986 105.005 231.643  1.00  0.00    -0.550 OA
ENDBRANCH  13  14
ENDBRANCH  12  13
ENDBRANCH  11  12
ENDBRANCH  10  11
ENDBRANCH   9  10
ENDBRANCH   8   9
ENDBRANCH   7   8
ENDBRANCH   6   7
ENDBRANCH   5   6
ENDBRANCH   4   5
ENDBRANCH   3   4
ENDBRANCH   2   3
ENDBRANCH   1   2
BRANCH   1  17
ATOM     17  C   UNL     1     100.407 105.345 230.668  1.00  0.00     0.000 C 
BRANCH  17  18
ATOM     18  C   UNL     1     101.225 106.417 231.410  1.00  0.00     0.000 C 
BRANCH  18  19
ATOM     19  C   UNL     1     100.871 106.508 232.902  1.00  0.00     0.000 C 
BRANCH  19  20
ATOM     20  C   UNL     1     101.994 105.985 233.813  1.00  0.00     0.000 C 
BRANCH  20  21
ATOM     21  C   UNL     1     103.230 105.592 232.989  1.00  0.00     0.000 C 
BRANCH  21  22
ATOM     22  C   UNL     1     104.546 106.016 233.666  1.00  0.00    -0.000 C 
BRANCH  22  23
ATOM     23  C   UNL     1     105.443 106.847 232.731  1.00  0.00    -0.000 C 
BRANCH  23  24
ATOM     24  C   UNL     1     104.858 106.985 231.317  1.00  0.00    -0.000 C 
BRANCH  24  25
ATOM     25  C   UNL     1     105.551 108.079 230.488  1.00  0.00    -0.000 C 
BRANCH  25  26
ATOM     26  C   UNL     1     105.241 107.908 228.993  1.00  0.00    -0.000 C 
BRANCH  26  27
ATOM     27  C   UNL     1     105.078 106.436 228.587  1.00  0.00    -0.000 C 
BRANCH  27  28
ATOM     28  C   UNL     1     103.978 106.232 227.529  1.00  0.00    -0.000 C 
BRANCH  28  29
ATOM     29  C   UNL     1     104.194 104.958 226.697  1.00  0.00    -0.003 C 
ATOM     30  C   UNL     1     105.609 104.397 226.835  1.00  0.00     0.004 C 
ENDBRANCH  28  29
ENDBRANCH  27  28
ENDBRANCH  26  27
ENDBRANCH  25  26
ENDBRANCH  24  25
ENDBRANCH  23  24
ENDBRANCH  22  23
ENDBRANCH  21  22
ENDBRANCH  20  21
ENDBRANCH  19  20
ENDBRANCH  18  19
ENDBRANCH  17  18
ENDBRANCH   1  17
TORSDOF 26
ENDMDL
MODEL 2
REMARK VINA RESULT:    -5.999      1.433      3.334
REMARK INTER + INTRA:         -19.957
REMARK INTER:                 -15.247
REMARK INTRA:                  -4.711
REMARK UNBOUND:                -4.839
REMARK SMILES CCCCCCCCCCCCCCCCCCCCCCCCCCCC(=O)[O-]
REMARK SMILES IDX 15 1 16 2 17 3 18 4 19 5 20 6 21 7 22 8 23 9 24 10 25 11
REMARK SMILES IDX 26 12 27 13 28 14 29 15 30 16 14 17 13 18 12 19 11 20 10 21
REMARK SMILES IDX 9 22 8 23 7 24 6 25 5 26 4 27 3 28 2 29 1 30
REMARK H PARENT
REMARK Flexibility Score: inf
ROOT
ATOM      1  C   UNL     1     102.387 103.405 229.521  1.00  0.00     0.000 C 
ENDROOT
BRANCH   1   2
ATOM      2  C   UNL     1     102.716 104.824 229.036  1.00  0.00     0.000 C 
BRANCH   2   3
ATOM      3  C   UNL     1     102.091 105.094 227.661  1.00  0.00     0.000 C 
BRANCH   3   4
ATOM      4  C   UNL     1     103.164 105.469 226.628  1.00  0.00     0.000 C 
BRANCH   4   5
ATOM      5  C   UNL     1     104.588 105.426 227.207  1.00  0.00     0.000 C 
BRANCH   5   6
ATOM      6  C   UNL     1     105.449 104.313 226.584  1.00  0.00     0.000 C 
BRANCH   6   7
ATOM      7  C   UNL     1     106.418 103.677 227.605  1.00  0.00     0.000 C 
BRANCH   7   8
ATOM      8  C   UNL     1     106.137 104.079 229.067  1.00  0.00     0.000 C 
BRANCH   8   9
ATOM      9  C   UNL     1     106.055 102.910 230.067  1.00  0.00     0.000 C 
BRANCH   9  10
ATOM     10  C   UNL     1     107.301 102.726 230.954  1.00  0.00     0.000 C 
BRANCH  10  11
ATOM     11  C   UNL     1     108.202 103.973 230.973  1.00  0.00     0.000 C 
BRANCH  11  12
ATOM     12  C   UNL     1     109.667 103.651 230.636  1.00  0.00     0.006 C 
BRANCH  12  13
ATOM     13  C   UNL     1     109.809 102.717 229.427  1.00  0.00     0.053 C 
BRANCH  13  14
ATOM     14  C   UNL     1     111.107 102.963 228.724  1.00  0.00     0.041 C 
ATOM     15  O   UNL     1     111.560 102.108 227.917  1.00  0.00    -0.550 OA
ATOM     16  O   UNL     1     111.843 104.108 229.000  1.00  0.00    -0.550 OA
ENDBRANCH  13  14
ENDBRANCH  12  13
ENDBRANCH  11  12
ENDBRANCH  10  11
ENDBRANCH   9  10
ENDBRANCH   8   9
ENDBRANCH   7   8
ENDBRANCH   6   7
ENDBRANCH   5   6
ENDBRANCH   4   5
ENDBRANCH   3   4
ENDBRANCH   2   3
ENDBRANCH   1   2
BRANCH   1  17
ATOM     17  C   UNL     1     101.524 103.396 230.792  1.00  0.00     0.000 C 
BRANCH  17  18
ATOM     18  C   UNL     1     100.027 103.599 230.500  1.00  0.00     0.000 C 
BRANCH  18  19
ATOM     19  C   UNL     1      99.475 104.900 231.104  1.00  0.00     0.000 C 
BRANCH  19  20
ATOM     20  C   UNL     1     100.581 105.822 231.642  1.00  0.00     0.000 C 
BRANCH  20  21
ATOM     21  C   UNL     1     100.104 106.581 232.890  1.00  0.00     0.000 C 
BRANCH  21  22
ATOM     22  C   UNL     1     101.180 106.641 233.988  1.00  0.00    -0.000 C 
BRANCH  22  23
ATOM     23  C   UNL     1     102.401 105.763 233.659  1.00  0.00    -0.000 C 
BRANCH  23  24
ATOM     24  C   UNL     1     103.633 106.122 234.506  1.00  0.00    -0.000 C 
BRANCH  24  25
ATOM     25  C   UNL     1     104.955 105.934 233.745  1.00  0.00    -0.000 C 
BRANCH  25  26
ATOM     26  C   UNL     1     104.692 105.535 232.285  1.00  0.00    -0.000 C 
BRANCH  26  27
ATOM     27  C   UNL     1     105.185 106.591 231.284  1.00  0.00    -0.000 C 
BRANCH  27  28
ATOM     28  C   UNL     1     104.247 107.807 231.197  1.00  0.00    -0.000 C 
BRANCH  28  29
ATOM     29  C   UNL     1     103.829 108.123 229.752  1.00  0.00    -0.003 C 
ATOM     30  C   UNL     1     105.018 108.484 228.861  1.00  0.00     0.004 C 
ENDBRANCH  28  29
ENDBRANCH  27  28
ENDBRANCH  26  27
ENDBRANCH  25  26
ENDBRANCH  24  25
ENDBRANCH  23  24
ENDBRANCH  22  23
ENDBRANCH  21  22
ENDBRANCH  20  21
ENDBRANCH  19  20
ENDBRANCH  18  19
ENDBRANCH  17  18
ENDBRANCH   1  17
TORSDOF 26
ENDMDL
MODEL 3
REMARK VINA RESULT:    -5.961      1.099      3.550
REMARK INTER + INTRA:         -19.860
REMARK INTER:                 -15.032
REMARK INTRA:                  -4.828
REMARK UNBOUND:                -4.839
REMARK SMILES CCCCCCCCCCCCCCCCCCCCCCCCCCCC(=O)[O-]
REMARK SMILES IDX 15 1 16 2 17 3 18 4 19 5 20 6 21 7 22 8 23 9 24 10 25 11
REMARK SMILES IDX 26 12 27 13 28 14 29 15 30 16 14 17 13 18 12 19 11 20 10 21
REMARK SMILES IDX 9 22 8 23 7 24 6 25 5 26 4 27 3 28 2 29 1 30
REMARK H PARENT
REMARK Flexibility Score: inf
ROOT
ATOM      1  C   UNL     1     101.160 106.900 232.504  1.00  0.00     0.000 C 
ENDROOT
BRANCH   1   2
ATOM      2  C   UNL     1     101.749 106.398 233.830  1.00  0.00     0.000 C 
BRANCH   2   3
ATOM      3  C   UNL     1     102.936 105.458 233.583  1.00  0.00     0.000 C 
BRANCH   3   4
ATOM      4  C   UNL     1     104.252 106.090 234.062  1.00  0.00     0.000 C 
BRANCH   4   5
ATOM      5  C   UNL     1     105.371 106.002 233.010  1.00  0.00     0.000 C 
BRANCH   5   6
ATOM      6  C   UNL     1     106.533 105.096 233.453  1.00  0.00     0.000 C 
BRANCH   6   7
ATOM      7  C   UNL     1     107.148 104.308 232.276  1.00  0.00     0.000 C 
BRANCH   7   8
ATOM      8  C   UNL     1     106.776 102.812 232.264  1.00  0.00     0.000 C 
BRANCH   8   9
ATOM      9  C   UNL     1     107.501 101.960 231.204  1.00  0.00     0.000 C 
BRANCH   9  10
ATOM     10  C   UNL     1     108.179 102.765 230.079  1.00  0.00     0.000 C 
BRANCH  10  11
ATOM     11  C   UNL     1     109.625 102.308 229.815  1.00  0.00     0.000 C 
BRANCH  11  12
ATOM     12  C   UNL     1     110.366 103.227 228.830  1.00  0.00     0.006 C 
BRANCH  12  13
ATOM     13  C   UNL     1     111.763 103.624 229.323  1.00  0.00     0.053 C 
BRANCH  13  14
ATOM     14  C   UNL     1     111.693 104.176 230.712  1.00  0.00     0.041 C 
ATOM     15  O   UNL     1     112.470 103.746 231.605  1.00  0.00    -0.550 OA
ATOM     16  O   UNL     1     110.732 105.126 231.036  1.00  0.00    -0.550 OA
ENDBRANCH  13  14
ENDBRANCH  12  13
ENDBRANCH  11  12
ENDBRANCH  10  11
ENDBRANCH   9  10
ENDBRANCH   8   9
ENDBRANCH   7   8
ENDBRANCH   6   7
ENDBRANCH   5   6
ENDBRANCH   4   5
ENDBRANCH   3   4
ENDBRANCH   2   3
ENDBRANCH   1   2
BRANCH   1  17
ATOM     17  C   UNL     1     102.185 106.900 231.360  1.00  0.00     0.000 C 
BRANCH  17  18
ATOM     18  C   UNL     1     101.533 107.036 229.973  1.00  0.00     0.000 C 
BRANCH  18  19
ATOM     19  C   UNL     1     100.612 105.854 229.630  1.00  0.00     0.000 C 
BRANCH  19  20
ATOM     20  C   UNL     1     101.144 105.006 228.463  1.00  0.00     0.000 C 
BRANCH  20  21
ATOM     21  C   UNL     1     101.245 103.525 228.863  1.00  0.00     0.000 C 
BRANCH  21  22
ATOM     22  C   UNL     1     101.459 103.338 230.375  1.00  0.00    -0.000 C 
BRANCH  22  23
ATOM     23  C   UNL     1     102.879 102.843 230.708  1.00  0.00    -0.000 C 
BRANCH  23  24
ATOM     24  C   UNL     1     103.964 103.872 230.351  1.00  0.00    -0.000 C 
BRANCH  24  25
ATOM     25  C   UNL     1     104.855 103.419 229.184  1.00  0.00    -0.000 C 
BRANCH  25  26
ATOM     26  C   UNL     1     105.424 104.630 228.430  1.00  0.00    -0.000 C 
BRANCH  26  27
ATOM     27  C   UNL     1     105.318 105.933 229.238  1.00  0.00    -0.000 C 
BRANCH  27  28
ATOM     28  C   UNL     1     104.601 107.053 228.463  1.00  0.00    -0.000 C 
BRANCH  28  29
ATOM     29  C   UNL     1     105.073 108.453 228.887  1.00  0.00    -0.003 C 
ATOM     30  C   UNL     1     105.283 108.573 230.396  1.00  0.00     0.004 C 
ENDBRANCH  28  29
ENDBRANCH  27  28
ENDBRANCH  26  27
ENDBRANCH  25  26
ENDBRANCH  24  25
ENDBRANCH  23  24
ENDBRANCH  22  23
ENDBRANCH  21  22
ENDBRANCH  20  21
ENDBRANCH  19  20
ENDBRANCH  18  19
ENDBRANCH  17  18
ENDBRANCH   1  17
TORSDOF 26
ENDMDL
MODEL 4
REMARK VINA RESULT:    -5.936      0.864      2.290
REMARK INTER + INTRA:         -19.799
REMARK INTER:                 -15.238
REMARK INTRA:                  -4.560
REMARK UNBOUND:                -4.839
REMARK SMILES CCCCCCCCCCCCCCCCCCCCCCCCCCCC(=O)[O-]
REMARK SMILES IDX 15 1 16 2 17 3 18 4 19 5 20 6 21 7 22 8 23 9 24 10 25 11
REMARK SMILES IDX 26 12 27 13 28 14 29 15 30 16 14 17 13 18 12 19 11 20 10 21
REMARK SMILES IDX 9 22 8 23 7 24 6 25 5 26 4 27 3 28 2 29 1 30
REMARK H PARENT
REMARK Flexibility Score: inf
ROOT
ATOM      1  C   UNL     1      99.536 105.847 231.858  1.00  0.00     0.000 C 
ENDROOT
BRANCH   1   2
ATOM      2  C   UNL     1      99.510 104.768 230.765  1.00  0.00     0.000 C 
BRANCH   2   3
ATOM      3  C   UNL     1     100.652 104.975 229.762  1.00  0.00     0.000 C 
BRANCH   3   4
ATOM      4  C   UNL     1     101.299 103.636 229.375  1.00  0.00     0.000 C 
BRANCH   4   5
ATOM      5  C   UNL     1     101.306 102.623 230.531  1.00  0.00     0.000 C 
BRANCH   5   6
ATOM      6  C   UNL     1     102.705 102.428 231.143  1.00  0.00     0.000 C 
BRANCH   6   7
ATOM      7  C   UNL     1     103.752 103.385 230.534  1.00  0.00     0.000 C 
BRANCH   7   8
ATOM      8  C   UNL     1     105.013 102.674 230.002  1.00  0.00     0.000 C 
BRANCH   8   9
ATOM      9  C   UNL     1     105.608 101.602 230.935  1.00  0.00     0.000 C 
BRANCH   9  10
ATOM     10  C   UNL     1     106.980 101.957 231.539  1.00  0.00     0.000 C 
BRANCH  10  11
ATOM     11  C   UNL     1     107.062 103.423 231.999  1.00  0.00     0.000 C 
BRANCH  11  12
ATOM     12  C   UNL     1     108.016 104.263 231.135  1.00  0.00     0.006 C 
BRANCH  12  13
ATOM     13  C   UNL     1     108.988 103.406 230.315  1.00  0.00     0.053 C 
BRANCH  13  14
ATOM     14  C   UNL     1     110.371 103.973 230.380  1.00  0.00     0.041 C 
ATOM     15  O   UNL     1     110.614 104.967 231.115  1.00  0.00    -0.550 OA
ATOM     16  O   UNL     1     111.381 103.439 229.589  1.00  0.00    -0.550 OA
ENDBRANCH  13  14
ENDBRANCH  12  13
ENDBRANCH  11  12
ENDBRANCH  10  11
ENDBRANCH   9  10
ENDBRANCH   8   9
ENDBRANCH   7   8
ENDBRANCH   6   7
ENDBRANCH   5   6
ENDBRANCH   4   5
ENDBRANCH   3   4
ENDBRANCH   2   3
ENDBRANCH   1   2
BRANCH   1  17
ATOM     17  C   UNL     1     100.961 106.279 232.235  1.00  0.00     0.000 C 
BRANCH  17  18
ATOM     18  C   UNL     1     101.099 106.655 233.721  1.00  0.00     0.000 C 
BRANCH  18  19
ATOM     19  C   UNL     1     102.393 106.118 234.352  1.00  0.00     0.000 C 
BRANCH  19  20
ATOM     20  C   UNL     1     103.388 105.586 233.308  1.00  0.00     0.000 C 
BRANCH  20  21
ATOM     21  C   UNL     1     104.835 105.906 233.715  1.00  0.00     0.000 C 
BRANCH  21  22
ATOM     22  C   UNL     1     105.520 106.874 232.734  1.00  0.00    -0.000 C 
BRANCH  22  23
ATOM     23  C   UNL     1     104.658 107.154 231.490  1.00  0.00    -0.000 C 
BRANCH  23  24
ATOM     24  C   UNL     1     105.243 108.265 230.602  1.00  0.00    -0.000 C 
BRANCH  24  25
ATOM     25  C   UNL     1     105.161 107.935 229.104  1.00  0.00    -0.000 C 
BRANCH  25  26
ATOM     26  C   UNL     1     104.782 106.462 228.889  1.00  0.00    -0.000 C 
BRANCH  26  27
ATOM     27  C   UNL     1     104.191 106.200 227.495  1.00  0.00    -0.000 C 
BRANCH  27  28
ATOM     28  C   UNL     1     104.204 104.707 227.119  1.00  0.00    -0.000 C 
BRANCH  28  29
ATOM     29  C   UNL     1     105.435 104.324 226.282  1.00  0.00    -0.003 C 
ATOM     30  C   UNL     1     106.621 103.890 227.143  1.00  0.00     0.004 C 
ENDBRANCH  28  29
ENDBRANCH  27  28
ENDBRANCH  26  27
ENDBRANCH  25  26
ENDBRANCH  24  25
ENDBRANCH  23  24
ENDBRANCH  22  23
ENDBRANCH  21  22
ENDBRANCH  20  21
ENDBRANCH  19  20
ENDBRANCH  18  19
ENDBRANCH  17  18
ENDBRANCH   1  17
TORSDOF 26
ENDMDL
MODEL 5
REMARK VINA RESULT:    -5.911      3.087      6.813
REMARK INTER + INTRA:         -19.734
REMARK INTER:                 -15.033
REMARK INTRA:                  -4.701
REMARK UNBOUND:                -4.839
REMARK SMILES CCCCCCCCCCCCCCCCCCCCCCCCCCCC(=O)[O-]
REMARK SMILES IDX 15 1 16 2 17 3 18 4 19 5 20 6 21 7 22 8 23 9 24 10 25 11
REMARK SMILES IDX 26 12 27 13 28 14 29 15 30 16 14 17 13 18 12 19 11 20 10 21
REMARK SMILES IDX 9 22 8 23 7 24 6 25 5 26 4 27 3 28 2 29 1 30
REMARK H PARENT
REMARK Flexibility Score: inf
ROOT
ATOM      1  C   UNL     1     105.922 105.354 233.357  1.00  0.00     0.000 C 
ENDROOT
BRANCH   1   2
ATOM      2  C   UNL     1     106.615 104.507 232.280  1.00  0.00     0.000 C 
BRANCH   2   3
ATOM      3  C   UNL     1     106.610 103.022 232.661  1.00  0.00     0.000 C 
BRANCH   3   4
ATOM      4  C   UNL     1     105.974 102.167 231.554  1.00  0.00     0.000 C 
BRANCH   4   5
ATOM      5  C   UNL     1     104.998 102.966 230.674  1.00  0.00     0.000 C 
BRANCH   5   6
ATOM      6  C   UNL     1     103.849 102.102 230.125  1.00  0.00     0.000 C 
BRANCH   6   7
ATOM      7  C   UNL     1     102.622 102.086 231.063  1.00  0.00     0.000 C 
BRANCH   7   8
ATOM      8  C   UNL     1     101.293 102.422 230.358  1.00  0.00     0.000 C 
BRANCH   8   9
ATOM      9  C   UNL     1     101.422 103.267 229.075  1.00  0.00     0.000 C 
BRANCH   9  10
ATOM     10  C   UNL     1     100.958 104.729 229.213  1.00  0.00     0.000 C 
BRANCH  10  11
ATOM     11  C   UNL     1     101.772 105.512 230.258  1.00  0.00     0.000 C 
BRANCH  11  12
ATOM     12  C   UNL     1     101.013 105.701 231.581  1.00  0.00     0.006 C 
BRANCH  12  13
ATOM     13  C   UNL     1     101.617 106.801 232.462  1.00  0.00     0.053 C 
BRANCH  13  14
ATOM     14  C   UNL     1     100.819 106.965 233.718  1.00  0.00     0.041 C 
ATOM     15  O   UNL     1     101.390 106.926 234.840  1.00  0.00    -0.550 OA
ATOM     16  O   UNL     1      99.438 107.105 233.653  1.00  0.00    -0.550 OA
ENDBRANCH  13  14
ENDBRANCH  12  13
ENDBRANCH  11  12
ENDBRANCH  10  11
ENDBRANCH   9  10
ENDBRANCH   8   9
ENDBRANCH   7   8
ENDBRANCH   6   7
ENDBRANCH   5   6
ENDBRANCH   4   5
ENDBRANCH   3   4
ENDBRANCH   2   3
ENDBRANCH   1   2
BRANCH   1  17
ATOM     17  C   UNL     1     105.216 106.590 232.779  1.00  0.00     0.000 C 
BRANCH  17  18
ATOM     18  C   UNL     1     105.196 106.603 231.240  1.00  0.00     0.000 C 
BRANCH  18  19
ATOM     19  C   UNL     1     105.004 108.013 230.660  1.00  0.00     0.000 C 
BRANCH  19  20
ATOM     20  C   UNL     1     104.838 108.009 229.131  1.00  0.00     0.000 C 
BRANCH  20  21
ATOM     21  C   UNL     1     105.060 106.600 228.559  1.00  0.00     0.000 C 
BRANCH  21  22
ATOM     22  C   UNL     1     103.958 106.189 227.566  1.00  0.00    -0.000 C 
BRANCH  22  23
ATOM     23  C   UNL     1     104.393 105.026 226.657  1.00  0.00    -0.000 C 
BRANCH  23  24
ATOM     24  C   UNL     1     105.474 104.143 227.302  1.00  0.00    -0.000 C 
BRANCH  24  25
ATOM     25  C   UNL     1     106.637 103.831 226.348  1.00  0.00    -0.000 C 
BRANCH  25  26
ATOM     26  C   UNL     1     107.974 103.809 227.106  1.00  0.00    -0.000 C 
BRANCH  26  27
ATOM     27  C   UNL     1     107.796 103.551 228.610  1.00  0.00    -0.000 C 
BRANCH  27  28
ATOM     28  C   UNL     1     108.982 102.786 229.223  1.00  0.00    -0.000 C 
BRANCH  28  29
ATOM     29  C   UNL     1     109.722 103.609 230.290  1.00  0.00    -0.003 C 
ATOM     30  C   UNL     1     111.217 103.745 229.999  1.00  0.00     0.004 C 
ENDBRANCH  28  29
ENDBRANCH  27  28
ENDBRANCH  26  27
ENDBRANCH  25  26
ENDBRANCH  24  25
ENDBRANCH  23  24
ENDBRANCH  22  23
ENDBRANCH  21  22
ENDBRANCH  20  21
ENDBRANCH  19  20
ENDBRANCH  18  19
ENDBRANCH  17  18
ENDBRANCH   1  17
TORSDOF 26
ENDMDL
MODEL 6
REMARK VINA RESULT:    -5.906      3.601      7.169
REMARK INTER + INTRA:         -19.721
REMARK INTER:                 -15.393
REMARK INTRA:                  -4.328
REMARK UNBOUND:                -4.839
REMARK SMILES CCCCCCCCCCCCCCCCCCCCCCCCCCCC(=O)[O-]
REMARK SMILES IDX 15 1 16 2 17 3 18 4 19 5 20 6 21 7 22 8 23 9 24 10 25 11
REMARK SMILES IDX 26 12 27 13 28 14 29 15 30 16 14 17 13 18 12 19 11 20 10 21
REMARK SMILES IDX 9 22 8 23 7 24 6 25 5 26 4 27 3 28 2 29 1 30
REMARK H PARENT
REMARK Flexibility Score: inf
ROOT
ATOM      1  C   UNL     1     103.325 105.236 227.081  1.00  0.00     0.000 C 
ENDROOT
BRANCH   1   2
ATOM      2  C   UNL     1     104.807 105.056 227.442  1.00  0.00     0.000 C 
BRANCH   2   3
ATOM      3  C   UNL     1     105.078 105.497 228.886  1.00  0.00     0.000 C 
BRANCH   3   4
ATOM      4  C   UNL     1     105.558 106.955 228.939  1.00  0.00     0.000 C 
BRANCH   4   5
ATOM      5  C   UNL     1     105.305 107.614 230.305  1.00  0.00     0.000 C 
BRANCH   5   6
ATOM      6  C   UNL     1     104.584 106.678 231.292  1.00  0.00     0.000 C 
BRANCH   6   7
ATOM      7  C   UNL     1     105.237 106.682 232.692  1.00  0.00     0.000 C 
BRANCH   7   8
ATOM      8  C   UNL     1     104.410 105.949 233.768  1.00  0.00     0.000 C 
BRANCH   8   9
ATOM      9  C   UNL     1     102.977 105.566 233.350  1.00  0.00     0.000 C 
BRANCH   9  10
ATOM     10  C   UNL     1     101.864 106.403 234.008  1.00  0.00     0.000 C 
BRANCH  10  11
ATOM     11  C   UNL     1     100.628 106.556 233.105  1.00  0.00     0.000 C 
BRANCH  11  12
ATOM     12  C   UNL     1     100.892 106.113 231.657  1.00  0.00     0.006 C 
BRANCH  12  13
ATOM     13  C   UNL     1      99.637 106.179 230.776  1.00  0.00     0.053 C 
BRANCH  13  14
ATOM     14  C   UNL     1      98.510 105.425 231.411  1.00  0.00     0.041 C 
ATOM     15  O   UNL     1      97.591 106.046 232.007  1.00  0.00    -0.550 OA
ATOM     16  O   UNL     1      98.504 104.037 231.392  1.00  0.00    -0.550 OA
ENDBRANCH  13  14
ENDBRANCH  12  13
ENDBRANCH  11  12
ENDBRANCH  10  11
ENDBRANCH   9  10
ENDBRANCH   8   9
ENDBRANCH   7   8
ENDBRANCH   6   7
ENDBRANCH   5   6
ENDBRANCH   4   5
ENDBRANCH   3   4
ENDBRANCH   2   3
ENDBRANCH   1   2
BRANCH   1  17
ATOM     17  C   UNL     1     102.405 105.207 228.311  1.00  0.00     0.000 C 
BRANCH  17  18
ATOM     18  C   UNL     1     101.363 104.075 228.253  1.00  0.00     0.000 C 
BRANCH  18  19
ATOM     19  C   UNL     1     101.378 103.189 229.508  1.00  0.00     0.000 C 
BRANCH  19  20
ATOM     20  C   UNL     1     102.735 103.201 230.229  1.00  0.00     0.000 C 
BRANCH  20  21
ATOM     21  C   UNL     1     103.090 101.802 230.757  1.00  0.00     0.000 C 
BRANCH  21  22
ATOM     22  C   UNL     1     104.600 101.515 230.692  1.00  0.00    -0.000 C 
BRANCH  22  23
ATOM     23  C   UNL     1     105.431 102.585 231.422  1.00  0.00    -0.000 C 
BRANCH  23  24
ATOM     24  C   UNL     1     106.935 102.267 231.424  1.00  0.00    -0.000 C 
BRANCH  24  25
ATOM     25  C   UNL     1     107.733 103.148 230.450  1.00  0.00    -0.000 C 
BRANCH  25  26
ATOM     26  C   UNL     1     108.159 104.460 231.126  1.00  0.00    -0.000 C 
BRANCH  26  27
ATOM     27  C   UNL     1     109.658 104.753 230.956  1.00  0.00    -0.000 C 
BRANCH  27  28
ATOM     28  C   UNL     1     110.460 103.509 230.532  1.00  0.00    -0.000 C 
BRANCH  28  29
ATOM     29  C   UNL     1     111.429 103.804 229.376  1.00  0.00    -0.003 C 
ATOM     30  C   UNL     1     110.893 103.337 228.023  1.00  0.00     0.004 C 
ENDBRANCH  28  29
ENDBRANCH  27  28
ENDBRANCH  26  27
ENDBRANCH  25  26
ENDBRANCH  24  25
ENDBRANCH  23  24
ENDBRANCH  22  23
ENDBRANCH  21  22
ENDBRANCH  20  21
ENDBRANCH  19  20
ENDBRANCH  18  19
ENDBRANCH  17  18
ENDBRANCH   1  17
TORSDOF 26
ENDMDL
MODEL 7
REMARK VINA RESULT:    -5.852      1.222      3.540
REMARK INTER + INTRA:         -19.587
REMARK INTER:                 -15.004
REMARK INTRA:                  -4.583
REMARK UNBOUND:                -4.839
REMARK SMILES CCCCCCCCCCCCCCCCCCCCCCCCCCCC(=O)[O-]
REMARK SMILES IDX 15 1 16 2 17 3 18 4 19 5 20 6 21 7 22 8 23 9 24 10 25 11
REMARK SMILES IDX 26 12 27 13 28 14 29 15 30 16 14 17 13 18 12 19 11 20 10 21
REMARK SMILES IDX 9 22 8 23 7 24 6 25 5 26 4 27 3 28 2 29 1 30
REMARK H PARENT
REMARK Flexibility Score: inf
ROOT
ATOM      1  C   UNL     1     100.963 103.665 228.606  1.00  0.00     0.000 C 
ENDROOT
BRANCH   1   2
ATOM      2  C   UNL     1     100.541 103.360 230.051  1.00  0.00     0.000 C 
BRANCH   2   3
ATOM      3  C   UNL     1     101.106 102.013 230.516  1.00  0.00     0.000 C 
BRANCH   3   4
ATOM      4  C   UNL     1     102.419 102.201 231.293  1.00  0.00     0.000 C 
BRANCH   4   5
ATOM      5  C   UNL     1     103.662 102.098 230.394  1.00  0.00     0.000 C 
BRANCH   5   6
ATOM      6  C   UNL     1     104.967 102.413 231.147  1.00  0.00     0.000 C 
BRANCH   6   7
ATOM      7  C   UNL     1     106.223 102.063 230.319  1.00  0.00     0.000 C 
BRANCH   7   8
ATOM      8  C   UNL     1     107.542 102.556 230.949  1.00  0.00     0.000 C 
BRANCH   8   9
ATOM      9  C   UNL     1     108.798 102.370 230.076  1.00  0.00     0.000 C 
BRANCH   9  10
ATOM     10  C   UNL     1     108.842 103.242 228.807  1.00  0.00     0.000 C 
BRANCH  10  11
ATOM     11  C   UNL     1     110.242 103.291 228.172  1.00  0.00     0.000 C 
BRANCH  11  12
ATOM     12  C   UNL     1     111.366 103.056 229.193  1.00  0.00     0.006 C 
BRANCH  12  13
ATOM     13  C   UNL     1     112.035 104.358 229.653  1.00  0.00     0.053 C 
BRANCH  13  14
ATOM     14  C   UNL     1     111.722 104.629 231.091  1.00  0.00     0.041 C 
ATOM     15  O   UNL     1     112.595 104.428 231.978  1.00  0.00    -0.550 OA
ATOM     16  O   UNL     1     110.452 105.052 231.460  1.00  0.00    -0.550 OA
ENDBRANCH  13  14
ENDBRANCH  12  13
ENDBRANCH  11  12
ENDBRANCH  10  11
ENDBRANCH   9  10
ENDBRANCH   8   9
ENDBRANCH   7   8
ENDBRANCH   6   7
ENDBRANCH   5   6
ENDBRANCH   4   5
ENDBRANCH   3   4
ENDBRANCH   2   3
ENDBRANCH   1   2
BRANCH   1  17
ATOM     17  C   UNL     1     101.789 104.955 228.487  1.00  0.00     0.000 C 
BRANCH  17  18
ATOM     18  C   UNL     1     102.422 105.134 227.096  1.00  0.00     0.000 C 
BRANCH  18  19
ATOM     19  C   UNL     1     103.958 105.145 227.139  1.00  0.00     0.000 C 
BRANCH  19  20
ATOM     20  C   UNL     1     104.514 105.016 228.566  1.00  0.00     0.000 C 
BRANCH  20  21
ATOM     21  C   UNL     1     105.833 105.791 228.713  1.00  0.00     0.000 C 
BRANCH  21  22
ATOM     22  C   UNL     1     105.785 106.820 229.857  1.00  0.00    -0.000 C 
BRANCH  22  23
ATOM     23  C   UNL     1     104.763 107.940 229.595  1.00  0.00    -0.000 C 
BRANCH  23  24
ATOM     24  C   UNL     1     103.832 108.184 230.793  1.00  0.00    -0.000 C 
BRANCH  24  25
ATOM     25  C   UNL     1     102.450 107.535 230.618  1.00  0.00    -0.000 C 
BRANCH  25  26
ATOM     26  C   UNL     1     102.108 106.647 231.825  1.00  0.00    -0.000 C 
BRANCH  26  27
ATOM     27  C   UNL     1     103.267 105.721 232.225  1.00  0.00    -0.000 C 
BRANCH  27  28
ATOM     28  C   UNL     1     103.754 105.971 233.664  1.00  0.00    -0.000 C 
BRANCH  28  29
ATOM     29  C   UNL     1     105.259 106.275 233.730  1.00  0.00    -0.003 C 
ATOM     30  C   UNL     1     106.115 105.141 233.166  1.00  0.00     0.004 C 
ENDBRANCH  28  29
ENDBRANCH  27  28
ENDBRANCH  26  27
ENDBRANCH  25  26
ENDBRANCH  24  25
ENDBRANCH  23  24
ENDBRANCH  22  23
ENDBRANCH  21  22
ENDBRANCH  20  21
ENDBRANCH  19  20
ENDBRANCH  18  19
ENDBRANCH  17  18
ENDBRANCH   1  17
TORSDOF 26
ENDMDL
MODEL 8
REMARK VINA RESULT:    -5.852      3.285      7.749
REMARK INTER + INTRA:         -19.585
REMARK INTER:                 -15.277
REMARK INTRA:                  -4.308
REMARK UNBOUND:                -4.839
REMARK SMILES CCCCCCCCCCCCCCCCCCCCCCCCCCCC(=O)[O-]
REMARK SMILES IDX 15 1 16 2 17 3 18 4 19 5 20 6 21 7 22 8 23 9 24 10 25 11
REMARK SMILES IDX 26 12 27 13 28 14 29 15 30 16 14 17 13 18 12 19 11 20 10 21
REMARK SMILES IDX 9 22 8 23 7 24 6 25 5 26 4 27 3 28 2 29 1 30
REMARK H PARENT
REMARK Flexibility Score: inf
ROOT
ATOM      1  C   UNL     1     111.169 103.678 230.612  1.00  0.00     0.000 C 
ENDROOT
BRANCH   1   2
ATOM      2  C   UNL     1     110.029 104.621 231.022  1.00  0.00     0.000 C 
BRANCH   2   3
ATOM      3  C   UNL     1     108.662 103.977 230.761  1.00  0.00     0.000 C 
BRANCH   3   4
ATOM      4  C   UNL     1     107.664 104.321 231.877  1.00  0.00     0.000 C 
BRANCH   4   5
ATOM      5  C   UNL     1     106.873 103.096 232.366  1.00  0.00     0.000 C 
BRANCH   5   6
ATOM      6  C   UNL     1     106.900 101.932 231.361  1.00  0.00     0.000 C 
BRANCH   6   7
ATOM      7  C   UNL     1     105.496 101.342 231.105  1.00  0.00     0.000 C 
BRANCH   7   8
ATOM      8  C   UNL     1     104.356 102.374 231.214  1.00  0.00     0.000 C 
BRANCH   8   9
ATOM      9  C   UNL     1     103.051 101.995 230.486  1.00  0.00     0.000 C 
BRANCH   9  10
ATOM     10  C   UNL     1     101.904 103.011 230.638  1.00  0.00     0.000 C 
BRANCH  10  11
ATOM     11  C   UNL     1     101.452 103.599 229.290  1.00  0.00     0.000 C 
BRANCH  11  12
ATOM     12  C   UNL     1     100.948 105.046 229.413  1.00  0.00     0.006 C 
BRANCH  12  13
ATOM     13  C   UNL     1     101.364 105.712 230.731  1.00  0.00     0.053 C 
BRANCH  13  14
ATOM     14  C   UNL     1     100.209 105.762 231.681  1.00  0.00     0.041 C 
ATOM     15  O   UNL     1      99.089 105.296 231.341  1.00  0.00    -0.550 OA
ATOM     16  O   UNL     1     100.353 106.372 232.921  1.00  0.00    -0.550 OA
ENDBRANCH  13  14
ENDBRANCH  12  13
ENDBRANCH  11  12
ENDBRANCH  10  11
ENDBRANCH   9  10
ENDBRANCH   8   9
ENDBRANCH   7   8
ENDBRANCH   6   7
ENDBRANCH   5   6
ENDBRANCH   4   5
ENDBRANCH   3   4
ENDBRANCH   2   3
ENDBRANCH   1   2
BRANCH   1  17
ATOM     17  C   UNL     1     111.630 103.897 229.162  1.00  0.00     0.000 C 
BRANCH  17  18
ATOM     18  C   UNL     1     111.117 102.810 228.201  1.00  0.00     0.000 C 
BRANCH  18  19
ATOM     19  C   UNL     1     110.254 103.380 227.065  1.00  0.00     0.000 C 
BRANCH  19  20
ATOM     20  C   UNL     1     108.794 103.613 227.487  1.00  0.00     0.000 C 
BRANCH  20  21
ATOM     21  C   UNL     1     107.919 103.957 226.271  1.00  0.00     0.000 C 
BRANCH  21  22
ATOM     22  C   UNL     1     106.424 104.034 226.627  1.00  0.00    -0.000 C 
BRANCH  22  23
ATOM     23  C   UNL     1     106.149 103.640 228.089  1.00  0.00    -0.000 C 
BRANCH  23  24
ATOM     24  C   UNL     1     105.078 104.523 228.749  1.00  0.00    -0.000 C 
BRANCH  24  25
ATOM     25  C   UNL     1     104.900 105.875 228.041  1.00  0.00    -0.000 C 
BRANCH  25  26
ATOM     26  C   UNL     1     104.540 106.976 229.050  1.00  0.00    -0.000 C 
BRANCH  26  27
ATOM     27  C   UNL     1     105.602 107.142 230.148  1.00  0.00    -0.000 C 
BRANCH  27  28
ATOM     28  C   UNL     1     104.986 107.425 231.530  1.00  0.00    -0.000 C 
BRANCH  28  29
ATOM     29  C   UNL     1     104.561 106.139 232.257  1.00  0.00    -0.003 C 
ATOM     30  C   UNL     1     105.037 106.098 233.708  1.00  0.00     0.004 C 
ENDBRANCH  28  29
ENDBRANCH  27  28
ENDBRANCH  26  27
ENDBRANCH  25  26
ENDBRANCH  24  25
ENDBRANCH  23  24
ENDBRANCH  22  23
ENDBRANCH  21  22
ENDBRANCH  20  21
ENDBRANCH  19  20
ENDBRANCH  18  19
ENDBRANCH  17  18
ENDBRANCH   1  17
TORSDOF 26
ENDMDL
MODEL 9
REMARK VINA RESULT:    -5.827      1.118      5.121
REMARK INTER + INTRA:         -19.523
REMARK INTER:                 -15.187
REMARK INTRA:                  -4.336
REMARK UNBOUND:                -4.839
REMARK SMILES CCCCCCCCCCCCCCCCCCCCCCCCCCCC(=O)[O-]
REMARK SMILES IDX 15 1 16 2 17 3 18 4 19 5 20 6 21 7 22 8 23 9 24 10 25 11
REMARK SMILES IDX 26 12 27 13 28 14 29 15 30 16 14 17 13 18 12 19 11 20 10 21
REMARK SMILES IDX 9 22 8 23 7 24 6 25 5 26 4 27 3 28 2 29 1 30
REMARK H PARENT
REMARK Flexibility Score: inf
ROOT
ATOM      1  C   UNL     1     105.744 106.025 231.254  1.00  0.00     0.000 C 
ENDROOT
BRANCH   1   2
ATOM      2  C   UNL     1     105.046 107.387 231.381  1.00  0.00     0.000 C 
BRANCH   2   3
ATOM      3  C   UNL     1     104.981 108.099 230.024  1.00  0.00     0.000 C 
BRANCH   3   4
ATOM      4  C   UNL     1     105.377 107.152 228.881  1.00  0.00     0.000 C 
BRANCH   4   5
ATOM      5  C   UNL     1     104.162 106.602 228.117  1.00  0.00     0.000 C 
BRANCH   5   6
ATOM      6  C   UNL     1     104.503 105.362 227.271  1.00  0.00     0.000 C 
BRANCH   6   7
ATOM      7  C   UNL     1     105.784 104.650 227.758  1.00  0.00     0.000 C 
BRANCH   7   8
ATOM      8  C   UNL     1     106.469 103.789 226.679  1.00  0.00     0.000 C 
BRANCH   8   9
ATOM      9  C   UNL     1     107.998 103.949 226.580  1.00  0.00     0.000 C 
BRANCH   9  10
ATOM     10  C   UNL     1     108.772 103.584 227.861  1.00  0.00     0.000 C 
BRANCH  10  11
ATOM     11  C   UNL     1     110.254 103.270 227.588  1.00  0.00     0.000 C 
BRANCH  11  12
ATOM     12  C   UNL     1     111.018 102.863 228.858  1.00  0.00     0.006 C 
BRANCH  12  13
ATOM     13  C   UNL     1     111.910 103.986 229.402  1.00  0.00     0.053 C 
BRANCH  13  14
ATOM     14  C   UNL     1     111.581 104.272 230.834  1.00  0.00     0.041 C 
ATOM     15  O   UNL     1     110.473 104.790 231.137  1.00  0.00    -0.550 OA
ATOM     16  O   UNL     1     112.516 104.017 231.828  1.00  0.00    -0.550 OA
ENDBRANCH  13  14
ENDBRANCH  12  13
ENDBRANCH  11  12
ENDBRANCH  10  11
ENDBRANCH   9  10
ENDBRANCH   8   9
ENDBRANCH   7   8
ENDBRANCH   6   7
ENDBRANCH   5   6
ENDBRANCH   4   5
ENDBRANCH   3   4
ENDBRANCH   2   3
ENDBRANCH   1   2
BRANCH   1  17
ATOM     17  C   UNL     1     105.728 105.223 232.565  1.00  0.00     0.000 C 
BRANCH  17  18
ATOM     18  C   UNL     1     106.760 104.082 232.581  1.00  0.00     0.000 C 
BRANCH  18  19
ATOM     19  C   UNL     1     107.203 103.661 231.171  1.00  0.00     0.000 C 
BRANCH  19  20
ATOM     20  C   UNL     1     107.245 102.135 230.992  1.00  0.00     0.000 C 
BRANCH  20  21
ATOM     21  C   UNL     1     105.885 101.505 231.329  1.00  0.00     0.000 C 
BRANCH  21  22
ATOM     22  C   UNL     1     104.735 102.114 230.507  1.00  0.00    -0.000 C 
BRANCH  22  23
ATOM     23  C   UNL     1     103.352 101.721 231.055  1.00  0.00    -0.000 C 
BRANCH  23  24
ATOM     24  C   UNL     1     102.199 102.385 230.285  1.00  0.00    -0.000 C 
BRANCH  24  25
ATOM     25  C   UNL     1     102.568 103.773 229.738  1.00  0.00    -0.000 C 
BRANCH  25  26
ATOM     26  C   UNL     1     101.630 104.849 230.304  1.00  0.00    -0.000 C 
BRANCH  26  27
ATOM     27  C   UNL     1     102.101 105.390 231.663  1.00  0.00    -0.000 C 
BRANCH  27  28
ATOM     28  C   UNL     1     101.251 106.575 232.155  1.00  0.00    -0.000 C 
BRANCH  28  29
ATOM     29  C   UNL     1     101.221 106.678 233.689  1.00  0.00    -0.003 C 
ATOM     30  C   UNL     1     102.410 105.981 234.350  1.00  0.00     0.004 C 
ENDBRANCH  28  29
ENDBRANCH  27  28
ENDBRANCH  26  27
ENDBRANCH  25  26
ENDBRANCH  24  25
ENDBRANCH  23  24
ENDBRANCH  22  23
ENDBRANCH  21  22
ENDBRANCH  20  21
ENDBRANCH  19  20
ENDBRANCH  18  19
ENDBRANCH  17  18
ENDBRANCH   1  17
TORSDOF 26
ENDMDL
