MODEL 1
REMARK VINA RESULT:    -3.718      0.000      0.000
REMARK INTER + INTRA:         -14.528
REMARK INTER:                  -9.803
REMARK INTRA:                  -4.725
REMARK UNBOUND:                -4.725
REMARK SMILES CCCCCCCCCCCCCCCCCCCCCCCCCCCCCC(=O)[O-]
REMARK SMILES IDX 16 1 17 2 18 3 19 4 20 5 21 6 22 7 23 8 24 9 25 10 26 11
REMARK SMILES IDX 27 12 28 13 29 14 30 15 31 16 32 17 15 18 14 19 13 20 12 21
REMARK SMILES IDX 11 22 10 23 9 24 8 25 7 26 6 27 5 28 4 29 3 30 2 31 1 32
REMARK H PARENT
REMARK Flexibility Score: inf
ROOT
ATOM      1  C   UNL     1      -1.201  34.225  41.060  1.00  0.00     0.000 C 
ENDROOT
BRANCH   1   2
ATOM      2  C   UNL     1      -2.706  34.469  40.875  1.00  0.00     0.000 C 
BRANCH   2   3
ATOM      3  C   UNL     1      -3.033  35.910  40.441  1.00  0.00     0.000 C 
BRANCH   3   4
ATOM      4  C   UNL     1      -2.974  36.911  41.606  1.00  0.00     0.000 C 
BRANCH   4   5
ATOM      5  C   UNL     1      -4.243  37.768  41.724  1.00  0.00     0.000 C 
BRANCH   5   6
ATOM      6  C   UNL     1      -4.103  38.795  42.855  1.00  0.00     0.000 C 
BRANCH   6   7
ATOM      7  C   UNL     1      -5.206  38.674  43.923  1.00  0.00     0.000 C 
BRANCH   7   8
ATOM      8  C   UNL     1      -6.243  37.558  43.676  1.00  0.00     0.000 C 
BRANCH   8   9
ATOM      9  C   UNL     1      -6.244  36.417  44.711  1.00  0.00     0.000 C 
BRANCH   9  10
ATOM     10  C   UNL     1      -5.237  35.302  44.376  1.00  0.00     0.000 C 
BRANCH  10  11
ATOM     11  C   UNL     1      -5.600  34.552  43.075  1.00  0.00     0.000 C 
BRANCH  11  12
ATOM     12  C   UNL     1      -6.543  33.354  43.294  1.00  0.00     0.000 C 
BRANCH  12  13
ATOM     13  C   UNL     1      -8.027  33.742  43.234  1.00  0.00     0.006 C 
BRANCH  13  14
ATOM     14  C   UNL     1      -8.815  32.868  42.250  1.00  0.00     0.053 C 
BRANCH  14  15
ATOM     15  C   UNL     1      -9.588  31.798  42.959  1.00  0.00     0.041 C 
ATOM     16  O   UNL     1     -10.415  32.103  43.856  1.00  0.00    -0.550 OA
ATOM     17  O   UNL     1      -9.367  30.463  42.651  1.00  0.00    -0.550 OA
ENDBRANCH  14  15
ENDBRANCH  13  14
ENDBRANCH  12  13
ENDBRANCH  11  12
ENDBRANCH  10  11
ENDBRANCH   9  10
ENDBRANCH   8   9
ENDBRANCH   7   8
ENDBRANCH   6   7
ENDBRANCH   5   6
ENDBRANCH   4   5
ENDBRANCH   3   4
ENDBRANCH   2   3
ENDBRANCH   1   2
BRANCH   1  18
ATOM     18  C   UNL     1      -0.869  33.518  42.388  1.00  0.00     0.000 C 
BRANCH  18  19
ATOM     19  C   UNL     1      -1.840  33.896  43.527  1.00  0.00     0.000 C 
BRANCH  19  20
ATOM     20  C   UNL     1      -2.480  32.690  44.243  1.00  0.00     0.000 C 
BRANCH  20  21
ATOM     21  C   UNL     1      -3.212  31.688  43.336  1.00  0.00     0.000 C 
BRANCH  21  22
ATOM     22  C   UNL     1      -3.331  30.255  43.894  1.00  0.00     0.000 C 
BRANCH  22  23
ATOM     23  C   UNL     1      -2.409  29.224  43.204  1.00  0.00     0.000 C 
BRANCH  23  24
ATOM     24  C   UNL     1      -1.356  28.576  44.122  1.00  0.00    -0.000 C 
BRANCH  24  25
ATOM     25  C   UNL     1      -0.718  29.505  45.174  1.00  0.00    -0.000 C 
BRANCH  25  26
ATOM     26  C   UNL     1       0.389  30.428  44.622  1.00  0.00    -0.000 C 
BRANCH  26  27
ATOM     27  C   UNL     1       1.287  29.714  43.596  1.00  0.00    -0.000 C 
BRANCH  27  28
ATOM     28  C   UNL     1       1.608  30.606  42.385  1.00  0.00    -0.000 C 
BRANCH  28  29
ATOM     29  C   UNL     1       1.688  29.807  41.073  1.00  0.00    -0.000 C 
BRANCH  29  30
ATOM     30  C   UNL     1       0.293  29.516  40.480  1.00  0.00    -0.000 C 
BRANCH  30  31
ATOM     31  C   UNL     1       0.112  28.056  40.030  1.00  0.00    -0.003 C 
ATOM     32  C   UNL     1       0.241  27.057  41.176  1.00  0.00     0.004 C 
ENDBRANCH  30  31
ENDBRANCH  29  30
ENDBRANCH  28  29
ENDBRANCH  27  28
ENDBRANCH  26  27
ENDBRANCH  25  26
ENDBRANCH  24  25
ENDBRANCH  23  24
ENDBRANCH  22  23
ENDBRANCH  21  22
ENDBRANCH  20  21
ENDBRANCH  19  20
ENDBRANCH  18  19
ENDBRANCH   1  18
TORSDOF 28
ENDMDL
MODEL 2
REMARK VINA RESULT:    -3.702      1.547      3.166
REMARK INTER + INTRA:         -14.487
REMARK INTER:                  -9.288
REMARK INTRA:                  -5.198
REMARK UNBOUND:                -4.725
REMARK SMILES CCCCCCCCCCCCCCCCCCCCCCCCCCCCCC(=O)[O-]
REMARK SMILES IDX 16 1 17 2 18 3 19 4 20 5 21 6 22 7 23 8 24 9 25 10 26 11
REMARK SMILES IDX 27 12 28 13 29 14 30 15 31 16 32 17 15 18 14 19 13 20 12 21
REMARK SMILES IDX 11 22 10 23 9 24 8 25 7 26 6 27 5 28 4 29 3 30 2 31 1 32
REMARK H PARENT
REMARK Flexibility Score: inf
ROOT
ATOM      1  C   UNL     1      -4.020  35.129  41.335  1.00  0.00     0.000 C 
ENDROOT
BRANCH   1   2
ATOM      2  C   UNL     1      -3.963  36.660  41.452  1.00  0.00     0.000 C 
BRANCH   2   3
ATOM      3  C   UNL     1      -3.413  37.139  42.808  1.00  0.00     0.000 C 
BRANCH   3   4
ATOM      4  C   UNL     1      -4.515  37.646  43.752  1.00  0.00     0.000 C 
BRANCH   4   5
ATOM      5  C   UNL     1      -5.144  38.966  43.284  1.00  0.00     0.000 C 
BRANCH   5   6
ATOM      6  C   UNL     1      -6.644  39.000  43.609  1.00  0.00     0.000 C 
BRANCH   6   7
ATOM      7  C   UNL     1      -6.946  39.566  45.009  1.00  0.00     0.000 C 
BRANCH   7   8
ATOM      8  C   UNL     1      -8.179  38.959  45.712  1.00  0.00     0.000 C 
BRANCH   8   9
ATOM      9  C   UNL     1      -8.461  37.479  45.390  1.00  0.00     0.000 C 
BRANCH   9  10
ATOM     10  C   UNL     1      -7.741  36.510  46.345  1.00  0.00     0.000 C 
BRANCH  10  11
ATOM     11  C   UNL     1      -6.993  35.387  45.591  1.00  0.00     0.000 C 
BRANCH  11  12
ATOM     12  C   UNL     1      -7.170  35.446  44.062  1.00  0.00     0.000 C 
BRANCH  12  13
ATOM     13  C   UNL     1      -7.232  34.055  43.414  1.00  0.00     0.006 C 
BRANCH  13  14
ATOM     14  C   UNL     1      -8.507  33.294  43.797  1.00  0.00     0.053 C 
BRANCH  14  15
ATOM     15  C   UNL     1      -9.022  32.471  42.656  1.00  0.00     0.041 C 
ATOM     16  O   UNL     1      -9.629  31.391  42.877  1.00  0.00    -0.550 OA
ATOM     17  O   UNL     1      -8.803  32.882  41.349  1.00  0.00    -0.550 OA
ENDBRANCH  14  15
ENDBRANCH  13  14
ENDBRANCH  12  13
ENDBRANCH  11  12
ENDBRANCH  10  11
ENDBRANCH   9  10
ENDBRANCH   8   9
ENDBRANCH   7   8
ENDBRANCH   6   7
ENDBRANCH   5   6
ENDBRANCH   4   5
ENDBRANCH   3   4
ENDBRANCH   2   3
ENDBRANCH   1   2
BRANCH   1  18
ATOM     18  C   UNL     1      -2.732  34.526  40.743  1.00  0.00     0.000 C 
BRANCH  18  19
ATOM     19  C   UNL     1      -2.207  33.322  41.553  1.00  0.00     0.000 C 
BRANCH  19  20
ATOM     20  C   UNL     1      -0.701  33.383  41.879  1.00  0.00     0.000 C 
BRANCH  20  21
ATOM     21  C   UNL     1      -0.347  33.515  43.369  1.00  0.00     0.000 C 
BRANCH  21  22
ATOM     22  C   UNL     1      -1.108  34.615  44.135  1.00  0.00     0.000 C 
BRANCH  22  23
ATOM     23  C   UNL     1      -1.975  34.095  45.304  1.00  0.00     0.000 C 
BRANCH  23  24
ATOM     24  C   UNL     1      -3.492  34.089  45.037  1.00  0.00    -0.000 C 
BRANCH  24  25
ATOM     25  C   UNL     1      -4.091  32.738  44.597  1.00  0.00    -0.000 C 
BRANCH  25  26
ATOM     26  C   UNL     1      -3.167  31.525  44.827  1.00  0.00    -0.000 C 
BRANCH  26  27
ATOM     27  C   UNL     1      -3.171  30.552  43.634  1.00  0.00    -0.000 C 
BRANCH  27  28
ATOM     28  C   UNL     1      -2.185  29.388  43.831  1.00  0.00    -0.000 C 
BRANCH  28  29
ATOM     29  C   UNL     1      -0.722  29.861  43.881  1.00  0.00    -0.000 C 
BRANCH  29  30
ATOM     30  C   UNL     1       0.021  29.605  42.552  1.00  0.00    -0.000 C 
BRANCH  30  31
ATOM     31  C   UNL     1      -0.633  28.515  41.686  1.00  0.00    -0.003 C 
ATOM     32  C   UNL     1       0.381  27.699  40.887  1.00  0.00     0.004 C 
ENDBRANCH  30  31
ENDBRANCH  29  30
ENDBRANCH  28  29
ENDBRANCH  27  28
ENDBRANCH  26  27
ENDBRANCH  25  26
ENDBRANCH  24  25
ENDBRANCH  23  24
ENDBRANCH  22  23
ENDBRANCH  21  22
ENDBRANCH  20  21
ENDBRANCH  19  20
ENDBRANCH  18  19
ENDBRANCH   1  18
TORSDOF 28
ENDMDL
MODEL 3
REMARK VINA RESULT:    -3.655      1.972      4.334
REMARK INTER + INTRA:         -14.364
REMARK INTER:                  -9.372
REMARK INTRA:                  -4.991
REMARK UNBOUND:                -4.725
REMARK SMILES CCCCCCCCCCCCCCCCCCCCCCCCCCCCCC(=O)[O-]
REMARK SMILES IDX 16 1 17 2 18 3 19 4 20 5 21 6 22 7 23 8 24 9 25 10 26 11
REMARK SMILES IDX 27 12 28 13 29 14 30 15 31 16 32 17 15 18 14 19 13 20 12 21
REMARK SMILES IDX 11 22 10 23 9 24 8 25 7 26 6 27 5 28 4 29 3 30 2 31 1 32
REMARK H PARENT
REMARK Flexibility Score: inf
ROOT
ATOM      1  C   UNL     1      -4.930  34.982  42.805  1.00  0.00     0.000 C 
ENDROOT
BRANCH   1   2
ATOM      2  C   UNL     1      -4.156  35.560  43.998  1.00  0.00     0.000 C 
BRANCH   2   3
ATOM      3  C   UNL     1      -4.449  37.053  44.239  1.00  0.00     0.000 C 
BRANCH   3   4
ATOM      4  C   UNL     1      -5.478  37.624  43.250  1.00  0.00     0.000 C 
BRANCH   4   5
ATOM      5  C   UNL     1      -5.533  39.159  43.263  1.00  0.00     0.000 C 
BRANCH   5   6
ATOM      6  C   UNL     1      -6.925  39.650  43.682  1.00  0.00     0.000 C 
BRANCH   6   7
ATOM      7  C   UNL     1      -7.017  40.003  45.179  1.00  0.00     0.000 C 
BRANCH   7   8
ATOM      8  C   UNL     1      -8.112  39.251  45.966  1.00  0.00     0.000 C 
BRANCH   8   9
ATOM      9  C   UNL     1      -8.598  37.936  45.329  1.00  0.00     0.000 C 
BRANCH   9  10
ATOM     10  C   UNL     1      -8.034  36.686  46.029  1.00  0.00     0.000 C 
BRANCH  10  11
ATOM     11  C   UNL     1      -7.756  35.532  45.039  1.00  0.00     0.000 C 
BRANCH  11  12
ATOM     12  C   UNL     1      -7.339  34.217  45.724  1.00  0.00     0.000 C 
BRANCH  12  13
ATOM     13  C   UNL     1      -7.352  33.016  44.768  1.00  0.00     0.006 C 
BRANCH  13  14
ATOM     14  C   UNL     1      -8.777  32.568  44.419  1.00  0.00     0.053 C 
BRANCH  14  15
ATOM     15  C   UNL     1      -8.958  32.405  42.941  1.00  0.00     0.041 C 
ATOM     16  O   UNL     1      -9.547  31.393  42.483  1.00  0.00    -0.550 OA
ATOM     17  O   UNL     1      -8.446  33.357  42.070  1.00  0.00    -0.550 OA
ENDBRANCH  14  15
ENDBRANCH  13  14
ENDBRANCH  12  13
ENDBRANCH  11  12
ENDBRANCH  10  11
ENDBRANCH   9  10
ENDBRANCH   8   9
ENDBRANCH   7   8
ENDBRANCH   6   7
ENDBRANCH   5   6
ENDBRANCH   4   5
ENDBRANCH   3   4
ENDBRANCH   2   3
ENDBRANCH   1   2
BRANCH   1  18
ATOM     18  C   UNL     1      -4.076  34.037  41.939  1.00  0.00     0.000 C 
BRANCH  18  19
ATOM     19  C   UNL     1      -3.293  34.780  40.835  1.00  0.00     0.000 C 
BRANCH  19  20
ATOM     20  C   UNL     1      -4.012  36.022  40.272  1.00  0.00     0.000 C 
BRANCH  20  21
ATOM     21  C   UNL     1      -3.171  37.308  40.209  1.00  0.00     0.000 C 
BRANCH  21  22
ATOM     22  C   UNL     1      -2.183  37.510  41.375  1.00  0.00     0.000 C 
BRANCH  22  23
ATOM     23  C   UNL     1      -0.694  37.421  40.971  1.00  0.00     0.000 C 
BRANCH  23  24
ATOM     24  C   UNL     1       0.042  36.163  41.471  1.00  0.00    -0.000 C 
BRANCH  24  25
ATOM     25  C   UNL     1       0.008  35.926  42.995  1.00  0.00    -0.000 C 
BRANCH  25  26
ATOM     26  C   UNL     1      -0.666  34.604  43.418  1.00  0.00    -0.000 C 
BRANCH  26  27
ATOM     27  C   UNL     1       0.120  33.368  42.944  1.00  0.00    -0.000 C 
BRANCH  27  28
ATOM     28  C   UNL     1      -0.661  32.546  41.906  1.00  0.00    -0.000 C 
BRANCH  28  29
ATOM     29  C   UNL     1      -1.003  31.135  42.413  1.00  0.00    -0.000 C 
BRANCH  29  30
ATOM     30  C   UNL     1      -0.438  30.868  43.825  1.00  0.00    -0.000 C 
BRANCH  30  31
ATOM     31  C   UNL     1       0.676  29.809  43.849  1.00  0.00    -0.003 C 
ATOM     32  C   UNL     1       2.005  30.352  44.368  1.00  0.00     0.004 C 
ENDBRANCH  30  31
ENDBRANCH  29  30
ENDBRANCH  28  29
ENDBRANCH  27  28
ENDBRANCH  26  27
ENDBRANCH  25  26
ENDBRANCH  24  25
ENDBRANCH  23  24
ENDBRANCH  22  23
ENDBRANCH  21  22
ENDBRANCH  20  21
ENDBRANCH  19  20
ENDBRANCH  18  19
ENDBRANCH   1  18
TORSDOF 28
ENDMDL
MODEL 4
REMARK VINA RESULT:    -3.631      2.960      7.245
REMARK INTER + INTRA:         -14.299
REMARK INTER:                  -9.134
REMARK INTRA:                  -5.165
REMARK UNBOUND:                -4.725
REMARK SMILES CCCCCCCCCCCCCCCCCCCCCCCCCCCCCC(=O)[O-]
REMARK SMILES IDX 16 1 17 2 18 3 19 4 20 5 21 6 22 7 23 8 24 9 25 10 26 11
REMARK SMILES IDX 27 12 28 13 29 14 30 15 31 16 32 17 15 18 14 19 13 20 12 21
REMARK SMILES IDX 11 22 10 23 9 24 8 25 7 26 6 27 5 28 4 29 3 30 2 31 1 32
REMARK H PARENT
REMARK Flexibility Score: inf
ROOT
ATOM      1  C   UNL     1      -7.018  39.666  43.786  1.00  0.00     0.000 C 
ENDROOT
BRANCH   1   2
ATOM      2  C   UNL     1      -5.660  39.142  43.295  1.00  0.00     0.000 C 
BRANCH   2   3
ATOM      3  C   UNL     1      -4.480  39.630  44.157  1.00  0.00     0.000 C 
BRANCH   3   4
ATOM      4  C   UNL     1      -3.182  39.794  43.351  1.00  0.00     0.000 C 
BRANCH   4   5
ATOM      5  C   UNL     1      -2.599  38.455  42.876  1.00  0.00     0.000 C 
BRANCH   5   6
ATOM      6  C   UNL     1      -2.382  38.464  41.357  1.00  0.00     0.000 C 
BRANCH   6   7
ATOM      7  C   UNL     1      -3.324  37.505  40.605  1.00  0.00     0.000 C 
BRANCH   7   8
ATOM      8  C   UNL     1      -4.067  36.483  41.491  1.00  0.00     0.000 C 
BRANCH   8   9
ATOM      9  C   UNL     1      -4.102  35.041  40.948  1.00  0.00     0.000 C 
BRANCH   9  10
ATOM     10  C   UNL     1      -2.712  34.382  40.909  1.00  0.00     0.000 C 
BRANCH  10  11
ATOM     11  C   UNL     1      -2.310  33.776  42.273  1.00  0.00     0.000 C 
BRANCH  11  12
ATOM     12  C   UNL     1      -2.544  32.257  42.368  1.00  0.00     0.000 C 
BRANCH  12  13
ATOM     13  C   UNL     1      -2.410  31.720  43.800  1.00  0.00     0.006 C 
BRANCH  13  14
ATOM     14  C   UNL     1      -3.093  30.357  43.974  1.00  0.00     0.053 C 
BRANCH  14  15
ATOM     15  C   UNL     1      -2.295  29.255  43.347  1.00  0.00     0.041 C 
ATOM     16  O   UNL     1      -2.119  29.231  42.101  1.00  0.00    -0.550 OA
ATOM     17  O   UNL     1      -1.776  28.238  44.135  1.00  0.00    -0.550 OA
ENDBRANCH  14  15
ENDBRANCH  13  14
ENDBRANCH  12  13
ENDBRANCH  11  12
ENDBRANCH  10  11
ENDBRANCH   9  10
ENDBRANCH   8   9
ENDBRANCH   7   8
ENDBRANCH   6   7
ENDBRANCH   5   6
ENDBRANCH   4   5
ENDBRANCH   3   4
ENDBRANCH   2   3
ENDBRANCH   1   2
BRANCH   1  18
ATOM     18  C   UNL     1      -7.000  40.076  45.270  1.00  0.00     0.000 C 
BRANCH  18  19
ATOM     19  C   UNL     1      -7.816  39.120  46.166  1.00  0.00     0.000 C 
BRANCH  19  20
ATOM     20  C   UNL     1      -8.645  38.075  45.392  1.00  0.00     0.000 C 
BRANCH  20  21
ATOM     21  C   UNL     1      -8.037  36.665  45.317  1.00  0.00     0.000 C 
BRANCH  21  22
ATOM     22  C   UNL     1      -7.635  36.045  46.671  1.00  0.00     0.000 C 
BRANCH  22  23
ATOM     23  C   UNL     1      -6.109  35.942  46.896  1.00  0.00     0.000 C 
BRANCH  23  24
ATOM     24  C   UNL     1      -5.244  36.304  45.674  1.00  0.00    -0.000 C 
BRANCH  24  25
ATOM     25  C   UNL     1      -4.612  35.115  44.923  1.00  0.00    -0.000 C 
BRANCH  25  26
ATOM     26  C   UNL     1      -4.863  33.741  45.577  1.00  0.00    -0.000 C 
BRANCH  26  27
ATOM     27  C   UNL     1      -5.869  32.889  44.782  1.00  0.00    -0.000 C 
BRANCH  27  28
ATOM     28  C   UNL     1      -5.953  33.316  43.307  1.00  0.00    -0.000 C 
BRANCH  28  29
ATOM     29  C   UNL     1      -7.337  33.877  42.938  1.00  0.00    -0.000 C 
BRANCH  29  30
ATOM     30  C   UNL     1      -8.444  33.377  43.891  1.00  0.00    -0.000 C 
BRANCH  30  31
ATOM     31  C   UNL     1      -9.445  32.422  43.220  1.00  0.00    -0.003 C 
ATOM     32  C   UNL     1      -9.139  32.175  41.745  1.00  0.00     0.004 C 
ENDBRANCH  30  31
ENDBRANCH  29  30
ENDBRANCH  28  29
ENDBRANCH  27  28
ENDBRANCH  26  27
ENDBRANCH  25  26
ENDBRANCH  24  25
ENDBRANCH  23  24
ENDBRANCH  22  23
ENDBRANCH  21  22
ENDBRANCH  20  21
ENDBRANCH  19  20
ENDBRANCH  18  19
ENDBRANCH   1  18
TORSDOF 28
ENDMDL
MODEL 5
REMARK VINA RESULT:    -3.623      2.981      5.558
REMARK INTER + INTRA:         -14.277
REMARK INTER:                  -8.144
REMARK INTRA:                  -6.133
REMARK UNBOUND:                -4.725
REMARK SMILES CCCCCCCCCCCCCCCCCCCCCCCCCCCCCC(=O)[O-]
REMARK SMILES IDX 16 1 17 2 18 3 19 4 20 5 21 6 22 7 23 8 24 9 25 10 26 11
REMARK SMILES IDX 27 12 28 13 29 14 30 15 31 16 32 17 15 18 14 19 13 20 12 21
REMARK SMILES IDX 11 22 10 23 9 24 8 25 7 26 6 27 5 28 4 29 3 30 2 31 1 32
REMARK H PARENT
REMARK Flexibility Score: inf
ROOT
ATOM      1  C   UNL     1      -6.933  39.393  43.689  1.00  0.00     0.000 C 
ENDROOT
BRANCH   1   2
ATOM      2  C   UNL     1      -7.607  38.050  44.007  1.00  0.00     0.000 C 
BRANCH   2   3
ATOM      3  C   UNL     1      -8.282  38.029  45.391  1.00  0.00     0.000 C 
BRANCH   3   4
ATOM      4  C   UNL     1      -7.786  39.154  46.313  1.00  0.00     0.000 C 
BRANCH   4   5
ATOM      5  C   UNL     1      -6.880  38.645  47.445  1.00  0.00     0.000 C 
BRANCH   5   6
ATOM      6  C   UNL     1      -5.464  39.219  47.307  1.00  0.00     0.000 C 
BRANCH   6   7
ATOM      7  C   UNL     1      -4.479  38.245  46.634  1.00  0.00     0.000 C 
BRANCH   7   8
ATOM      8  C   UNL     1      -4.476  36.811  47.206  1.00  0.00     0.000 C 
BRANCH   8   9
ATOM      9  C   UNL     1      -4.173  35.695  46.188  1.00  0.00     0.000 C 
BRANCH   9  10
ATOM     10  C   UNL     1      -5.363  35.390  45.261  1.00  0.00     0.000 C 
BRANCH  10  11
ATOM     11  C   UNL     1      -6.444  34.531  45.955  1.00  0.00     0.000 C 
BRANCH  11  12
ATOM     12  C   UNL     1      -7.704  34.312  45.097  1.00  0.00     0.000 C 
BRANCH  12  13
ATOM     13  C   UNL     1      -7.451  34.525  43.597  1.00  0.00     0.006 C 
BRANCH  13  14
ATOM     14  C   UNL     1      -7.650  33.238  42.787  1.00  0.00     0.053 C 
BRANCH  14  15
ATOM     15  C   UNL     1      -8.662  32.335  43.424  1.00  0.00     0.041 C 
ATOM     16  O   UNL     1      -9.892  32.558  43.275  1.00  0.00    -0.550 OA
ATOM     17  O   UNL     1      -8.246  31.270  44.209  1.00  0.00    -0.550 OA
ENDBRANCH  14  15
ENDBRANCH  13  14
ENDBRANCH  12  13
ENDBRANCH  11  12
ENDBRANCH  10  11
ENDBRANCH   9  10
ENDBRANCH   8   9
ENDBRANCH   7   8
ENDBRANCH   6   7
ENDBRANCH   5   6
ENDBRANCH   4   5
ENDBRANCH   3   4
ENDBRANCH   2   3
ENDBRANCH   1   2
BRANCH   1  18
ATOM     18  C   UNL     1      -5.421  39.257  43.429  1.00  0.00     0.000 C 
BRANCH  18  19
ATOM     19  C   UNL     1      -5.042  37.898  42.801  1.00  0.00     0.000 C 
BRANCH  19  20
ATOM     20  C   UNL     1      -3.897  37.971  41.770  1.00  0.00     0.000 C 
BRANCH  20  21
ATOM     21  C   UNL     1      -3.998  36.987  40.593  1.00  0.00     0.000 C 
BRANCH  21  22
ATOM     22  C   UNL     1      -3.332  35.615  40.819  1.00  0.00     0.000 C 
BRANCH  22  23
ATOM     23  C   UNL     1      -4.182  34.624  41.646  1.00  0.00     0.000 C 
BRANCH  23  24
ATOM     24  C   UNL     1      -3.470  33.311  42.022  1.00  0.00    -0.000 C 
BRANCH  24  25
ATOM     25  C   UNL     1      -4.102  32.511  43.179  1.00  0.00    -0.000 C 
BRANCH  25  26
ATOM     26  C   UNL     1      -3.262  32.489  44.473  1.00  0.00    -0.000 C 
BRANCH  26  27
ATOM     27  C   UNL     1      -1.766  32.737  44.203  1.00  0.00    -0.000 C 
BRANCH  27  28
ATOM     28  C   UNL     1      -1.246  33.990  44.926  1.00  0.00    -0.000 C 
BRANCH  28  29
ATOM     29  C   UNL     1      -0.569  34.983  43.966  1.00  0.00    -0.000 C 
BRANCH  29  30
ATOM     30  C   UNL     1      -1.336  36.319  43.869  1.00  0.00    -0.000 C 
BRANCH  30  31
ATOM     31  C   UNL     1      -0.493  37.468  43.292  1.00  0.00    -0.003 C 
ATOM     32  C   UNL     1      -0.148  37.275  41.818  1.00  0.00     0.004 C 
ENDBRANCH  30  31
ENDBRANCH  29  30
ENDBRANCH  28  29
ENDBRANCH  27  28
ENDBRANCH  26  27
ENDBRANCH  25  26
ENDBRANCH  24  25
ENDBRANCH  23  24
ENDBRANCH  22  23
ENDBRANCH  21  22
ENDBRANCH  20  21
ENDBRANCH  19  20
ENDBRANCH  18  19
ENDBRANCH   1  18
TORSDOF 28
ENDMDL
MODEL 6
REMARK VINA RESULT:    -3.590      1.317      2.691
REMARK INTER + INTRA:         -14.191
REMARK INTER:                  -9.226
REMARK INTRA:                  -4.965
REMARK UNBOUND:                -4.725
REMARK SMILES CCCCCCCCCCCCCCCCCCCCCCCCCCCCCC(=O)[O-]
REMARK SMILES IDX 16 1 17 2 18 3 19 4 20 5 21 6 22 7 23 8 24 9 25 10 26 11
REMARK SMILES IDX 27 12 28 13 29 14 30 15 31 16 32 17 15 18 14 19 13 20 12 21
REMARK SMILES IDX 11 22 10 23 9 24 8 25 7 26 6 27 5 28 4 29 3 30 2 31 1 32
REMARK H PARENT
REMARK Flexibility Score: inf
ROOT
ATOM      1  C   UNL     1      -3.943  36.425  40.366  1.00  0.00     0.000 C 
ENDROOT
BRANCH   1   2
ATOM      2  C   UNL     1      -3.573  37.480  41.419  1.00  0.00     0.000 C 
BRANCH   2   3
ATOM      3  C   UNL     1      -4.747  37.839  42.350  1.00  0.00     0.000 C 
BRANCH   3   4
ATOM      4  C   UNL     1      -4.373  38.898  43.399  1.00  0.00     0.000 C 
BRANCH   4   5
ATOM      5  C   UNL     1      -5.598  39.569  44.036  1.00  0.00     0.000 C 
BRANCH   5   6
ATOM      6  C   UNL     1      -6.886  38.828  43.651  1.00  0.00     0.000 C 
BRANCH   6   7
ATOM      7  C   UNL     1      -7.733  38.415  44.869  1.00  0.00     0.000 C 
BRANCH   7   8
ATOM      8  C   UNL     1      -6.930  37.988  46.116  1.00  0.00     0.000 C 
BRANCH   8   9
ATOM      9  C   UNL     1      -6.566  36.492  46.186  1.00  0.00     0.000 C 
BRANCH   9  10
ATOM     10  C   UNL     1      -5.117  36.206  45.754  1.00  0.00     0.000 C 
BRANCH  10  11
ATOM     11  C   UNL     1      -5.029  35.079  44.700  1.00  0.00     0.000 C 
BRANCH  11  12
ATOM     12  C   UNL     1      -6.340  34.853  43.925  1.00  0.00     0.000 C 
BRANCH  12  13
ATOM     13  C   UNL     1      -6.499  33.410  43.427  1.00  0.00     0.006 C 
BRANCH  13  14
ATOM     14  C   UNL     1      -7.563  32.638  44.218  1.00  0.00     0.053 C 
BRANCH  14  15
ATOM     15  C   UNL     1      -8.684  32.182  43.336  1.00  0.00     0.041 C 
ATOM     16  O   UNL     1      -9.207  32.978  42.513  1.00  0.00    -0.550 OA
ATOM     17  O   UNL     1      -9.174  30.888  43.448  1.00  0.00    -0.550 OA
ENDBRANCH  14  15
ENDBRANCH  13  14
ENDBRANCH  12  13
ENDBRANCH  11  12
ENDBRANCH  10  11
ENDBRANCH   9  10
ENDBRANCH   8   9
ENDBRANCH   7   8
ENDBRANCH   6   7
ENDBRANCH   5   6
ENDBRANCH   4   5
ENDBRANCH   3   4
ENDBRANCH   2   3
ENDBRANCH   1   2
BRANCH   1  18
ATOM     18  C   UNL     1      -4.148  35.024  40.971  1.00  0.00     0.000 C 
BRANCH  18  19
ATOM     19  C   UNL     1      -2.831  34.386  41.464  1.00  0.00     0.000 C 
BRANCH  19  20
ATOM     20  C   UNL     1      -2.994  32.976  42.066  1.00  0.00     0.000 C 
BRANCH  20  21
ATOM     21  C   UNL     1      -2.448  32.792  43.491  1.00  0.00     0.000 C 
BRANCH  21  22
ATOM     22  C   UNL     1      -1.531  33.923  43.999  1.00  0.00     0.000 C 
BRANCH  22  23
ATOM     23  C   UNL     1      -0.058  33.504  44.207  1.00  0.00     0.000 C 
BRANCH  23  24
ATOM     24  C   UNL     1       0.340  32.171  43.546  1.00  0.00    -0.000 C 
BRANCH  24  25
ATOM     25  C   UNL     1       1.318  31.289  44.348  1.00  0.00    -0.000 C 
BRANCH  25  26
ATOM     26  C   UNL     1       0.780  29.884  44.686  1.00  0.00    -0.000 C 
BRANCH  26  27
ATOM     27  C   UNL     1      -0.695  29.709  44.278  1.00  0.00    -0.000 C 
BRANCH  27  28
ATOM     28  C   UNL     1      -0.871  28.647  43.181  1.00  0.00    -0.000 C 
BRANCH  28  29
ATOM     29  C   UNL     1      -1.177  29.269  41.807  1.00  0.00    -0.000 C 
BRANCH  29  30
ATOM     30  C   UNL     1      -0.141  28.860  40.737  1.00  0.00    -0.000 C 
BRANCH  30  31
ATOM     31  C   UNL     1       1.213  28.433  41.328  1.00  0.00    -0.003 C 
ATOM     32  C   UNL     1       2.262  29.541  41.281  1.00  0.00     0.004 C 
ENDBRANCH  30  31
ENDBRANCH  29  30
ENDBRANCH  28  29
ENDBRANCH  27  28
ENDBRANCH  26  27
ENDBRANCH  25  26
ENDBRANCH  24  25
ENDBRANCH  23  24
ENDBRANCH  22  23
ENDBRANCH  21  22
ENDBRANCH  20  21
ENDBRANCH  19  20
ENDBRANCH  18  19
ENDBRANCH   1  18
TORSDOF 28
ENDMDL
MODEL 7
REMARK VINA RESULT:    -3.583      2.224      4.846
REMARK INTER + INTRA:         -14.174
REMARK INTER:                  -8.274
REMARK INTRA:                  -5.900
REMARK UNBOUND:                -4.725
REMARK SMILES CCCCCCCCCCCCCCCCCCCCCCCCCCCCCC(=O)[O-]
REMARK SMILES IDX 16 1 17 2 18 3 19 4 20 5 21 6 22 7 23 8 24 9 25 10 26 11
REMARK SMILES IDX 27 12 28 13 29 14 30 15 31 16 32 17 15 18 14 19 13 20 12 21
REMARK SMILES IDX 11 22 10 23 9 24 8 25 7 26 6 27 5 28 4 29 3 30 2 31 1 32
REMARK H PARENT
REMARK Flexibility Score: inf
ROOT
ATOM      1  C   UNL     1      -5.598  38.665  42.884  1.00  0.00     0.000 C 
ENDROOT
BRANCH   1   2
ATOM      2  C   UNL     1      -6.799  39.169  43.697  1.00  0.00     0.000 C 
BRANCH   2   3
ATOM      3  C   UNL     1      -7.683  38.028  44.235  1.00  0.00     0.000 C 
BRANCH   3   4
ATOM      4  C   UNL     1      -8.374  38.384  45.561  1.00  0.00     0.000 C 
BRANCH   4   5
ATOM      5  C   UNL     1      -7.699  39.554  46.293  1.00  0.00     0.000 C 
BRANCH   5   6
ATOM      6  C   UNL     1      -6.917  39.052  47.514  1.00  0.00     0.000 C 
BRANCH   6   7
ATOM      7  C   UNL     1      -5.470  38.641  47.179  1.00  0.00     0.000 C 
BRANCH   7   8
ATOM      8  C   UNL     1      -5.209  37.120  47.148  1.00  0.00     0.000 C 
BRANCH   8   9
ATOM      9  C   UNL     1      -6.347  36.243  47.704  1.00  0.00     0.000 C 
BRANCH   9  10
ATOM     10  C   UNL     1      -5.998  34.744  47.715  1.00  0.00     0.000 C 
BRANCH  10  11
ATOM     11  C   UNL     1      -6.399  34.037  46.401  1.00  0.00     0.000 C 
BRANCH  11  12
ATOM     12  C   UNL     1      -7.709  34.567  45.789  1.00  0.00     0.000 C 
BRANCH  12  13
ATOM     13  C   UNL     1      -7.749  34.439  44.259  1.00  0.00     0.006 C 
BRANCH  13  14
ATOM     14  C   UNL     1      -7.767  32.975  43.801  1.00  0.00     0.053 C 
BRANCH  14  15
ATOM     15  C   UNL     1      -8.945  32.686  42.922  1.00  0.00     0.041 C 
ATOM     16  O   UNL     1      -8.880  32.904  41.684  1.00  0.00    -0.550 OA
ATOM     17  O   UNL     1     -10.124  32.208  43.476  1.00  0.00    -0.550 OA
ENDBRANCH  14  15
ENDBRANCH  13  14
ENDBRANCH  12  13
ENDBRANCH  11  12
ENDBRANCH  10  11
ENDBRANCH   9  10
ENDBRANCH   8   9
ENDBRANCH   7   8
ENDBRANCH   6   7
ENDBRANCH   5   6
ENDBRANCH   4   5
ENDBRANCH   3   4
ENDBRANCH   2   3
ENDBRANCH   1   2
BRANCH   1  18
ATOM     18  C   UNL     1      -4.313  38.548  43.725  1.00  0.00     0.000 C 
BRANCH  18  19
ATOM     19  C   UNL     1      -3.693  37.134  43.678  1.00  0.00     0.000 C 
BRANCH  19  20
ATOM     20  C   UNL     1      -4.708  36.003  43.418  1.00  0.00     0.000 C 
BRANCH  20  21
ATOM     21  C   UNL     1      -4.543  35.253  42.086  1.00  0.00     0.000 C 
BRANCH  21  22
ATOM     22  C   UNL     1      -3.222  35.520  41.336  1.00  0.00     0.000 C 
BRANCH  22  23
ATOM     23  C   UNL     1      -2.512  34.246  40.823  1.00  0.00     0.000 C 
BRANCH  23  24
ATOM     24  C   UNL     1      -1.172  33.926  41.511  1.00  0.00    -0.000 C 
BRANCH  24  25
ATOM     25  C   UNL     1      -1.088  32.557  42.216  1.00  0.00    -0.000 C 
BRANCH  25  26
ATOM     26  C   UNL     1      -0.973  32.638  43.752  1.00  0.00    -0.000 C 
BRANCH  26  27
ATOM     27  C   UNL     1      -1.909  33.702  44.354  1.00  0.00    -0.000 C 
BRANCH  27  28
ATOM     28  C   UNL     1      -3.113  33.076  45.076  1.00  0.00    -0.000 C 
BRANCH  28  29
ATOM     29  C   UNL     1      -4.056  32.338  44.111  1.00  0.00    -0.000 C 
BRANCH  29  30
ATOM     30  C   UNL     1      -4.464  30.947  44.641  1.00  0.00    -0.000 C 
BRANCH  30  31
ATOM     31  C   UNL     1      -3.641  29.796  44.037  1.00  0.00    -0.003 C 
ATOM     32  C   UNL     1      -2.455  29.389  44.908  1.00  0.00     0.004 C 
ENDBRANCH  30  31
ENDBRANCH  29  30
ENDBRANCH  28  29
ENDBRANCH  27  28
ENDBRANCH  26  27
ENDBRANCH  25  26
ENDBRANCH  24  25
ENDBRANCH  23  24
ENDBRANCH  22  23
ENDBRANCH  21  22
ENDBRANCH  20  21
ENDBRANCH  19  20
ENDBRANCH  18  19
ENDBRANCH   1  18
TORSDOF 28
ENDMDL
MODEL 8
REMARK VINA RESULT:    -3.541      1.832      4.938
REMARK INTER + INTRA:         -14.064
REMARK INTER:                  -9.171
REMARK INTRA:                  -4.893
REMARK UNBOUND:                -4.725
REMARK SMILES CCCCCCCCCCCCCCCCCCCCCCCCCCCCCC(=O)[O-]
REMARK SMILES IDX 16 1 17 2 18 3 19 4 20 5 21 6 22 7 23 8 24 9 25 10 26 11
REMARK SMILES IDX 27 12 28 13 29 14 30 15 31 16 32 17 15 18 14 19 13 20 12 21
REMARK SMILES IDX 11 22 10 23 9 24 8 25 7 26 6 27 5 28 4 29 3 30 2 31 1 32
REMARK H PARENT
REMARK Flexibility Score: inf
ROOT
ATOM      1  C   UNL     1      -4.271  37.889  45.356  1.00  0.00     0.000 C 
ENDROOT
BRANCH   1   2
ATOM      2  C   UNL     1      -4.658  39.232  44.719  1.00  0.00     0.000 C 
BRANCH   2   3
ATOM      3  C   UNL     1      -5.515  39.070  43.449  1.00  0.00     0.000 C 
BRANCH   3   4
ATOM      4  C   UNL     1      -6.993  39.421  43.680  1.00  0.00     0.000 C 
BRANCH   4   5
ATOM      5  C   UNL     1      -7.273  39.927  45.103  1.00  0.00     0.000 C 
BRANCH   5   6
ATOM      6  C   UNL     1      -8.063  38.884  45.905  1.00  0.00     0.000 C 
BRANCH   6   7
ATOM      7  C   UNL     1      -8.516  37.682  45.055  1.00  0.00     0.000 C 
BRANCH   7   8
ATOM      8  C   UNL     1      -7.831  36.340  45.394  1.00  0.00     0.000 C 
BRANCH   8   9
ATOM      9  C   UNL     1      -7.108  35.653  44.220  1.00  0.00     0.000 C 
BRANCH   9  10
ATOM     10  C   UNL     1      -6.845  34.157  44.471  1.00  0.00     0.000 C 
BRANCH  10  11
ATOM     11  C   UNL     1      -6.939  33.318  43.176  1.00  0.00     0.000 C 
BRANCH  11  12
ATOM     12  C   UNL     1      -8.311  33.405  42.482  1.00  0.00     0.000 C 
BRANCH  12  13
ATOM     13  C   UNL     1      -9.415  32.658  43.244  1.00  0.00     0.006 C 
BRANCH  13  14
ATOM     14  C   UNL     1      -8.897  31.374  43.903  1.00  0.00     0.053 C 
BRANCH  14  15
ATOM     15  C   UNL     1      -9.210  31.340  45.368  1.00  0.00     0.041 C 
ATOM     16  O   UNL     1      -8.283  31.238  46.212  1.00  0.00    -0.550 OA
ATOM     17  O   UNL     1     -10.529  31.388  45.797  1.00  0.00    -0.550 OA
ENDBRANCH  14  15
ENDBRANCH  13  14
ENDBRANCH  12  13
ENDBRANCH  11  12
ENDBRANCH  10  11
ENDBRANCH   9  10
ENDBRANCH   8   9
ENDBRANCH   7   8
ENDBRANCH   6   7
ENDBRANCH   5   6
ENDBRANCH   4   5
ENDBRANCH   3   4
ENDBRANCH   2   3
ENDBRANCH   1   2
BRANCH   1  18
ATOM     18  C   UNL     1      -3.701  36.885  44.336  1.00  0.00     0.000 C 
BRANCH  18  19
ATOM     19  C   UNL     1      -2.158  36.845  44.333  1.00  0.00     0.000 C 
BRANCH  19  20
ATOM     20  C   UNL     1      -1.519  37.059  42.947  1.00  0.00     0.000 C 
BRANCH  20  21
ATOM     21  C   UNL     1      -1.929  38.348  42.216  1.00  0.00     0.000 C 
BRANCH  21  22
ATOM     22  C   UNL     1      -2.413  38.160  40.764  1.00  0.00     0.000 C 
BRANCH  22  23
ATOM     23  C   UNL     1      -3.813  37.515  40.638  1.00  0.00     0.000 C 
BRANCH  23  24
ATOM     24  C   UNL     1      -3.812  36.036  40.207  1.00  0.00    -0.000 C 
BRANCH  24  25
ATOM     25  C   UNL     1      -4.337  35.031  41.253  1.00  0.00    -0.000 C 
BRANCH  25  26
ATOM     26  C   UNL     1      -3.439  33.793  41.452  1.00  0.00    -0.000 C 
BRANCH  26  27
ATOM     27  C   UNL     1      -3.150  33.513  42.939  1.00  0.00    -0.000 C 
BRANCH  27  28
ATOM     28  C   UNL     1      -1.716  33.006  43.166  1.00  0.00    -0.000 C 
BRANCH  28  29
ATOM     29  C   UNL     1      -1.680  31.543  43.639  1.00  0.00    -0.000 C 
BRANCH  29  30
ATOM     30  C   UNL     1      -1.875  30.547  42.476  1.00  0.00    -0.000 C 
BRANCH  30  31
ATOM     31  C   UNL     1      -0.647  29.660  42.217  1.00  0.00    -0.003 C 
ATOM     32  C   UNL     1       0.415  30.346  41.360  1.00  0.00     0.004 C 
ENDBRANCH  30  31
ENDBRANCH  29  30
ENDBRANCH  28  29
ENDBRANCH  27  28
ENDBRANCH  26  27
ENDBRANCH  25  26
ENDBRANCH  24  25
ENDBRANCH  23  24
ENDBRANCH  22  23
ENDBRANCH  21  22
ENDBRANCH  20  21
ENDBRANCH  19  20
ENDBRANCH  18  19
ENDBRANCH   1  18
TORSDOF 28
ENDMDL
MODEL 9
REMARK VINA RESULT:    -3.533      3.475      7.195
REMARK INTER + INTRA:         -14.041
REMARK INTER:                  -8.193
REMARK INTRA:                  -5.848
REMARK UNBOUND:                -4.725
REMARK SMILES CCCCCCCCCCCCCCCCCCCCCCCCCCCCCC(=O)[O-]
REMARK SMILES IDX 16 1 17 2 18 3 19 4 20 5 21 6 22 7 23 8 24 9 25 10 26 11
REMARK SMILES IDX 27 12 28 13 29 14 30 15 31 16 32 17 15 18 14 19 13 20 12 21
REMARK SMILES IDX 11 22 10 23 9 24 8 25 7 26 6 27 5 28 4 29 3 30 2 31 1 32
REMARK H PARENT
REMARK Flexibility Score: inf
ROOT
ATOM      1  C   UNL     1      -0.614  34.929  41.366  1.00  0.00     0.000 C 
ENDROOT
BRANCH   1   2
ATOM      2  C   UNL     1      -1.663  34.750  40.258  1.00  0.00     0.000 C 
BRANCH   2   3
ATOM      3  C   UNL     1      -2.530  36.004  40.042  1.00  0.00     0.000 C 
BRANCH   3   4
ATOM      4  C   UNL     1      -4.003  35.783  40.424  1.00  0.00     0.000 C 
BRANCH   4   5
ATOM      5  C   UNL     1      -4.208  34.564  41.335  1.00  0.00     0.000 C 
BRANCH   5   6
ATOM      6  C   UNL     1      -4.496  35.004  42.776  1.00  0.00     0.000 C 
BRANCH   6   7
ATOM      7  C   UNL     1      -3.563  34.343  43.809  1.00  0.00     0.000 C 
BRANCH   7   8
ATOM      8  C   UNL     1      -4.096  33.037  44.436  1.00  0.00     0.000 C 
BRANCH   8   9
ATOM      9  C   UNL     1      -5.549  32.675  44.073  1.00  0.00     0.000 C 
BRANCH   9  10
ATOM     10  C   UNL     1      -6.579  33.303  45.029  1.00  0.00     0.000 C 
BRANCH  10  11
ATOM     11  C   UNL     1      -7.710  34.038  44.274  1.00  0.00     0.000 C 
BRANCH  11  12
ATOM     12  C   UNL     1      -8.073  33.394  42.924  1.00  0.00     0.000 C 
BRANCH  12  13
ATOM     13  C   UNL     1      -9.414  32.649  42.958  1.00  0.00     0.006 C 
BRANCH  13  14
ATOM     14  C   UNL     1      -9.248  31.174  43.345  1.00  0.00     0.053 C 
BRANCH  14  15
ATOM     15  C   UNL     1      -9.782  30.899  44.717  1.00  0.00     0.041 C 
ATOM     16  O   UNL     1     -10.156  31.848  45.453  1.00  0.00    -0.550 OA
ATOM     17  O   UNL     1      -9.834  29.596  45.193  1.00  0.00    -0.550 OA
ENDBRANCH  14  15
ENDBRANCH  13  14
ENDBRANCH  12  13
ENDBRANCH  11  12
ENDBRANCH  10  11
ENDBRANCH   9  10
ENDBRANCH   8   9
ENDBRANCH   7   8
ENDBRANCH   6   7
ENDBRANCH   5   6
ENDBRANCH   4   5
ENDBRANCH   3   4
ENDBRANCH   2   3
ENDBRANCH   1   2
BRANCH   1  18
ATOM     18  C   UNL     1      -0.497  36.387  41.848  1.00  0.00     0.000 C 
BRANCH  18  19
ATOM     19  C   UNL     1      -0.506  36.512  43.386  1.00  0.00     0.000 C 
BRANCH  19  20
ATOM     20  C   UNL     1      -1.612  37.430  43.944  1.00  0.00     0.000 C 
BRANCH  20  21
ATOM     21  C   UNL     1      -2.297  38.347  42.917  1.00  0.00     0.000 C 
BRANCH  21  22
ATOM     22  C   UNL     1      -3.613  39.000  43.388  1.00  0.00     0.000 C 
BRANCH  22  23
ATOM     23  C   UNL     1      -4.860  38.573  42.581  1.00  0.00     0.000 C 
BRANCH  23  24
ATOM     24  C   UNL     1      -6.090  38.203  43.430  1.00  0.00    -0.000 C 
BRANCH  24  25
ATOM     25  C   UNL     1      -6.998  39.379  43.846  1.00  0.00    -0.000 C 
BRANCH  25  26
ATOM     26  C   UNL     1      -7.698  39.192  45.207  1.00  0.00    -0.000 C 
BRANCH  26  27
ATOM     27  C   UNL     1      -8.545  37.907  45.258  1.00  0.00    -0.000 C 
BRANCH  27  28
ATOM     28  C   UNL     1      -8.125  36.980  46.410  1.00  0.00    -0.000 C 
BRANCH  28  29
ATOM     29  C   UNL     1      -6.777  37.389  47.029  1.00  0.00    -0.000 C 
BRANCH  29  30
ATOM     30  C   UNL     1      -5.657  36.374  46.712  1.00  0.00    -0.000 C 
BRANCH  30  31
ATOM     31  C   UNL     1      -4.274  37.024  46.538  1.00  0.00    -0.003 C 
ATOM     32  C   UNL     1      -3.128  36.119  46.986  1.00  0.00     0.004 C 
ENDBRANCH  30  31
ENDBRANCH  29  30
ENDBRANCH  28  29
ENDBRANCH  27  28
ENDBRANCH  26  27
ENDBRANCH  25  26
ENDBRANCH  24  25
ENDBRANCH  23  24
ENDBRANCH  22  23
ENDBRANCH  21  22
ENDBRANCH  20  21
ENDBRANCH  19  20
ENDBRANCH  18  19
ENDBRANCH   1  18
TORSDOF 28
ENDMDL
