MODEL 1
REMARK VINA RESULT:    -4.532      0.000      0.000
REMARK INTER + INTRA:          -7.594
REMARK INTER:                  -6.916
REMARK INTRA:                  -0.678
REMARK UNBOUND:                -0.678
REMARK SMILES CCCCCCCCCCC(=O)[O-]
REMARK SMILES IDX 7 1 8 2 9 3 10 4 11 5 12 6 13 7 6 8 5 9 4 10 3 11 2 12 1 13
REMARK H PARENT
REMARK Flexibility Score: inf
ROOT
ATOM      1  C   UNL     1      11.952 -15.168  16.013  1.00  0.00     0.000 C 
ENDROOT
BRANCH   1   2
ATOM      2  C   UNL     1      11.803 -13.739  16.556  1.00  0.00     0.000 C 
BRANCH   2   3
ATOM      3  C   UNL     1      12.322 -12.707  15.544  1.00  0.00     0.006 C 
BRANCH   3   4
ATOM      4  C   UNL     1      11.259 -11.658  15.191  1.00  0.00     0.053 C 
BRANCH   4   5
ATOM      5  C   UNL     1      11.803 -10.265  15.274  1.00  0.00     0.041 C 
ATOM      6  O   UNL     1      13.038 -10.059  15.142  1.00  0.00    -0.550 OA
ATOM      7  O   UNL     1      10.951  -9.200  15.536  1.00  0.00    -0.550 OA
ENDBRANCH   4   5
ENDBRANCH   3   4
ENDBRANCH   2   3
ENDBRANCH   1   2
BRANCH   1   8
ATOM      8  C   UNL     1      11.029 -15.440  14.805  1.00  0.00     0.000 C 
BRANCH   8   9
ATOM      9  C   UNL     1      11.769 -15.988  13.570  1.00  0.00    -0.000 C 
BRANCH   9  10
ATOM     10  C   UNL     1      12.726 -17.161  13.854  1.00  0.00    -0.000 C 
BRANCH  10  11
ATOM     11  C   UNL     1      14.188 -16.933  13.417  1.00  0.00    -0.000 C 
BRANCH  11  12
ATOM     12  C   UNL     1      15.248 -17.520  14.365  1.00  0.00    -0.003 C 
ATOM     13  C   UNL     1      14.748 -17.670  15.801  1.00  0.00     0.004 C 
ENDBRANCH  11  12
ENDBRANCH  10  11
ENDBRANCH   9  10
ENDBRANCH   8   9
ENDBRANCH   1   8
TORSDOF 9
ENDMDL
MODEL 2
REMARK VINA RESULT:    -4.482      3.042      6.049
REMARK INTER + INTRA:          -7.519
REMARK INTER:                  -6.843
REMARK INTRA:                  -0.676
REMARK UNBOUND:                -0.678
REMARK SMILES CCCCCCCCCCC(=O)[O-]
REMARK SMILES IDX 7 1 8 2 9 3 10 4 11 5 12 6 13 7 6 8 5 9 4 10 3 11 2 12 1 13
REMARK H PARENT
REMARK Flexibility Score: inf
ROOT
ATOM      1  C   UNL     1      11.303 -15.180  14.398  1.00  0.00     0.000 C 
ENDROOT
BRANCH   1   2
ATOM      2  C   UNL     1      11.767 -16.595  14.021  1.00  0.00     0.000 C 
BRANCH   2   3
ATOM      3  C   UNL     1      13.082 -16.951  14.729  1.00  0.00     0.006 C 
BRANCH   3   4
ATOM      4  C   UNL     1      14.103 -17.581  13.772  1.00  0.00     0.053 C 
BRANCH   4   5
ATOM      5  C   UNL     1      14.049 -16.958  12.412  1.00  0.00     0.041 C 
ATOM      6  O   UNL     1      13.640 -17.625  11.426  1.00  0.00    -0.550 OA
ATOM      7  O   UNL     1      14.485 -15.652  12.226  1.00  0.00    -0.550 OA
ENDBRANCH   4   5
ENDBRANCH   3   4
ENDBRANCH   2   3
ENDBRANCH   1   2
BRANCH   1   8
ATOM      8  C   UNL     1      11.140 -14.999  15.923  1.00  0.00     0.000 C 
BRANCH   8   9
ATOM      9  C   UNL     1      11.839 -13.742  16.476  1.00  0.00    -0.000 C 
BRANCH   9  10
ATOM     10  C   UNL     1      12.941 -13.160  15.571  1.00  0.00    -0.000 C 
BRANCH  10  11
ATOM     11  C   UNL     1      12.708 -11.707  15.109  1.00  0.00    -0.000 C 
BRANCH  11  12
ATOM     12  C   UNL     1      11.248 -11.228  15.182  1.00  0.00    -0.003 C 
ATOM     13  C   UNL     1      11.125  -9.716  15.367  1.00  0.00     0.004 C 
ENDBRANCH  11  12
ENDBRANCH  10  11
ENDBRANCH   9  10
ENDBRANCH   8   9
ENDBRANCH   1   8
TORSDOF 9
ENDMDL
MODEL 3
REMARK VINA RESULT:    -4.478      1.049      1.684
REMARK INTER + INTRA:          -7.512
REMARK INTER:                  -7.030
REMARK INTRA:                  -0.483
REMARK UNBOUND:                -0.678
REMARK SMILES CCCCCCCCCCC(=O)[O-]
REMARK SMILES IDX 7 1 8 2 9 3 10 4 11 5 12 6 13 7 6 8 5 9 4 10 3 11 2 12 1 13
REMARK H PARENT
REMARK Flexibility Score: inf
ROOT
ATOM      1  C   UNL     1      11.394 -14.971  15.873  1.00  0.00     0.000 C 
ENDROOT
BRANCH   1   2
ATOM      2  C   UNL     1      11.649 -13.602  16.519  1.00  0.00     0.000 C 
BRANCH   2   3
ATOM      3  C   UNL     1      11.393 -12.464  15.521  1.00  0.00     0.006 C 
BRANCH   3   4
ATOM      4  C   UNL     1      12.664 -11.656  15.224  1.00  0.00     0.053 C 
BRANCH   4   5
ATOM      5  C   UNL     1      12.381 -10.189  15.133  1.00  0.00     0.041 C 
ATOM      6  O   UNL     1      13.298  -9.386  14.816  1.00  0.00    -0.550 OA
ATOM      7  O   UNL     1      11.114  -9.703  15.434  1.00  0.00    -0.550 OA
ENDBRANCH   4   5
ENDBRANCH   3   4
ENDBRANCH   2   3
ENDBRANCH   1   2
BRANCH   1   8
ATOM      8  C   UNL     1      12.619 -15.495  15.093  1.00  0.00     0.000 C 
BRANCH   8   9
ATOM      9  C   UNL     1      13.532 -16.419  15.921  1.00  0.00    -0.000 C 
BRANCH   9  10
ATOM     10  C   UNL     1      13.980 -17.705  15.200  1.00  0.00    -0.000 C 
BRANCH  10  11
ATOM     11  C   UNL     1      15.405 -17.661  14.610  1.00  0.00    -0.000 C 
BRANCH  11  12
ATOM     12  C   UNL     1      15.480 -17.280  13.121  1.00  0.00    -0.003 C 
ATOM     13  C   UNL     1      14.164 -17.510  12.379  1.00  0.00     0.004 C 
ENDBRANCH  11  12
ENDBRANCH  10  11
ENDBRANCH   9  10
ENDBRANCH   8   9
ENDBRANCH   1   8
TORSDOF 9
ENDMDL
MODEL 4
REMARK VINA RESULT:    -4.473      1.030      1.513
REMARK INTER + INTRA:          -7.505
REMARK INTER:                  -6.864
REMARK INTRA:                  -0.640
REMARK UNBOUND:                -0.678
REMARK SMILES CCCCCCCCCCC(=O)[O-]
REMARK SMILES IDX 7 1 8 2 9 3 10 4 11 5 12 6 13 7 6 8 5 9 4 10 3 11 2 12 1 13
REMARK H PARENT
REMARK Flexibility Score: inf
ROOT
ATOM      1  C   UNL     1      12.057 -14.005  15.875  1.00  0.00     0.000 C 
ENDROOT
BRANCH   1   2
ATOM      2  C   UNL     1      11.350 -12.693  16.245  1.00  0.00     0.000 C 
BRANCH   2   3
ATOM      3  C   UNL     1      11.493 -11.654  15.123  1.00  0.00     0.006 C 
BRANCH   3   4
ATOM      4  C   UNL     1      12.913 -11.079  15.043  1.00  0.00     0.053 C 
BRANCH   4   5
ATOM      5  C   UNL     1      12.911  -9.583  15.080  1.00  0.00     0.041 C 
ATOM      6  O   UNL     1      11.869  -8.959  15.415  1.00  0.00    -0.550 OA
ATOM      7  O   UNL     1      14.048  -8.875  14.710  1.00  0.00    -0.550 OA
ENDBRANCH   4   5
ENDBRANCH   3   4
ENDBRANCH   2   3
ENDBRANCH   1   2
BRANCH   1   8
ATOM      8  C   UNL     1      11.066 -15.165  15.639  1.00  0.00     0.000 C 
BRANCH   8   9
ATOM      9  C   UNL     1      11.448 -16.077  14.457  1.00  0.00    -0.000 C 
BRANCH   9  10
ATOM     10  C   UNL     1      12.667 -15.608  13.642  1.00  0.00    -0.000 C 
BRANCH  10  11
ATOM     11  C   UNL     1      13.759 -16.676  13.426  1.00  0.00    -0.000 C 
BRANCH  11  12
ATOM     12  C   UNL     1      13.659 -17.905  14.346  1.00  0.00    -0.003 C 
ATOM     13  C   UNL     1      14.542 -17.795  15.588  1.00  0.00     0.004 C 
ENDBRANCH  11  12
ENDBRANCH  10  11
ENDBRANCH   9  10
ENDBRANCH   8   9
ENDBRANCH   1   8
TORSDOF 9
ENDMDL
MODEL 5
REMARK VINA RESULT:    -4.375      1.919      3.747
REMARK INTER + INTRA:          -7.355
REMARK INTER:                  -6.245
REMARK INTRA:                  -1.110
REMARK UNBOUND:                -0.678
REMARK SMILES CCCCCCCCCCC(=O)[O-]
REMARK SMILES IDX 7 1 8 2 9 3 10 4 11 5 12 6 13 7 6 8 5 9 4 10 3 11 2 12 1 13
REMARK H PARENT
REMARK Flexibility Score: inf
ROOT
ATOM      1  C   UNL     1      14.440 -17.763  15.138  1.00  0.00     0.000 C 
ENDROOT
BRANCH   1   2
ATOM      2  C   UNL     1      14.192 -16.668  16.186  1.00  0.00     0.000 C 
BRANCH   2   3
ATOM      3  C   UNL     1      13.043 -15.744  15.756  1.00  0.00     0.006 C 
BRANCH   3   4
ATOM      4  C   UNL     1      13.552 -14.458  15.091  1.00  0.00     0.053 C 
BRANCH   4   5
ATOM      5  C   UNL     1      12.674 -13.286  15.403  1.00  0.00     0.041 C 
ATOM      6  O   UNL     1      13.117 -12.113  15.282  1.00  0.00    -0.550 OA
ATOM      7  O   UNL     1      11.378 -13.488  15.861  1.00  0.00    -0.550 OA
ENDBRANCH   4   5
ENDBRANCH   3   4
ENDBRANCH   2   3
ENDBRANCH   1   2
BRANCH   1   8
ATOM      8  C   UNL     1      15.685 -17.478  14.270  1.00  0.00     0.000 C 
BRANCH   8   9
ATOM      9  C   UNL     1      15.362 -17.237  12.783  1.00  0.00    -0.000 C 
BRANCH   9  10
ATOM     10  C   UNL     1      13.887 -17.451  12.395  1.00  0.00    -0.000 C 
BRANCH  10  11
ATOM     11  C   UNL     1      13.139 -16.179  11.943  1.00  0.00    -0.000 C 
BRANCH  11  12
ATOM     12  C   UNL     1      11.623 -16.351  11.749  1.00  0.00    -0.003 C 
ATOM     13  C   UNL     1      10.799 -15.621  12.809  1.00  0.00     0.004 C 
ENDBRANCH  11  12
ENDBRANCH  10  11
ENDBRANCH   9  10
ENDBRANCH   8   9
ENDBRANCH   1   8
TORSDOF 9
ENDMDL
MODEL 6
REMARK VINA RESULT:    -4.325      2.334      3.581
REMARK INTER + INTRA:          -7.278
REMARK INTER:                  -6.158
REMARK INTRA:                  -1.120
REMARK UNBOUND:                -0.678
REMARK SMILES CCCCCCCCCCC(=O)[O-]
REMARK SMILES IDX 7 1 8 2 9 3 10 4 11 5 12 6 13 7 6 8 5 9 4 10 3 11 2 12 1 13
REMARK H PARENT
REMARK Flexibility Score: inf
ROOT
ATOM      1  C   UNL     1      10.992 -15.763  11.476  1.00  0.00     0.000 C 
ENDROOT
BRANCH   1   2
ATOM      2  C   UNL     1      10.752 -16.155  12.941  1.00  0.00     0.000 C 
BRANCH   2   3
ATOM      3  C   UNL     1      11.323 -15.096  13.896  1.00  0.00     0.006 C 
BRANCH   3   4
ATOM      4  C   UNL     1      11.008 -15.410  15.365  1.00  0.00     0.053 C 
BRANCH   4   5
ATOM      5  C   UNL     1      11.767 -14.520  16.299  1.00  0.00     0.041 C 
ATOM      6  O   UNL     1      12.512 -15.018  17.184  1.00  0.00    -0.550 OA
ATOM      7  O   UNL     1      11.623 -13.141  16.218  1.00  0.00    -0.550 OA
ENDBRANCH   4   5
ENDBRANCH   3   4
ENDBRANCH   2   3
ENDBRANCH   1   2
BRANCH   1   8
ATOM      8  C   UNL     1      11.968 -16.721  10.760  1.00  0.00     0.000 C 
BRANCH   8   9
ATOM      9  C   UNL     1      13.449 -16.467  11.099  1.00  0.00    -0.000 C 
BRANCH   9  10
ATOM     10  C   UNL     1      14.027 -17.374  12.201  1.00  0.00    -0.000 C 
BRANCH  10  11
ATOM     11  C   UNL     1      14.932 -16.661  13.228  1.00  0.00    -0.000 C 
BRANCH  11  12
ATOM     12  C   UNL     1      14.533 -16.866  14.699  1.00  0.00    -0.003 C 
ATOM     13  C   UNL     1      13.536 -18.008  14.894  1.00  0.00     0.004 C 
ENDBRANCH  11  12
ENDBRANCH  10  11
ENDBRANCH   9  10
ENDBRANCH   8   9
ENDBRANCH   1   8
TORSDOF 9
ENDMDL
MODEL 7
REMARK VINA RESULT:    -4.277      2.001      3.471
REMARK INTER + INTRA:          -7.205
REMARK INTER:                  -6.168
REMARK INTRA:                  -1.038
REMARK UNBOUND:                -0.678
REMARK SMILES CCCCCCCCCCC(=O)[O-]
REMARK SMILES IDX 7 1 8 2 9 3 10 4 11 5 12 6 13 7 6 8 5 9 4 10 3 11 2 12 1 13
REMARK H PARENT
REMARK Flexibility Score: inf
ROOT
ATOM      1  C   UNL     1      13.043 -16.839  15.283  1.00  0.00     0.000 C 
ENDROOT
BRANCH   1   2
ATOM      2  C   UNL     1      11.985 -16.641  14.187  1.00  0.00     0.000 C 
BRANCH   2   3
ATOM      3  C   UNL     1      11.313 -15.266  14.311  1.00  0.00     0.006 C 
BRANCH   3   4
ATOM      4  C   UNL     1      12.308 -14.168  14.710  1.00  0.00     0.053 C 
BRANCH   4   5
ATOM      5  C   UNL     1      11.797 -13.340  15.848  1.00  0.00     0.041 C 
ATOM      6  O   UNL     1      11.791 -13.807  17.018  1.00  0.00    -0.550 OA
ATOM      7  O   UNL     1      11.292 -12.067  15.613  1.00  0.00    -0.550 OA
ENDBRANCH   4   5
ENDBRANCH   3   4
ENDBRANCH   2   3
ENDBRANCH   1   2
BRANCH   1   8
ATOM      8  C   UNL     1      14.026 -17.984  14.957  1.00  0.00     0.000 C 
BRANCH   8   9
ATOM      9  C   UNL     1      15.485 -17.519  14.786  1.00  0.00    -0.000 C 
BRANCH   9  10
ATOM     10  C   UNL     1      15.747 -16.644  13.547  1.00  0.00    -0.000 C 
BRANCH  10  11
ATOM     11  C   UNL     1      15.348 -17.281  12.200  1.00  0.00    -0.000 C 
BRANCH  11  12
ATOM     12  C   UNL     1      14.288 -16.503  11.401  1.00  0.00    -0.003 C 
ATOM     13  C   UNL     1      13.246 -17.412  10.750  1.00  0.00     0.004 C 
ENDBRANCH  11  12
ENDBRANCH  10  11
ENDBRANCH   9  10
ENDBRANCH   8   9
ENDBRANCH   1   8
TORSDOF 9
ENDMDL
MODEL 8
REMARK VINA RESULT:    -4.267      3.656      5.879
REMARK INTER + INTRA:          -7.191
REMARK INTER:                  -6.324
REMARK INTRA:                  -0.867
REMARK UNBOUND:                -0.678
REMARK SMILES CCCCCCCCCCC(=O)[O-]
REMARK SMILES IDX 7 1 8 2 9 3 10 4 11 5 12 6 13 7 6 8 5 9 4 10 3 11 2 12 1 13
REMARK H PARENT
REMARK Flexibility Score: inf
ROOT
ATOM      1  C   UNL     1      14.224 -17.742  15.236  1.00  0.00     0.000 C 
ENDROOT
BRANCH   1   2
ATOM      2  C   UNL     1      15.553 -17.734  14.466  1.00  0.00     0.000 C 
BRANCH   2   3
ATOM      3  C   UNL     1      15.367 -17.166  13.051  1.00  0.00     0.006 C 
BRANCH   3   4
ATOM      4  C   UNL     1      14.066 -17.653  12.398  1.00  0.00     0.053 C 
BRANCH   4   5
ATOM      5  C   UNL     1      13.783 -16.930  11.118  1.00  0.00     0.041 C 
ATOM      6  O   UNL     1      13.279 -17.545  10.141  1.00  0.00    -0.550 OA
ATOM      7  O   UNL     1      14.109 -15.585  10.990  1.00  0.00    -0.550 OA
ENDBRANCH   4   5
ENDBRANCH   3   4
ENDBRANCH   2   3
ENDBRANCH   1   2
BRANCH   1   8
ATOM      8  C   UNL     1      14.150 -16.626  16.300  1.00  0.00     0.000 C 
BRANCH   8   9
ATOM      9  C   UNL     1      13.477 -15.334  15.798  1.00  0.00    -0.000 C 
BRANCH   9  10
ATOM     10  C   UNL     1      12.009 -15.157  16.230  1.00  0.00    -0.000 C 
BRANCH  10  11
ATOM     11  C   UNL     1      10.972 -15.317  15.099  1.00  0.00    -0.000 C 
BRANCH  11  12
ATOM     12  C   UNL     1      11.562 -15.637  13.715  1.00  0.00    -0.003 C 
ATOM     13  C   UNL     1      10.508 -15.658  12.608  1.00  0.00     0.004 C 
ENDBRANCH  11  12
ENDBRANCH  10  11
ENDBRANCH   9  10
ENDBRANCH   8   9
ENDBRANCH   1   8
TORSDOF 9
ENDMDL
MODEL 9
REMARK VINA RESULT:    -4.246      2.155      3.573
REMARK INTER + INTRA:          -7.158
REMARK INTER:                  -6.533
REMARK INTRA:                  -0.624
REMARK UNBOUND:                -0.678
REMARK SMILES CCCCCCCCCCC(=O)[O-]
REMARK SMILES IDX 7 1 8 2 9 3 10 4 11 5 12 6 13 7 6 8 5 9 4 10 3 11 2 12 1 13
REMARK H PARENT
REMARK Flexibility Score: inf
ROOT
ATOM      1  C   UNL     1      11.808 -12.170  15.114  1.00  0.00     0.000 C 
ENDROOT
BRANCH   1   2
ATOM      2  C   UNL     1      11.353 -10.719  15.326  1.00  0.00     0.000 C 
BRANCH   2   3
ATOM      3  C   UNL     1      12.532  -9.745  15.188  1.00  0.00     0.006 C 
BRANCH   3   4
ATOM      4  C   UNL     1      13.836 -10.463  14.811  1.00  0.00     0.053 C 
BRANCH   4   5
ATOM      5  C   UNL     1      14.766  -9.566  14.055  1.00  0.00     0.041 C 
ATOM      6  O   UNL     1      15.194  -8.507  14.583  1.00  0.00    -0.550 OA
ATOM      7  O   UNL     1      15.131  -9.882  12.752  1.00  0.00    -0.550 OA
ENDBRANCH   4   5
ENDBRANCH   3   4
ENDBRANCH   2   3
ENDBRANCH   1   2
BRANCH   1   8
ATOM      8  C   UNL     1      11.416 -13.090  16.290  1.00  0.00     0.000 C 
BRANCH   8   9
ATOM      9  C   UNL     1      12.205 -14.413  16.332  1.00  0.00    -0.000 C 
BRANCH   9  10
ATOM     10  C   UNL     1      13.073 -14.692  15.091  1.00  0.00    -0.000 C 
BRANCH  10  11
ATOM     11  C   UNL     1      12.516 -15.763  14.131  1.00  0.00    -0.000 C 
BRANCH  11  12
ATOM     12  C   UNL     1      11.013 -15.644  13.826  1.00  0.00    -0.003 C 
ATOM     13  C   UNL     1      10.692 -15.796  12.339  1.00  0.00     0.004 C 
ENDBRANCH  11  12
ENDBRANCH  10  11
ENDBRANCH   9  10
ENDBRANCH   8   9
ENDBRANCH   1   8
TORSDOF 9
ENDMDL
