MODEL 1
REMARK VINA RESULT:    -4.672      0.000      0.000
REMARK INTER + INTRA:         -11.742
REMARK INTER:                  -9.043
REMARK INTRA:                  -2.699
REMARK UNBOUND:                -2.699
REMARK SMILES CCCCCCCCCCCCCCCCCC(=O)[O-]
REMARK SMILES IDX 10 1 11 2 12 3 13 4 14 5 15 6 16 7 17 8 18 9 19 10 20 11
REMARK SMILES IDX 9 12 8 13 7 14 6 15 5 16 4 17 3 18 2 19 1 20
REMARK H PARENT
REMARK Flexibility Score: inf
ROOT
ATOM      1  C   UNL     1      63.429  29.981  13.707  1.00  0.00     0.000 C 
ENDROOT
BRANCH   1   2
ATOM      2  C   UNL     1      64.086  31.191  14.403  1.00  0.00     0.000 C 
BRANCH   2   3
ATOM      3  C   UNL     1      64.484  32.350  13.469  1.00  0.00     0.000 C 
BRANCH   3   4
ATOM      4  C   UNL     1      63.889  32.271  12.052  1.00  0.00     0.000 C 
BRANCH   4   5
ATOM      5  C   UNL     1      64.964  32.118  10.964  1.00  0.00     0.000 C 
BRANCH   5   6
ATOM      6  C   UNL     1      64.538  31.166   9.831  1.00  0.00     0.000 C 
BRANCH   6   7
ATOM      7  C   UNL     1      63.736  29.934  10.289  1.00  0.00     0.006 C 
BRANCH   7   8
ATOM      8  C   UNL     1      63.209  29.094   9.119  1.00  0.00     0.053 C 
BRANCH   8   9
ATOM      9  C   UNL     1      61.715  29.017   9.163  1.00  0.00     0.041 C 
ATOM     10  O   UNL     1      61.140  27.897   9.180  1.00  0.00    -0.550 OA
ATOM     11  O   UNL     1      60.962  30.181   9.249  1.00  0.00    -0.550 OA
ENDBRANCH   8   9
ENDBRANCH   7   8
ENDBRANCH   6   7
ENDBRANCH   5   6
ENDBRANCH   4   5
ENDBRANCH   3   4
ENDBRANCH   2   3
ENDBRANCH   1   2
BRANCH   1  12
ATOM     12  C   UNL     1      61.962  29.729  14.097  1.00  0.00     0.000 C 
BRANCH  12  13
ATOM     13  C   UNL     1      61.012  29.761  12.889  1.00  0.00    -0.000 C 
BRANCH  13  14
ATOM     14  C   UNL     1      60.435  31.162  12.617  1.00  0.00    -0.000 C 
BRANCH  14  15
ATOM     15  C   UNL     1      60.164  32.011  13.877  1.00  0.00    -0.000 C 
BRANCH  15  16
ATOM     16  C   UNL     1      60.949  33.334  13.957  1.00  0.00    -0.000 C 
BRANCH  16  17
ATOM     17  C   UNL     1      61.010  33.969  15.359  1.00  0.00    -0.000 C 
BRANCH  17  18
ATOM     18  C   UNL     1      61.717  33.086  16.410  1.00  0.00    -0.000 C 
BRANCH  18  19
ATOM     19  C   UNL     1      62.655  33.891  17.320  1.00  0.00    -0.003 C 
ATOM     20  C   UNL     1      63.873  34.392  16.550  1.00  0.00     0.004 C 
ENDBRANCH  18  19
ENDBRANCH  17  18
ENDBRANCH  16  17
ENDBRANCH  15  16
ENDBRANCH  14  15
ENDBRANCH  13  14
ENDBRANCH  12  13
ENDBRANCH   1  12
TORSDOF 16
ENDMDL
MODEL 2
REMARK VINA RESULT:    -4.647      2.994      6.117
REMARK INTER + INTRA:         -11.692
REMARK INTER:                  -9.142
REMARK INTRA:                  -2.550
REMARK UNBOUND:                -2.699
REMARK SMILES CCCCCCCCCCCCCCCCCC(=O)[O-]
REMARK SMILES IDX 10 1 11 2 12 3 13 4 14 5 15 6 16 7 17 8 18 9 19 10 20 11
REMARK SMILES IDX 9 12 8 13 7 14 6 15 5 16 4 17 3 18 2 19 1 20
REMARK H PARENT
REMARK Flexibility Score: inf
ROOT
ATOM      1  C   UNL     1      61.302  28.533  13.020  1.00  0.00     0.000 C 
ENDROOT
BRANCH   1   2
ATOM      2  C   UNL     1      62.613  29.242  12.620  1.00  0.00     0.000 C 
BRANCH   2   3
ATOM      3  C   UNL     1      63.352  29.954  13.770  1.00  0.00     0.000 C 
BRANCH   3   4
ATOM      4  C   UNL     1      63.393  31.488  13.659  1.00  0.00     0.000 C 
BRANCH   4   5
ATOM      5  C   UNL     1      62.555  32.022  12.486  1.00  0.00     0.000 C 
BRANCH   5   6
ATOM      6  C   UNL     1      61.274  32.741  12.945  1.00  0.00     0.000 C 
BRANCH   6   7
ATOM      7  C   UNL     1      60.959  32.607  14.446  1.00  0.00     0.006 C 
BRANCH   7   8
ATOM      8  C   UNL     1      61.008  33.947  15.190  1.00  0.00     0.053 C 
BRANCH   8   9
ATOM      9  C   UNL     1      62.103  33.937  16.210  1.00  0.00     0.041 C 
ATOM     10  O   UNL     1      63.283  34.223  15.875  1.00  0.00    -0.550 OA
ATOM     11  O   UNL     1      61.809  33.674  17.542  1.00  0.00    -0.550 OA
ENDBRANCH   8   9
ENDBRANCH   7   8
ENDBRANCH   6   7
ENDBRANCH   5   6
ENDBRANCH   4   5
ENDBRANCH   3   4
ENDBRANCH   2   3
ENDBRANCH   1   2
BRANCH   1  12
ATOM     12  C   UNL     1      60.026  29.144  12.415  1.00  0.00     0.000 C 
BRANCH  12  13
ATOM     13  C   UNL     1      60.262  29.755  11.024  1.00  0.00    -0.000 C 
BRANCH  13  14
ATOM     14  C   UNL     1      60.076  28.736   9.884  1.00  0.00    -0.000 C 
BRANCH  14  15
ATOM     15  C   UNL     1      61.353  28.420   9.076  1.00  0.00    -0.000 C 
BRANCH  15  16
ATOM     16  C   UNL     1      62.311  29.609   8.876  1.00  0.00    -0.000 C 
BRANCH  16  17
ATOM     17  C   UNL     1      63.767  29.350   9.307  1.00  0.00    -0.000 C 
BRANCH  17  18
ATOM     18  C   UNL     1      64.716  30.537   9.034  1.00  0.00    -0.000 C 
BRANCH  18  19
ATOM     19  C   UNL     1      65.418  31.035  10.306  1.00  0.00    -0.003 C 
ATOM     20  C   UNL     1      65.464  32.559  10.349  1.00  0.00     0.004 C 
ENDBRANCH  18  19
ENDBRANCH  17  18
ENDBRANCH  16  17
ENDBRANCH  15  16
ENDBRANCH  14  15
ENDBRANCH  13  14
ENDBRANCH  12  13
ENDBRANCH   1  12
TORSDOF 16
ENDMDL
MODEL 3
REMARK VINA RESULT:    -4.575      2.849      6.760
REMARK INTER + INTRA:         -11.553
REMARK INTER:                  -9.092
REMARK INTRA:                  -2.461
REMARK UNBOUND:                -2.699
REMARK SMILES CCCCCCCCCCCCCCCCCC(=O)[O-]
REMARK SMILES IDX 10 1 11 2 12 3 13 4 14 5 15 6 16 7 17 8 18 9 19 10 20 11
REMARK SMILES IDX 9 12 8 13 7 14 6 15 5 16 4 17 3 18 2 19 1 20
REMARK H PARENT
REMARK Flexibility Score: inf
ROOT
ATOM      1  C   UNL     1      64.085  31.024  13.123  1.00  0.00     0.000 C 
ENDROOT
BRANCH   1   2
ATOM      2  C   UNL     1      63.800  29.536  12.836  1.00  0.00     0.000 C 
BRANCH   2   3
ATOM      3  C   UNL     1      62.354  29.079  13.115  1.00  0.00     0.000 C 
BRANCH   3   4
ATOM      4  C   UNL     1      61.565  29.982  14.079  1.00  0.00     0.000 C 
BRANCH   4   5
ATOM      5  C   UNL     1      60.421  30.737  13.383  1.00  0.00     0.000 C 
BRANCH   5   6
ATOM      6  C   UNL     1      60.052  32.052  14.094  1.00  0.00     0.000 C 
BRANCH   6   7
ATOM      7  C   UNL     1      61.202  33.070  14.209  1.00  0.00     0.006 C 
BRANCH   7   8
ATOM      8  C   UNL     1      61.118  33.925  15.479  1.00  0.00     0.053 C 
BRANCH   8   9
ATOM      9  C   UNL     1      62.191  33.531  16.445  1.00  0.00     0.041 C 
ATOM     10  O   UNL     1      63.090  32.722  16.097  1.00  0.00    -0.550 OA
ATOM     11  O   UNL     1      62.233  34.107  17.709  1.00  0.00    -0.550 OA
ENDBRANCH   8   9
ENDBRANCH   7   8
ENDBRANCH   6   7
ENDBRANCH   5   6
ENDBRANCH   4   5
ENDBRANCH   3   4
ENDBRANCH   2   3
ENDBRANCH   1   2
BRANCH   1  12
ATOM     12  C   UNL     1      63.712  31.985  11.980  1.00  0.00     0.000 C 
BRANCH  12  13
ATOM     13  C   UNL     1      64.897  32.850  11.520  1.00  0.00    -0.000 C 
BRANCH  13  14
ATOM     14  C   UNL     1      65.752  32.167  10.437  1.00  0.00    -0.000 C 
BRANCH  14  15
ATOM     15  C   UNL     1      64.961  31.624   9.228  1.00  0.00    -0.000 C 
BRANCH  15  16
ATOM     16  C   UNL     1      65.234  30.151   8.875  1.00  0.00    -0.000 C 
BRANCH  16  17
ATOM     17  C   UNL     1      64.081  29.181   9.198  1.00  0.00    -0.000 C 
BRANCH  17  18
ATOM     18  C   UNL     1      62.679  29.806   9.026  1.00  0.00    -0.000 C 
BRANCH  18  19
ATOM     19  C   UNL     1      61.563  28.909   9.582  1.00  0.00    -0.003 C 
ATOM     20  C   UNL     1      60.336  29.732   9.965  1.00  0.00     0.004 C 
ENDBRANCH  18  19
ENDBRANCH  17  18
ENDBRANCH  16  17
ENDBRANCH  15  16
ENDBRANCH  14  15
ENDBRANCH  13  14
ENDBRANCH  12  13
ENDBRANCH   1  12
TORSDOF 16
ENDMDL
MODEL 4
REMARK VINA RESULT:    -4.547      3.631      6.014
REMARK INTER + INTRA:         -11.499
REMARK INTER:                  -9.086
REMARK INTRA:                  -2.413
REMARK UNBOUND:                -2.699
REMARK SMILES CCCCCCCCCCCCCCCCCC(=O)[O-]
REMARK SMILES IDX 10 1 11 2 12 3 13 4 14 5 15 6 16 7 17 8 18 9 19 10 20 11
REMARK SMILES IDX 9 12 8 13 7 14 6 15 5 16 4 17 3 18 2 19 1 20
REMARK H PARENT
REMARK Flexibility Score: inf
ROOT
ATOM      1  C   UNL     1      63.877  30.859  10.133  1.00  0.00     0.000 C 
ENDROOT
BRANCH   1   2
ATOM      2  C   UNL     1      64.580  31.316  11.428  1.00  0.00     0.000 C 
BRANCH   2   3
ATOM      3  C   UNL     1      65.336  32.656  11.328  1.00  0.00     0.000 C 
BRANCH   3   4
ATOM      4  C   UNL     1      65.259  33.537  12.587  1.00  0.00     0.000 C 
BRANCH   4   5
ATOM      5  C   UNL     1      64.696  32.786  13.804  1.00  0.00     0.000 C 
BRANCH   5   6
ATOM      6  C   UNL     1      64.072  33.727  14.851  1.00  0.00     0.000 C 
BRANCH   6   7
ATOM      7  C   UNL     1      63.322  33.017  15.993  1.00  0.00     0.006 C 
BRANCH   7   8
ATOM      8  C   UNL     1      62.101  33.803  16.486  1.00  0.00     0.053 C 
BRANCH   8   9
ATOM      9  C   UNL     1      62.383  34.424  17.818  1.00  0.00     0.041 C 
ATOM     10  O   UNL     1      63.418  35.122  17.984  1.00  0.00    -0.550 OA
ATOM     11  O   UNL     1      61.471  34.284  18.857  1.00  0.00    -0.550 OA
ENDBRANCH   8   9
ENDBRANCH   7   8
ENDBRANCH   6   7
ENDBRANCH   5   6
ENDBRANCH   4   5
ENDBRANCH   3   4
ENDBRANCH   2   3
ENDBRANCH   1   2
BRANCH   1  12
ATOM     12  C   UNL     1      63.585  29.350  10.054  1.00  0.00     0.000 C 
BRANCH  12  13
ATOM     13  C   UNL     1      62.391  29.023   9.142  1.00  0.00    -0.000 C 
BRANCH  13  14
ATOM     14  C   UNL     1      61.181  28.470   9.917  1.00  0.00    -0.000 C 
BRANCH  14  15
ATOM     15  C   UNL     1      60.373  29.524  10.704  1.00  0.00    -0.000 C 
BRANCH  15  16
ATOM     16  C   UNL     1      60.047  29.144  12.161  1.00  0.00    -0.000 C 
BRANCH  16  17
ATOM     17  C   UNL     1      61.274  28.946  13.071  1.00  0.00    -0.000 C 
BRANCH  17  18
ATOM     18  C   UNL     1      61.889  30.269  13.579  1.00  0.00    -0.000 C 
BRANCH  18  19
ATOM     19  C   UNL     1      60.836  31.370  13.774  1.00  0.00    -0.003 C 
ATOM     20  C   UNL     1      61.111  32.562  12.861  1.00  0.00     0.004 C 
ENDBRANCH  18  19
ENDBRANCH  17  18
ENDBRANCH  16  17
ENDBRANCH  15  16
ENDBRANCH  14  15
ENDBRANCH  13  14
ENDBRANCH  12  13
ENDBRANCH   1  12
TORSDOF 16
ENDMDL
MODEL 5
REMARK VINA RESULT:    -4.542      3.589      6.436
REMARK INTER + INTRA:         -11.490
REMARK INTER:                  -9.352
REMARK INTRA:                  -2.139
REMARK UNBOUND:                -2.699
REMARK SMILES CCCCCCCCCCCCCCCCCC(=O)[O-]
REMARK SMILES IDX 10 1 11 2 12 3 13 4 14 5 15 6 16 7 17 8 18 9 19 10 20 11
REMARK SMILES IDX 9 12 8 13 7 14 6 15 5 16 4 17 3 18 2 19 1 20
REMARK H PARENT
REMARK Flexibility Score: inf
ROOT
ATOM      1  C   UNL     1      60.362  29.481  13.005  1.00  0.00     0.000 C 
ENDROOT
BRANCH   1   2
ATOM      2  C   UNL     1      61.731  29.555  13.713  1.00  0.00     0.000 C 
BRANCH   2   3
ATOM      3  C   UNL     1      62.379  30.953  13.746  1.00  0.00     0.000 C 
BRANCH   3   4
ATOM      4  C   UNL     1      61.858  31.932  12.679  1.00  0.00     0.000 C 
BRANCH   4   5
ATOM      5  C   UNL     1      61.117  33.134  13.286  1.00  0.00     0.000 C 
BRANCH   5   6
ATOM      6  C   UNL     1      60.735  32.918  14.762  1.00  0.00     0.000 C 
BRANCH   6   7
ATOM      7  C   UNL     1      61.126  34.069  15.707  1.00  0.00     0.006 C 
BRANCH   7   8
ATOM      8  C   UNL     1      62.581  33.982  16.184  1.00  0.00     0.053 C 
BRANCH   8   9
ATOM      9  C   UNL     1      62.740  34.673  17.502  1.00  0.00     0.041 C 
ATOM     10  O   UNL     1      61.788  34.690  18.326  1.00  0.00    -0.550 OA
ATOM     11  O   UNL     1      63.960  35.243  17.844  1.00  0.00    -0.550 OA
ENDBRANCH   8   9
ENDBRANCH   7   8
ENDBRANCH   6   7
ENDBRANCH   5   6
ENDBRANCH   4   5
ENDBRANCH   3   4
ENDBRANCH   2   3
ENDBRANCH   1   2
BRANCH   1  12
ATOM     12  C   UNL     1      60.336  28.608  11.738  1.00  0.00     0.000 C 
BRANCH  12  13
ATOM     13  C   UNL     1      60.624  29.410  10.458  1.00  0.00    -0.000 C 
BRANCH  13  14
ATOM     14  C   UNL     1      61.877  28.915   9.712  1.00  0.00    -0.000 C 
BRANCH  14  15
ATOM     15  C   UNL     1      63.221  29.318  10.356  1.00  0.00    -0.000 C 
BRANCH  15  16
ATOM     16  C   UNL     1      64.323  29.732   9.364  1.00  0.00    -0.000 C 
BRANCH  16  17
ATOM     17  C   UNL     1      64.916  31.135   9.601  1.00  0.00    -0.000 C 
BRANCH  17  18
ATOM     18  C   UNL     1      65.158  31.462  11.091  1.00  0.00    -0.000 C 
BRANCH  18  19
ATOM     19  C   UNL     1      65.453  32.950  11.326  1.00  0.00    -0.003 C 
ATOM     20  C   UNL     1      65.172  33.345  12.773  1.00  0.00     0.004 C 
ENDBRANCH  18  19
ENDBRANCH  17  18
ENDBRANCH  16  17
ENDBRANCH  15  16
ENDBRANCH  14  15
ENDBRANCH  13  14
ENDBRANCH  12  13
ENDBRANCH   1  12
TORSDOF 16
ENDMDL
MODEL 6
REMARK VINA RESULT:    -4.453      2.962      4.830
REMARK INTER + INTRA:         -11.317
REMARK INTER:                  -8.844
REMARK INTRA:                  -2.473
REMARK UNBOUND:                -2.699
REMARK SMILES CCCCCCCCCCCCCCCCCC(=O)[O-]
REMARK SMILES IDX 10 1 11 2 12 3 13 4 14 5 15 6 16 7 17 8 18 9 19 10 20 11
REMARK SMILES IDX 9 12 8 13 7 14 6 15 5 16 4 17 3 18 2 19 1 20
REMARK H PARENT
REMARK Flexibility Score: inf
ROOT
ATOM      1  C   UNL     1      61.413  28.627   9.585  1.00  0.00     0.000 C 
ENDROOT
BRANCH   1   2
ATOM      2  C   UNL     1      62.726  29.055   8.897  1.00  0.00     0.000 C 
BRANCH   2   3
ATOM      3  C   UNL     1      63.890  29.385   9.853  1.00  0.00     0.000 C 
BRANCH   3   4
ATOM      4  C   UNL     1      63.969  30.858  10.290  1.00  0.00     0.000 C 
BRANCH   4   5
ATOM      5  C   UNL     1      65.380  31.449  10.135  1.00  0.00     0.000 C 
BRANCH   5   6
ATOM      6  C   UNL     1      65.532  32.820  10.818  1.00  0.00     0.000 C 
BRANCH   6   7
ATOM      7  C   UNL     1      64.837  32.943  12.186  1.00  0.00     0.006 C 
BRANCH   7   8
ATOM      8  C   UNL     1      65.725  33.599  13.251  1.00  0.00     0.053 C 
BRANCH   8   9
ATOM      9  C   UNL     1      65.131  33.414  14.612  1.00  0.00     0.041 C 
ATOM     10  O   UNL     1      65.320  32.341  15.244  1.00  0.00    -0.550 OA
ATOM     11  O   UNL     1      64.422  34.450  15.207  1.00  0.00    -0.550 OA
ENDBRANCH   8   9
ENDBRANCH   7   8
ENDBRANCH   6   7
ENDBRANCH   5   6
ENDBRANCH   4   5
ENDBRANCH   3   4
ENDBRANCH   2   3
ENDBRANCH   1   2
BRANCH   1  12
ATOM     12  C   UNL     1      60.444  29.780   9.900  1.00  0.00     0.000 C 
BRANCH  12  13
ATOM     13  C   UNL     1      60.383  30.112  11.400  1.00  0.00    -0.000 C 
BRANCH  13  14
ATOM     14  C   UNL     1      59.981  28.902  12.264  1.00  0.00    -0.000 C 
BRANCH  14  15
ATOM     15  C   UNL     1      60.986  28.530  13.374  1.00  0.00    -0.000 C 
BRANCH  15  16
ATOM     16  C   UNL     1      62.426  29.027  13.146  1.00  0.00    -0.000 C 
BRANCH  16  17
ATOM     17  C   UNL     1      62.802  30.306  13.920  1.00  0.00    -0.000 C 
BRANCH  17  18
ATOM     18  C   UNL     1      61.892  30.584  15.136  1.00  0.00    -0.000 C 
BRANCH  18  19
ATOM     19  C   UNL     1      61.281  31.993  15.104  1.00  0.00    -0.003 C 
ATOM     20  C   UNL     1      61.551  32.679  13.768  1.00  0.00     0.004 C 
ENDBRANCH  18  19
ENDBRANCH  17  18
ENDBRANCH  16  17
ENDBRANCH  15  16
ENDBRANCH  14  15
ENDBRANCH  13  14
ENDBRANCH  12  13
ENDBRANCH   1  12
TORSDOF 16
ENDMDL
MODEL 7
REMARK VINA RESULT:    -4.440      1.890      3.171
REMARK INTER + INTRA:         -11.292
REMARK INTER:                  -8.803
REMARK INTRA:                  -2.490
REMARK UNBOUND:                -2.699
REMARK SMILES CCCCCCCCCCCCCCCCCC(=O)[O-]
REMARK SMILES IDX 10 1 11 2 12 3 13 4 14 5 15 6 16 7 17 8 18 9 19 10 20 11
REMARK SMILES IDX 9 12 8 13 7 14 6 15 5 16 4 17 3 18 2 19 1 20
REMARK H PARENT
REMARK Flexibility Score: inf
ROOT
ATOM      1  C   UNL     1      62.519  31.672  12.764  1.00  0.00     0.000 C 
ENDROOT
BRANCH   1   2
ATOM      2  C   UNL     1      63.691  32.308  11.989  1.00  0.00     0.000 C 
BRANCH   2   3
ATOM      3  C   UNL     1      64.464  31.348  11.064  1.00  0.00     0.000 C 
BRANCH   3   4
ATOM      4  C   UNL     1      63.862  29.937  10.949  1.00  0.00     0.000 C 
BRANCH   4   5
ATOM      5  C   UNL     1      63.347  29.624   9.534  1.00  0.00     0.000 C 
BRANCH   5   6
ATOM      6  C   UNL     1      61.811  29.633   9.441  1.00  0.00     0.000 C 
BRANCH   6   7
ATOM      7  C   UNL     1      61.100  28.631  10.369  1.00  0.00     0.006 C 
BRANCH   7   8
ATOM      8  C   UNL     1      60.075  29.296  11.296  1.00  0.00     0.053 C 
BRANCH   8   9
ATOM      9  C   UNL     1      59.972  28.544  12.585  1.00  0.00     0.041 C 
ATOM     10  O   UNL     1      60.935  28.543  13.396  1.00  0.00    -0.550 OA
ATOM     11  O   UNL     1      58.788  27.897  12.919  1.00  0.00    -0.550 OA
ENDBRANCH   8   9
ENDBRANCH   7   8
ENDBRANCH   6   7
ENDBRANCH   5   6
ENDBRANCH   4   5
ENDBRANCH   3   4
ENDBRANCH   2   3
ENDBRANCH   1   2
BRANCH   1  12
ATOM     12  C   UNL     1      61.188  32.437  12.665  1.00  0.00     0.000 C 
BRANCH  12  13
ATOM     13  C   UNL     1      60.376  32.389  13.970  1.00  0.00    -0.000 C 
BRANCH  13  14
ATOM     14  C   UNL     1      61.102  31.634  15.099  1.00  0.00    -0.000 C 
BRANCH  14  15
ATOM     15  C   UNL     1      61.549  32.510  16.288  1.00  0.00    -0.000 C 
BRANCH  15  16
ATOM     16  C   UNL     1      61.973  33.944  15.921  1.00  0.00    -0.000 C 
BRANCH  16  17
ATOM     17  C   UNL     1      63.486  34.219  16.017  1.00  0.00    -0.000 C 
BRANCH  17  18
ATOM     18  C   UNL     1      64.359  32.962  15.809  1.00  0.00    -0.000 C 
BRANCH  18  19
ATOM     19  C   UNL     1      65.526  33.208  14.843  1.00  0.00    -0.003 C 
ATOM     20  C   UNL     1      65.516  34.643  14.323  1.00  0.00     0.004 C 
ENDBRANCH  18  19
ENDBRANCH  17  18
ENDBRANCH  16  17
ENDBRANCH  15  16
ENDBRANCH  14  15
ENDBRANCH  13  14
ENDBRANCH  12  13
ENDBRANCH   1  12
TORSDOF 16
ENDMDL
MODEL 8
REMARK VINA RESULT:    -4.430     11.268     13.606
REMARK INTER + INTRA:         -11.274
REMARK INTER:                  -8.675
REMARK INTRA:                  -2.599
REMARK UNBOUND:                -2.699
REMARK SMILES CCCCCCCCCCCCCCCCCC(=O)[O-]
REMARK SMILES IDX 10 1 11 2 12 3 13 4 14 5 15 6 16 7 17 8 18 9 19 10 20 11
REMARK SMILES IDX 9 12 8 13 7 14 6 15 5 16 4 17 3 18 2 19 1 20
REMARK H PARENT
REMARK Flexibility Score: inf
ROOT
ATOM      1  C   UNL     1      60.974  27.739  26.948  1.00  0.00     0.000 C 
ENDROOT
BRANCH   1   2
ATOM      2  C   UNL     1      61.084  27.603  25.415  1.00  0.00     0.000 C 
BRANCH   2   3
ATOM      3  C   UNL     1      62.022  28.617  24.731  1.00  0.00     0.000 C 
BRANCH   3   4
ATOM      4  C   UNL     1      63.098  27.993  23.825  1.00  0.00     0.000 C 
BRANCH   4   5
ATOM      5  C   UNL     1      63.405  26.531  24.188  1.00  0.00     0.000 C 
BRANCH   5   6
ATOM      6  C   UNL     1      64.667  26.383  25.058  1.00  0.00     0.000 C 
BRANCH   6   7
ATOM      7  C   UNL     1      65.993  26.364  24.276  1.00  0.00     0.006 C 
BRANCH   7   8
ATOM      8  C   UNL     1      65.871  25.683  22.907  1.00  0.00     0.053 C 
BRANCH   8   9
ATOM      9  C   UNL     1      66.366  26.591  21.826  1.00  0.00     0.041 C 
ATOM     10  O   UNL     1      66.872  26.110  20.778  1.00  0.00    -0.550 OA
ATOM     11  O   UNL     1      66.211  27.966  21.950  1.00  0.00    -0.550 OA
ENDBRANCH   8   9
ENDBRANCH   7   8
ENDBRANCH   6   7
ENDBRANCH   5   6
ENDBRANCH   4   5
ENDBRANCH   3   4
ENDBRANCH   2   3
ENDBRANCH   1   2
BRANCH   1  12
ATOM     12  C   UNL     1      62.226  27.301  27.727  1.00  0.00     0.000 C 
BRANCH  12  13
ATOM     13  C   UNL     1      62.646  28.319  28.800  1.00  0.00    -0.000 C 
BRANCH  13  14
ATOM     14  C   UNL     1      62.465  29.778  28.342  1.00  0.00    -0.000 C 
BRANCH  14  15
ATOM     15  C   UNL     1      63.486  30.777  28.928  1.00  0.00    -0.000 C 
BRANCH  15  16
ATOM     16  C   UNL     1      64.879  30.749  28.271  1.00  0.00    -0.000 C 
BRANCH  16  17
ATOM     17  C   UNL     1      64.895  30.286  26.802  1.00  0.00    -0.000 C 
BRANCH  17  18
ATOM     18  C   UNL     1      66.137  29.447  26.430  1.00  0.00    -0.000 C 
BRANCH  18  19
ATOM     19  C   UNL     1      66.684  29.791  25.037  1.00  0.00    -0.003 C 
ATOM     20  C   UNL     1      65.641  30.529  24.203  1.00  0.00     0.004 C 
ENDBRANCH  18  19
ENDBRANCH  17  18
ENDBRANCH  16  17
ENDBRANCH  15  16
ENDBRANCH  14  15
ENDBRANCH  13  14
ENDBRANCH  12  13
ENDBRANCH   1  12
TORSDOF 16
ENDMDL
MODEL 9
REMARK VINA RESULT:    -4.426      3.463      6.207
REMARK INTER + INTRA:         -11.264
REMARK INTER:                  -8.939
REMARK INTRA:                  -2.325
REMARK UNBOUND:                -2.699
REMARK SMILES CCCCCCCCCCCCCCCCCC(=O)[O-]
REMARK SMILES IDX 10 1 11 2 12 3 13 4 14 5 15 6 16 7 17 8 18 9 19 10 20 11
REMARK SMILES IDX 9 12 8 13 7 14 6 15 5 16 4 17 3 18 2 19 1 20
REMARK H PARENT
REMARK Flexibility Score: inf
ROOT
ATOM      1  C   UNL     1      64.448  31.445   9.676  1.00  0.00     0.000 C 
ENDROOT
BRANCH   1   2
ATOM      2  C   UNL     1      65.220  31.846  10.950  1.00  0.00     0.000 C 
BRANCH   2   3
ATOM      3  C   UNL     1      64.418  32.682  11.967  1.00  0.00     0.000 C 
BRANCH   3   4
ATOM      4  C   UNL     1      65.275  33.475  12.969  1.00  0.00     0.000 C 
BRANCH   4   5
ATOM      5  C   UNL     1      64.576  33.670  14.325  1.00  0.00     0.000 C 
BRANCH   5   6
ATOM      6  C   UNL     1      63.131  33.140  14.334  1.00  0.00     0.000 C 
BRANCH   6   7
ATOM      7  C   UNL     1      62.671  32.538  15.674  1.00  0.00     0.006 C 
BRANCH   7   8
ATOM      8  C   UNL     1      61.758  33.480  16.470  1.00  0.00     0.053 C 
BRANCH   8   9
ATOM      9  C   UNL     1      62.480  34.019  17.665  1.00  0.00     0.041 C 
ATOM     10  O   UNL     1      61.846  34.631  18.564  1.00  0.00    -0.550 OA
ATOM     11  O   UNL     1      63.842  33.789  17.816  1.00  0.00    -0.550 OA
ENDBRANCH   8   9
ENDBRANCH   7   8
ENDBRANCH   6   7
ENDBRANCH   5   6
ENDBRANCH   4   5
ENDBRANCH   3   4
ENDBRANCH   2   3
ENDBRANCH   1   2
BRANCH   1  12
ATOM     12  C   UNL     1      64.870  30.098   9.061  1.00  0.00     0.000 C 
BRANCH  12  13
ATOM     13  C   UNL     1      63.799  29.008   9.227  1.00  0.00    -0.000 C 
BRANCH  13  14
ATOM     14  C   UNL     1      62.364  29.561   9.145  1.00  0.00    -0.000 C 
BRANCH  14  15
ATOM     15  C   UNL     1      61.277  28.643   9.742  1.00  0.00    -0.000 C 
BRANCH  15  16
ATOM     16  C   UNL     1      60.363  29.305  10.790  1.00  0.00    -0.000 C 
BRANCH  16  17
ATOM     17  C   UNL     1      60.990  30.500  11.534  1.00  0.00    -0.000 C 
BRANCH  17  18
ATOM     18  C   UNL     1      61.003  30.336  13.070  1.00  0.00    -0.000 C 
BRANCH  18  19
ATOM     19  C   UNL     1      61.853  29.142  13.527  1.00  0.00    -0.003 C 
ATOM     20  C   UNL     1      63.305  29.298  13.083  1.00  0.00     0.004 C 
ENDBRANCH  18  19
ENDBRANCH  17  18
ENDBRANCH  16  17
ENDBRANCH  15  16
ENDBRANCH  14  15
ENDBRANCH  13  14
ENDBRANCH  12  13
ENDBRANCH   1  12
TORSDOF 16
ENDMDL
