MODEL 1
REMARK VINA RESULT:    -4.800      0.000      0.000
REMARK INTER + INTRA:          -5.440
REMARK INTER:                  -5.221
REMARK INTRA:                  -0.219
REMARK UNBOUND:                -0.219
REMARK SMILES CC(C)(C)[C@H]1C=C[C@H](O)CC1
REMARK SMILES IDX 5 1 11 2 10 3 8 4 7 5 6 6 2 7 1 8 3 9 4 10 9 11
REMARK H PARENT 9 12
REMARK Flexibility Score: inf
ROOT
ATOM      1  C   UNL     1     179.549 191.896 200.840  1.00  0.00     0.017 C 
ATOM      2  C   UNL     1     178.309 191.573 199.964  1.00  0.00     0.011 C 
ATOM      3  C   UNL     1     178.726 191.103 198.570  1.00  0.00     0.037 C 
ATOM      4  C   UNL     1     179.541 189.811 198.673  1.00  0.00     0.137 C 
ATOM      5  C   UNL     1     180.665 189.951 199.672  1.00  0.00     0.000 C 
ATOM      6  C   UNL     1     180.632 190.830 200.688  1.00  0.00    -0.025 C 
ENDROOT
BRANCH   1   7
ATOM      7  C   UNL     1     179.193 192.186 202.350  1.00  0.00    -0.032 C 
ATOM      8  C   UNL     1     178.166 193.340 202.458  1.00  0.00     0.011 C 
ATOM      9  C   UNL     1     180.461 192.630 203.120  1.00  0.00     0.011 C 
ATOM     10  C   UNL     1     178.605 190.939 203.052  1.00  0.00     0.011 C 
ENDBRANCH   1   7
BRANCH   4  11
ATOM     11  O   UNL     1     180.063 189.496 197.410  1.00  0.00    -0.389 OA
ATOM     12  H   UNL     1     180.618 190.269 197.128  1.00  0.00     0.211 HD
ENDBRANCH   4  11
TORSDOF 2
ENDMDL
MODEL 2
REMARK VINA RESULT:    -4.628      2.695      4.215
REMARK INTER + INTRA:          -5.253
REMARK INTER:                  -5.035
REMARK INTRA:                  -0.218
REMARK UNBOUND:                -0.219
REMARK SMILES CC(C)(C)[C@H]1C=C[C@H](O)CC1
REMARK SMILES IDX 5 1 11 2 10 3 8 4 7 5 6 6 2 7 1 8 3 9 4 10 9 11
REMARK H PARENT 9 12
REMARK Flexibility Score: inf
ROOT
ATOM      1  C   UNL     1     180.002 190.769 202.148  1.00  0.00     0.017 C 
ATOM      2  C   UNL     1     179.200 191.328 200.943  1.00  0.00     0.011 C 
ATOM      3  C   UNL     1     178.157 192.349 201.401  1.00  0.00     0.037 C 
ATOM      4  C   UNL     1     178.848 193.544 202.063  1.00  0.00     0.137 C 
ATOM      5  C   UNL     1     179.823 193.094 203.125  1.00  0.00     0.000 C 
ATOM      6  C   UNL     1     180.399 191.879 203.118  1.00  0.00    -0.025 C 
ENDROOT
BRANCH   1   7
ATOM      7  C   UNL     1     181.229 189.870 201.723  1.00  0.00    -0.032 C 
ATOM      8  C   UNL     1     182.521 190.717 201.627  1.00  0.00     0.011 C 
ATOM      9  C   UNL     1     180.980 189.256 200.324  1.00  0.00     0.011 C 
ATOM     10  C   UNL     1     181.471 188.718 202.728  1.00  0.00     0.011 C 
ENDBRANCH   1   7
BRANCH   4  11
ATOM     11  O   UNL     1     177.875 194.378 202.634  1.00  0.00    -0.389 OA
ATOM     12  H   UNL     1     177.074 194.325 202.049  1.00  0.00     0.211 HD
ENDBRANCH   4  11
TORSDOF 2
ENDMDL
MODEL 3
REMARK VINA RESULT:    -4.606     12.032     13.260
REMARK INTER + INTRA:          -5.229
REMARK INTER:                  -5.010
REMARK INTRA:                  -0.219
REMARK UNBOUND:                -0.219
REMARK SMILES CC(C)(C)[C@H]1C=C[C@H](O)CC1
REMARK SMILES IDX 5 1 11 2 10 3 8 4 7 5 6 6 2 7 1 8 3 9 4 10 9 11
REMARK H PARENT 9 12
REMARK Flexibility Score: inf
ROOT
ATOM      1  C   UNL     1     185.428 192.730 189.419  1.00  0.00     0.017 C 
ATOM      2  C   UNL     1     185.151 191.484 190.303  1.00  0.00     0.011 C 
ATOM      3  C   UNL     1     184.101 190.576 189.661  1.00  0.00     0.037 C 
ATOM      4  C   UNL     1     184.609 190.056 188.314  1.00  0.00     0.137 C 
ATOM      5  C   UNL     1     185.106 191.185 187.443  1.00  0.00     0.000 C 
ATOM      6  C   UNL     1     185.546 192.352 187.944  1.00  0.00    -0.025 C 
ENDROOT
BRANCH   1   7
ATOM      7  C   UNL     1     186.648 193.598 189.920  1.00  0.00    -0.032 C 
ATOM      8  C   UNL     1     187.983 193.027 189.385  1.00  0.00     0.011 C 
ATOM      9  C   UNL     1     186.724 193.566 191.466  1.00  0.00     0.011 C 
ATOM     10  C   UNL     1     186.528 195.072 189.466  1.00  0.00     0.011 C 
ENDBRANCH   1   7
BRANCH   4  11
ATOM     11  O   UNL     1     183.569 189.375 187.664  1.00  0.00    -0.389 OA
ATOM     12  H   UNL     1     183.404 189.853 186.809  1.00  0.00     0.211 HD
ENDBRANCH   4  11
TORSDOF 2
ENDMDL
MODEL 4
REMARK VINA RESULT:    -4.525     12.595     14.180
REMARK INTER + INTRA:          -5.141
REMARK INTER:                  -4.922
REMARK INTRA:                  -0.219
REMARK UNBOUND:                -0.219
REMARK SMILES CC(C)(C)[C@H]1C=C[C@H](O)CC1
REMARK SMILES IDX 5 1 11 2 10 3 8 4 7 5 6 6 2 7 1 8 3 9 4 10 9 11
REMARK H PARENT 9 12
REMARK Flexibility Score: inf
ROOT
ATOM      1  C   UNL     1     185.861 192.336 188.118  1.00  0.00     0.017 C 
ATOM      2  C   UNL     1     184.621 191.434 188.360  1.00  0.00     0.011 C 
ATOM      3  C   UNL     1     184.253 190.652 187.098  1.00  0.00     0.037 C 
ATOM      4  C   UNL     1     185.403 189.723 186.702  1.00  0.00     0.137 C 
ATOM      5  C   UNL     1     186.714 190.470 186.640  1.00  0.00     0.000 C 
ATOM      6  C   UNL     1     186.944 191.597 187.336  1.00  0.00    -0.025 C 
ENDROOT
BRANCH   1   7
ATOM      7  C   UNL     1     186.416 193.009 189.433  1.00  0.00    -0.032 C 
ATOM      8  C   UNL     1     186.013 194.503 189.495  1.00  0.00     0.011 C 
ATOM      9  C   UNL     1     187.963 192.953 189.448  1.00  0.00     0.011 C 
ATOM     10  C   UNL     1     185.887 192.305 190.705  1.00  0.00     0.011 C 
ENDBRANCH   1   7
BRANCH   4  11
ATOM     11  O   UNL     1     185.122 189.152 185.452  1.00  0.00    -0.389 OA
ATOM     12  H   UNL     1     185.792 188.435 185.306  1.00  0.00     0.211 HD
ENDBRANCH   4  11
TORSDOF 2
ENDMDL
MODEL 5
REMARK VINA RESULT:    -4.524     13.597     15.786
REMARK INTER + INTRA:          -5.140
REMARK INTER:                  -4.921
REMARK INTRA:                  -0.219
REMARK UNBOUND:                -0.219
REMARK SMILES CC(C)(C)[C@H]1C=C[C@H](O)CC1
REMARK SMILES IDX 5 1 11 2 10 3 8 4 7 5 6 6 2 7 1 8 3 9 4 10 9 11
REMARK H PARENT 9 12
REMARK Flexibility Score: inf
ROOT
ATOM      1  C   UNL     1     186.317 191.049 186.367  1.00  0.00     0.017 C 
ATOM      2  C   UNL     1     186.568 191.818 187.691  1.00  0.00     0.011 C 
ATOM      3  C   UNL     1     185.256 192.082 188.433  1.00  0.00     0.037 C 
ATOM      4  C   UNL     1     184.592 190.756 188.812  1.00  0.00     0.137 C 
ATOM      5  C   UNL     1     184.487 189.835 187.621  1.00  0.00     0.000 C 
ATOM      6  C   UNL     1     185.310 189.917 186.561  1.00  0.00    -0.025 C 
ENDROOT
BRANCH   1   7
ATOM      7  C   UNL     1     187.642 190.566 185.659  1.00  0.00    -0.032 C 
ATOM      8  C   UNL     1     187.667 189.022 185.539  1.00  0.00     0.011 C 
ATOM      9  C   UNL     1     188.876 190.978 186.500  1.00  0.00     0.011 C 
ATOM     10  C   UNL     1     187.790 191.170 184.242  1.00  0.00     0.011 C 
ENDBRANCH   1   7
BRANCH   4  11
ATOM     11  O   UNL     1     183.314 191.015 189.328  1.00  0.00    -0.389 OA
ATOM     12  H   UNL     1     183.391 191.828 189.892  1.00  0.00     0.211 HD
ENDBRANCH   4  11
TORSDOF 2
ENDMDL
MODEL 6
REMARK VINA RESULT:    -4.519     10.865     12.199
REMARK INTER + INTRA:          -5.134
REMARK INTER:                  -4.916
REMARK INTRA:                  -0.218
REMARK UNBOUND:                -0.219
REMARK SMILES CC(C)(C)[C@H]1C=C[C@H](O)CC1
REMARK SMILES IDX 5 1 11 2 10 3 8 4 7 5 6 6 2 7 1 8 3 9 4 10 9 11
REMARK H PARENT 9 12
REMARK Flexibility Score: inf
ROOT
ATOM      1  C   UNL     1     183.780 189.403 189.865  1.00  0.00     0.017 C 
ATOM      2  C   UNL     1     183.507 188.760 191.251  1.00  0.00     0.011 C 
ATOM      3  C   UNL     1     182.514 187.603 191.136  1.00  0.00     0.037 C 
ATOM      4  C   UNL     1     183.093 186.501 190.246  1.00  0.00     0.137 C 
ATOM      5  C   UNL     1     183.587 187.060 188.934  1.00  0.00     0.000 C 
ATOM      6  C   UNL     1     183.969 188.340 188.785  1.00  0.00    -0.025 C 
ENDROOT
BRANCH   1   7
ATOM      7  C   UNL     1     184.949 190.464 189.882  1.00  0.00    -0.032 C 
ATOM      8  C   UNL     1     186.259 189.842 189.341  1.00  0.00     0.011 C 
ATOM      9  C   UNL     1     185.228 190.925 191.334  1.00  0.00     0.011 C 
ATOM     10  C   UNL     1     184.608 191.708 189.028  1.00  0.00     0.011 C 
ENDBRANCH   1   7
BRANCH   4  11
ATOM     11  O   UNL     1     182.102 185.536 190.008  1.00  0.00    -0.389 OA
ATOM     12  H   UNL     1     181.331 186.011 189.601  1.00  0.00     0.211 HD
ENDBRANCH   4  11
TORSDOF 2
ENDMDL
MODEL 7
REMARK VINA RESULT:    -4.406     11.424     12.884
REMARK INTER + INTRA:          -5.012
REMARK INTER:                  -4.796
REMARK INTRA:                  -0.216
REMARK UNBOUND:                -0.219
REMARK SMILES CC(C)(C)[C@H]1C=C[C@H](O)CC1
REMARK SMILES IDX 5 1 11 2 10 3 8 4 7 5 6 6 2 7 1 8 3 9 4 10 9 11
REMARK H PARENT 9 12
REMARK Flexibility Score: inf
ROOT
ATOM      1  C   UNL     1     184.424 188.507 189.122  1.00  0.00     0.017 C 
ATOM      2  C   UNL     1     183.550 187.798 188.053  1.00  0.00     0.011 C 
ATOM      3  C   UNL     1     183.141 186.399 188.516  1.00  0.00     0.037 C 
ATOM      4  C   UNL     1     182.294 186.493 189.787  1.00  0.00     0.137 C 
ATOM      5  C   UNL     1     182.967 187.348 190.833  1.00  0.00     0.000 C 
ATOM      6  C   UNL     1     183.863 188.303 190.527  1.00  0.00    -0.025 C 
ENDROOT
BRANCH   1   7
ATOM      7  C   UNL     1     184.705 190.027 188.797  1.00  0.00    -0.032 C 
ATOM      8  C   UNL     1     186.208 190.354 188.971  1.00  0.00     0.011 C 
ATOM      9  C   UNL     1     183.924 190.934 189.779  1.00  0.00     0.011 C 
ATOM     10  C   UNL     1     184.286 190.392 187.353  1.00  0.00     0.011 C 
ENDBRANCH   1   7
BRANCH   4  11
ATOM     11  O   UNL     1     182.082 185.202 190.293  1.00  0.00    -0.389 OA
ATOM     12  H   UNL     1     182.053 184.589 189.513  1.00  0.00     0.211 HD
ENDBRANCH   4  11
TORSDOF 2
ENDMDL
MODEL 8
REMARK VINA RESULT:    -4.384     13.114     14.896
REMARK INTER + INTRA:          -4.988
REMARK INTER:                  -4.768
REMARK INTRA:                  -0.220
REMARK UNBOUND:                -0.219
REMARK SMILES CC(C)(C)[C@H]1C=C[C@H](O)CC1
REMARK SMILES IDX 5 1 11 2 10 3 8 4 7 5 6 6 2 7 1 8 3 9 4 10 9 11
REMARK H PARENT 9 12
REMARK Flexibility Score: inf
ROOT
ATOM      1  C   UNL     1     185.407 191.235 187.529  1.00  0.00     0.017 C 
ATOM      2  C   UNL     1     184.936 189.803 187.162  1.00  0.00     0.011 C 
ATOM      3  C   UNL     1     185.144 189.518 185.674  1.00  0.00     0.037 C 
ATOM      4  C   UNL     1     186.634 189.594 185.328  1.00  0.00     0.137 C 
ATOM      5  C   UNL     1     187.248 190.877 185.833  1.00  0.00     0.000 C 
ATOM      6  C   UNL     1     186.743 191.569 186.869  1.00  0.00    -0.025 C 
ENDROOT
BRANCH   1   7
ATOM      7  C   UNL     1     185.413 191.517 189.082  1.00  0.00    -0.032 C 
ATOM      8  C   UNL     1     186.593 190.786 189.767  1.00  0.00     0.011 C 
ATOM      9  C   UNL     1     184.110 190.981 189.725  1.00  0.00     0.011 C 
ATOM     10  C   UNL     1     185.526 193.029 189.391  1.00  0.00     0.011 C 
ENDBRANCH   1   7
BRANCH   4  11
ATOM     11  O   UNL     1     186.786 189.509 183.936  1.00  0.00    -0.389 OA
ATOM     12  H   UNL     1     186.885 190.439 183.601  1.00  0.00     0.211 HD
ENDBRANCH   4  11
TORSDOF 2
ENDMDL
MODEL 9
REMARK VINA RESULT:    -4.311     14.283     16.461
REMARK INTER + INTRA:          -4.908
REMARK INTER:                  -4.687
REMARK INTRA:                  -0.222
REMARK UNBOUND:                -0.219
REMARK SMILES CC(C)(C)[C@H]1C=C[C@H](O)CC1
REMARK SMILES IDX 5 1 11 2 10 3 8 4 7 5 6 6 2 7 1 8 3 9 4 10 9 11
REMARK H PARENT 9 12
REMARK Flexibility Score: inf
ROOT
ATOM      1  C   UNL     1     187.036 190.093 186.376  1.00  0.00     0.017 C 
ATOM      2  C   UNL     1     185.639 189.641 185.873  1.00  0.00     0.011 C 
ATOM      3  C   UNL     1     184.594 189.744 186.985  1.00  0.00     0.037 C 
ATOM      4  C   UNL     1     184.450 191.200 187.438  1.00  0.00     0.137 C 
ATOM      5  C   UNL     1     185.794 191.809 187.756  1.00  0.00     0.000 C 
ATOM      6  C   UNL     1     186.943 191.363 187.218  1.00  0.00    -0.025 C 
ENDROOT
BRANCH   1   7
ATOM      7  C   UNL     1     188.112 190.207 185.226  1.00  0.00    -0.032 C 
ATOM      8  C   UNL     1     188.378 188.823 184.586  1.00  0.00     0.011 C 
ATOM      9  C   UNL     1     189.458 190.710 185.803  1.00  0.00     0.011 C 
ATOM     10  C   UNL     1     187.660 191.183 184.113  1.00  0.00     0.011 C 
ENDBRANCH   1   7
BRANCH   4  11
ATOM     11  O   UNL     1     183.626 191.248 188.571  1.00  0.00    -0.389 OA
ATOM     12  H   UNL     1     182.694 191.118 188.255  1.00  0.00     0.211 HD
ENDBRANCH   4  11
TORSDOF 2
ENDMDL
