MODEL 1
REMARK VINA RESULT:    -5.634      0.000      0.000
REMARK INTER + INTRA:          -8.894
REMARK INTER:                  -8.104
REMARK INTRA:                  -0.791
REMARK UNBOUND:                -0.791
REMARK SMILES CC(C)=CCCC(C)=CCCC(C)=CCO
REMARK SMILES IDX 10 1 9 2 7 3 8 4 6 5 5 6 4 7 1 8 2 9 3 10 11 11 12 12 14 13
REMARK SMILES IDX 13 14 15 15 16 16
REMARK H PARENT 16 17
REMARK Flexibility Score: inf
ROOT
ATOM      1  C   UNL     1      36.391  44.477  35.889  1.00  0.00     0.032 C 
ENDROOT
BRANCH   1   2
ATOM      2  C   UNL     1      36.030  43.269  36.717  1.00  0.00    -0.028 C 
ATOM      3  C   UNL     1      36.017  43.246  38.070  1.00  0.00    -0.077 C 
ATOM      4  C   UNL     1      36.420  44.448  38.893  1.00  0.00     0.039 C 
BRANCH   3   5
ATOM      5  C   UNL     1      35.602  41.973  38.782  1.00  0.00     0.034 C 
BRANCH   5   6
ATOM      6  C   UNL     1      35.275  42.224  40.260  1.00  0.00     0.032 C 
BRANCH   6   7
ATOM      7  C   UNL     1      33.803  42.491  40.471  1.00  0.00    -0.028 C 
ATOM      8  C   UNL     1      34.197  44.580  41.797  1.00  0.00     0.039 C 
ATOM      9  C   UNL     1      33.307  43.522  41.192  1.00  0.00    -0.080 C 
ATOM     10  C   UNL     1      31.817  43.666  41.364  1.00  0.00     0.039 C 
ENDBRANCH   6   7
ENDBRANCH   5   6
ENDBRANCH   3   5
ENDBRANCH   1   2
BRANCH   1  11
ATOM     11  C   UNL     1      35.332  44.731  34.810  1.00  0.00     0.034 C 
BRANCH  11  12
ATOM     12  C   UNL     1      35.513  46.101  34.193  1.00  0.00    -0.075 C 
ATOM     13  C   UNL     1      36.037  47.098  34.941  1.00  0.00    -0.000 C 
ATOM     14  C   UNL     1      35.115  46.319  32.752  1.00  0.00     0.039 C 
BRANCH  13  15
ATOM     15  C   UNL     1      36.266  48.498  34.435  1.00  0.00     0.183 C 
BRANCH  15  16
ATOM     16  O   UNL     1      35.319  49.380  34.975  1.00  0.00    -0.392 OA
ATOM     17  H   UNL     1      34.612  49.493  34.286  1.00  0.00     0.210 HD
ENDBRANCH  15  16
ENDBRANCH  13  15
ENDBRANCH  11  12
ENDBRANCH   1  11
TORSDOF 8
ENDMDL
MODEL 2
REMARK VINA RESULT:    -4.814      2.127      6.699
REMARK INTER + INTRA:          -7.716
REMARK INTER:                  -6.870
REMARK INTRA:                  -0.846
REMARK UNBOUND:                -0.791
REMARK SMILES CC(C)=CCCC(C)=CCCC(C)=CCO
REMARK SMILES IDX 10 1 9 2 7 3 8 4 6 5 5 6 4 7 1 8 2 9 3 10 11 11 12 12 14 13
REMARK SMILES IDX 13 14 15 15 16 16
REMARK H PARENT 16 17
REMARK Flexibility Score: inf
ROOT
ATOM      1  C   UNL     1      35.108  41.876  40.404  1.00  0.00     0.032 C 
ENDROOT
BRANCH   1   2
ATOM      2  C   UNL     1      35.496  42.034  38.955  1.00  0.00    -0.028 C 
ATOM      3  C   UNL     1      35.948  43.184  38.406  1.00  0.00    -0.077 C 
ATOM      4  C   UNL     1      36.062  44.461  39.207  1.00  0.00     0.039 C 
BRANCH   3   5
ATOM      5  C   UNL     1      36.334  43.199  36.940  1.00  0.00     0.034 C 
BRANCH   5   6
ATOM      6  C   UNL     1      36.429  44.628  36.387  1.00  0.00     0.032 C 
BRANCH   6   7
ATOM      7  C   UNL     1      35.801  44.742  35.018  1.00  0.00    -0.028 C 
ATOM      8  C   UNL     1      35.976  47.241  34.958  1.00  0.00     0.039 C 
ATOM      9  C   UNL     1      35.556  45.911  34.382  1.00  0.00    -0.080 C 
ATOM     10  C   UNL     1      34.890  45.902  33.031  1.00  0.00     0.039 C 
ENDBRANCH   6   7
ENDBRANCH   5   6
ENDBRANCH   3   5
ENDBRANCH   1   2
BRANCH   1  11
ATOM     11  C   UNL     1      33.584  41.875  40.562  1.00  0.00     0.034 C 
BRANCH  11  12
ATOM     12  C   UNL     1      33.115  43.139  41.249  1.00  0.00    -0.075 C 
ATOM     13  C   UNL     1      33.963  43.795  42.074  1.00  0.00    -0.000 C 
ATOM     14  C   UNL     1      31.714  43.643  40.990  1.00  0.00     0.039 C 
BRANCH  13  15
ATOM     15  C   UNL     1      33.609  45.062  42.809  1.00  0.00     0.183 C 
BRANCH  15  16
ATOM     16  O   UNL     1      34.478  46.101  42.448  1.00  0.00    -0.392 OA
ATOM     17  H   UNL     1      34.730  45.943  41.500  1.00  0.00     0.210 HD
ENDBRANCH  15  16
ENDBRANCH  13  15
ENDBRANCH  11  12
ENDBRANCH   1  11
TORSDOF 8
ENDMDL
MODEL 3
REMARK VINA RESULT:    -4.725      2.666      7.148
REMARK INTER + INTRA:          -7.588
REMARK INTER:                  -7.084
REMARK INTRA:                  -0.504
REMARK UNBOUND:                -0.791
REMARK SMILES CC(C)=CCCC(C)=CCCC(C)=CCO
REMARK SMILES IDX 10 1 9 2 7 3 8 4 6 5 5 6 4 7 1 8 2 9 3 10 11 11 12 12 14 13
REMARK SMILES IDX 13 14 15 15 16 16
REMARK H PARENT 16 17
REMARK Flexibility Score: inf
ROOT
ATOM      1  C   UNL     1      36.026  43.356  39.789  1.00  0.00     0.032 C 
ENDROOT
BRANCH   1   2
ATOM      2  C   UNL     1      36.267  44.062  38.478  1.00  0.00    -0.028 C 
ATOM      3  C   UNL     1      36.585  43.439  37.321  1.00  0.00    -0.077 C 
ATOM      4  C   UNL     1      36.779  41.942  37.247  1.00  0.00     0.039 C 
BRANCH   3   5
ATOM      5  C   UNL     1      36.769  44.267  36.064  1.00  0.00     0.034 C 
BRANCH   5   6
ATOM      6  C   UNL     1      35.432  44.557  35.368  1.00  0.00     0.032 C 
BRANCH   6   7
ATOM      7  C   UNL     1      35.633  45.155  33.995  1.00  0.00    -0.028 C 
ATOM      8  C   UNL     1      35.815  47.500  34.856  1.00  0.00     0.039 C 
ATOM      9  C   UNL     1      35.766  46.477  33.748  1.00  0.00    -0.080 C 
ATOM     10  C   UNL     1      35.925  46.961  32.329  1.00  0.00     0.039 C 
ENDBRANCH   6   7
ENDBRANCH   5   6
ENDBRANCH   3   5
ENDBRANCH   1   2
BRANCH   1  11
ATOM     11  C   UNL     1      34.633  42.716  39.813  1.00  0.00     0.034 C 
BRANCH  11  12
ATOM     12  C   UNL     1      33.792  43.303  40.924  1.00  0.00    -0.075 C 
ATOM     13  C   UNL     1      32.657  42.669  41.298  1.00  0.00    -0.000 C 
ATOM     14  C   UNL     1      34.244  44.578  41.598  1.00  0.00     0.039 C 
BRANCH  13  15
ATOM     15  C   UNL     1      31.742  43.156  42.392  1.00  0.00     0.183 C 
BRANCH  15  16
ATOM     16  O   UNL     1      30.607  43.774  41.848  1.00  0.00    -0.392 OA
ATOM     17  H   UNL     1      29.856  43.134  41.959  1.00  0.00     0.210 HD
ENDBRANCH  15  16
ENDBRANCH  13  15
ENDBRANCH  11  12
ENDBRANCH   1  11
TORSDOF 8
ENDMDL
MODEL 4
REMARK VINA RESULT:    -4.290     11.323     13.193
REMARK INTER + INTRA:          -6.961
REMARK INTER:                  -6.507
REMARK INTRA:                  -0.454
REMARK UNBOUND:                -0.791
REMARK SMILES CC(C)=CCCC(C)=CCCC(C)=CCO
REMARK SMILES IDX 10 1 9 2 7 3 8 4 6 5 5 6 4 7 1 8 2 9 3 10 11 11 12 12 14 13
REMARK SMILES IDX 13 14 15 15 16 16
REMARK H PARENT 16 17
REMARK Flexibility Score: inf
ROOT
ATOM      1  C   UNL     1      25.000  52.205  36.881  1.00  0.00     0.032 C 
ENDROOT
BRANCH   1   2
ATOM      2  C   UNL     1      26.430  52.411  37.313  1.00  0.00    -0.028 C 
ATOM      3  C   UNL     1      26.869  53.476  38.022  1.00  0.00    -0.077 C 
ATOM      4  C   UNL     1      25.947  54.609  38.413  1.00  0.00     0.039 C 
BRANCH   3   5
ATOM      5  C   UNL     1      28.330  53.546  38.421  1.00  0.00     0.034 C 
BRANCH   5   6
ATOM      6  C   UNL     1      28.780  54.987  38.698  1.00  0.00     0.032 C 
BRANCH   6   7
ATOM      7  C   UNL     1      30.058  55.029  39.503  1.00  0.00    -0.028 C 
ATOM      8  C   UNL     1      29.713  57.398  40.244  1.00  0.00     0.039 C 
ATOM      9  C   UNL     1      30.508  56.117  40.169  1.00  0.00    -0.080 C 
ATOM     10  C   UNL     1      31.818  56.052  40.911  1.00  0.00     0.039 C 
ENDBRANCH   6   7
ENDBRANCH   5   6
ENDBRANCH   3   5
ENDBRANCH   1   2
BRANCH   1  11
ATOM     11  C   UNL     1      24.398  50.973  37.567  1.00  0.00     0.034 C 
BRANCH  11  12
ATOM     12  C   UNL     1      24.404  49.783  36.633  1.00  0.00    -0.075 C 
ATOM     13  C   UNL     1      23.246  49.391  36.055  1.00  0.00    -0.000 C 
ATOM     14  C   UNL     1      25.706  49.066  36.361  1.00  0.00     0.039 C 
BRANCH  13  15
ATOM     15  C   UNL     1      23.130  48.224  35.108  1.00  0.00     0.183 C 
BRANCH  15  16
ATOM     16  O   UNL     1      21.928  48.288  34.391  1.00  0.00    -0.392 OA
ATOM     17  H   UNL     1      21.219  48.527  35.045  1.00  0.00     0.210 HD
ENDBRANCH  15  16
ENDBRANCH  13  15
ENDBRANCH  11  12
ENDBRANCH   1  11
TORSDOF 8
ENDMDL
MODEL 5
REMARK VINA RESULT:    -4.278     11.184     12.775
REMARK INTER + INTRA:          -6.944
REMARK INTER:                  -6.518
REMARK INTRA:                  -0.426
REMARK UNBOUND:                -0.791
REMARK SMILES CC(C)=CCCC(C)=CCCC(C)=CCO
REMARK SMILES IDX 10 1 9 2 7 3 8 4 6 5 5 6 4 7 1 8 2 9 3 10 11 11 12 12 14 13
REMARK SMILES IDX 13 14 15 15 16 16
REMARK H PARENT 16 17
REMARK Flexibility Score: inf
ROOT
ATOM      1  C   UNL     1      26.527  53.884  38.341  1.00  0.00     0.032 C 
ENDROOT
BRANCH   1   2
ATOM      2  C   UNL     1      26.444  52.425  37.969  1.00  0.00    -0.028 C 
ATOM      3  C   UNL     1      25.418  51.868  37.285  1.00  0.00    -0.077 C 
ATOM      4  C   UNL     1      24.209  52.671  36.865  1.00  0.00     0.039 C 
BRANCH   3   5
ATOM      5  C   UNL     1      25.474  50.391  36.946  1.00  0.00     0.034 C 
BRANCH   5   6
ATOM      6  C   UNL     1      24.085  49.824  36.621  1.00  0.00     0.032 C 
BRANCH   6   7
ATOM      7  C   UNL     1      24.173  48.568  35.787  1.00  0.00    -0.028 C 
ATOM      8  C   UNL     1      21.767  48.654  35.096  1.00  0.00     0.039 C 
ATOM      9  C   UNL     1      23.131  48.010  35.130  1.00  0.00    -0.080 C 
ATOM     10  C   UNL     1      23.332  46.732  34.356  1.00  0.00     0.039 C 
ENDBRANCH   6   7
ENDBRANCH   5   6
ENDBRANCH   3   5
ENDBRANCH   1   2
BRANCH   1  11
ATOM     11  C   UNL     1      27.736  54.547  37.671  1.00  0.00     0.034 C 
BRANCH  11  12
ATOM     12  C   UNL     1      28.903  54.629  38.631  1.00  0.00    -0.075 C 
ATOM     13  C   UNL     1      29.271  55.835  39.121  1.00  0.00    -0.000 C 
ATOM     14  C   UNL     1      29.622  53.361  39.028  1.00  0.00     0.039 C 
BRANCH  13  15
ATOM     15  C   UNL     1      30.412  56.040  40.083  1.00  0.00     0.183 C 
BRANCH  15  16
ATOM     16  O   UNL     1      30.157  57.130  40.927  1.00  0.00    -0.392 OA
ATOM     17  H   UNL     1      30.422  57.945  40.425  1.00  0.00     0.210 HD
ENDBRANCH  15  16
ENDBRANCH  13  15
ENDBRANCH  11  12
ENDBRANCH   1  11
TORSDOF 8
ENDMDL
MODEL 6
REMARK VINA RESULT:    -4.082     11.288     13.112
REMARK INTER + INTRA:          -6.662
REMARK INTER:                  -5.948
REMARK INTRA:                  -0.714
REMARK UNBOUND:                -0.791
REMARK SMILES CC(C)=CCCC(C)=CCCC(C)=CCO
REMARK SMILES IDX 10 1 9 2 7 3 8 4 6 5 5 6 4 7 1 8 2 9 3 10 11 11 12 12 14 13
REMARK SMILES IDX 13 14 15 15 16 16
REMARK H PARENT 16 17
REMARK Flexibility Score: inf
ROOT
ATOM      1  C   UNL     1      25.108  49.751  37.391  1.00  0.00     0.032 C 
ENDROOT
BRANCH   1   2
ATOM      2  C   UNL     1      25.895  51.037  37.345  1.00  0.00    -0.028 C 
ATOM      3  C   UNL     1      25.349  52.263  37.177  1.00  0.00    -0.077 C 
ATOM      4  C   UNL     1      23.865  52.453  36.966  1.00  0.00     0.039 C 
BRANCH   3   5
ATOM      5  C   UNL     1      26.253  53.480  37.182  1.00  0.00     0.034 C 
BRANCH   5   6
ATOM      6  C   UNL     1      27.513  53.254  38.030  1.00  0.00     0.032 C 
BRANCH   6   7
ATOM      7  C   UNL     1      28.085  54.555  38.542  1.00  0.00    -0.028 C 
ATOM      8  C   UNL     1      30.312  53.555  39.100  1.00  0.00     0.039 C 
ATOM      9  C   UNL     1      29.325  54.695  39.061  1.00  0.00    -0.080 C 
ATOM     10  C   UNL     1      29.774  56.039  39.575  1.00  0.00     0.039 C 
ENDBRANCH   6   7
ENDBRANCH   5   6
ENDBRANCH   3   5
ENDBRANCH   1   2
BRANCH   1  11
ATOM     11  C   UNL     1      25.297  48.952  36.096  1.00  0.00     0.034 C 
BRANCH  11  12
ATOM     12  C   UNL     1      23.974  48.402  35.608  1.00  0.00    -0.075 C 
ATOM     13  C   UNL     1      22.859  49.155  35.736  1.00  0.00    -0.000 C 
ATOM     14  C   UNL     1      23.934  47.028  34.980  1.00  0.00     0.039 C 
BRANCH  13  15
ATOM     15  C   UNL     1      21.490  48.715  35.284  1.00  0.00     0.183 C 
BRANCH  15  16
ATOM     16  O   UNL     1      20.553  48.879  36.314  1.00  0.00    -0.392 OA
ATOM     17  H   UNL     1      20.302  49.840  36.319  1.00  0.00     0.210 HD
ENDBRANCH  15  16
ENDBRANCH  13  15
ENDBRANCH  11  12
ENDBRANCH   1  11
TORSDOF 8
ENDMDL
MODEL 7
REMARK VINA RESULT:    -4.061     10.796     12.672
REMARK INTER + INTRA:          -6.633
REMARK INTER:                  -6.492
REMARK INTRA:                  -0.140
REMARK UNBOUND:                -0.791
REMARK SMILES CC(C)=CCCC(C)=CCCC(C)=CCO
REMARK SMILES IDX 10 1 9 2 7 3 8 4 6 5 5 6 4 7 1 8 2 9 3 10 11 11 12 12 14 13
REMARK SMILES IDX 13 14 15 15 16 16
REMARK H PARENT 16 17
REMARK Flexibility Score: inf
ROOT
ATOM      1  C   UNL     1      24.707  52.217  36.856  1.00  0.00     0.032 C 
ENDROOT
BRANCH   1   2
ATOM      2  C   UNL     1      26.133  52.314  37.338  1.00  0.00    -0.028 C 
ATOM      3  C   UNL     1      26.632  53.354  38.045  1.00  0.00    -0.077 C 
ATOM      4  C   UNL     1      25.793  54.566  38.382  1.00  0.00     0.039 C 
BRANCH   3   5
ATOM      5  C   UNL     1      28.078  53.312  38.498  1.00  0.00     0.034 C 
BRANCH   5   6
ATOM      6  C   UNL     1      28.750  54.688  38.399  1.00  0.00     0.032 C 
BRANCH   6   7
ATOM      7  C   UNL     1      29.978  54.777  39.274  1.00  0.00    -0.028 C 
ATOM      8  C   UNL     1      29.540  57.151  39.942  1.00  0.00     0.039 C 
ATOM      9  C   UNL     1      30.366  55.888  39.940  1.00  0.00    -0.080 C 
ATOM     10  C   UNL     1      31.633  55.868  40.755  1.00  0.00     0.039 C 
ENDBRANCH   6   7
ENDBRANCH   5   6
ENDBRANCH   3   5
ENDBRANCH   1   2
BRANCH   1  11
ATOM     11  C   UNL     1      24.043  50.939  37.380  1.00  0.00     0.034 C 
BRANCH  11  12
ATOM     12  C   UNL     1      24.515  49.730  36.601  1.00  0.00    -0.075 C 
ATOM     13  C   UNL     1      25.808  49.346  36.700  1.00  0.00    -0.000 C 
ATOM     14  C   UNL     1      23.529  48.975  35.741  1.00  0.00     0.039 C 
BRANCH  13  15
ATOM     15  C   UNL     1      26.391  48.160  35.976  1.00  0.00     0.183 C 
BRANCH  15  16
ATOM     16  O   UNL     1      27.734  47.975  36.333  1.00  0.00    -0.392 OA
ATOM     17  H   UNL     1      28.277  48.458  35.656  1.00  0.00     0.210 HD
ENDBRANCH  15  16
ENDBRANCH  13  15
ENDBRANCH  11  12
ENDBRANCH   1  11
TORSDOF 8
ENDMDL
MODEL 8
REMARK VINA RESULT:    -4.040     11.035     12.759
REMARK INTER + INTRA:          -6.602
REMARK INTER:                  -6.010
REMARK INTRA:                  -0.592
REMARK UNBOUND:                -0.791
REMARK SMILES CC(C)=CCCC(C)=CCCC(C)=CCO
REMARK SMILES IDX 10 1 9 2 7 3 8 4 6 5 5 6 4 7 1 8 2 9 3 10 11 11 12 12 14 13
REMARK SMILES IDX 13 14 15 15 16 16
REMARK H PARENT 16 17
REMARK Flexibility Score: inf
ROOT
ATOM      1  C   UNL     1      28.547  54.365  38.125  1.00  0.00     0.032 C 
ENDROOT
BRANCH   1   2
ATOM      2  C   UNL     1      27.385  53.499  38.543  1.00  0.00    -0.028 C 
ATOM      3  C   UNL     1      26.301  53.250  37.774  1.00  0.00    -0.077 C 
ATOM      4  C   UNL     1      26.132  53.873  36.407  1.00  0.00     0.039 C 
BRANCH   3   5
ATOM      5  C   UNL     1      25.216  52.332  38.303  1.00  0.00     0.034 C 
BRANCH   5   6
ATOM      6  C   UNL     1      24.614  51.457  37.195  1.00  0.00     0.032 C 
BRANCH   6   7
ATOM      7  C   UNL     1      25.479  50.255  36.899  1.00  0.00    -0.028 C 
ATOM      8  C   UNL     1      23.612  48.956  35.850  1.00  0.00     0.039 C 
ATOM      9  C   UNL     1      25.033  49.111  36.332  1.00  0.00    -0.080 C 
ATOM     10  C   UNL     1      25.984  47.962  36.117  1.00  0.00     0.039 C 
ENDBRANCH   6   7
ENDBRANCH   5   6
ENDBRANCH   3   5
ENDBRANCH   1   2
BRANCH   1  11
ATOM     11  C   UNL     1      29.698  54.253  39.131  1.00  0.00     0.034 C 
BRANCH  11  12
ATOM     12  C   UNL     1      30.067  55.614  39.678  1.00  0.00    -0.075 C 
ATOM     13  C   UNL     1      29.270  56.672  39.407  1.00  0.00    -0.000 C 
ATOM     14  C   UNL     1      31.312  55.757  40.522  1.00  0.00     0.039 C 
BRANCH  13  15
ATOM     15  C   UNL     1      29.534  58.072  39.899  1.00  0.00     0.183 C 
BRANCH  15  16
ATOM     16  O   UNL     1      29.144  59.015  38.938  1.00  0.00    -0.392 OA
ATOM     17  H   UNL     1      28.897  58.504  38.123  1.00  0.00     0.210 HD
ENDBRANCH  15  16
ENDBRANCH  13  15
ENDBRANCH  11  12
ENDBRANCH   1  11
TORSDOF 8
ENDMDL
MODEL 9
REMARK VINA RESULT:    -4.015     10.798     12.466
REMARK INTER + INTRA:          -6.566
REMARK INTER:                  -6.549
REMARK INTRA:                  -0.017
REMARK UNBOUND:                -0.791
REMARK SMILES CC(C)=CCCC(C)=CCCC(C)=CCO
REMARK SMILES IDX 10 1 9 2 7 3 8 4 6 5 5 6 4 7 1 8 2 9 3 10 11 11 12 12 14 13
REMARK SMILES IDX 13 14 15 15 16 16
REMARK H PARENT 16 17
REMARK Flexibility Score: inf
ROOT
ATOM      1  C   UNL     1      26.457  54.170  38.428  1.00  0.00     0.032 C 
ENDROOT
BRANCH   1   2
ATOM      2  C   UNL     1      26.461  52.722  38.004  1.00  0.00    -0.028 C 
ATOM      3  C   UNL     1      25.468  52.128  37.304  1.00  0.00    -0.077 C 
ATOM      4  C   UNL     1      24.209  52.870  36.917  1.00  0.00     0.039 C 
BRANCH   3   5
ATOM      5  C   UNL     1      25.612  50.670  36.912  1.00  0.00     0.034 C 
BRANCH   5   6
ATOM      6  C   UNL     1      24.250  49.983  36.749  1.00  0.00     0.032 C 
BRANCH   6   7
ATOM      7  C   UNL     1      24.352  48.724  35.920  1.00  0.00    -0.028 C 
ATOM      8  C   UNL     1      21.924  48.728  35.304  1.00  0.00     0.039 C 
ATOM      9  C   UNL     1      23.309  48.129  35.299  1.00  0.00    -0.080 C 
ATOM     10  C   UNL     1      23.527  46.852  34.528  1.00  0.00     0.039 C 
ENDBRANCH   6   7
ENDBRANCH   5   6
ENDBRANCH   3   5
ENDBRANCH   1   2
BRANCH   1  11
ATOM     11  C   UNL     1      27.703  54.893  37.904  1.00  0.00     0.034 C 
BRANCH  11  12
ATOM     12  C   UNL     1      28.931  54.481  38.686  1.00  0.00    -0.075 C 
ATOM     13  C   UNL     1      29.317  53.185  38.674  1.00  0.00    -0.000 C 
ATOM     14  C   UNL     1      29.703  55.529  39.453  1.00  0.00     0.039 C 
BRANCH  13  15
ATOM     15  C   UNL     1      30.522  52.659  39.410  1.00  0.00     0.183 C 
BRANCH  15  16
ATOM     16  O   UNL     1      30.737  51.308  39.104  1.00  0.00    -0.392 OA
ATOM     17  H   UNL     1      30.530  50.794  39.928  1.00  0.00     0.210 HD
ENDBRANCH  15  16
ENDBRANCH  13  15
ENDBRANCH  11  12
ENDBRANCH   1  11
TORSDOF 8
ENDMDL
