MODEL 1
REMARK VINA RESULT:    -6.171      0.000      0.000
REMARK INTER + INTRA:          -7.627
REMARK INTER:                  -7.614
REMARK INTRA:                  -0.013
REMARK UNBOUND:                -0.013
REMARK SMILES O=c1c(O)c(-c2cc(O)c(O)c(O)c2)oc2cc(O)cc(O)c12
REMARK SMILES IDX 5 1 3 2 2 3 1 4 23 5 21 6 20 7 18 8 17 9 16 10 15 11 6 12
REMARK SMILES IDX 7 13 8 14 14 15 10 16 12 17 9 18 11 20 13 22 4 24 22 26
REMARK SMILES IDX 19 28
REMARK H PARENT 9 19 11 21 13 23 4 25 22 27 19 29
REMARK Flexibility Score: inf
ROOT
ATOM      1  C   UNL     1       1.512  15.680  26.330  1.00  0.00     0.180 A 
ATOM      2  C   UNL     1       1.187  16.343  25.134  1.00  0.00     0.208 A 
ATOM      3  C   UNL     1       0.517  17.575  25.198  1.00  0.00     0.238 A 
ATOM      4  O   UNL     1       0.277  18.190  24.126  1.00  0.00    -0.285 OA
ATOM      5  C   UNL     1       0.166  18.121  26.456  1.00  0.00     0.111 A 
ATOM      6  C   UNL     1      -0.550  19.343  26.639  1.00  0.00     0.134 A 
ATOM      7  C   UNL     1      -0.728  19.852  27.932  1.00  0.00     0.093 A 
ATOM      8  C   UNL     1      -0.276  19.153  29.050  1.00  0.00     0.123 A 
ATOM      9  C   UNL     1       0.373  17.928  28.886  1.00  0.00     0.094 A 
ATOM     10  C   UNL     1       0.597  17.411  27.608  1.00  0.00     0.146 A 
ATOM     11  O   UNL     1       1.227  16.249  27.495  1.00  0.00    -0.452 OA
ENDROOT
BRANCH   1  12
ATOM     12  C   UNL     1       2.195  14.366  26.341  1.00  0.00     0.029 A 
ATOM     13  C   UNL     1       1.702  13.292  27.102  1.00  0.00     0.062 A 
ATOM     14  C   UNL     1       2.376  12.063  27.119  1.00  0.00     0.162 A 
ATOM     15  C   UNL     1       3.390  14.204  25.625  1.00  0.00     0.062 A 
ATOM     16  C   UNL     1       3.560  11.902  26.380  1.00  0.00     0.200 A 
ATOM     17  C   UNL     1       4.068  12.980  25.635  1.00  0.00     0.162 A 
BRANCH  14  18
ATOM     18  O   UNL     1       1.874  11.002  27.871  1.00  0.00    -0.504 OA
ATOM     19  H   UNL     1       2.259  10.068  27.796  1.00  0.00     0.293 HD
ENDBRANCH  14  18
BRANCH  16  20
ATOM     20  O   UNL     1       4.241  10.684  26.382  1.00  0.00    -0.502 OA
ATOM     21  H   UNL     1       3.900   9.876  26.889  1.00  0.00     0.293 HD
ENDBRANCH  16  20
BRANCH  17  22
ATOM     22  O   UNL     1       5.246  12.855  24.898  1.00  0.00    -0.504 OA
ATOM     23  H   UNL     1       5.593  13.600  24.307  1.00  0.00     0.293 HD
ENDBRANCH  17  22
ENDBRANCH   1  12
BRANCH   2  24
ATOM     24  O   UNL     1       1.562  15.797  23.902  1.00  0.00    -0.502 OA
ATOM     25  H   UNL     1       1.143  14.954  23.531  1.00  0.00     0.293 HD
ENDBRANCH   2  24
BRANCH   6  26
ATOM     26  O   UNL     1      -1.125  20.074  25.596  1.00  0.00    -0.507 OA
ATOM     27  H   UNL     1      -0.606  20.541  24.867  1.00  0.00     0.293 HD
ENDBRANCH   6  26
BRANCH   8  28
ATOM     28  O   UNL     1      -0.484  19.682  30.321  1.00  0.00    -0.508 OA
ATOM     29  H   UNL     1      -1.302  19.441  30.869  1.00  0.00     0.293 HD
ENDBRANCH   8  28
TORSDOF 7
ENDMDL
MODEL 2
REMARK VINA RESULT:    -6.104      0.067      1.756
REMARK INTER + INTRA:          -7.545
REMARK INTER:                  -7.552
REMARK INTRA:                   0.007
REMARK UNBOUND:                -0.013
REMARK SMILES O=c1c(O)c(-c2cc(O)c(O)c(O)c2)oc2cc(O)cc(O)c12
REMARK SMILES IDX 5 1 3 2 2 3 1 4 23 5 21 6 20 7 18 8 17 9 16 10 15 11 6 12
REMARK SMILES IDX 7 13 8 14 14 15 10 16 12 17 9 18 11 20 13 22 4 24 22 26
REMARK SMILES IDX 19 28
REMARK H PARENT 9 19 11 21 13 23 4 25 22 27 19 29
REMARK Flexibility Score: inf
ROOT
ATOM      1  C   UNL     1       1.556  15.737  26.346  1.00  0.00     0.180 A 
ATOM      2  C   UNL     1       1.239  16.400  25.148  1.00  0.00     0.208 A 
ATOM      3  C   UNL     1       0.553  17.624  25.209  1.00  0.00     0.238 A 
ATOM      4  O   UNL     1       0.319  18.240  24.136  1.00  0.00    -0.285 OA
ATOM      5  C   UNL     1       0.178  18.160  26.464  1.00  0.00     0.111 A 
ATOM      6  C   UNL     1      -0.555  19.372  26.642  1.00  0.00     0.134 A 
ATOM      7  C   UNL     1      -0.756  19.874  27.934  1.00  0.00     0.093 A 
ATOM      8  C   UNL     1      -0.309  19.177  29.056  1.00  0.00     0.123 A 
ATOM      9  C   UNL     1       0.356  17.960  28.896  1.00  0.00     0.094 A 
ATOM     10  C   UNL     1       0.604  17.451  27.618  1.00  0.00     0.146 A 
ATOM     11  O   UNL     1       1.250  16.297  27.510  1.00  0.00    -0.452 OA
ENDROOT
BRANCH   1  12
ATOM     12  C   UNL     1       2.256  14.431  26.361  1.00  0.00     0.029 A 
ATOM     13  C   UNL     1       3.423  14.218  25.608  1.00  0.00     0.062 A 
ATOM     14  C   UNL     1       4.057  12.967  25.617  1.00  0.00     0.162 A 
ATOM     15  C   UNL     1       1.713  13.366  27.096  1.00  0.00     0.062 A 
ATOM     16  C   UNL     1       3.519  11.914  26.374  1.00  0.00     0.200 A 
ATOM     17  C   UNL     1       2.341  12.117  27.112  1.00  0.00     0.162 A 
BRANCH  14  18
ATOM     18  O   UNL     1       5.219  12.769  24.871  1.00  0.00    -0.504 OA
ATOM     19  H   UNL     1       5.601  13.497  24.279  1.00  0.00     0.293 HD
ENDBRANCH  14  18
BRANCH  16  20
ATOM     20  O   UNL     1       4.141  10.664  26.398  1.00  0.00    -0.502 OA
ATOM     21  H   UNL     1       5.145  10.559  26.315  1.00  0.00     0.293 HD
ENDBRANCH  16  20
BRANCH  17  22
ATOM     22  O   UNL     1       1.777  11.088  27.867  1.00  0.00    -0.504 OA
ATOM     23  H   UNL     1       2.249  10.686  28.667  1.00  0.00     0.293 HD
ENDBRANCH  17  22
ENDBRANCH   1  12
BRANCH   2  24
ATOM     24  O   UNL     1       1.637  15.864  23.920  1.00  0.00    -0.502 OA
ATOM     25  H   UNL     1       2.221  15.041  23.850  1.00  0.00     0.293 HD
ENDBRANCH   2  24
BRANCH   6  26
ATOM     26  O   UNL     1      -1.125  20.100  25.594  1.00  0.00    -0.507 OA
ATOM     27  H   UNL     1      -1.766  20.871  25.712  1.00  0.00     0.293 HD
ENDBRANCH   6  26
BRANCH   8  28
ATOM     28  O   UNL     1      -0.540  19.698  30.326  1.00  0.00    -0.508 OA
ATOM     29  H   UNL     1      -1.121  19.214  31.001  1.00  0.00     0.293 HD
ENDBRANCH   8  28
TORSDOF 7
ENDMDL
MODEL 3
REMARK VINA RESULT:    -5.191      1.368      7.008
REMARK INTER + INTRA:          -6.418
REMARK INTER:                  -6.072
REMARK INTRA:                  -0.346
REMARK UNBOUND:                -0.013
REMARK SMILES O=c1c(O)c(-c2cc(O)c(O)c(O)c2)oc2cc(O)cc(O)c12
REMARK SMILES IDX 5 1 3 2 2 3 1 4 23 5 21 6 20 7 18 8 17 9 16 10 15 11 6 12
REMARK SMILES IDX 7 13 8 14 14 15 10 16 12 17 9 18 11 20 13 22 4 24 22 26
REMARK SMILES IDX 19 28
REMARK H PARENT 9 19 11 21 13 23 4 25 22 27 19 29
REMARK Flexibility Score: inf
ROOT
ATOM      1  C   UNL     1       1.780  16.099  26.304  1.00  0.00     0.180 A 
ATOM      2  C   UNL     1       3.081  15.992  25.786  1.00  0.00     0.208 A 
ATOM      3  C   UNL     1       3.751  14.761  25.876  1.00  0.00     0.238 A 
ATOM      4  O   UNL     1       4.896  14.656  25.361  1.00  0.00    -0.285 OA
ATOM      5  C   UNL     1       3.118  13.659  26.498  1.00  0.00     0.111 A 
ATOM      6  C   UNL     1       3.718  12.376  26.681  1.00  0.00     0.134 A 
ATOM      7  C   UNL     1       2.951  11.322  27.192  1.00  0.00     0.093 A 
ATOM      8  C   UNL     1       1.629  11.518  27.587  1.00  0.00     0.123 A 
ATOM      9  C   UNL     1       1.050  12.783  27.468  1.00  0.00     0.094 A 
ATOM     10  C   UNL     1       1.778  13.846  26.928  1.00  0.00     0.146 A 
ATOM     11  O   UNL     1       1.188  15.030  26.823  1.00  0.00    -0.452 OA
ENDROOT
BRANCH   1  12
ATOM     12  C   UNL     1       1.020  17.371  26.269  1.00  0.00     0.029 A 
ATOM     13  C   UNL     1       0.293  17.756  25.129  1.00  0.00     0.062 A 
ATOM     14  C   UNL     1      -0.401  18.974  25.106  1.00  0.00     0.162 A 
ATOM     15  C   UNL     1       1.072  18.236  27.372  1.00  0.00     0.062 A 
ATOM     16  C   UNL     1      -0.362  19.824  26.224  1.00  0.00     0.200 A 
ATOM     17  C   UNL     1       0.381  19.453  27.357  1.00  0.00     0.162 A 
BRANCH  14  18
ATOM     18  O   UNL     1      -1.125  19.343  23.973  1.00  0.00    -0.504 OA
ATOM     19  H   UNL     1      -0.778  20.040  23.324  1.00  0.00     0.293 HD
ENDBRANCH  14  18
BRANCH  16  20
ATOM     20  O   UNL     1      -1.051  21.039  26.219  1.00  0.00    -0.502 OA
ATOM     21  H   UNL     1      -0.910  21.735  25.497  1.00  0.00     0.293 HD
ENDBRANCH  16  20
BRANCH  17  22
ATOM     22  O   UNL     1       0.447  20.279  28.479  1.00  0.00    -0.504 OA
ATOM     23  H   UNL     1       0.450  21.289  28.405  1.00  0.00     0.293 HD
ENDBRANCH  17  22
ENDBRANCH   1  12
BRANCH   2  24
ATOM     24  O   UNL     1       3.681  17.088  25.156  1.00  0.00    -0.502 OA
ATOM     25  H   UNL     1       3.604  18.031  25.516  1.00  0.00     0.293 HD
ENDBRANCH   2  24
BRANCH   6  26
ATOM     26  O   UNL     1       5.059  12.096  26.405  1.00  0.00    -0.507 OA
ATOM     27  H   UNL     1       5.731  12.772  26.073  1.00  0.00     0.293 HD
ENDBRANCH   6  26
BRANCH   8  28
ATOM     28  O   UNL     1       0.900  10.450  28.105  1.00  0.00    -0.508 OA
ATOM     29  H   UNL     1       1.187   9.973  28.952  1.00  0.00     0.293 HD
ENDBRANCH   8  28
TORSDOF 7
ENDMDL
MODEL 4
REMARK VINA RESULT:    -4.930      1.539      7.277
REMARK INTER + INTRA:          -6.096
REMARK INTER:                  -5.739
REMARK INTRA:                  -0.357
REMARK UNBOUND:                -0.013
REMARK SMILES O=c1c(O)c(-c2cc(O)c(O)c(O)c2)oc2cc(O)cc(O)c12
REMARK SMILES IDX 5 1 3 2 2 3 1 4 23 5 21 6 20 7 18 8 17 9 16 10 15 11 6 12
REMARK SMILES IDX 7 13 8 14 14 15 10 16 12 17 9 18 11 20 13 22 4 24 22 26
REMARK SMILES IDX 19 28
REMARK H PARENT 9 19 11 21 13 23 4 25 22 27 19 29
REMARK Flexibility Score: inf
ROOT
ATOM      1  C   UNL     1       1.517  16.521  26.267  1.00  0.00     0.180 A 
ATOM      2  C   UNL     1       0.891  15.318  26.633  1.00  0.00     0.208 A 
ATOM      3  C   UNL     1       1.617  14.119  26.548  1.00  0.00     0.238 A 
ATOM      4  O   UNL     1       1.070  13.051  26.930  1.00  0.00    -0.285 OA
ATOM      5  C   UNL     1       2.953  14.137  26.082  1.00  0.00     0.111 A 
ATOM      6  C   UNL     1       3.770  12.977  25.916  1.00  0.00     0.134 A 
ATOM      7  C   UNL     1       5.120  13.127  25.572  1.00  0.00     0.093 A 
ATOM      8  C   UNL     1       5.665  14.386  25.324  1.00  0.00     0.123 A 
ATOM      9  C   UNL     1       4.859  15.522  25.424  1.00  0.00     0.094 A 
ATOM     10  C   UNL     1       3.519  15.408  25.801  1.00  0.00     0.146 A 
ATOM     11  O   UNL     1       2.791  16.514  25.896  1.00  0.00    -0.452 OA
ENDROOT
BRANCH   1  12
ATOM     12  C   UNL     1       0.807  17.821  26.306  1.00  0.00     0.029 A 
ATOM     13  C   UNL     1       0.174  18.343  25.165  1.00  0.00     0.062 A 
ATOM     14  C   UNL     1      -0.472  19.587  25.216  1.00  0.00     0.162 A 
ATOM     15  C   UNL     1       0.815  18.575  27.489  1.00  0.00     0.062 A 
ATOM     16  C   UNL     1      -0.479  20.325  26.412  1.00  0.00     0.200 A 
ATOM     17  C   UNL     1       0.171  19.816  27.549  1.00  0.00     0.162 A 
BRANCH  14  18
ATOM     18  O   UNL     1      -1.103  20.092  24.080  1.00  0.00    -0.504 OA
ATOM     19  H   UNL     1      -2.095  19.960  23.920  1.00  0.00     0.293 HD
ENDBRANCH  14  18
BRANCH  16  20
ATOM     20  O   UNL     1      -1.121  21.562  26.481  1.00  0.00    -0.502 OA
ATOM     21  H   UNL     1      -0.687  22.372  26.906  1.00  0.00     0.293 HD
ENDBRANCH  16  20
BRANCH  17  22
ATOM     22  O   UNL     1       0.190  20.528  28.748  1.00  0.00    -0.504 OA
ATOM     23  H   UNL     1      -0.570  20.480  29.415  1.00  0.00     0.293 HD
ENDBRANCH  17  22
ENDBRANCH   1  12
BRANCH   2  24
ATOM     24  O   UNL     1      -0.423  15.324  27.112  1.00  0.00    -0.502 OA
ATOM     25  H   UNL     1      -0.642  15.359  28.100  1.00  0.00     0.293 HD
ENDBRANCH   2  24
BRANCH   6  26
ATOM     26  O   UNL     1       3.302  11.667  26.050  1.00  0.00    -0.507 OA
ATOM     27  H   UNL     1       3.612  10.886  25.491  1.00  0.00     0.293 HD
ENDBRANCH   6  26
BRANCH   8  28
ATOM     28  O   UNL     1       7.007  14.496  24.969  1.00  0.00    -0.508 OA
ATOM     29  H   UNL     1       7.662  13.738  25.127  1.00  0.00     0.293 HD
ENDBRANCH   8  28
TORSDOF 7
ENDMDL
MODEL 5
REMARK VINA RESULT:    -4.861      1.551      7.208
REMARK INTER + INTRA:          -6.011
REMARK INTER:                  -5.656
REMARK INTRA:                  -0.355
REMARK UNBOUND:                -0.013
REMARK SMILES O=c1c(O)c(-c2cc(O)c(O)c(O)c2)oc2cc(O)cc(O)c12
REMARK SMILES IDX 5 1 3 2 2 3 1 4 23 5 21 6 20 7 18 8 17 9 16 10 15 11 6 12
REMARK SMILES IDX 7 13 8 14 14 15 10 16 12 17 9 18 11 20 13 22 4 24 22 26
REMARK SMILES IDX 19 28
REMARK H PARENT 9 19 11 21 13 23 4 25 22 27 19 29
REMARK Flexibility Score: inf
ROOT
ATOM      1  C   UNL     1       1.587  16.567  26.273  1.00  0.00     0.180 A 
ATOM      2  C   UNL     1       0.936  15.374  26.629  1.00  0.00     0.208 A 
ATOM      3  C   UNL     1       1.638  14.161  26.535  1.00  0.00     0.238 A 
ATOM      4  O   UNL     1       1.068  13.101  26.907  1.00  0.00    -0.285 OA
ATOM      5  C   UNL     1       2.975  14.155  26.069  1.00  0.00     0.111 A 
ATOM      6  C   UNL     1       3.768  12.981  25.895  1.00  0.00     0.134 A 
ATOM      7  C   UNL     1       5.121  13.105  25.553  1.00  0.00     0.093 A 
ATOM      8  C   UNL     1       5.692  14.355  25.316  1.00  0.00     0.123 A 
ATOM      9  C   UNL     1       4.909  15.506  25.425  1.00  0.00     0.094 A 
ATOM     10  C   UNL     1       3.567  15.417  25.800  1.00  0.00     0.146 A 
ATOM     11  O   UNL     1       2.861  16.537  25.903  1.00  0.00    -0.452 OA
ENDROOT
BRANCH   1  12
ATOM     12  C   UNL     1       0.904  17.881  26.322  1.00  0.00     0.029 A 
ATOM     13  C   UNL     1       0.874  18.645  27.502  1.00  0.00     0.062 A 
ATOM     14  C   UNL     1       0.202  19.875  27.536  1.00  0.00     0.162 A 
ATOM     15  C   UNL     1       0.226  18.349  25.187  1.00  0.00     0.062 A 
ATOM     16  C   UNL     1      -0.455  20.347  26.387  1.00  0.00     0.200 A 
ATOM     17  C   UNL     1      -0.445  19.576  25.212  1.00  0.00     0.162 A 
BRANCH  14  18
ATOM     18  O   UNL     1       0.184  20.628  28.709  1.00  0.00    -0.504 OA
ATOM     19  H   UNL     1      -0.671  20.778  29.231  1.00  0.00     0.293 HD
ENDBRANCH  14  18
BRANCH  16  20
ATOM     20  O   UNL     1      -1.125  21.572  26.402  1.00  0.00    -0.502 OA
ATOM     21  H   UNL     1      -0.673  22.437  26.133  1.00  0.00     0.293 HD
ENDBRANCH  16  20
BRANCH  17  22
ATOM     22  O   UNL     1      -1.096  20.013  24.058  1.00  0.00    -0.504 OA
ATOM     23  H   UNL     1      -1.630  19.385  23.471  1.00  0.00     0.293 HD
ENDBRANCH  17  22
ENDBRANCH   1  12
BRANCH   2  24
ATOM     24  O   UNL     1      -0.377  15.404  27.107  1.00  0.00    -0.502 OA
ATOM     25  H   UNL     1      -0.744  16.181  27.642  1.00  0.00     0.293 HD
ENDBRANCH   2  24
BRANCH   6  26
ATOM     26  O   UNL     1       3.272  11.679  26.017  1.00  0.00    -0.507 OA
ATOM     27  H   UNL     1       3.541  10.905  25.429  1.00  0.00     0.293 HD
ENDBRANCH   6  26
BRANCH   8  28
ATOM     28  O   UNL     1       7.036  14.440  24.963  1.00  0.00    -0.508 OA
ATOM     29  H   UNL     1       7.330  14.879  24.097  1.00  0.00     0.293 HD
ENDBRANCH   8  28
TORSDOF 7
ENDMDL
MODEL 6
REMARK VINA RESULT:    -4.402      1.714      7.352
REMARK INTER + INTRA:          -5.445
REMARK INTER:                  -5.126
REMARK INTRA:                  -0.319
REMARK UNBOUND:                -0.013
REMARK SMILES O=c1c(O)c(-c2cc(O)c(O)c(O)c2)oc2cc(O)cc(O)c12
REMARK SMILES IDX 5 1 3 2 2 3 1 4 23 5 21 6 20 7 18 8 17 9 16 10 15 11 6 12
REMARK SMILES IDX 7 13 8 14 14 15 10 16 12 17 9 18 11 20 13 22 4 24 22 26
REMARK SMILES IDX 19 28
REMARK H PARENT 9 19 11 21 13 23 4 25 22 27 19 29
REMARK Flexibility Score: inf
ROOT
ATOM      1  C   UNL     1       1.952  14.924  26.418  1.00  0.00     0.180 A 
ATOM      2  C   UNL     1       1.255  13.920  27.111  1.00  0.00     0.208 A 
ATOM      3  C   UNL     1       1.787  12.621  27.145  1.00  0.00     0.238 A 
ATOM      4  O   UNL     1       1.186  11.738  27.812  1.00  0.00    -0.285 OA
ATOM      5  C   UNL     1       3.000  12.339  26.472  1.00  0.00     0.111 A 
ATOM      6  C   UNL     1       3.610  11.050  26.406  1.00  0.00     0.134 A 
ATOM      7  C   UNL     1       4.878  10.915  25.825  1.00  0.00     0.093 A 
ATOM      8  C   UNL     1       5.527  12.006  25.249  1.00  0.00     0.123 A 
ATOM      9  C   UNL     1       4.912  13.260  25.255  1.00  0.00     0.094 A 
ATOM     10  C   UNL     1       3.665  13.434  25.860  1.00  0.00     0.146 A 
ATOM     11  O   UNL     1       3.120  14.645  25.854  1.00  0.00    -0.452 OA
ENDROOT
BRANCH   1  12
ATOM     12  C   UNL     1       1.441  16.312  26.317  1.00  0.00     0.029 A 
ATOM     13  C   UNL     1       0.384  16.640  25.452  1.00  0.00     0.062 A 
ATOM     14  C   UNL     1      -0.070  17.963  25.353  1.00  0.00     0.162 A 
ATOM     15  C   UNL     1       2.061  17.330  27.057  1.00  0.00     0.062 A 
ATOM     16  C   UNL     1       0.541  18.973  26.114  1.00  0.00     0.200 A 
ATOM     17  C   UNL     1       1.613  18.652  26.965  1.00  0.00     0.162 A 
BRANCH  14  18
ATOM     18  O   UNL     1      -1.125  18.276  24.496  1.00  0.00    -0.504 OA
ATOM     19  H   UNL     1      -1.144  19.143  23.972  1.00  0.00     0.293 HD
ENDBRANCH  14  18
BRANCH  16  20
ATOM     20  O   UNL     1       0.099  20.294  26.031  1.00  0.00    -0.502 OA
ATOM     21  H   UNL     1      -0.871  20.528  25.856  1.00  0.00     0.293 HD
ENDBRANCH  16  20
BRANCH  17  22
ATOM     22  O   UNL     1       2.247  19.634  27.726  1.00  0.00    -0.504 OA
ATOM     23  H   UNL     1       2.136  19.692  28.731  1.00  0.00     0.293 HD
ENDBRANCH  17  22
ENDBRANCH   1  12
BRANCH   2  24
ATOM     24  O   UNL     1       0.069  14.224  27.786  1.00  0.00    -0.502 OA
ATOM     25  H   UNL     1      -0.299  13.642  28.527  1.00  0.00     0.293 HD
ENDBRANCH   2  24
BRANCH   6  26
ATOM     26  O   UNL     1       3.007   9.877  26.868  1.00  0.00    -0.507 OA
ATOM     27  H   UNL     1       2.182   9.845  27.448  1.00  0.00     0.293 HD
ENDBRANCH   6  26
BRANCH   8  28
ATOM     28  O   UNL     1       6.779  11.832  24.666  1.00  0.00    -0.508 OA
ATOM     29  H   UNL     1       7.585  11.555  25.214  1.00  0.00     0.293 HD
ENDBRANCH   8  28
TORSDOF 7
ENDMDL
MODEL 7
REMARK VINA RESULT:    -3.686      2.780      4.892
REMARK INTER + INTRA:          -4.561
REMARK INTER:                  -4.202
REMARK INTRA:                  -0.359
REMARK UNBOUND:                -0.013
REMARK SMILES O=c1c(O)c(-c2cc(O)c(O)c(O)c2)oc2cc(O)cc(O)c12
REMARK SMILES IDX 5 1 3 2 2 3 1 4 23 5 21 6 20 7 18 8 17 9 16 10 15 11 6 12
REMARK SMILES IDX 7 13 8 14 14 15 10 16 12 17 9 18 11 20 13 22 4 24 22 26
REMARK SMILES IDX 19 28
REMARK H PARENT 9 19 11 21 13 23 4 25 22 27 19 29
REMARK Flexibility Score: inf
ROOT
ATOM      1  C   UNL     1       0.384  18.712  27.702  1.00  0.00     0.180 A 
ATOM      2  C   UNL     1       0.099  18.386  29.039  1.00  0.00     0.208 A 
ATOM      3  C   UNL     1      -0.347  19.396  29.906  1.00  0.00     0.238 A 
ATOM      4  O   UNL     1      -0.653  19.088  31.088  1.00  0.00    -0.285 OA
ATOM      5  C   UNL     1      -0.487  20.722  29.430  1.00  0.00     0.111 A 
ATOM      6  C   UNL     1      -0.893  21.832  30.230  1.00  0.00     0.134 A 
ATOM      7  C   UNL     1      -1.123  23.073  29.623  1.00  0.00     0.093 A 
ATOM      8  C   UNL     1      -0.900  23.261  28.259  1.00  0.00     0.123 A 
ATOM      9  C   UNL     1      -0.445  22.196  27.479  1.00  0.00     0.094 A 
ATOM     10  C   UNL     1      -0.241  20.937  28.048  1.00  0.00     0.146 A 
ATOM     11  O   UNL     1       0.181  19.949  27.269  1.00  0.00    -0.452 OA
ENDROOT
BRANCH   1  12
ATOM     12  C   UNL     1       0.883  17.705  26.736  1.00  0.00     0.029 A 
ATOM     13  C   UNL     1       2.247  17.378  26.660  1.00  0.00     0.062 A 
ATOM     14  C   UNL     1       2.704  16.441  25.722  1.00  0.00     0.162 A 
ATOM     15  C   UNL     1      -0.014  17.108  25.838  1.00  0.00     0.062 A 
ATOM     16  C   UNL     1       1.795  15.830  24.843  1.00  0.00     0.200 A 
ATOM     17  C   UNL     1       0.432  16.170  24.901  1.00  0.00     0.162 A 
BRANCH  14  18
ATOM     18  O   UNL     1       4.059  16.119  25.660  1.00  0.00    -0.504 OA
ATOM     19  H   UNL     1       4.736  16.549  26.280  1.00  0.00     0.293 HD
ENDBRANCH  14  18
BRANCH  16  20
ATOM     20  O   UNL     1       2.231  14.891  23.906  1.00  0.00    -0.502 OA
ATOM     21  H   UNL     1       1.671  14.629  23.104  1.00  0.00     0.293 HD
ENDBRANCH  16  20
BRANCH  17  22
ATOM     22  O   UNL     1      -0.493  15.588  24.035  1.00  0.00    -0.504 OA
ATOM     23  H   UNL     1      -1.481  15.543  24.253  1.00  0.00     0.293 HD
ENDBRANCH  17  22
ENDBRANCH   1  12
BRANCH   2  24
ATOM     24  O   UNL     1       0.223  17.066  29.484  1.00  0.00    -0.502 OA
ATOM     25  H   UNL     1       0.158  16.813  30.462  1.00  0.00     0.293 HD
ENDBRANCH   2  24
BRANCH   6  26
ATOM     26  O   UNL     1      -1.056  21.777  31.617  1.00  0.00    -0.507 OA
ATOM     27  H   UNL     1      -1.666  22.380  32.149  1.00  0.00     0.293 HD
ENDBRANCH   6  26
BRANCH   8  28
ATOM     28  O   UNL     1      -1.125  24.513  27.692  1.00  0.00    -0.508 OA
ATOM     29  H   UNL     1      -1.608  25.246  28.198  1.00  0.00     0.293 HD
ENDBRANCH   8  28
TORSDOF 7
ENDMDL
