MODEL 1
REMARK VINA RESULT:    -5.243      0.000      0.000
REMARK INTER + INTRA:         -10.719
REMARK INTER:                  -9.533
REMARK INTRA:                  -1.185
REMARK UNBOUND:                -1.185
REMARK SMILES CCCCCCCCCCCCCCCC(=O)[O-]
REMARK SMILES IDX 9 1 10 2 11 3 12 4 13 5 14 6 15 7 16 8 17 9 18 10 8 11 7 12
REMARK SMILES IDX 6 13 5 14 4 15 3 16 2 17 1 18
REMARK H PARENT
REMARK Flexibility Score: inf
ROOT
ATOM      1  C   UNL     1       7.539   0.906  36.274  1.00  0.00     0.000 C 
ENDROOT
BRANCH   1   2
ATOM      2  C   UNL     1       8.818   0.506  35.527  1.00  0.00     0.000 C 
BRANCH   2   3
ATOM      3  C   UNL     1       8.972   1.313  34.229  1.00  0.00     0.000 C 
BRANCH   3   4
ATOM      4  C   UNL     1      10.111   0.794  33.336  1.00  0.00     0.000 C 
BRANCH   4   5
ATOM      5  C   UNL     1      11.101  -0.100  34.104  1.00  0.00     0.000 C 
BRANCH   5   6
ATOM      6  C   UNL     1      12.443   0.600  34.380  1.00  0.00     0.006 C 
BRANCH   6   7
ATOM      7  C   UNL     1      12.460   1.464  35.651  1.00  0.00     0.053 C 
BRANCH   7   8
ATOM      8  C   UNL     1      12.618   2.921  35.341  1.00  0.00     0.041 C 
ATOM      9  O   UNL     1      13.274   3.665  36.116  1.00  0.00    -0.550 OA
ATOM     10  O   UNL     1      12.070   3.448  34.179  1.00  0.00    -0.550 OA
ENDBRANCH   7   8
ENDBRANCH   6   7
ENDBRANCH   5   6
ENDBRANCH   4   5
ENDBRANCH   3   4
ENDBRANCH   2   3
ENDBRANCH   1   2
BRANCH   1  11
ATOM     11  C   UNL     1       6.455  -0.172  36.125  1.00  0.00     0.000 C 
BRANCH  11  12
ATOM     12  C   UNL     1       7.023  -1.522  35.660  1.00  0.00    -0.000 C 
BRANCH  12  13
ATOM     13  C   UNL     1       6.421  -2.713  36.427  1.00  0.00    -0.000 C 
BRANCH  13  14
ATOM     14  C   UNL     1       4.885  -2.726  36.385  1.00  0.00    -0.000 C 
BRANCH  14  15
ATOM     15  C   UNL     1       4.270  -3.581  37.508  1.00  0.00    -0.000 C 
BRANCH  15  16
ATOM     16  C   UNL     1       3.632  -2.716  38.614  1.00  0.00    -0.000 C 
BRANCH  16  17
ATOM     17  C   UNL     1       2.626  -1.681  38.082  1.00  0.00    -0.003 C 
ATOM     18  C   UNL     1       3.109  -0.240  38.242  1.00  0.00     0.004 C 
ENDBRANCH  16  17
ENDBRANCH  15  16
ENDBRANCH  14  15
ENDBRANCH  13  14
ENDBRANCH  12  13
ENDBRANCH  11  12
ENDBRANCH   1  11
TORSDOF 14
ENDMDL
MODEL 2
REMARK VINA RESULT:    -5.217      1.664      3.874
REMARK INTER + INTRA:         -10.673
REMARK INTER:                  -9.259
REMARK INTRA:                  -1.414
REMARK UNBOUND:                -1.185
REMARK SMILES CCCCCCCCCCCCCCCC(=O)[O-]
REMARK SMILES IDX 9 1 10 2 11 3 12 4 13 5 14 6 15 7 16 8 17 9 18 10 8 11 7 12
REMARK SMILES IDX 6 13 5 14 4 15 3 16 2 17 1 18
REMARK H PARENT
REMARK Flexibility Score: inf
ROOT
ATOM      1  C   UNL     1       3.630   0.448  37.587  1.00  0.00     0.000 C 
ENDROOT
BRANCH   1   2
ATOM      2  C   UNL     1       4.502  -0.454  36.705  1.00  0.00     0.000 C 
BRANCH   2   3
ATOM      3  C   UNL     1       5.810   0.252  36.319  1.00  0.00     0.000 C 
BRANCH   3   4
ATOM      4  C   UNL     1       6.899  -0.726  35.849  1.00  0.00     0.000 C 
BRANCH   4   5
ATOM      5  C   UNL     1       8.155  -0.005  35.329  1.00  0.00     0.000 C 
BRANCH   5   6
ATOM      6  C   UNL     1       8.535   1.219  36.183  1.00  0.00     0.006 C 
BRANCH   6   7
ATOM      7  C   UNL     1       9.949   1.162  36.782  1.00  0.00     0.053 C 
BRANCH   7   8
ATOM      8  C   UNL     1      10.985   1.676  35.831  1.00  0.00     0.041 C 
ATOM      9  O   UNL     1      11.532   0.895  35.009  1.00  0.00    -0.550 OA
ATOM     10  O   UNL     1      11.322   3.023  35.830  1.00  0.00    -0.550 OA
ENDBRANCH   7   8
ENDBRANCH   6   7
ENDBRANCH   5   6
ENDBRANCH   4   5
ENDBRANCH   3   4
ENDBRANCH   2   3
ENDBRANCH   1   2
BRANCH   1  11
ATOM     11  C   UNL     1       2.280  -0.218  37.891  1.00  0.00     0.000 C 
BRANCH  11  12
ATOM     12  C   UNL     1       2.327  -1.101  39.148  1.00  0.00    -0.000 C 
BRANCH  12  13
ATOM     13  C   UNL     1       2.157  -2.597  38.827  1.00  0.00    -0.000 C 
BRANCH  13  14
ATOM     14  C   UNL     1       3.357  -3.440  39.289  1.00  0.00    -0.000 C 
BRANCH  14  15
ATOM     15  C   UNL     1       4.352  -3.727  38.151  1.00  0.00    -0.000 C 
BRANCH  15  16
ATOM     16  C   UNL     1       3.639  -4.127  36.843  1.00  0.00    -0.000 C 
BRANCH  16  17
ATOM     17  C   UNL     1       4.448  -3.798  35.576  1.00  0.00    -0.003 C 
ATOM     18  C   UNL     1       5.885  -4.314  35.634  1.00  0.00     0.004 C 
ENDBRANCH  16  17
ENDBRANCH  15  16
ENDBRANCH  14  15
ENDBRANCH  13  14
ENDBRANCH  12  13
ENDBRANCH  11  12
ENDBRANCH   1  11
TORSDOF 14
ENDMDL
MODEL 3
REMARK VINA RESULT:    -5.190      1.917      4.368
REMARK INTER + INTRA:         -10.623
REMARK INTER:                  -9.104
REMARK INTRA:                  -1.519
REMARK UNBOUND:                -1.185
REMARK SMILES CCCCCCCCCCCCCCCC(=O)[O-]
REMARK SMILES IDX 9 1 10 2 11 3 12 4 13 5 14 6 15 7 16 8 17 9 18 10 8 11 7 12
REMARK SMILES IDX 6 13 5 14 4 15 3 16 2 17 1 18
REMARK H PARENT
REMARK Flexibility Score: inf
ROOT
ATOM      1  C   UNL     1       4.626  -3.188  37.513  1.00  0.00     0.000 C 
ENDROOT
BRANCH   1   2
ATOM      2  C   UNL     1       4.721  -3.323  35.989  1.00  0.00     0.000 C 
BRANCH   2   3
ATOM      3  C   UNL     1       6.186  -3.315  35.526  1.00  0.00     0.000 C 
BRANCH   3   4
ATOM      4  C   UNL     1       7.034  -2.256  36.250  1.00  0.00     0.000 C 
BRANCH   4   5
ATOM      5  C   UNL     1       7.081  -0.918  35.492  1.00  0.00     0.000 C 
BRANCH   5   6
ATOM      6  C   UNL     1       8.475  -0.266  35.523  1.00  0.00     0.006 C 
BRANCH   6   7
ATOM      7  C   UNL     1       8.579   1.049  34.733  1.00  0.00     0.053 C 
BRANCH   7   8
ATOM      8  C   UNL     1       9.723   1.896  35.198  1.00  0.00     0.041 C 
ATOM      9  O   UNL     1      10.463   2.475  34.360  1.00  0.00    -0.550 OA
ATOM     10  O   UNL     1       9.950   2.075  36.557  1.00  0.00    -0.550 OA
ENDBRANCH   7   8
ENDBRANCH   6   7
ENDBRANCH   5   6
ENDBRANCH   4   5
ENDBRANCH   3   4
ENDBRANCH   2   3
ENDBRANCH   1   2
BRANCH   1  11
ATOM     11  C   UNL     1       3.892  -4.389  38.128  1.00  0.00     0.000 C 
BRANCH  11  12
ATOM     12  C   UNL     1       2.692  -3.969  38.992  1.00  0.00    -0.000 C 
BRANCH  12  13
ATOM     13  C   UNL     1       3.092  -3.031  40.144  1.00  0.00    -0.000 C 
BRANCH  13  14
ATOM     14  C   UNL     1       2.367  -1.676  40.081  1.00  0.00    -0.000 C 
BRANCH  14  15
ATOM     15  C   UNL     1       1.490  -1.533  38.825  1.00  0.00    -0.000 C 
BRANCH  15  16
ATOM     16  C   UNL     1       1.882  -0.303  37.980  1.00  0.00    -0.000 C 
BRANCH  16  17
ATOM     17  C   UNL     1       3.333   0.158  38.201  1.00  0.00    -0.003 C 
ATOM     18  C   UNL     1       4.088   0.404  36.895  1.00  0.00     0.004 C 
ENDBRANCH  16  17
ENDBRANCH  15  16
ENDBRANCH  14  15
ENDBRANCH  13  14
ENDBRANCH  12  13
ENDBRANCH  11  12
ENDBRANCH   1  11
TORSDOF 14
ENDMDL
MODEL 4
REMARK VINA RESULT:    -5.181      1.289      2.081
REMARK INTER + INTRA:         -10.606
REMARK INTER:                  -9.681
REMARK INTRA:                  -0.925
REMARK UNBOUND:                -1.185
REMARK SMILES CCCCCCCCCCCCCCCC(=O)[O-]
REMARK SMILES IDX 9 1 10 2 11 3 12 4 13 5 14 6 15 7 16 8 17 9 18 10 8 11 7 12
REMARK SMILES IDX 6 13 5 14 4 15 3 16 2 17 1 18
REMARK H PARENT
REMARK Flexibility Score: inf
ROOT
ATOM      1  C   UNL     1       8.521  -0.207  35.631  1.00  0.00     0.000 C 
ENDROOT
BRANCH   1   2
ATOM      2  C   UNL     1       8.432   1.184  34.991  1.00  0.00     0.000 C 
BRANCH   2   3
ATOM      3  C   UNL     1       9.829   1.720  34.642  1.00  0.00     0.000 C 
BRANCH   3   4
ATOM      4  C   UNL     1      10.679   0.703  33.864  1.00  0.00     0.000 C 
BRANCH   4   5
ATOM      5  C   UNL     1      12.034   0.427  34.539  1.00  0.00     0.000 C 
BRANCH   5   6
ATOM      6  C   UNL     1      12.208   1.200  35.860  1.00  0.00     0.006 C 
BRANCH   6   7
ATOM      7  C   UNL     1      13.406   2.163  35.880  1.00  0.00     0.053 C 
BRANCH   7   8
ATOM      8  C   UNL     1      13.060   3.505  35.313  1.00  0.00     0.041 C 
ATOM      9  O   UNL     1      13.391   3.799  34.135  1.00  0.00    -0.550 OA
ATOM     10  O   UNL     1      12.341   4.417  36.075  1.00  0.00    -0.550 OA
ENDBRANCH   7   8
ENDBRANCH   6   7
ENDBRANCH   5   6
ENDBRANCH   4   5
ENDBRANCH   3   4
ENDBRANCH   2   3
ENDBRANCH   1   2
BRANCH   1  11
ATOM     11  C   UNL     1       7.141  -0.877  35.686  1.00  0.00     0.000 C 
BRANCH  11  12
ATOM     12  C   UNL     1       6.023   0.102  36.075  1.00  0.00    -0.000 C 
BRANCH  12  13
ATOM     13  C   UNL     1       4.836  -0.598  36.762  1.00  0.00    -0.000 C 
BRANCH  13  14
ATOM     14  C   UNL     1       3.766   0.394  37.246  1.00  0.00    -0.000 C 
BRANCH  14  15
ATOM     15  C   UNL     1       3.215   0.036  38.638  1.00  0.00    -0.000 C 
BRANCH  15  16
ATOM     16  C   UNL     1       2.185  -1.111  38.579  1.00  0.00    -0.000 C 
BRANCH  16  17
ATOM     17  C   UNL     1       2.118  -1.944  39.870  1.00  0.00    -0.003 C 
ATOM     18  C   UNL     1       3.154  -3.066  39.912  1.00  0.00     0.004 C 
ENDBRANCH  16  17
ENDBRANCH  15  16
ENDBRANCH  14  15
ENDBRANCH  13  14
ENDBRANCH  12  13
ENDBRANCH  11  12
ENDBRANCH   1  11
TORSDOF 14
ENDMDL
MODEL 5
REMARK VINA RESULT:    -5.177      1.383      2.020
REMARK INTER + INTRA:         -10.600
REMARK INTER:                  -9.510
REMARK INTRA:                  -1.090
REMARK UNBOUND:                -1.185
REMARK SMILES CCCCCCCCCCCCCCCC(=O)[O-]
REMARK SMILES IDX 9 1 10 2 11 3 12 4 13 5 14 6 15 7 16 8 17 9 18 10 8 11 7 12
REMARK SMILES IDX 6 13 5 14 4 15 3 16 2 17 1 18
REMARK H PARENT
REMARK Flexibility Score: inf
ROOT
ATOM      1  C   UNL     1       5.523   0.318  36.370  1.00  0.00     0.000 C 
ENDROOT
BRANCH   1   2
ATOM      2  C   UNL     1       6.878   0.109  35.683  1.00  0.00     0.000 C 
BRANCH   2   3
ATOM      3  C   UNL     1       7.966   0.976  36.337  1.00  0.00     0.000 C 
BRANCH   3   4
ATOM      4  C   UNL     1       9.387   0.552  35.933  1.00  0.00     0.000 C 
BRANCH   4   5
ATOM      5  C   UNL     1       9.456   0.016  34.492  1.00  0.00     0.000 C 
BRANCH   5   6
ATOM      6  C   UNL     1      10.816   0.286  33.823  1.00  0.00     0.006 C 
BRANCH   6   7
ATOM      7  C   UNL     1      11.393   1.684  34.094  1.00  0.00     0.053 C 
BRANCH   7   8
ATOM      8  C   UNL     1      12.826   1.630  34.525  1.00  0.00     0.041 C 
ATOM      9  O   UNL     1      13.745   1.598  33.665  1.00  0.00    -0.550 OA
ATOM     10  O   UNL     1      13.147   1.650  35.876  1.00  0.00    -0.550 OA
ENDBRANCH   7   8
ENDBRANCH   6   7
ENDBRANCH   5   6
ENDBRANCH   4   5
ENDBRANCH   3   4
ENDBRANCH   2   3
ENDBRANCH   1   2
BRANCH   1  11
ATOM     11  C   UNL     1       4.879  -1.026  36.738  1.00  0.00     0.000 C 
BRANCH  11  12
ATOM     12  C   UNL     1       5.742  -2.228  36.325  1.00  0.00    -0.000 C 
BRANCH  12  13
ATOM     13  C   UNL     1       4.985  -3.564  36.432  1.00  0.00    -0.000 C 
BRANCH  13  14
ATOM     14  C   UNL     1       3.625  -3.418  37.132  1.00  0.00    -0.000 C 
BRANCH  14  15
ATOM     15  C   UNL     1       3.517  -4.283  38.401  1.00  0.00    -0.000 C 
BRANCH  15  16
ATOM     16  C   UNL     1       3.036  -3.469  39.620  1.00  0.00    -0.000 C 
BRANCH  16  17
ATOM     17  C   UNL     1       2.508  -2.071  39.257  1.00  0.00    -0.003 C 
ATOM     18  C   UNL     1       2.643  -1.065  40.399  1.00  0.00     0.004 C 
ENDBRANCH  16  17
ENDBRANCH  15  16
ENDBRANCH  14  15
ENDBRANCH  13  14
ENDBRANCH  12  13
ENDBRANCH  11  12
ENDBRANCH   1  11
TORSDOF 14
ENDMDL
MODEL 6
REMARK VINA RESULT:    -5.162      1.180      2.713
REMARK INTER + INTRA:         -10.573
REMARK INTER:                  -9.472
REMARK INTRA:                  -1.100
REMARK UNBOUND:                -1.185
REMARK SMILES CCCCCCCCCCCCCCCC(=O)[O-]
REMARK SMILES IDX 9 1 10 2 11 3 12 4 13 5 14 6 15 7 16 8 17 9 18 10 8 11 7 12
REMARK SMILES IDX 6 13 5 14 4 15 3 16 2 17 1 18
REMARK H PARENT
REMARK Flexibility Score: inf
ROOT
ATOM      1  C   UNL     1       5.873   0.372  36.367  1.00  0.00     0.000 C 
ENDROOT
BRANCH   1   2
ATOM      2  C   UNL     1       6.931  -0.544  35.738  1.00  0.00     0.000 C 
BRANCH   2   3
ATOM      3  C   UNL     1       8.144   0.266  35.257  1.00  0.00     0.000 C 
BRANCH   3   4
ATOM      4  C   UNL     1       8.752   1.142  36.364  1.00  0.00     0.000 C 
BRANCH   4   5
ATOM      5  C   UNL     1      10.037   1.858  35.911  1.00  0.00     0.000 C 
BRANCH   5   6
ATOM      6  C   UNL     1      10.698   1.181  34.697  1.00  0.00     0.006 C 
BRANCH   6   7
ATOM      7  C   UNL     1      12.149   0.731  34.931  1.00  0.00     0.053 C 
BRANCH   7   8
ATOM      8  C   UNL     1      13.094   1.891  35.006  1.00  0.00     0.041 C 
ATOM      9  O   UNL     1      13.512   2.295  36.122  1.00  0.00    -0.550 OA
ATOM     10  O   UNL     1      13.539   2.502  33.841  1.00  0.00    -0.550 OA
ENDBRANCH   7   8
ENDBRANCH   6   7
ENDBRANCH   5   6
ENDBRANCH   4   5
ENDBRANCH   3   4
ENDBRANCH   2   3
ENDBRANCH   1   2
BRANCH   1  11
ATOM     11  C   UNL     1       4.602  -0.415  36.717  1.00  0.00     0.000 C 
BRANCH  11  12
ATOM     12  C   UNL     1       3.661   0.366  37.648  1.00  0.00    -0.000 C 
BRANCH  12  13
ATOM     13  C   UNL     1       2.917  -0.547  38.639  1.00  0.00    -0.000 C 
BRANCH  13  14
ATOM     14  C   UNL     1       2.700  -1.965  38.086  1.00  0.00    -0.000 C 
BRANCH  14  15
ATOM     15  C   UNL     1       3.329  -3.050  38.978  1.00  0.00    -0.000 C 
BRANCH  15  16
ATOM     16  C   UNL     1       4.058  -4.130  38.153  1.00  0.00    -0.000 C 
BRANCH  16  17
ATOM     17  C   UNL     1       3.995  -3.891  36.635  1.00  0.00    -0.003 C 
ATOM     18  C   UNL     1       5.367  -3.941  35.963  1.00  0.00     0.004 C 
ENDBRANCH  16  17
ENDBRANCH  15  16
ENDBRANCH  14  15
ENDBRANCH  13  14
ENDBRANCH  12  13
ENDBRANCH  11  12
ENDBRANCH   1  11
TORSDOF 14
ENDMDL
MODEL 7
REMARK VINA RESULT:    -5.139      1.031      1.891
REMARK INTER + INTRA:         -10.530
REMARK INTER:                  -9.342
REMARK INTRA:                  -1.189
REMARK UNBOUND:                -1.185
REMARK SMILES CCCCCCCCCCCCCCCC(=O)[O-]
REMARK SMILES IDX 9 1 10 2 11 3 12 4 13 5 14 6 15 7 16 8 17 9 18 10 8 11 7 12
REMARK SMILES IDX 6 13 5 14 4 15 3 16 2 17 1 18
REMARK H PARENT
REMARK Flexibility Score: inf
ROOT
ATOM      1  C   UNL     1       7.174  -1.555  35.602  1.00  0.00     0.000 C 
ENDROOT
BRANCH   1   2
ATOM      2  C   UNL     1       6.744  -0.150  36.040  1.00  0.00     0.000 C 
BRANCH   2   3
ATOM      3  C   UNL     1       7.846   0.880  35.745  1.00  0.00     0.000 C 
BRANCH   3   4
ATOM      4  C   UNL     1       8.617   0.572  34.451  1.00  0.00     0.000 C 
BRANCH   4   5
ATOM      5  C   UNL     1       9.961   1.318  34.375  1.00  0.00     0.000 C 
BRANCH   5   6
ATOM      6  C   UNL     1      10.519   1.682  35.763  1.00  0.00     0.006 C 
BRANCH   6   7
ATOM      7  C   UNL     1      11.951   1.190  36.022  1.00  0.00     0.053 C 
BRANCH   7   8
ATOM      8  C   UNL     1      12.978   2.095  35.414  1.00  0.00     0.041 C 
ATOM      9  O   UNL     1      13.415   3.082  36.062  1.00  0.00    -0.550 OA
ATOM     10  O   UNL     1      13.476   1.829  34.145  1.00  0.00    -0.550 OA
ENDBRANCH   7   8
ENDBRANCH   6   7
ENDBRANCH   5   6
ENDBRANCH   4   5
ENDBRANCH   3   4
ENDBRANCH   2   3
ENDBRANCH   1   2
BRANCH   1  11
ATOM     11  C   UNL     1       6.491  -2.632  36.457  1.00  0.00     0.000 C 
BRANCH  11  12
ATOM     12  C   UNL     1       5.445  -3.437  35.669  1.00  0.00    -0.000 C 
BRANCH  12  13
ATOM     13  C   UNL     1       4.084  -3.499  36.386  1.00  0.00    -0.000 C 
BRANCH  13  14
ATOM     14  C   UNL     1       4.189  -4.081  37.805  1.00  0.00    -0.000 C 
BRANCH  14  15
ATOM     15  C   UNL     1       3.603  -3.142  38.874  1.00  0.00    -0.000 C 
BRANCH  15  16
ATOM     16  C   UNL     1       2.651  -2.091  38.265  1.00  0.00    -0.000 C 
BRANCH  16  17
ATOM     17  C   UNL     1       2.944  -0.654  38.728  1.00  0.00    -0.003 C 
ATOM     18  C   UNL     1       3.347   0.273  37.582  1.00  0.00     0.004 C 
ENDBRANCH  16  17
ENDBRANCH  15  16
ENDBRANCH  14  15
ENDBRANCH  13  14
ENDBRANCH  12  13
ENDBRANCH  11  12
ENDBRANCH   1  11
TORSDOF 14
ENDMDL
MODEL 8
REMARK VINA RESULT:    -5.110      4.450      8.779
REMARK INTER + INTRA:         -10.477
REMARK INTER:                  -9.488
REMARK INTRA:                  -0.990
REMARK UNBOUND:                -1.185
REMARK SMILES CCCCCCCCCCCCCCCC(=O)[O-]
REMARK SMILES IDX 9 1 10 2 11 3 12 4 13 5 14 6 15 7 16 8 17 9 18 10 8 11 7 12
REMARK SMILES IDX 6 13 5 14 4 15 3 16 2 17 1 18
REMARK H PARENT
REMARK Flexibility Score: inf
ROOT
ATOM      1  C   UNL     1       6.561   0.350  36.055  1.00  0.00     0.000 C 
ENDROOT
BRANCH   1   2
ATOM      2  C   UNL     1       5.461  -0.668  36.379  1.00  0.00     0.000 C 
BRANCH   2   3
ATOM      3  C   UNL     1       5.971  -2.106  36.195  1.00  0.00     0.000 C 
BRANCH   3   4
ATOM      4  C   UNL     1       4.867  -3.159  36.387  1.00  0.00     0.000 C 
BRANCH   4   5
ATOM      5  C   UNL     1       4.465  -3.329  37.863  1.00  0.00     0.000 C 
BRANCH   5   6
ATOM      6  C   UNL     1       3.015  -2.889  38.138  1.00  0.00     0.006 C 
BRANCH   6   7
ATOM      7  C   UNL     1       2.889  -1.569  38.915  1.00  0.00     0.053 C 
BRANCH   7   8
ATOM      8  C   UNL     1       2.616  -1.796  40.370  1.00  0.00     0.041 C 
ATOM      9  O   UNL     1       2.432  -2.962  40.806  1.00  0.00    -0.550 OA
ATOM     10  O   UNL     1       2.599  -0.721  41.251  1.00  0.00    -0.550 OA
ENDBRANCH   7   8
ENDBRANCH   6   7
ENDBRANCH   5   6
ENDBRANCH   4   5
ENDBRANCH   3   4
ENDBRANCH   2   3
ENDBRANCH   1   2
BRANCH   1  11
ATOM     11  C   UNL     1       7.833  -0.352  35.558  1.00  0.00     0.000 C 
BRANCH  11  12
ATOM     12  C   UNL     1       8.149  -0.033  34.089  1.00  0.00    -0.000 C 
BRANCH  12  13
ATOM     13  C   UNL     1       9.551   0.573  33.903  1.00  0.00    -0.000 C 
BRANCH  13  14
ATOM     14  C   UNL     1       9.625   2.041  34.354  1.00  0.00    -0.000 C 
BRANCH  14  15
ATOM     15  C   UNL     1      10.507   2.233  35.600  1.00  0.00    -0.000 C 
BRANCH  15  16
ATOM     16  C   UNL     1      11.838   2.941  35.266  1.00  0.00    -0.000 C 
BRANCH  16  17
ATOM     17  C   UNL     1      13.082   2.111  35.625  1.00  0.00    -0.003 C 
ATOM     18  C   UNL     1      13.088   0.729  34.974  1.00  0.00     0.004 C 
ENDBRANCH  16  17
ENDBRANCH  15  16
ENDBRANCH  14  15
ENDBRANCH  13  14
ENDBRANCH  12  13
ENDBRANCH  11  12
ENDBRANCH   1  11
TORSDOF 14
ENDMDL
MODEL 9
REMARK VINA RESULT:    -5.103      4.779      9.137
REMARK INTER + INTRA:         -10.465
REMARK INTER:                  -9.510
REMARK INTRA:                  -0.955
REMARK UNBOUND:                -1.185
REMARK SMILES CCCCCCCCCCCCCCCC(=O)[O-]
REMARK SMILES IDX 9 1 10 2 11 3 12 4 13 5 14 6 15 7 16 8 17 9 18 10 8 11 7 12
REMARK SMILES IDX 6 13 5 14 4 15 3 16 2 17 1 18
REMARK H PARENT
REMARK Flexibility Score: inf
ROOT
ATOM      1  C   UNL     1       5.356  -0.514  36.543  1.00  0.00     0.000 C 
ENDROOT
BRANCH   1   2
ATOM      2  C   UNL     1       4.177   0.442  36.763  1.00  0.00     0.000 C 
BRANCH   2   3
ATOM      3  C   UNL     1       3.430   0.104  38.061  1.00  0.00     0.000 C 
BRANCH   3   4
ATOM      4  C   UNL     1       1.969  -0.309  37.818  1.00  0.00     0.000 C 
BRANCH   4   5
ATOM      5  C   UNL     1       1.680  -1.751  38.269  1.00  0.00     0.000 C 
BRANCH   5   6
ATOM      6  C   UNL     1       2.897  -2.422  38.932  1.00  0.00     0.006 C 
BRANCH   6   7
ATOM      7  C   UNL     1       2.626  -2.984  40.336  1.00  0.00     0.053 C 
BRANCH   7   8
ATOM      8  C   UNL     1       2.019  -1.961  41.246  1.00  0.00     0.041 C 
ATOM      9  O   UNL     1       2.685  -0.952  41.598  1.00  0.00    -0.550 OA
ATOM     10  O   UNL     1       0.707  -2.105  41.677  1.00  0.00    -0.550 OA
ENDBRANCH   7   8
ENDBRANCH   6   7
ENDBRANCH   5   6
ENDBRANCH   4   5
ENDBRANCH   3   4
ENDBRANCH   2   3
ENDBRANCH   1   2
BRANCH   1  11
ATOM     11  C   UNL     1       6.595   0.244  36.043  1.00  0.00     0.000 C 
BRANCH  11  12
ATOM     12  C   UNL     1       7.538  -0.643  35.217  1.00  0.00    -0.000 C 
BRANCH  12  13
ATOM     13  C   UNL     1       8.870   0.055  34.888  1.00  0.00    -0.000 C 
BRANCH  13  14
ATOM     14  C   UNL     1       9.043   1.383  35.643  1.00  0.00    -0.000 C 
BRANCH  14  15
ATOM     15  C   UNL     1      10.168   1.325  36.691  1.00  0.00    -0.000 C 
BRANCH  15  16
ATOM     16  C   UNL     1      11.566   1.457  36.052  1.00  0.00    -0.000 C 
BRANCH  16  17
ATOM     17  C   UNL     1      11.670   2.604  35.032  1.00  0.00    -0.003 C 
ATOM     18  C   UNL     1      12.486   3.789  35.547  1.00  0.00     0.004 C 
ENDBRANCH  16  17
ENDBRANCH  15  16
ENDBRANCH  14  15
ENDBRANCH  13  14
ENDBRANCH  12  13
ENDBRANCH  11  12
ENDBRANCH   1  11
TORSDOF 14
ENDMDL
