MODEL 1
REMARK VINA RESULT:    22.636      0.000      0.000
REMARK INTER + INTRA:          28.969
REMARK INTER:                  27.929
REMARK INTRA:                   1.040
REMARK UNBOUND:                 1.040
REMARK SMILES C=C1[C@@H]2CC[C@H]3[C@@H]2C(C)(C)CCC[C@@]13C
REMARK SMILES IDX 14 1 6 2 7 3 3 4 2 5 1 6 4 7 5 8 15 9 8 10 9 11 10 12 11 13
REMARK SMILES IDX 13 15 12 16
REMARK H PARENT
REMARK Flexibility Score: 80.00
ROOT
ATOM      1  C   UNL     1      -0.355   5.343 -10.617  1.00  0.00    -0.008 C 
ATOM      2  C   UNL     1      -0.017   4.535  -9.305  1.00  0.00     0.003 C 
ATOM      3  C   UNL     1       0.665   5.567  -8.377  1.00  0.00     0.006 C 
ATOM      4  C   UNL     1       1.680   6.000  -9.426  1.00  0.00     0.019 C 
ATOM      5  C   UNL     1       0.796   6.322 -10.596  1.00  0.00    -0.068 C 
ATOM      6  C   UNL     1       1.062   7.258 -11.517  1.00  0.00     0.009 C 
ATOM      7  C   UNL     1       2.363   4.650  -9.743  1.00  0.00     0.008 C 
ATOM      8  C   UNL     1       1.216   3.623  -9.561  1.00  0.00     0.005 C 
ATOM      9  C   UNL     1      -0.302   4.492 -11.915  1.00  0.00     0.016 C 
ENDROOT
BRANCH   3  10
ATOM     10  C   UNL     1      -0.186   6.671  -7.642  1.00  0.00    -0.032 C 
ATOM     11  C   UNL     1      -0.933   6.004  -6.456  1.00  0.00     0.011 C 
ATOM     12  C   UNL     1       0.777   7.717  -7.027  1.00  0.00     0.011 C 
BRANCH  10  13
ATOM     13  C   UNL     1      -1.196   7.448  -8.531  1.00  0.00     0.007 CG0
ATOM     14  G   UNL     1      -2.233   6.567  -9.231  1.00  0.00     0.000 G0
ENDBRANCH  10  13
ENDBRANCH   3  10
BRANCH   1  15
ATOM     15  C   UNL     1      -1.747   6.039 -10.584  1.00  0.00     0.011 C 
BRANCH  15  16
ATOM     16  C   UNL     1      -2.232   6.560  -9.234  1.00  0.00     0.001 CG0
ATOM     17  G   UNL     1      -1.204   7.450  -8.532  1.00  0.00     0.000 G0
ENDBRANCH  15  16
ENDBRANCH   1  15
TORSDOF 0
ENDMDL
MODEL 2
REMARK VINA RESULT:    25.253      9.561     11.081
REMARK INTER + INTRA:          32.199
REMARK INTER:                  31.195
REMARK INTRA:                   1.004
REMARK UNBOUND:                 1.040
REMARK SMILES C=C1[C@@H]2CC[C@H]3[C@@H]2C(C)(C)CCC[C@@]13C
REMARK SMILES IDX 14 1 6 2 7 3 3 4 2 5 1 6 4 7 5 8 15 9 8 10 9 11 10 12 11 13
REMARK SMILES IDX 13 15 12 16
REMARK H PARENT
REMARK Flexibility Score: 80.00
ROOT
ATOM      1  C   UNL     1      11.618   8.109  -8.658  1.00  0.00    -0.008 C 
ATOM      2  C   UNL     1      11.231   6.979  -7.627  1.00  0.00     0.003 C 
ATOM      3  C   UNL     1      10.322   7.688  -6.597  1.00  0.00     0.006 C 
ATOM      4  C   UNL     1      11.316   8.812  -6.333  1.00  0.00     0.019 C 
ATOM      5  C   UNL     1      11.608   9.297  -7.725  1.00  0.00    -0.068 C 
ATOM      6  C   UNL     1      11.913  10.562  -8.042  1.00  0.00     0.009 C 
ATOM      7  C   UNL     1      12.551   8.004  -5.875  1.00  0.00     0.008 C 
ATOM      8  C   UNL     1      12.440   6.693  -6.694  1.00  0.00     0.005 C 
ATOM      9  C   UNL     1      13.030   7.939  -9.283  1.00  0.00     0.016 C 
ENDROOT
BRANCH   3  10
ATOM     10  C   UNL     1       8.834   8.059  -6.958  1.00  0.00    -0.032 C 
ATOM     11  C   UNL     1       7.977   6.767  -6.887  1.00  0.00     0.011 C 
ATOM     12  C   UNL     1       8.280   9.018  -5.875  1.00  0.00     0.011 C 
BRANCH  10  13
ATOM     13  C   UNL     1       8.627   8.755  -8.332  1.00  0.00     0.007 CG0
ATOM     14  G   UNL     1       9.155   7.963  -9.530  1.00  0.00     0.000 G0
ENDBRANCH  10  13
ENDBRANCH   3  10
BRANCH   1  15
ATOM     15  C   UNL     1      10.612   8.254  -9.838  1.00  0.00     0.011 C 
BRANCH  15  16
ATOM     16  C   UNL     1       9.143   7.971  -9.537  1.00  0.00     0.001 CG0
ATOM     17  G   UNL     1       8.613   8.767  -8.342  1.00  0.00     0.000 G0
ENDBRANCH  15  16
ENDBRANCH   1  15
TORSDOF 0
ENDMDL
MODEL 3
REMARK VINA RESULT:    25.436      1.261      3.199
REMARK INTER + INTRA:          32.424
REMARK INTER:                  31.390
REMARK INTRA:                   1.034
REMARK UNBOUND:                 1.040
REMARK SMILES C=C1[C@@H]2CC[C@H]3[C@@H]2C(C)(C)CCC[C@@]13C
REMARK SMILES IDX 14 1 6 2 7 3 3 4 2 5 1 6 4 7 5 8 15 9 8 10 9 11 10 12 11 13
REMARK SMILES IDX 13 15 12 16
REMARK H PARENT
REMARK Flexibility Score: 80.00
ROOT
ATOM      1  C   UNL     1       1.508   5.544  -9.334  1.00  0.00    -0.008 C 
ATOM      2  C   UNL     1       0.807   6.813  -9.953  1.00  0.00     0.003 C 
ATOM      3  C   UNL     1      -0.687   6.648  -9.593  1.00  0.00     0.006 C 
ATOM      4  C   UNL     1      -0.777   5.235 -10.155  1.00  0.00     0.019 C 
ATOM      5  C   UNL     1       0.372   4.556  -9.466  1.00  0.00    -0.068 C 
ATOM      6  C   UNL     1       0.401   3.259  -9.132  1.00  0.00     0.009 C 
ATOM      7  C   UNL     1      -0.338   5.477 -11.617  1.00  0.00     0.008 C 
ATOM      8  C   UNL     1       0.682   6.637 -11.492  1.00  0.00     0.005 C 
ATOM      9  C   UNL     1       2.739   5.045 -10.139  1.00  0.00     0.016 C 
ENDROOT
BRANCH   3  10
ATOM     10  C   UNL     1      -1.194   6.914  -8.125  1.00  0.00    -0.032 C 
ATOM     11  C   UNL     1      -1.246   8.448  -7.896  1.00  0.00     0.011 C 
ATOM     12  C   UNL     1      -2.649   6.398  -7.996  1.00  0.00     0.011 C 
BRANCH  10  13
ATOM     13  C   UNL     1      -0.370   6.240  -6.993  1.00  0.00     0.007 CG0
ATOM     14  G   UNL     1       1.111   6.625  -6.971  1.00  0.00     0.000 G0
ENDBRANCH  10  13
ENDBRANCH   3  10
BRANCH   1  15
ATOM     15  C   UNL     1       1.976   5.740  -7.861  1.00  0.00     0.011 C 
BRANCH  15  16
ATOM     16  C   UNL     1       1.109   6.625  -6.970  1.00  0.00     0.001 CG0
ATOM     17  G   UNL     1      -0.371   6.234  -6.996  1.00  0.00     0.000 G0
ENDBRANCH  15  16
ENDBRANCH   1  15
TORSDOF 0
ENDMDL
