MODEL 1
REMARK VINA RESULT:    -2.301      0.000      0.000
REMARK INTER + INTRA:          -2.301
REMARK INTER:                  -2.301
REMARK INTRA:                   0.000
REMARK UNBOUND:                 0.000
REMARK SMILES CC(=O)[O-]
REMARK SMILES IDX 1 1 2 2 3 3 4 4
REMARK H PARENT
REMARK Flexibility Score: inf
ROOT
ATOM      1  C   UNL     1     -29.290 -19.463 -26.240  1.00  0.00     0.063 C 
ATOM      2  C   UNL     1     -28.278 -19.928 -27.231  1.00  0.00     0.038 C 
ATOM      3  O   UNL     1     -27.134 -20.287 -26.844  1.00  0.00    -0.550 OA
ATOM      4  O   UNL     1     -28.609 -20.018 -28.576  1.00  0.00    -0.550 OA
ENDROOT
TORSDOF 0
ENDMDL
MODEL 2
REMARK VINA RESULT:    -2.272      0.230      1.626
REMARK INTER + INTRA:          -2.272
REMARK INTER:                  -2.272
REMARK INTRA:                   0.000
REMARK UNBOUND:                 0.000
REMARK SMILES CC(=O)[O-]
REMARK SMILES IDX 1 1 2 2 3 3 4 4
REMARK H PARENT
REMARK Flexibility Score: inf
ROOT
ATOM      1  C   UNL     1     -29.296 -19.386 -26.029  1.00  0.00     0.063 C 
ATOM      2  C   UNL     1     -28.405 -19.878 -27.119  1.00  0.00     0.038 C 
ATOM      3  O   UNL     1     -28.805 -19.870 -28.313  1.00  0.00    -0.550 OA
ATOM      4  O   UNL     1     -27.113 -20.294 -26.828  1.00  0.00    -0.550 OA
ENDROOT
TORSDOF 0
ENDMDL
MODEL 3
REMARK VINA RESULT:    -2.220      1.264      1.656
REMARK INTER + INTRA:          -2.220
REMARK INTER:                  -2.220
REMARK INTRA:                   0.000
REMARK UNBOUND:                 0.000
REMARK SMILES CC(=O)[O-]
REMARK SMILES IDX 1 1 2 2 3 3 4 4
REMARK H PARENT
REMARK Flexibility Score: inf
ROOT
ATOM      1  C   UNL     1     -29.463 -19.730 -26.375  1.00  0.00     0.063 C 
ATOM      2  C   UNL     1     -28.002 -19.756 -26.080  1.00  0.00     0.038 C 
ATOM      3  O   UNL     1     -27.572 -19.316 -24.981  1.00  0.00    -0.550 OA
ATOM      4  O   UNL     1     -27.117 -20.315 -26.992  1.00  0.00    -0.550 OA
ENDROOT
TORSDOF 0
ENDMDL
MODEL 4
REMARK VINA RESULT:    -2.182      1.282      2.333
REMARK INTER + INTRA:          -2.182
REMARK INTER:                  -2.182
REMARK INTRA:                   0.000
REMARK UNBOUND:                 0.000
REMARK SMILES CC(=O)[O-]
REMARK SMILES IDX 1 1 2 2 3 3 4 4
REMARK H PARENT
REMARK Flexibility Score: inf
ROOT
ATOM      1  C   UNL     1     -28.133 -20.502 -29.134  1.00  0.00     0.063 C 
ATOM      2  C   UNL     1     -28.255 -20.022 -27.728  1.00  0.00     0.038 C 
ATOM      3  O   UNL     1     -29.316 -19.465 -27.340  1.00  0.00    -0.550 OA
ATOM      4  O   UNL     1     -27.220 -20.236 -26.827  1.00  0.00    -0.550 OA
ENDROOT
TORSDOF 0
ENDMDL
MODEL 5
REMARK VINA RESULT:    -2.030     17.643     18.183
REMARK INTER + INTRA:          -2.030
REMARK INTER:                  -2.030
REMARK INTRA:                   0.000
REMARK UNBOUND:                 0.000
REMARK SMILES CC(=O)[O-]
REMARK SMILES IDX 1 1 2 2 3 3 4 4
REMARK H PARENT
REMARK Flexibility Score: inf
ROOT
ATOM      1  C   UNL     1     -20.390 -22.101 -11.054  1.00  0.00     0.063 C 
ATOM      2  C   UNL     1     -20.235 -20.620 -10.979  1.00  0.00     0.038 C 
ATOM      3  O   UNL     1     -19.496 -20.107 -10.099  1.00  0.00    -0.550 OA
ATOM      4  O   UNL     1     -20.863 -19.806 -11.912  1.00  0.00    -0.550 OA
ENDROOT
TORSDOF 0
ENDMDL
MODEL 6
REMARK VINA RESULT:    -1.969      2.670      3.259
REMARK INTER + INTRA:          -1.969
REMARK INTER:                  -1.969
REMARK INTRA:                   0.000
REMARK UNBOUND:                 0.000
REMARK SMILES CC(=O)[O-]
REMARK SMILES IDX 1 1 2 2 3 3 4 4
REMARK H PARENT
REMARK Flexibility Score: inf
ROOT
ATOM      1  C   UNL     1     -25.710 -22.415 -28.583  1.00  0.00     0.063 C 
ATOM      2  C   UNL     1     -26.806 -21.405 -28.527  1.00  0.00     0.038 C 
ATOM      3  O   UNL     1     -27.990 -21.770 -28.300  1.00  0.00    -0.550 OA
ATOM      4  O   UNL     1     -26.517 -20.055 -28.670  1.00  0.00    -0.550 OA
ENDROOT
TORSDOF 0
ENDMDL
MODEL 7
REMARK VINA RESULT:    -1.959     13.476     13.892
REMARK INTER + INTRA:          -1.959
REMARK INTER:                  -1.959
REMARK INTRA:                   0.000
REMARK UNBOUND:                 0.000
REMARK SMILES CC(=O)[O-]
REMARK SMILES IDX 1 1 2 2 3 3 4 4
REMARK H PARENT
REMARK Flexibility Score: inf
ROOT
ATOM      1  C   UNL     1     -22.643 -29.683 -20.779  1.00  0.00     0.063 C 
ATOM      2  C   UNL     1     -22.942 -31.120 -21.044  1.00  0.00     0.038 C 
ATOM      3  O   UNL     1     -23.457 -31.834 -20.144  1.00  0.00    -0.550 OA
ATOM      4  O   UNL     1     -22.704 -31.660 -22.301  1.00  0.00    -0.550 OA
ENDROOT
TORSDOF 0
ENDMDL
MODEL 8
REMARK VINA RESULT:    -1.948     13.331     13.826
REMARK INTER + INTRA:          -1.948
REMARK INTER:                  -1.948
REMARK INTRA:                   0.000
REMARK UNBOUND:                 0.000
REMARK SMILES CC(=O)[O-]
REMARK SMILES IDX 1 1 2 2 3 3 4 4
REMARK H PARENT
REMARK Flexibility Score: inf
ROOT
ATOM      1  C   UNL     1     -22.659 -29.518 -20.791  1.00  0.00     0.063 C 
ATOM      2  C   UNL     1     -22.912 -30.953 -21.111  1.00  0.00     0.038 C 
ATOM      3  O   UNL     1     -22.611 -31.410 -22.245  1.00  0.00    -0.550 OA
ATOM      4  O   UNL     1     -23.430 -31.802 -20.142  1.00  0.00    -0.550 OA
ENDROOT
TORSDOF 0
ENDMDL
MODEL 9
REMARK VINA RESULT:    -1.799     18.712     19.233
REMARK INTER + INTRA:          -1.799
REMARK INTER:                  -1.799
REMARK INTRA:                   0.000
REMARK UNBOUND:                 0.000
REMARK SMILES CC(=O)[O-]
REMARK SMILES IDX 1 1 2 2 3 3 4 4
REMARK H PARENT
REMARK Flexibility Score: inf
ROOT
ATOM      1  C   UNL     1     -25.741 -32.125 -12.878  1.00  0.00     0.063 C 
ATOM      2  C   UNL     1     -27.125 -31.849 -12.398  1.00  0.00     0.038 C 
ATOM      3  O   UNL     1     -28.033 -31.559 -13.221  1.00  0.00    -0.550 OA
ATOM      4  O   UNL     1     -27.430 -31.963 -11.048  1.00  0.00    -0.550 OA
ENDROOT
TORSDOF 0
ENDMDL
