MODEL 1
REMARK VINA RESULT:    -3.443      0.000      0.000
REMARK INTER + INTRA:          -3.443
REMARK INTER:                  -3.443
REMARK INTRA:                   0.000
REMARK UNBOUND:                 0.000
REMARK SMILES CC(C)=C1CC[C@H](C)CC1=O
REMARK SMILES IDX 8 1 7 2 6 3 5 4 4 5 2 6 1 7 3 8 10 9 11 10 9 11
REMARK H PARENT
REMARK Flexibility Score: inf
ROOT
ATOM      1  C   UNL     1      27.824  43.832  25.371  1.00  0.00     0.008 C 
ATOM      2  C   UNL     1      28.263  43.357  23.982  1.00  0.00    -0.006 C 
ATOM      3  C   UNL     1      28.373  41.824  23.944  1.00  0.00     0.008 C 
ATOM      4  C   UNL     1      28.908  41.336  22.592  1.00  0.00     0.039 C 
ATOM      5  C   UNL     1      28.119  41.895  21.416  1.00  0.00    -0.006 C 
ATOM      6  C   UNL     1      27.962  41.179  20.263  1.00  0.00    -0.070 C 
ATOM      7  C   UNL     1      28.580  39.809  20.100  1.00  0.00     0.039 C 
ATOM      8  C   UNL     1      27.135  41.699  19.110  1.00  0.00     0.039 C 
ATOM      9  C   UNL     1      27.638  43.301  21.558  1.00  0.00     0.159 C 
ATOM     10  O   UNL     1      27.533  44.061  20.558  1.00  0.00    -0.295 OA
ATOM     11  C   UNL     1      27.272  43.838  22.911  1.00  0.00     0.084 C 
ENDROOT
TORSDOF 0
ENDMDL
MODEL 2
REMARK VINA RESULT:    -3.435      2.450      3.252
REMARK INTER + INTRA:          -3.435
REMARK INTER:                  -3.435
REMARK INTRA:                   0.000
REMARK UNBOUND:                 0.000
REMARK SMILES CC(C)=C1CC[C@H](C)CC1=O
REMARK SMILES IDX 8 1 7 2 6 3 5 4 4 5 2 6 1 7 3 8 10 9 11 10 9 11
REMARK H PARENT
REMARK Flexibility Score: inf
ROOT
ATOM      1  C   UNL     1      27.837  44.122  21.538  1.00  0.00     0.008 C 
ATOM      2  C   UNL     1      27.680  42.818  20.750  1.00  0.00    -0.006 C 
ATOM      3  C   UNL     1      29.016  42.060  20.686  1.00  0.00     0.008 C 
ATOM      4  C   UNL     1      28.903  40.802  19.815  1.00  0.00     0.039 C 
ATOM      5  C   UNL     1      27.742  39.908  20.229  1.00  0.00    -0.006 C 
ATOM      6  C   UNL     1      27.806  38.551  20.087  1.00  0.00    -0.070 C 
ATOM      7  C   UNL     1      29.026  37.882  19.495  1.00  0.00     0.039 C 
ATOM      8  C   UNL     1      26.685  37.648  20.545  1.00  0.00     0.039 C 
ATOM      9  C   UNL     1      26.504  40.608  20.683  1.00  0.00     0.159 C 
ATOM     10  O   UNL     1      25.362  40.115  20.482  1.00  0.00    -0.295 OA
ATOM     11  C   UNL     1      26.602  41.929  21.390  1.00  0.00     0.084 C 
ENDROOT
TORSDOF 0
ENDMDL
MODEL 3
REMARK VINA RESULT:    -3.388      1.386      1.954
REMARK INTER + INTRA:          -3.388
REMARK INTER:                  -3.388
REMARK INTRA:                   0.000
REMARK UNBOUND:                 0.000
REMARK SMILES CC(C)=C1CC[C@H](C)CC1=O
REMARK SMILES IDX 8 1 7 2 6 3 5 4 4 5 2 6 1 7 3 8 10 9 11 10 9 11
REMARK H PARENT
REMARK Flexibility Score: inf
ROOT
ATOM      1  C   UNL     1      27.347  43.611  23.437  1.00  0.00     0.008 C 
ATOM      2  C   UNL     1      27.871  42.838  22.221  1.00  0.00    -0.006 C 
ATOM      3  C   UNL     1      28.427  41.470  22.648  1.00  0.00     0.008 C 
ATOM      4  C   UNL     1      29.048  40.724  21.460  1.00  0.00     0.039 C 
ATOM      5  C   UNL     1      28.099  40.626  20.273  1.00  0.00    -0.006 C 
ATOM      6  C   UNL     1      28.130  39.554  19.427  1.00  0.00    -0.070 C 
ATOM      7  C   UNL     1      29.120  38.428  19.624  1.00  0.00     0.039 C 
ATOM      8  C   UNL     1      27.158  39.417  18.278  1.00  0.00     0.039 C 
ATOM      9  C   UNL     1      27.229  41.814  20.028  1.00  0.00     0.159 C 
ATOM     10  O   UNL     1      26.879  42.141  18.862  1.00  0.00    -0.295 OA
ATOM     11  C   UNL     1      26.755  42.650  21.182  1.00  0.00     0.084 C 
ENDROOT
TORSDOF 0
ENDMDL
MODEL 4
REMARK VINA RESULT:    -3.369     14.967     16.217
REMARK INTER + INTRA:          -3.369
REMARK INTER:                  -3.369
REMARK INTRA:                   0.000
REMARK UNBOUND:                 0.000
REMARK SMILES CC(C)=C1CC[C@H](C)CC1=O
REMARK SMILES IDX 8 1 7 2 6 3 5 4 4 5 2 6 1 7 3 8 10 9 11 10 9 11
REMARK H PARENT
REMARK Flexibility Score: inf
ROOT
ATOM      1  C   UNL     1      29.124  30.625  26.124  1.00  0.00     0.008 C 
ATOM      2  C   UNL     1      28.982  29.160  26.550  1.00  0.00    -0.006 C 
ATOM      3  C   UNL     1      28.712  29.059  28.060  1.00  0.00     0.008 C 
ATOM      4  C   UNL     1      28.668  27.597  28.523  1.00  0.00     0.039 C 
ATOM      5  C   UNL     1      27.706  26.753  27.698  1.00  0.00    -0.006 C 
ATOM      6  C   UNL     1      27.033  25.701  28.250  1.00  0.00    -0.070 C 
ATOM      7  C   UNL     1      27.228  25.319  29.700  1.00  0.00     0.039 C 
ATOM      8  C   UNL     1      26.033  24.890  27.458  1.00  0.00     0.039 C 
ATOM      9  C   UNL     1      27.637  27.071  26.241  1.00  0.00     0.159 C 
ATOM     10  O   UNL     1      27.407  26.175  25.385  1.00  0.00    -0.295 OA
ATOM     11  C   UNL     1      27.849  28.480  25.767  1.00  0.00     0.084 C 
ENDROOT
TORSDOF 0
ENDMDL
MODEL 5
REMARK VINA RESULT:    -3.297     15.266     16.546
REMARK INTER + INTRA:          -3.297
REMARK INTER:                  -3.297
REMARK INTRA:                   0.000
REMARK UNBOUND:                 0.000
REMARK SMILES CC(C)=C1CC[C@H](C)CC1=O
REMARK SMILES IDX 8 1 7 2 6 3 5 4 4 5 2 6 1 7 3 8 10 9 11 10 9 11
REMARK H PARENT
REMARK Flexibility Score: inf
ROOT
ATOM      1  C   UNL     1      29.123  30.217  26.494  1.00  0.00     0.008 C 
ATOM      2  C   UNL     1      28.137  29.054  26.653  1.00  0.00    -0.006 C 
ATOM      3  C   UNL     1      28.654  27.804  25.922  1.00  0.00     0.008 C 
ATOM      4  C   UNL     1      27.634  26.660  25.983  1.00  0.00     0.039 C 
ATOM      5  C   UNL     1      27.179  26.360  27.405  1.00  0.00    -0.006 C 
ATOM      6  C   UNL     1      26.833  25.095  27.787  1.00  0.00    -0.070 C 
ATOM      7  C   UNL     1      26.870  23.943  26.809  1.00  0.00     0.039 C 
ATOM      8  C   UNL     1      26.433  24.774  29.209  1.00  0.00     0.039 C 
ATOM      9  C   UNL     1      27.024  27.540  28.307  1.00  0.00     0.159 C 
ATOM     10  O   UNL     1      26.151  27.559  29.216  1.00  0.00    -0.295 OA
ATOM     11  C   UNL     1      27.913  28.738  28.139  1.00  0.00     0.084 C 
ENDROOT
TORSDOF 0
ENDMDL
MODEL 6
REMARK VINA RESULT:    -3.235      1.273      4.321
REMARK INTER + INTRA:          -3.235
REMARK INTER:                  -3.235
REMARK INTRA:                   0.000
REMARK UNBOUND:                 0.000
REMARK SMILES CC(C)=C1CC[C@H](C)CC1=O
REMARK SMILES IDX 8 1 7 2 6 3 5 4 4 5 2 6 1 7 3 8 10 9 11 10 9 11
REMARK H PARENT
REMARK Flexibility Score: inf
ROOT
ATOM      1  C   UNL     1      27.777  39.264  17.880  1.00  0.00     0.008 C 
ATOM      2  C   UNL     1      27.362  39.970  19.175  1.00  0.00    -0.006 C 
ATOM      3  C   UNL     1      28.376  39.686  20.295  1.00  0.00     0.008 C 
ATOM      4  C   UNL     1      27.925  40.301  21.626  1.00  0.00     0.039 C 
ATOM      5  C   UNL     1      27.591  41.782  21.501  1.00  0.00    -0.006 C 
ATOM      6  C   UNL     1      27.792  42.645  22.540  1.00  0.00    -0.070 C 
ATOM      7  C   UNL     1      28.338  42.163  23.865  1.00  0.00     0.039 C 
ATOM      8  C   UNL     1      27.518  44.125  22.411  1.00  0.00     0.039 C 
ATOM      9  C   UNL     1      26.929  42.200  20.229  1.00  0.00     0.159 C 
ATOM     10  O   UNL     1      26.099  43.147  20.204  1.00  0.00    -0.295 OA
ATOM     11  C   UNL     1      27.243  41.485  18.947  1.00  0.00     0.084 C 
ENDROOT
TORSDOF 0
ENDMDL
MODEL 7
REMARK VINA RESULT:    -3.118     15.849     16.846
REMARK INTER + INTRA:          -3.118
REMARK INTER:                  -3.118
REMARK INTRA:                   0.000
REMARK UNBOUND:                 0.000
REMARK SMILES CC(C)=C1CC[C@H](C)CC1=O
REMARK SMILES IDX 8 1 7 2 6 3 5 4 4 5 2 6 1 7 3 8 10 9 11 10 9 11
REMARK H PARENT
REMARK Flexibility Score: inf
ROOT
ATOM      1  C   UNL     1      25.358  29.133  30.241  1.00  0.00     0.008 C 
ATOM      2  C   UNL     1      26.026  27.917  29.591  1.00  0.00    -0.006 C 
ATOM      3  C   UNL     1      25.032  27.174  28.684  1.00  0.00     0.008 C 
ATOM      4  C   UNL     1      25.653  25.896  28.105  1.00  0.00     0.039 C 
ATOM      5  C   UNL     1      26.989  26.154  27.422  1.00  0.00    -0.006 C 
ATOM      6  C   UNL     1      27.394  25.409  26.351  1.00  0.00    -0.070 C 
ATOM      7  C   UNL     1      26.540  24.284  25.811  1.00  0.00     0.039 C 
ATOM      8  C   UNL     1      28.691  25.691  25.629  1.00  0.00     0.039 C 
ATOM      9  C   UNL     1      27.866  27.179  28.061  1.00  0.00     0.159 C 
ATOM     10  O   UNL     1      29.122  27.086  28.018  1.00  0.00    -0.295 OA
ATOM     11  C   UNL     1      27.256  28.349  28.780  1.00  0.00     0.084 C 
ENDROOT
TORSDOF 0
ENDMDL
MODEL 8
REMARK VINA RESULT:    -3.116      1.577      2.483
REMARK INTER + INTRA:          -3.116
REMARK INTER:                  -3.116
REMARK INTRA:                   0.000
REMARK UNBOUND:                 0.000
REMARK SMILES CC(C)=C1CC[C@H](C)CC1=O
REMARK SMILES IDX 8 1 7 2 6 3 5 4 4 5 2 6 1 7 3 8 10 9 11 10 9 11
REMARK H PARENT
REMARK Flexibility Score: inf
ROOT
ATOM      1  C   UNL     1      28.053  43.298  25.195  1.00  0.00     0.008 C 
ATOM      2  C   UNL     1      27.407  42.965  23.846  1.00  0.00    -0.006 C 
ATOM      3  C   UNL     1      27.597  44.125  22.854  1.00  0.00     0.008 C 
ATOM      4  C   UNL     1      26.869  43.853  21.532  1.00  0.00     0.039 C 
ATOM      5  C   UNL     1      27.237  42.503  20.930  1.00  0.00    -0.006 C 
ATOM      6  C   UNL     1      27.261  42.312  19.578  1.00  0.00    -0.070 C 
ATOM      7  C   UNL     1      26.906  43.428  18.622  1.00  0.00     0.039 C 
ATOM      8  C   UNL     1      27.678  40.994  18.968  1.00  0.00     0.039 C 
ATOM      9  C   UNL     1      27.450  41.389  21.901  1.00  0.00     0.159 C 
ATOM     10  O   UNL     1      27.168  40.198  21.602  1.00  0.00    -0.295 OA
ATOM     11  C   UNL     1      28.006  41.676  23.266  1.00  0.00     0.084 C 
ENDROOT
TORSDOF 0
ENDMDL
MODEL 9
REMARK VINA RESULT:    -3.112     15.873     16.997
REMARK INTER + INTRA:          -3.112
REMARK INTER:                  -3.112
REMARK INTRA:                   0.000
REMARK UNBOUND:                 0.000
REMARK SMILES CC(C)=C1CC[C@H](C)CC1=O
REMARK SMILES IDX 8 1 7 2 6 3 5 4 4 5 2 6 1 7 3 8 10 9 11 10 9 11
REMARK H PARENT
REMARK Flexibility Score: inf
ROOT
ATOM      1  C   UNL     1      25.745  29.065  30.249  1.00  0.00     0.008 C 
ATOM      2  C   UNL     1      25.985  28.247  28.975  1.00  0.00    -0.006 C 
ATOM      3  C   UNL     1      27.403  28.491  28.434  1.00  0.00     0.008 C 
ATOM      4  C   UNL     1      27.626  27.761  27.104  1.00  0.00     0.039 C 
ATOM      5  C   UNL     1      27.278  26.281  27.185  1.00  0.00    -0.006 C 
ATOM      6  C   UNL     1      27.943  25.353  26.436  1.00  0.00    -0.070 C 
ATOM      7  C   UNL     1      29.043  25.759  25.481  1.00  0.00     0.039 C 
ATOM      8  C   UNL     1      27.646  23.876  26.549  1.00  0.00     0.039 C 
ATOM      9  C   UNL     1      26.101  25.930  28.034  1.00  0.00     0.159 C 
ATOM     10  O   UNL     1      25.358  24.952  27.752  1.00  0.00    -0.295 OA
ATOM     11  C   UNL     1      25.778  26.750  29.250  1.00  0.00     0.084 C 
ENDROOT
TORSDOF 0
ENDMDL
