MODEL 1
REMARK VINA RESULT:    -2.714      0.000      0.000
REMARK INTER + INTRA:          -7.284
REMARK INTER:                  -4.776
REMARK INTRA:                  -2.508
REMARK UNBOUND:                -2.508
REMARK SMILES CCCCCCC=CCCCCCCCC(=O)[O-]
REMARK SMILES IDX 10 1 11 2 12 3 13 4 14 5 15 6 16 7 17 8 18 9 9 10 8 11 7 12
REMARK SMILES IDX 6 13 5 14 4 15 3 16 2 17 1 18
REMARK H PARENT
REMARK Flexibility Score: inf
ROOT
ATOM      1  C   UNL     1     128.374 -33.740  82.501  1.00  0.00     0.004 C 
ENDROOT
BRANCH   1   2
ATOM      2  C   UNL     1     127.288 -34.308  83.427  1.00  0.00     0.000 C 
BRANCH   2   3
ATOM      3  C   UNL     1     127.881 -35.322  84.412  1.00  0.00     0.000 C 
BRANCH   3   4
ATOM      4  C   UNL     1     127.463 -36.754  84.044  1.00  0.00     0.000 C 
BRANCH   4   5
ATOM      5  C   UNL     1     125.936 -36.953  84.062  1.00  0.00     0.006 C 
BRANCH   5   6
ATOM      6  C   UNL     1     125.491 -38.421  84.159  1.00  0.00     0.053 C 
BRANCH   6   7
ATOM      7  C   UNL     1     125.198 -39.009  82.812  1.00  0.00     0.041 C 
ATOM      8  O   UNL     1     124.018 -39.039  82.376  1.00  0.00    -0.550 OA
ATOM      9  O   UNL     1     126.226 -39.555  82.052  1.00  0.00    -0.550 OA
ENDBRANCH   6   7
ENDBRANCH   5   6
ENDBRANCH   4   5
ENDBRANCH   3   4
ENDBRANCH   2   3
ENDBRANCH   1   2
BRANCH   1  10
ATOM     10  C   UNL     1     127.827 -32.644  81.577  1.00  0.00     0.027 C 
BRANCH  10  11
ATOM     11  C   UNL     1     126.439 -32.216  81.994  1.00  0.00    -0.031 C 
ATOM     12  C   UNL     1     125.328 -32.359  81.246  1.00  0.00    -0.031 C 
BRANCH  12  13
ATOM     13  C   UNL     1     125.284 -33.012  79.886  1.00  0.00     0.027 C 
BRANCH  13  14
ATOM     14  C   UNL     1     124.388 -34.267  79.861  1.00  0.00     0.004 C 
BRANCH  14  15
ATOM     15  C   UNL     1     124.834 -35.370  80.837  1.00  0.00     0.000 C 
BRANCH  15  16
ATOM     16  C   UNL     1     125.570 -36.524  80.137  1.00  0.00    -0.000 C 
BRANCH  16  17
ATOM     17  C   UNL     1     127.084 -36.504  80.403  1.00  0.00    -0.003 C 
ATOM     18  C   UNL     1     127.856 -35.684  79.370  1.00  0.00     0.004 C 
ENDBRANCH  16  17
ENDBRANCH  15  16
ENDBRANCH  14  15
ENDBRANCH  13  14
ENDBRANCH  12  13
ENDBRANCH  10  11
ENDBRANCH   1  10
TORSDOF 13
ENDMDL
MODEL 2
REMARK VINA RESULT:    -2.658      1.023      2.051
REMARK INTER + INTRA:          -7.186
REMARK INTER:                  -4.622
REMARK INTRA:                  -2.564
REMARK UNBOUND:                -2.508
REMARK SMILES CCCCCCC=CCCCCCCCC(=O)[O-]
REMARK SMILES IDX 10 1 11 2 12 3 13 4 14 5 15 6 16 7 17 8 18 9 9 10 8 11 7 12
REMARK SMILES IDX 6 13 5 14 4 15 3 16 2 17 1 18
REMARK H PARENT
REMARK Flexibility Score: inf
ROOT
ATOM      1  C   UNL     1     129.196 -35.541  82.439  1.00  0.00     0.004 C 
ENDROOT
BRANCH   1   2
ATOM      2  C   UNL     1     128.686 -36.320  83.660  1.00  0.00     0.000 C 
BRANCH   2   3
ATOM      3  C   UNL     1     127.663 -35.496  84.451  1.00  0.00     0.000 C 
BRANCH   3   4
ATOM      4  C   UNL     1     126.228 -35.914  84.095  1.00  0.00     0.000 C 
BRANCH   4   5
ATOM      5  C   UNL     1     126.008 -37.434  84.194  1.00  0.00     0.006 C 
BRANCH   5   6
ATOM      6  C   UNL     1     125.052 -38.005  83.134  1.00  0.00     0.053 C 
BRANCH   6   7
ATOM      7  C   UNL     1     125.729 -39.006  82.247  1.00  0.00     0.041 C 
ATOM      8  O   UNL     1     126.968 -38.931  82.040  1.00  0.00    -0.550 OA
ATOM      9  O   UNL     1     124.985 -40.000  81.624  1.00  0.00    -0.550 OA
ENDBRANCH   6   7
ENDBRANCH   5   6
ENDBRANCH   4   5
ENDBRANCH   3   4
ENDBRANCH   2   3
ENDBRANCH   1   2
BRANCH   1  10
ATOM     10  C   UNL     1     129.565 -34.094  82.792  1.00  0.00     0.027 C 
BRANCH  10  11
ATOM     11  C   UNL     1     129.306 -33.163  81.631  1.00  0.00    -0.031 C 
ATOM     12  C   UNL     1     128.138 -32.536  81.388  1.00  0.00    -0.031 C 
BRANCH  12  13
ATOM     13  C   UNL     1     126.913 -32.628  82.264  1.00  0.00     0.027 C 
BRANCH  13  14
ATOM     14  C   UNL     1     125.608 -32.375  81.484  1.00  0.00     0.004 C 
BRANCH  14  15
ATOM     15  C   UNL     1     125.378 -33.355  80.320  1.00  0.00     0.000 C 
BRANCH  15  16
ATOM     16  C   UNL     1     125.103 -34.792  80.793  1.00  0.00    -0.000 C 
BRANCH  16  17
ATOM     17  C   UNL     1     126.217 -35.769  80.386  1.00  0.00    -0.003 C 
ATOM     18  C   UNL     1     127.046 -35.264  79.204  1.00  0.00     0.004 C 
ENDBRANCH  16  17
ENDBRANCH  15  16
ENDBRANCH  14  15
ENDBRANCH  13  14
ENDBRANCH  12  13
ENDBRANCH  10  11
ENDBRANCH   1  10
TORSDOF 13
ENDMDL
MODEL 3
REMARK VINA RESULT:    -2.549     20.890     23.257
REMARK INTER + INTRA:          -6.993
REMARK INTER:                  -4.226
REMARK INTRA:                  -2.767
REMARK UNBOUND:                -2.508
REMARK SMILES CCCCCCC=CCCCCCCCC(=O)[O-]
REMARK SMILES IDX 10 1 11 2 12 3 13 4 14 5 15 6 16 7 17 8 18 9 9 10 8 11 7 12
REMARK SMILES IDX 6 13 5 14 4 15 3 16 2 17 1 18
REMARK H PARENT
REMARK Flexibility Score: inf
ROOT
ATOM      1  C   UNL     1     142.240 -46.824  69.020  1.00  0.00     0.004 C 
ENDROOT
BRANCH   1   2
ATOM      2  C   UNL     1     141.859 -48.187  69.614  1.00  0.00     0.000 C 
BRANCH   2   3
ATOM      3  C   UNL     1     141.588 -49.213  68.507  1.00  0.00     0.000 C 
BRANCH   3   4
ATOM      4  C   UNL     1     140.466 -50.180  68.918  1.00  0.00     0.000 C 
BRANCH   4   5
ATOM      5  C   UNL     1     139.975 -51.055  67.750  1.00  0.00     0.006 C 
BRANCH   5   6
ATOM      6  C   UNL     1     138.868 -52.053  68.129  1.00  0.00     0.053 C 
BRANCH   6   7
ATOM      7  C   UNL     1     137.508 -51.553  67.748  1.00  0.00     0.041 C 
ATOM      8  O   UNL     1     136.950 -50.654  68.430  1.00  0.00    -0.550 OA
ATOM      9  O   UNL     1     136.843 -52.103  66.659  1.00  0.00    -0.550 OA
ENDBRANCH   6   7
ENDBRANCH   5   6
ENDBRANCH   4   5
ENDBRANCH   3   4
ENDBRANCH   2   3
ENDBRANCH   1   2
BRANCH   1  10
ATOM     10  C   UNL     1     142.183 -46.827  67.486  1.00  0.00     0.027 C 
BRANCH  10  11
ATOM     11  C   UNL     1     141.222 -45.781  66.970  1.00  0.00    -0.031 C 
ATOM     12  C   UNL     1     140.148 -46.031  66.197  1.00  0.00    -0.031 C 
BRANCH  12  13
ATOM     13  C   UNL     1     139.705 -47.406  65.758  1.00  0.00     0.027 C 
BRANCH  13  14
ATOM     14  C   UNL     1     138.542 -47.952  66.609  1.00  0.00     0.004 C 
BRANCH  14  15
ATOM     15  C   UNL     1     137.957 -46.926  67.597  1.00  0.00     0.000 C 
BRANCH  15  16
ATOM     16  C   UNL     1     138.123 -47.349  69.065  1.00  0.00    -0.000 C 
BRANCH  16  17
ATOM     17  C   UNL     1     138.708 -46.227  69.938  1.00  0.00    -0.003 C 
ATOM     18  C   UNL     1     138.485 -44.836  69.343  1.00  0.00     0.004 C 
ENDBRANCH  16  17
ENDBRANCH  15  16
ENDBRANCH  14  15
ENDBRANCH  13  14
ENDBRANCH  12  13
ENDBRANCH  10  11
ENDBRANCH   1  10
TORSDOF 13
ENDMDL
MODEL 4
REMARK VINA RESULT:    -2.528     21.611     23.807
REMARK INTER + INTRA:          -6.957
REMARK INTER:                  -4.562
REMARK INTRA:                  -2.395
REMARK UNBOUND:                -2.508
REMARK SMILES CCCCCCC=CCCCCCCCC(=O)[O-]
REMARK SMILES IDX 10 1 11 2 12 3 13 4 14 5 15 6 16 7 17 8 18 9 9 10 8 11 7 12
REMARK SMILES IDX 6 13 5 14 4 15 3 16 2 17 1 18
REMARK H PARENT
REMARK Flexibility Score: inf
ROOT
ATOM      1  C   UNL     1     139.000 -48.000  67.123  1.00  0.00     0.004 C 
ENDROOT
BRANCH   1   2
ATOM      2  C   UNL     1     140.175 -47.198  66.546  1.00  0.00     0.000 C 
BRANCH   2   3
ATOM      3  C   UNL     1     141.485 -47.549  67.262  1.00  0.00     0.000 C 
BRANCH   3   4
ATOM      4  C   UNL     1     141.514 -49.034  67.655  1.00  0.00     0.000 C 
BRANCH   4   5
ATOM      5  C   UNL     1     141.870 -49.253  69.136  1.00  0.00     0.006 C 
BRANCH   5   6
ATOM      6  C   UNL     1     141.948 -47.960  69.965  1.00  0.00     0.053 C 
BRANCH   6   7
ATOM      7  C   UNL     1     141.627 -48.199  71.409  1.00  0.00     0.041 C 
ATOM      8  O   UNL     1     140.733 -47.520  71.979  1.00  0.00    -0.550 OA
ATOM      9  O   UNL     1     142.337 -49.148  72.133  1.00  0.00    -0.550 OA
ENDBRANCH   6   7
ENDBRANCH   5   6
ENDBRANCH   4   5
ENDBRANCH   3   4
ENDBRANCH   2   3
ENDBRANCH   1   2
BRANCH   1  10
ATOM     10  C   UNL     1     138.194 -48.710  66.027  1.00  0.00     0.027 C 
BRANCH  10  11
ATOM     11  C   UNL     1     137.109 -49.579  66.620  1.00  0.00    -0.031 C 
ATOM     12  C   UNL     1     137.217 -50.901  66.853  1.00  0.00    -0.031 C 
BRANCH  12  13
ATOM     13  C   UNL     1     138.459 -51.720  66.600  1.00  0.00     0.027 C 
BRANCH  13  14
ATOM     14  C   UNL     1     139.293 -51.939  67.879  1.00  0.00     0.004 C 
BRANCH  14  15
ATOM     15  C   UNL     1     138.472 -51.865  69.178  1.00  0.00     0.000 C 
BRANCH  15  16
ATOM     16  C   UNL     1     139.298 -51.375  70.379  1.00  0.00    -0.000 C 
BRANCH  16  17
ATOM     17  C   UNL     1     138.565 -50.303  71.200  1.00  0.00    -0.003 C 
ATOM     18  C   UNL     1     138.021 -49.165  70.335  1.00  0.00     0.004 C 
ENDBRANCH  16  17
ENDBRANCH  15  16
ENDBRANCH  14  15
ENDBRANCH  13  14
ENDBRANCH  12  13
ENDBRANCH  10  11
ENDBRANCH   1  10
TORSDOF 13
ENDMDL
MODEL 5
REMARK VINA RESULT:    -2.505      1.628      3.317
REMARK INTER + INTRA:          -6.916
REMARK INTER:                  -4.523
REMARK INTRA:                  -2.393
REMARK UNBOUND:                -2.508
REMARK SMILES CCCCCCC=CCCCCCCCC(=O)[O-]
REMARK SMILES IDX 10 1 11 2 12 3 13 4 14 5 15 6 16 7 17 8 18 9 9 10 8 11 7 12
REMARK SMILES IDX 6 13 5 14 4 15 3 16 2 17 1 18
REMARK H PARENT
REMARK Flexibility Score: inf
ROOT
ATOM      1  C   UNL     1     125.786 -35.388  79.927  1.00  0.00     0.004 C 
ENDROOT
BRANCH   1   2
ATOM      2  C   UNL     1     124.363 -35.789  80.343  1.00  0.00     0.000 C 
BRANCH   2   3
ATOM      3  C   UNL     1     124.367 -36.499  81.702  1.00  0.00     0.000 C 
BRANCH   3   4
ATOM      4  C   UNL     1     125.797 -36.633  82.247  1.00  0.00     0.000 C 
BRANCH   4   5
ATOM      5  C   UNL     1     125.850 -36.659  83.786  1.00  0.00     0.006 C 
BRANCH   5   6
ATOM      6  C   UNL     1     125.848 -38.070  84.395  1.00  0.00     0.053 C 
BRANCH   6   7
ATOM      7  C   UNL     1     127.178 -38.746  84.250  1.00  0.00     0.041 C 
ATOM      8  O   UNL     1     127.353 -39.615  83.356  1.00  0.00    -0.550 OA
ATOM      9  O   UNL     1     128.214 -38.439  85.124  1.00  0.00    -0.550 OA
ENDBRANCH   6   7
ENDBRANCH   5   6
ENDBRANCH   4   5
ENDBRANCH   3   4
ENDBRANCH   2   3
ENDBRANCH   1   2
BRANCH   1  10
ATOM     10  C   UNL     1     125.867 -33.919  79.492  1.00  0.00     0.027 C 
BRANCH  10  11
ATOM     11  C   UNL     1     125.052 -33.031  80.404  1.00  0.00    -0.031 C 
ATOM     12  C   UNL     1     125.550 -32.302  81.422  1.00  0.00    -0.031 C 
BRANCH  12  13
ATOM     13  C   UNL     1     127.012 -32.220  81.786  1.00  0.00     0.027 C 
BRANCH  13  14
ATOM     14  C   UNL     1     127.453 -33.361  82.725  1.00  0.00     0.004 C 
BRANCH  14  15
ATOM     15  C   UNL     1     128.670 -34.153  82.213  1.00  0.00     0.000 C 
BRANCH  15  16
ATOM     16  C   UNL     1     129.207 -35.156  83.247  1.00  0.00    -0.000 C 
BRANCH  16  17
ATOM     17  C   UNL     1     129.677 -36.470  82.604  1.00  0.00    -0.003 C 
ATOM     18  C   UNL     1     129.269 -36.589  81.135  1.00  0.00     0.004 C 
ENDBRANCH  16  17
ENDBRANCH  15  16
ENDBRANCH  14  15
ENDBRANCH  13  14
ENDBRANCH  12  13
ENDBRANCH  10  11
ENDBRANCH   1  10
TORSDOF 13
ENDMDL
MODEL 6
REMARK VINA RESULT:    -2.483     21.554     23.765
REMARK INTER + INTRA:          -6.878
REMARK INTER:                  -4.387
REMARK INTRA:                  -2.491
REMARK UNBOUND:                -2.508
REMARK SMILES CCCCCCC=CCCCCCCCC(=O)[O-]
REMARK SMILES IDX 10 1 11 2 12 3 13 4 14 5 15 6 16 7 17 8 18 9 9 10 8 11 7 12
REMARK SMILES IDX 6 13 5 14 4 15 3 16 2 17 1 18
REMARK H PARENT
REMARK Flexibility Score: inf
ROOT
ATOM      1  C   UNL     1     138.913 -49.749  69.940  1.00  0.00     0.004 C 
ENDROOT
BRANCH   1   2
ATOM      2  C   UNL     1     138.908 -50.812  68.832  1.00  0.00     0.000 C 
BRANCH   2   3
ATOM      3  C   UNL     1     140.174 -50.715  67.971  1.00  0.00     0.000 C 
BRANCH   3   4
ATOM      4  C   UNL     1     141.170 -49.711  68.572  1.00  0.00     0.000 C 
BRANCH   4   5
ATOM      5  C   UNL     1     141.670 -48.679  67.545  1.00  0.00     0.006 C 
BRANCH   5   6
ATOM      6  C   UNL     1     140.561 -47.808  66.932  1.00  0.00     0.053 C 
BRANCH   6   7
ATOM      7  C   UNL     1     141.012 -46.396  66.716  1.00  0.00     0.041 C 
ATOM      8  O   UNL     1     140.177 -45.502  66.419  1.00  0.00    -0.550 OA
ATOM      9  O   UNL     1     142.361 -46.073  66.811  1.00  0.00    -0.550 OA
ENDBRANCH   6   7
ENDBRANCH   5   6
ENDBRANCH   4   5
ENDBRANCH   3   4
ENDBRANCH   2   3
ENDBRANCH   1   2
BRANCH   1  10
ATOM     10  C   UNL     1     138.577 -50.346  71.313  1.00  0.00     0.027 C 
BRANCH  10  11
ATOM     11  C   UNL     1     139.396 -51.587  71.587  1.00  0.00    -0.031 C 
ATOM     12  C   UNL     1     140.518 -51.624  72.331  1.00  0.00    -0.031 C 
BRANCH  12  13
ATOM     13  C   UNL     1     141.114 -50.439  73.050  1.00  0.00     0.027 C 
BRANCH  13  14
ATOM     14  C   UNL     1     142.028 -49.593  72.140  1.00  0.00     0.004 C 
BRANCH  14  15
ATOM     15  C   UNL     1     141.577 -48.129  71.993  1.00  0.00     0.000 C 
BRANCH  15  16
ATOM     16  C   UNL     1     142.542 -47.290  71.140  1.00  0.00    -0.000 C 
BRANCH  16  17
ATOM     17  C   UNL     1     141.818 -46.205  70.328  1.00  0.00    -0.003 C 
ATOM     18  C   UNL     1     140.295 -46.320  70.411  1.00  0.00     0.004 C 
ENDBRANCH  16  17
ENDBRANCH  15  16
ENDBRANCH  14  15
ENDBRANCH  13  14
ENDBRANCH  12  13
ENDBRANCH  10  11
ENDBRANCH   1  10
TORSDOF 13
ENDMDL
MODEL 7
REMARK VINA RESULT:    -2.462     20.675     23.414
REMARK INTER + INTRA:          -6.841
REMARK INTER:                  -4.204
REMARK INTRA:                  -2.637
REMARK UNBOUND:                -2.508
REMARK SMILES CCCCCCC=CCCCCCCCC(=O)[O-]
REMARK SMILES IDX 10 1 11 2 12 3 13 4 14 5 15 6 16 7 17 8 18 9 9 10 8 11 7 12
REMARK SMILES IDX 6 13 5 14 4 15 3 16 2 17 1 18
REMARK H PARENT
REMARK Flexibility Score: inf
ROOT
ATOM      1  C   UNL     1     139.151 -49.741  67.438  1.00  0.00     0.004 C 
ENDROOT
BRANCH   1   2
ATOM      2  C   UNL     1     140.025 -48.531  67.077  1.00  0.00     0.000 C 
BRANCH   2   3
ATOM      3  C   UNL     1     141.476 -48.747  67.526  1.00  0.00     0.000 C 
BRANCH   3   4
ATOM      4  C   UNL     1     142.015 -47.507  68.256  1.00  0.00     0.000 C 
BRANCH   4   5
ATOM      5  C   UNL     1     142.244 -46.313  67.313  1.00  0.00     0.006 C 
BRANCH   5   6
ATOM      6  C   UNL     1     141.347 -45.097  67.601  1.00  0.00     0.053 C 
BRANCH   6   7
ATOM      7  C   UNL     1     140.362 -44.853  66.499  1.00  0.00     0.041 C 
ATOM      8  O   UNL     1     139.380 -44.088  66.686  1.00  0.00    -0.550 OA
ATOM      9  O   UNL     1     140.510 -45.497  65.277  1.00  0.00    -0.550 OA
ENDBRANCH   6   7
ENDBRANCH   5   6
ENDBRANCH   4   5
ENDBRANCH   3   4
ENDBRANCH   2   3
ENDBRANCH   1   2
BRANCH   1  10
ATOM     10  C   UNL     1     139.959 -50.851  68.123  1.00  0.00     0.027 C 
BRANCH  10  11
ATOM     11  C   UNL     1     139.278 -51.325  69.387  1.00  0.00    -0.031 C 
ATOM     12  C   UNL     1     139.590 -50.918  70.633  1.00  0.00    -0.031 C 
BRANCH  12  13
ATOM     13  C   UNL     1     140.640 -49.886  70.963  1.00  0.00     0.027 C 
BRANCH  13  14
ATOM     14  C   UNL     1     140.115 -48.791  71.913  1.00  0.00     0.004 C 
BRANCH  14  15
ATOM     15  C   UNL     1     140.005 -47.401  71.261  1.00  0.00     0.000 C 
BRANCH  15  16
ATOM     16  C   UNL     1     138.831 -47.296  70.274  1.00  0.00    -0.000 C 
BRANCH  16  17
ATOM     17  C   UNL     1     137.505 -47.778  70.883  1.00  0.00    -0.003 C 
ATOM     18  C   UNL     1     136.674 -48.612  69.908  1.00  0.00     0.004 C 
ENDBRANCH  16  17
ENDBRANCH  15  16
ENDBRANCH  14  15
ENDBRANCH  13  14
ENDBRANCH  12  13
ENDBRANCH  10  11
ENDBRANCH   1  10
TORSDOF 13
ENDMDL
MODEL 8
REMARK VINA RESULT:    -2.449      2.692      4.736
REMARK INTER + INTRA:          -6.817
REMARK INTER:                  -3.934
REMARK INTRA:                  -2.883
REMARK UNBOUND:                -2.508
REMARK SMILES CCCCCCC=CCCCCCCCC(=O)[O-]
REMARK SMILES IDX 10 1 11 2 12 3 13 4 14 5 15 6 16 7 17 8 18 9 9 10 8 11 7 12
REMARK SMILES IDX 6 13 5 14 4 15 3 16 2 17 1 18
REMARK H PARENT
REMARK Flexibility Score: inf
ROOT
ATOM      1  C   UNL     1     127.526 -37.907  84.325  1.00  0.00     0.004 C 
ENDROOT
BRANCH   1   2
ATOM      2  C   UNL     1     128.637 -36.848  84.349  1.00  0.00     0.000 C 
BRANCH   2   3
ATOM      3  C   UNL     1     128.104 -35.481  83.903  1.00  0.00     0.000 C 
BRANCH   3   4
ATOM      4  C   UNL     1     129.140 -34.743  83.041  1.00  0.00     0.000 C 
BRANCH   4   5
ATOM      5  C   UNL     1     128.577 -33.463  82.397  1.00  0.00     0.006 C 
BRANCH   5   6
ATOM      6  C   UNL     1     127.050 -33.315  82.513  1.00  0.00     0.053 C 
BRANCH   6   7
ATOM      7  C   UNL     1     126.454 -32.678  81.295  1.00  0.00     0.041 C 
ATOM      8  O   UNL     1     127.192 -32.089  80.463  1.00  0.00    -0.550 OA
ATOM      9  O   UNL     1     125.079 -32.707  81.096  1.00  0.00    -0.550 OA
ENDBRANCH   6   7
ENDBRANCH   5   6
ENDBRANCH   4   5
ENDBRANCH   3   4
ENDBRANCH   2   3
ENDBRANCH   1   2
BRANCH   1  10
ATOM     10  C   UNL     1     126.127 -37.275  84.352  1.00  0.00     0.027 C 
BRANCH  10  11
ATOM     11  C   UNL     1     125.165 -38.037  83.470  1.00  0.00    -0.031 C 
ATOM     12  C   UNL     1     124.673 -37.593  82.297  1.00  0.00    -0.031 C 
BRANCH  12  13
ATOM     13  C   UNL     1     125.042 -36.280  81.651  1.00  0.00     0.027 C 
BRANCH  13  14
ATOM     14  C   UNL     1     125.612 -36.459  80.230  1.00  0.00     0.004 C 
BRANCH  14  15
ATOM     15  C   UNL     1     127.117 -36.156  80.119  1.00  0.00     0.000 C 
BRANCH  15  16
ATOM     16  C   UNL     1     127.996 -37.291  80.668  1.00  0.00    -0.000 C 
BRANCH  16  17
ATOM     17  C   UNL     1     127.684 -38.646  80.014  1.00  0.00    -0.003 C 
ATOM     18  C   UNL     1     127.439 -39.755  81.038  1.00  0.00     0.004 C 
ENDBRANCH  16  17
ENDBRANCH  15  16
ENDBRANCH  14  15
ENDBRANCH  13  14
ENDBRANCH  12  13
ENDBRANCH  10  11
ENDBRANCH   1  10
TORSDOF 13
ENDMDL
MODEL 9
REMARK VINA RESULT:    -2.435     20.616     22.992
REMARK INTER + INTRA:          -6.793
REMARK INTER:                  -4.088
REMARK INTRA:                  -2.705
REMARK UNBOUND:                -2.508
REMARK SMILES CCCCCCC=CCCCCCCCC(=O)[O-]
REMARK SMILES IDX 10 1 11 2 12 3 13 4 14 5 15 6 16 7 17 8 18 9 9 10 8 11 7 12
REMARK SMILES IDX 6 13 5 14 4 15 3 16 2 17 1 18
REMARK H PARENT
REMARK Flexibility Score: inf
ROOT
ATOM      1  C   UNL     1     142.092 -46.891  68.948  1.00  0.00     0.004 C 
ENDROOT
BRANCH   1   2
ATOM      2  C   UNL     1     141.700 -48.348  69.236  1.00  0.00     0.000 C 
BRANCH   2   3
ATOM      3  C   UNL     1     141.624 -49.163  67.939  1.00  0.00     0.000 C 
BRANCH   3   4
ATOM      4  C   UNL     1     140.419 -50.117  67.961  1.00  0.00     0.000 C 
BRANCH   4   5
ATOM      5  C   UNL     1     139.578 -49.987  69.243  1.00  0.00     0.006 C 
BRANCH   5   6
ATOM      6  C   UNL     1     139.220 -51.329  69.904  1.00  0.00     0.053 C 
BRANCH   6   7
ATOM      7  C   UNL     1     139.572 -51.350  71.360  1.00  0.00     0.041 C 
ATOM      8  O   UNL     1     138.834 -51.953  72.182  1.00  0.00    -0.550 OA
ATOM      9  O   UNL     1     140.699 -50.675  71.813  1.00  0.00    -0.550 OA
ENDBRANCH   6   7
ENDBRANCH   5   6
ENDBRANCH   4   5
ENDBRANCH   3   4
ENDBRANCH   2   3
ENDBRANCH   1   2
BRANCH   1  10
ATOM     10  C   UNL     1     142.245 -46.622  67.445  1.00  0.00     0.027 C 
BRANCH  10  11
ATOM     11  C   UNL     1     141.321 -45.516  66.990  1.00  0.00    -0.031 C 
ATOM     12  C   UNL     1     140.275 -45.677  66.155  1.00  0.00    -0.031 C 
BRANCH  12  13
ATOM     13  C   UNL     1     139.831 -46.997  65.576  1.00  0.00     0.027 C 
BRANCH  13  14
ATOM     14  C   UNL     1     138.513 -47.502  66.198  1.00  0.00     0.004 C 
BRANCH  14  15
ATOM     15  C   UNL     1     137.841 -46.489  67.142  1.00  0.00     0.000 C 
BRANCH  15  16
ATOM     16  C   UNL     1     137.774 -46.980  68.597  1.00  0.00    -0.000 C 
BRANCH  16  17
ATOM     17  C   UNL     1     138.576 -46.089  69.557  1.00  0.00    -0.003 C 
ATOM     18  C   UNL     1     138.797 -46.739  70.923  1.00  0.00     0.004 C 
ENDBRANCH  16  17
ENDBRANCH  15  16
ENDBRANCH  14  15
ENDBRANCH  13  14
ENDBRANCH  12  13
ENDBRANCH  10  11
ENDBRANCH   1  10
TORSDOF 13
ENDMDL
