MODEL 1
REMARK VINA RESULT:    -4.739      0.000      0.000
REMARK INTER + INTRA:         -10.531
REMARK INTER:                  -8.618
REMARK INTRA:                  -1.913
REMARK UNBOUND:                -1.913
REMARK SMILES CCCCCC=CCC=CCCCCCCCC(=O)[O-]
REMARK SMILES IDX 11 1 12 2 13 3 14 4 15 5 16 6 17 7 18 8 19 9 20 10 10 11
REMARK SMILES IDX 9 12 8 13 7 14 6 15 5 16 4 17 3 18 2 19 1 20
REMARK H PARENT
REMARK Flexibility Score: inf
ROOT
ATOM      1  C   UNL     1       4.583   3.099  20.290  1.00  0.00     0.027 C 
ENDROOT
BRANCH   1   2
ATOM      2  C   UNL     1       3.835   1.795  20.598  1.00  0.00     0.004 C 
BRANCH   2   3
ATOM      3  C   UNL     1       4.548   1.003  21.702  1.00  0.00     0.000 C 
BRANCH   3   4
ATOM      4  C   UNL     1       4.673   1.787  23.021  1.00  0.00     0.000 C 
BRANCH   4   5
ATOM      5  C   UNL     1       3.681   1.373  24.125  1.00  0.00     0.000 C 
BRANCH   5   6
ATOM      6  C   UNL     1       3.206  -0.084  23.991  1.00  0.00     0.006 C 
BRANCH   6   7
ATOM      7  C   UNL     1       3.685  -0.958  25.156  1.00  0.00     0.053 C 
BRANCH   7   8
ATOM      8  C   UNL     1       4.889  -1.770  24.786  1.00  0.00     0.041 C 
ATOM      9  O   UNL     1       5.592  -2.308  25.681  1.00  0.00    -0.550 OA
ATOM     10  O   UNL     1       5.219  -1.953  23.449  1.00  0.00    -0.550 OA
ENDBRANCH   7   8
ENDBRANCH   6   7
ENDBRANCH   5   6
ENDBRANCH   4   5
ENDBRANCH   3   4
ENDBRANCH   2   3
ENDBRANCH   1   2
BRANCH   1  11
ATOM     11  C   UNL     1       5.817   2.834  19.466  1.00  0.00    -0.031 C 
ATOM     12  C   UNL     1       7.081   3.009  19.896  1.00  0.00    -0.027 C 
BRANCH  12  13
ATOM     13  C   UNL     1       7.473   3.453  21.284  1.00  0.00     0.054 C 
BRANCH  13  14
ATOM     14  C   UNL     1       7.661   4.941  21.319  1.00  0.00    -0.027 C 
ATOM     15  C   UNL     1       6.618   5.775  21.448  1.00  0.00    -0.031 C 
BRANCH  15  16
ATOM     16  C   UNL     1       6.802   7.268  21.472  1.00  0.00     0.027 C 
BRANCH  16  17
ATOM     17  C   UNL     1       5.878   7.954  20.455  1.00  0.00     0.004 C 
BRANCH  17  18
ATOM     18  C   UNL     1       6.581   8.244  19.121  1.00  0.00     0.000 C 
BRANCH  18  19
ATOM     19  C   UNL     1       6.321   7.156  18.069  1.00  0.00    -0.003 C 
ATOM     20  C   UNL     1       7.534   6.242  17.911  1.00  0.00     0.004 C 
ENDBRANCH  18  19
ENDBRANCH  17  18
ENDBRANCH  16  17
ENDBRANCH  15  16
ENDBRANCH  13  14
ENDBRANCH  12  13
ENDBRANCH   1  11
TORSDOF 14
ENDMDL
MODEL 2
REMARK VINA RESULT:    -4.722     14.349     16.009
REMARK INTER + INTRA:         -10.500
REMARK INTER:                  -7.782
REMARK INTRA:                  -2.718
REMARK UNBOUND:                -1.913
REMARK SMILES CCCCCC=CCC=CCCCCCCCC(=O)[O-]
REMARK SMILES IDX 11 1 12 2 13 3 14 4 15 5 16 6 17 7 18 8 19 9 20 10 10 11
REMARK SMILES IDX 9 12 8 13 7 14 6 15 5 16 4 17 3 18 2 19 1 20
REMARK H PARENT
REMARK Flexibility Score: inf
ROOT
ATOM      1  C   UNL     1      21.351  -7.445  21.655  1.00  0.00     0.027 C 
ENDROOT
BRANCH   1   2
ATOM      2  C   UNL     1      19.862  -7.787  21.519  1.00  0.00     0.004 C 
BRANCH   2   3
ATOM      3  C   UNL     1      19.405  -7.670  20.059  1.00  0.00     0.000 C 
BRANCH   3   4
ATOM      4  C   UNL     1      18.142  -6.806  19.890  1.00  0.00     0.000 C 
BRANCH   4   5
ATOM      5  C   UNL     1      17.895  -6.279  18.463  1.00  0.00     0.000 C 
BRANCH   5   6
ATOM      6  C   UNL     1      16.839  -5.161  18.410  1.00  0.00     0.006 C 
BRANCH   6   7
ATOM      7  C   UNL     1      15.681  -5.503  17.465  1.00  0.00     0.053 C 
BRANCH   7   8
ATOM      8  C   UNL     1      14.533  -6.132  18.195  1.00  0.00     0.041 C 
ATOM      9  O   UNL     1      13.614  -6.708  17.557  1.00  0.00    -0.550 OA
ATOM     10  O   UNL     1      14.493  -6.102  19.583  1.00  0.00    -0.550 OA
ENDBRANCH   7   8
ENDBRANCH   6   7
ENDBRANCH   5   6
ENDBRANCH   4   5
ENDBRANCH   3   4
ENDBRANCH   2   3
ENDBRANCH   1   2
BRANCH   1  11
ATOM     11  C   UNL     1      21.542  -6.028  22.130  1.00  0.00    -0.031 C 
ATOM     12  C   UNL     1      21.747  -4.968  21.325  1.00  0.00    -0.027 C 
BRANCH  12  13
ATOM     13  C   UNL     1      21.773  -5.014  19.817  1.00  0.00     0.054 C 
BRANCH  13  14
ATOM     14  C   UNL     1      20.750  -4.072  19.252  1.00  0.00    -0.027 C 
ATOM     15  C   UNL     1      19.950  -3.348  20.048  1.00  0.00    -0.031 C 
BRANCH  15  16
ATOM     16  C   UNL     1      18.916  -2.412  19.484  1.00  0.00     0.027 C 
BRANCH  16  17
ATOM     17  C   UNL     1      19.236  -2.052  18.026  1.00  0.00     0.004 C 
BRANCH  17  18
ATOM     18  C   UNL     1      17.977  -1.731  17.207  1.00  0.00     0.000 C 
BRANCH  18  19
ATOM     19  C   UNL     1      18.029  -2.320  15.790  1.00  0.00    -0.003 C 
ATOM     20  C   UNL     1      18.908  -3.568  15.745  1.00  0.00     0.004 C 
ENDBRANCH  18  19
ENDBRANCH  17  18
ENDBRANCH  16  17
ENDBRANCH  15  16
ENDBRANCH  13  14
ENDBRANCH  12  13
ENDBRANCH   1  11
TORSDOF 14
ENDMDL
MODEL 3
REMARK VINA RESULT:    -4.639      3.776      8.371
REMARK INTER + INTRA:         -10.348
REMARK INTER:                  -8.684
REMARK INTRA:                  -1.663
REMARK UNBOUND:                -1.913
REMARK SMILES CCCCCC=CCC=CCCCCCCCC(=O)[O-]
REMARK SMILES IDX 11 1 12 2 13 3 14 4 15 5 16 6 17 7 18 8 19 9 20 10 10 11
REMARK SMILES IDX 9 12 8 13 7 14 6 15 5 16 4 17 3 18 2 19 1 20
REMARK H PARENT
REMARK Flexibility Score: inf
ROOT
ATOM      1  C   UNL     1       6.159   1.942  20.235  1.00  0.00     0.027 C 
ENDROOT
BRANCH   1   2
ATOM      2  C   UNL     1       6.790   3.252  19.746  1.00  0.00     0.004 C 
BRANCH   2   3
ATOM      3  C   UNL     1       7.675   3.872  20.836  1.00  0.00     0.000 C 
BRANCH   3   4
ATOM      4  C   UNL     1       7.101   5.184  21.402  1.00  0.00     0.000 C 
BRANCH   4   5
ATOM      5  C   UNL     1       5.946   5.799  20.588  1.00  0.00     0.000 C 
BRANCH   5   6
ATOM      6  C   UNL     1       6.212   7.256  20.174  1.00  0.00     0.006 C 
BRANCH   6   7
ATOM      7  C   UNL     1       7.702   7.613  20.236  1.00  0.00     0.053 C 
BRANCH   7   8
ATOM      8  C   UNL     1       8.335   7.601  18.879  1.00  0.00     0.041 C 
ATOM      9  O   UNL     1       9.314   8.353  18.628  1.00  0.00    -0.550 OA
ATOM     10  O   UNL     1       7.860   6.740  17.898  1.00  0.00    -0.550 OA
ENDBRANCH   7   8
ENDBRANCH   6   7
ENDBRANCH   5   6
ENDBRANCH   4   5
ENDBRANCH   3   4
ENDBRANCH   2   3
ENDBRANCH   1   2
BRANCH   1  11
ATOM     11  C   UNL     1       4.692   2.123  20.530  1.00  0.00    -0.031 C 
ATOM     12  C   UNL     1       4.179   2.390  21.746  1.00  0.00    -0.027 C 
BRANCH  12  13
ATOM     13  C   UNL     1       4.987   2.599  23.003  1.00  0.00     0.054 C 
BRANCH  13  14
ATOM     14  C   UNL     1       4.390   1.820  24.139  1.00  0.00    -0.027 C 
ATOM     15  C   UNL     1       3.066   1.804  24.357  1.00  0.00    -0.031 C 
BRANCH  15  16
ATOM     16  C   UNL     1       2.466   1.033  25.501  1.00  0.00     0.027 C 
BRANCH  16  17
ATOM     17  C   UNL     1       2.293  -0.448  25.137  1.00  0.00     0.004 C 
BRANCH  17  18
ATOM     18  C   UNL     1       3.289  -1.358  25.873  1.00  0.00     0.000 C 
BRANCH  18  19
ATOM     19  C   UNL     1       4.460  -1.795  24.982  1.00  0.00    -0.003 C 
ATOM     20  C   UNL     1       5.492  -2.588  25.780  1.00  0.00     0.004 C 
ENDBRANCH  18  19
ENDBRANCH  17  18
ENDBRANCH  16  17
ENDBRANCH  15  16
ENDBRANCH  13  14
ENDBRANCH  12  13
ENDBRANCH   1  11
TORSDOF 14
ENDMDL
MODEL 4
REMARK VINA RESULT:    -4.633      3.709      8.533
REMARK INTER + INTRA:         -10.337
REMARK INTER:                  -8.846
REMARK INTRA:                  -1.491
REMARK UNBOUND:                -1.913
REMARK SMILES CCCCCC=CCC=CCCCCCCCC(=O)[O-]
REMARK SMILES IDX 11 1 12 2 13 3 14 4 15 5 16 6 17 7 18 8 19 9 20 10 10 11
REMARK SMILES IDX 9 12 8 13 7 14 6 15 5 16 4 17 3 18 2 19 1 20
REMARK H PARENT
REMARK Flexibility Score: inf
ROOT
ATOM      1  C   UNL     1       4.600   1.427  21.679  1.00  0.00     0.027 C 
ENDROOT
BRANCH   1   2
ATOM      2  C   UNL     1       4.761   2.351  20.465  1.00  0.00     0.004 C 
BRANCH   2   3
ATOM      3  C   UNL     1       6.192   2.287  19.916  1.00  0.00     0.000 C 
BRANCH   3   4
ATOM      4  C   UNL     1       6.858   3.671  19.808  1.00  0.00     0.000 C 
BRANCH   4   5
ATOM      5  C   UNL     1       7.523   4.180  21.102  1.00  0.00     0.000 C 
BRANCH   5   6
ATOM      6  C   UNL     1       6.842   5.434  21.676  1.00  0.00     0.006 C 
BRANCH   6   7
ATOM      7  C   UNL     1       6.493   6.453  20.584  1.00  0.00     0.053 C 
BRANCH   7   8
ATOM      8  C   UNL     1       7.628   7.393  20.316  1.00  0.00     0.041 C 
ATOM      9  O   UNL     1       7.730   8.468  20.965  1.00  0.00    -0.550 OA
ATOM     10  O   UNL     1       8.589   7.070  19.367  1.00  0.00    -0.550 OA
ENDBRANCH   7   8
ENDBRANCH   6   7
ENDBRANCH   5   6
ENDBRANCH   4   5
ENDBRANCH   3   4
ENDBRANCH   2   3
ENDBRANCH   1   2
BRANCH   1  11
ATOM     11  C   UNL     1       5.066   2.104  22.942  1.00  0.00    -0.031 C 
ATOM     12  C   UNL     1       4.302   2.311  24.031  1.00  0.00    -0.027 C 
BRANCH  12  13
ATOM     13  C   UNL     1       2.870   1.860  24.186  1.00  0.00     0.054 C 
BRANCH  13  14
ATOM     14  C   UNL     1       2.792   0.697  25.132  1.00  0.00    -0.027 C 
ATOM     15  C   UNL     1       3.280  -0.508  24.800  1.00  0.00    -0.031 C 
BRANCH  15  16
ATOM     16  C   UNL     1       3.193  -1.678  25.742  1.00  0.00     0.027 C 
BRANCH  16  17
ATOM     17  C   UNL     1       4.564  -2.347  25.917  1.00  0.00     0.004 C 
BRANCH  17  18
ATOM     18  C   UNL     1       5.467  -2.174  24.687  1.00  0.00     0.000 C 
BRANCH  18  19
ATOM     19  C   UNL     1       5.993  -3.512  24.148  1.00  0.00    -0.003 C 
ATOM     20  C   UNL     1       6.661  -4.326  25.253  1.00  0.00     0.004 C 
ENDBRANCH  18  19
ENDBRANCH  17  18
ENDBRANCH  16  17
ENDBRANCH  15  16
ENDBRANCH  13  14
ENDBRANCH  12  13
ENDBRANCH   1  11
TORSDOF 14
ENDMDL
MODEL 5
REMARK VINA RESULT:    -4.561     14.412     16.770
REMARK INTER + INTRA:         -10.206
REMARK INTER:                  -8.031
REMARK INTRA:                  -2.175
REMARK UNBOUND:                -1.913
REMARK SMILES CCCCCC=CCC=CCCCCCCCC(=O)[O-]
REMARK SMILES IDX 11 1 12 2 13 3 14 4 15 5 16 6 17 7 18 8 19 9 20 10 10 11
REMARK SMILES IDX 9 12 8 13 7 14 6 15 5 16 4 17 3 18 2 19 1 20
REMARK H PARENT
REMARK Flexibility Score: inf
ROOT
ATOM      1  C   UNL     1      21.713  -6.734  21.302  1.00  0.00     0.027 C 
ENDROOT
BRANCH   1   2
ATOM      2  C   UNL     1      21.654  -5.236  21.629  1.00  0.00     0.004 C 
BRANCH   2   3
ATOM      3  C   UNL     1      20.618  -4.525  20.748  1.00  0.00     0.000 C 
BRANCH   3   4
ATOM      4  C   UNL     1      20.765  -4.863  19.253  1.00  0.00     0.000 C 
BRANCH   4   5
ATOM      5  C   UNL     1      20.215  -3.799  18.284  1.00  0.00     0.000 C 
BRANCH   5   6
ATOM      6  C   UNL     1      18.812  -3.300  18.672  1.00  0.00     0.006 C 
BRANCH   6   7
ATOM      7  C   UNL     1      18.507  -1.917  18.085  1.00  0.00     0.053 C 
BRANCH   7   8
ATOM      8  C   UNL     1      17.559  -1.999  16.928  1.00  0.00     0.041 C 
ATOM      9  O   UNL     1      17.344  -3.102  16.360  1.00  0.00    -0.550 OA
ATOM     10  O   UNL     1      16.895  -0.860  16.491  1.00  0.00    -0.550 OA
ENDBRANCH   7   8
ENDBRANCH   6   7
ENDBRANCH   5   6
ENDBRANCH   4   5
ENDBRANCH   3   4
ENDBRANCH   2   3
ENDBRANCH   1   2
BRANCH   1  11
ATOM     11  C   UNL     1      20.655  -7.496  22.058  1.00  0.00    -0.031 C 
ATOM     12  C   UNL     1      19.602  -8.116  21.493  1.00  0.00    -0.027 C 
BRANCH  12  13
ATOM     13  C   UNL     1      19.331  -8.191  20.010  1.00  0.00     0.054 C 
BRANCH  13  14
ATOM     14  C   UNL     1      17.936  -7.720  19.714  1.00  0.00    -0.027 C 
ATOM     15  C   UNL     1      17.525  -6.491  20.058  1.00  0.00    -0.031 C 
BRANCH  15  16
ATOM     16  C   UNL     1      16.125  -6.021  19.773  1.00  0.00     0.027 C 
BRANCH  16  17
ATOM     17  C   UNL     1      15.951  -5.678  18.286  1.00  0.00     0.004 C 
BRANCH  17  18
ATOM     18  C   UNL     1      14.619  -6.186  17.714  1.00  0.00     0.000 C 
BRANCH  18  19
ATOM     19  C   UNL     1      14.010  -7.318  18.553  1.00  0.00    -0.003 C 
ATOM     20  C   UNL     1      12.638  -6.923  19.097  1.00  0.00     0.004 C 
ENDBRANCH  18  19
ENDBRANCH  17  18
ENDBRANCH  16  17
ENDBRANCH  15  16
ENDBRANCH  13  14
ENDBRANCH  12  13
ENDBRANCH   1  11
TORSDOF 14
ENDMDL
MODEL 6
REMARK VINA RESULT:    -4.535      1.528      2.337
REMARK INTER + INTRA:         -10.159
REMARK INTER:                  -8.621
REMARK INTRA:                  -1.537
REMARK UNBOUND:                -1.913
REMARK SMILES CCCCCC=CCC=CCCCCCCCC(=O)[O-]
REMARK SMILES IDX 11 1 12 2 13 3 14 4 15 5 16 6 17 7 18 8 19 9 20 10 10 11
REMARK SMILES IDX 9 12 8 13 7 14 6 15 5 16 4 17 3 18 2 19 1 20
REMARK H PARENT
REMARK Flexibility Score: inf
ROOT
ATOM      1  C   UNL     1       4.608   2.250  21.874  1.00  0.00     0.027 C 
ENDROOT
BRANCH   1   2
ATOM      2  C   UNL     1       3.089   2.286  21.664  1.00  0.00     0.004 C 
BRANCH   2   3
ATOM      3  C   UNL     1       2.351   2.295  23.010  1.00  0.00     0.000 C 
BRANCH   3   4
ATOM      4  C   UNL     1       3.266   1.958  24.201  1.00  0.00     0.000 C 
BRANCH   4   5
ATOM      5  C   UNL     1       2.716   0.892  25.168  1.00  0.00     0.000 C 
BRANCH   5   6
ATOM      6  C   UNL     1       3.348  -0.495  24.956  1.00  0.00     0.006 C 
BRANCH   6   7
ATOM      7  C   UNL     1       2.636  -1.293  23.856  1.00  0.00     0.053 C 
BRANCH   7   8
ATOM      8  C   UNL     1       3.436  -1.334  22.591  1.00  0.00     0.041 C 
ATOM      9  O   UNL     1       4.668  -1.073  22.610  1.00  0.00    -0.550 OA
ATOM     10  O   UNL     1       2.826  -1.684  21.393  1.00  0.00    -0.550 OA
ENDBRANCH   7   8
ENDBRANCH   6   7
ENDBRANCH   5   6
ENDBRANCH   4   5
ENDBRANCH   3   4
ENDBRANCH   2   3
ENDBRANCH   1   2
BRANCH   1  11
ATOM     11  C   UNL     1       5.319   1.806  20.622  1.00  0.00    -0.031 C 
ATOM     12  C   UNL     1       6.536   2.233  20.236  1.00  0.00    -0.027 C 
BRANCH  12  13
ATOM     13  C   UNL     1       7.409   3.188  21.013  1.00  0.00     0.054 C 
BRANCH  13  14
ATOM     14  C   UNL     1       7.282   4.576  20.457  1.00  0.00    -0.027 C 
ATOM     15  C   UNL     1       6.684   4.806  19.279  1.00  0.00    -0.031 C 
BRANCH  15  16
ATOM     16  C   UNL     1       6.566   6.195  18.714  1.00  0.00     0.027 C 
BRANCH  16  17
ATOM     17  C   UNL     1       7.879   6.633  18.048  1.00  0.00     0.004 C 
BRANCH  17  18
ATOM     18  C   UNL     1       8.621   7.708  18.856  1.00  0.00     0.000 C 
BRANCH  18  19
ATOM     19  C   UNL     1       7.728   8.375  19.912  1.00  0.00    -0.003 C 
ATOM     20  C   UNL     1       7.311   9.777  19.474  1.00  0.00     0.004 C 
ENDBRANCH  18  19
ENDBRANCH  17  18
ENDBRANCH  16  17
ENDBRANCH  15  16
ENDBRANCH  13  14
ENDBRANCH  12  13
ENDBRANCH   1  11
TORSDOF 14
ENDMDL
MODEL 7
REMARK VINA RESULT:    -4.482      1.594      3.992
REMARK INTER + INTRA:         -10.062
REMARK INTER:                  -8.276
REMARK INTRA:                  -1.786
REMARK UNBOUND:                -1.913
REMARK SMILES CCCCCC=CCC=CCCCCCCCC(=O)[O-]
REMARK SMILES IDX 11 1 12 2 13 3 14 4 15 5 16 6 17 7 18 8 19 9 20 10 10 11
REMARK SMILES IDX 9 12 8 13 7 14 6 15 5 16 4 17 3 18 2 19 1 20
REMARK H PARENT
REMARK Flexibility Score: inf
ROOT
ATOM      1  C   UNL     1       2.729   1.834  24.303  1.00  0.00     0.027 C 
ENDROOT
BRANCH   1   2
ATOM      2  C   UNL     1       2.475   0.741  25.349  1.00  0.00     0.004 C 
BRANCH   2   3
ATOM      3  C   UNL     1       2.664  -0.654  24.738  1.00  0.00     0.000 C 
BRANCH   3   4
ATOM      4  C   UNL     1       3.588  -1.558  25.574  1.00  0.00     0.000 C 
BRANCH   4   5
ATOM      5  C   UNL     1       5.017  -1.723  25.022  1.00  0.00     0.000 C 
BRANCH   5   6
ATOM      6  C   UNL     1       5.057  -2.445  23.664  1.00  0.00     0.006 C 
BRANCH   6   7
ATOM      7  C   UNL     1       6.180  -3.488  23.596  1.00  0.00     0.053 C 
BRANCH   7   8
ATOM      8  C   UNL     1       6.045  -4.523  24.671  1.00  0.00     0.041 C 
ATOM      9  O   UNL     1       5.021  -5.254  24.724  1.00  0.00    -0.550 OA
ATOM     10  O   UNL     1       7.062  -4.697  25.600  1.00  0.00    -0.550 OA
ENDBRANCH   7   8
ENDBRANCH   6   7
ENDBRANCH   5   6
ENDBRANCH   4   5
ENDBRANCH   3   4
ENDBRANCH   2   3
ENDBRANCH   1   2
BRANCH   1  11
ATOM     11  C   UNL     1       4.200   2.132  24.174  1.00  0.00    -0.031 C 
ATOM     12  C   UNL     1       4.966   1.784  23.123  1.00  0.00    -0.027 C 
BRANCH  12  13
ATOM     13  C   UNL     1       4.472   1.082  21.882  1.00  0.00     0.054 C 
BRANCH  13  14
ATOM     14  C   UNL     1       4.706   1.940  20.673  1.00  0.00    -0.027 C 
ATOM     15  C   UNL     1       5.913   2.464  20.410  1.00  0.00    -0.031 C 
BRANCH  15  16
ATOM     16  C   UNL     1       6.147   3.333  19.205  1.00  0.00     0.027 C 
BRANCH  16  17
ATOM     17  C   UNL     1       7.061   4.518  19.550  1.00  0.00     0.004 C 
BRANCH  17  18
ATOM     18  C   UNL     1       7.415   4.575  21.043  1.00  0.00     0.000 C 
BRANCH  18  19
ATOM     19  C   UNL     1       6.683   5.705  21.781  1.00  0.00    -0.003 C 
ATOM     20  C   UNL     1       6.122   6.731  20.798  1.00  0.00     0.004 C 
ENDBRANCH  18  19
ENDBRANCH  17  18
ENDBRANCH  16  17
ENDBRANCH  15  16
ENDBRANCH  13  14
ENDBRANCH  12  13
ENDBRANCH   1  11
TORSDOF 14
ENDMDL
MODEL 8
REMARK VINA RESULT:    -4.428      4.102      8.516
REMARK INTER + INTRA:          -9.964
REMARK INTER:                  -8.542
REMARK INTRA:                  -1.422
REMARK UNBOUND:                -1.913
REMARK SMILES CCCCCC=CCC=CCCCCCCCC(=O)[O-]
REMARK SMILES IDX 11 1 12 2 13 3 14 4 15 5 16 6 17 7 18 8 19 9 20 10 10 11
REMARK SMILES IDX 9 12 8 13 7 14 6 15 5 16 4 17 3 18 2 19 1 20
REMARK H PARENT
REMARK Flexibility Score: inf
ROOT
ATOM      1  C   UNL     1       6.854   3.677  19.522  1.00  0.00     0.027 C 
ENDROOT
BRANCH   1   2
ATOM      2  C   UNL     1       7.375   4.707  20.533  1.00  0.00     0.004 C 
BRANCH   2   3
ATOM      3  C   UNL     1       6.563   6.007  20.457  1.00  0.00     0.000 C 
BRANCH   3   4
ATOM      4  C   UNL     1       6.549   6.626  19.047  1.00  0.00     0.000 C 
BRANCH   4   5
ATOM      5  C   UNL     1       7.927   7.054  18.506  1.00  0.00     0.000 C 
BRANCH   5   6
ATOM      6  C   UNL     1       8.544   8.225  19.290  1.00  0.00     0.006 C 
BRANCH   6   7
ATOM      7  C   UNL     1       7.554   9.381  19.477  1.00  0.00     0.053 C 
BRANCH   7   8
ATOM      8  C   UNL     1       7.255   9.630  20.924  1.00  0.00     0.041 C 
ATOM      9  O   UNL     1       6.068   9.802  21.307  1.00  0.00    -0.550 OA
ATOM     10  O   UNL     1       8.287   9.649  21.854  1.00  0.00    -0.550 OA
ENDBRANCH   7   8
ENDBRANCH   6   7
ENDBRANCH   5   6
ENDBRANCH   4   5
ENDBRANCH   3   4
ENDBRANCH   2   3
ENDBRANCH   1   2
BRANCH   1  11
ATOM     11  C   UNL     1       6.667   2.328  20.168  1.00  0.00    -0.031 C 
ATOM     12  C   UNL     1       5.501   1.862  20.652  1.00  0.00    -0.027 C 
BRANCH  12  13
ATOM     13  C   UNL     1       4.180   2.590  20.586  1.00  0.00     0.054 C 
BRANCH  13  14
ATOM     14  C   UNL     1       3.206   1.985  21.555  1.00  0.00    -0.027 C 
ATOM     15  C   UNL     1       3.207   2.325  22.853  1.00  0.00    -0.031 C 
BRANCH  15  16
ATOM     16  C   UNL     1       2.240   1.711  23.828  1.00  0.00     0.027 C 
BRANCH  16  17
ATOM     17  C   UNL     1       2.983   1.028  24.985  1.00  0.00     0.004 C 
BRANCH  17  18
ATOM     18  C   UNL     1       2.975  -0.504  24.871  1.00  0.00     0.000 C 
BRANCH  18  19
ATOM     19  C   UNL     1       4.354  -1.076  24.515  1.00  0.00    -0.003 C 
ATOM     20  C   UNL     1       4.550  -1.139  23.002  1.00  0.00     0.004 C 
ENDBRANCH  18  19
ENDBRANCH  17  18
ENDBRANCH  16  17
ENDBRANCH  15  16
ENDBRANCH  13  14
ENDBRANCH  12  13
ENDBRANCH   1  11
TORSDOF 14
ENDMDL
MODEL 9
REMARK VINA RESULT:    -4.392     14.490     16.195
REMARK INTER + INTRA:          -9.898
REMARK INTER:                  -7.558
REMARK INTRA:                  -2.341
REMARK UNBOUND:                -1.913
REMARK SMILES CCCCCC=CCC=CCCCCCCCC(=O)[O-]
REMARK SMILES IDX 11 1 12 2 13 3 14 4 15 5 16 6 17 7 18 8 19 9 20 10 10 11
REMARK SMILES IDX 9 12 8 13 7 14 6 15 5 16 4 17 3 18 2 19 1 20
REMARK H PARENT
REMARK Flexibility Score: inf
ROOT
ATOM      1  C   UNL     1      21.447  -5.953  21.670  1.00  0.00     0.027 C 
ENDROOT
BRANCH   1   2
ATOM      2  C   UNL     1      21.241  -7.449  21.400  1.00  0.00     0.004 C 
BRANCH   2   3
ATOM      3  C   UNL     1      19.821  -7.884  21.786  1.00  0.00     0.000 C 
BRANCH   3   4
ATOM      4  C   UNL     1      18.926  -8.170  20.566  1.00  0.00     0.000 C 
BRANCH   4   5
ATOM      5  C   UNL     1      18.638  -6.952  19.666  1.00  0.00     0.000 C 
BRANCH   5   6
ATOM      6  C   UNL     1      17.234  -6.363  19.884  1.00  0.00     0.006 C 
BRANCH   6   7
ATOM      7  C   UNL     1      16.832  -5.395  18.764  1.00  0.00     0.053 C 
BRANCH   7   8
ATOM      8  C   UNL     1      15.386  -5.535  18.399  1.00  0.00     0.041 C 
ATOM      9  O   UNL     1      14.543  -5.883  19.266  1.00  0.00    -0.550 OA
ATOM     10  O   UNL     1      14.967  -5.255  17.105  1.00  0.00    -0.550 OA
ENDBRANCH   7   8
ENDBRANCH   6   7
ENDBRANCH   5   6
ENDBRANCH   4   5
ENDBRANCH   3   4
ENDBRANCH   2   3
ENDBRANCH   1   2
BRANCH   1  11
ATOM     11  C   UNL     1      21.782  -5.213  20.401  1.00  0.00    -0.031 C 
ATOM     12  C   UNL     1      21.087  -4.167  19.914  1.00  0.00    -0.027 C 
BRANCH  12  13
ATOM     13  C   UNL     1      19.890  -3.534  20.579  1.00  0.00     0.054 C 
BRANCH  13  14
ATOM     14  C   UNL     1      19.163  -2.651  19.607  1.00  0.00    -0.027 C 
ATOM     15  C   UNL     1      19.368  -2.749  18.285  1.00  0.00    -0.031 C 
BRANCH  15  16
ATOM     16  C   UNL     1      18.650  -1.857  17.309  1.00  0.00     0.027 C 
BRANCH  16  17
ATOM     17  C   UNL     1      18.858  -2.339  15.866  1.00  0.00     0.004 C 
BRANCH  17  18
ATOM     18  C   UNL     1      19.217  -3.830  15.787  1.00  0.00     0.000 C 
BRANCH  18  19
ATOM     19  C   UNL     1      18.052  -4.692  15.282  1.00  0.00    -0.003 C 
ATOM     20  C   UNL     1      18.276  -6.167  15.606  1.00  0.00     0.004 C 
ENDBRANCH  18  19
ENDBRANCH  17  18
ENDBRANCH  16  17
ENDBRANCH  15  16
ENDBRANCH  13  14
ENDBRANCH  12  13
ENDBRANCH   1  11
TORSDOF 14
ENDMDL
