MODEL 1
REMARK VINA RESULT:    -6.101      0.000      0.000
REMARK INTER + INTRA:          -7.643
REMARK INTER:                  -7.349
REMARK INTRA:                  -0.294
REMARK UNBOUND:                -0.294
REMARK SMILES O=c1c(O)c(-c2ccc(O)cc2O)oc2cc(O)cc(O)c12
REMARK SMILES IDX 5 1 3 2 2 3 1 4 22 5 20 6 19 7 17 8 16 9 15 10 14 11 6 12
REMARK SMILES IDX 8 13 7 14 9 15 11 16 12 17 10 18 13 20 4 22 21 24 18 26
REMARK H PARENT 10 19 13 21 4 23 21 25 18 27
REMARK Flexibility Score: inf
ROOT
ATOM      1  C   UNL     1      15.596  -7.456 -31.720  1.00  0.00     0.184 A 
ATOM      2  C   UNL     1      14.917  -6.898 -32.814  1.00  0.00     0.208 A 
ATOM      3  C   UNL     1      15.658  -6.431 -33.909  1.00  0.00     0.238 A 
ATOM      4  O   UNL     1      15.041  -5.980 -34.910  1.00  0.00    -0.285 OA
ATOM      5  C   UNL     1      17.072  -6.511 -33.887  1.00  0.00     0.111 A 
ATOM      6  C   UNL     1      17.928  -6.031 -34.924  1.00  0.00     0.134 A 
ATOM      7  C   UNL     1      19.305  -6.281 -34.854  1.00  0.00     0.093 A 
ATOM      8  C   UNL     1      19.863  -6.937 -33.754  1.00  0.00     0.123 A 
ATOM      9  C   UNL     1      19.044  -7.356 -32.710  1.00  0.00     0.094 A 
ATOM     10  C   UNL     1      17.663  -7.155 -32.766  1.00  0.00     0.146 A 
ATOM     11  O   UNL     1      16.917  -7.580 -31.754  1.00  0.00    -0.451 OA
ENDROOT
BRANCH   1  12
ATOM     12  C   UNL     1      14.875  -7.954 -30.528  1.00  0.00     0.063 A 
ATOM     13  C   UNL     1      14.262  -9.824 -29.102  1.00  0.00     0.047 A 
ATOM     14  C   UNL     1      14.928  -9.323 -30.223  1.00  0.00     0.020 A 
ATOM     15  C   UNL     1      13.548  -8.960 -28.263  1.00  0.00     0.119 A 
ATOM     16  C   UNL     1      13.509  -7.592 -28.547  1.00  0.00     0.093 A 
ATOM     17  C   UNL     1      14.179  -7.079 -29.668  1.00  0.00     0.130 A 
BRANCH  15  18
ATOM     18  O   UNL     1      12.878  -9.450 -27.144  1.00  0.00    -0.508 OA
ATOM     19  H   UNL     1      11.868  -9.543 -27.130  1.00  0.00     0.293 HD
ENDBRANCH  15  18
BRANCH  17  20
ATOM     20  O   UNL     1      14.174  -5.705 -29.911  1.00  0.00    -0.507 OA
ATOM     21  H   UNL     1      13.313  -5.198 -30.077  1.00  0.00     0.293 HD
ENDBRANCH  17  20
ENDBRANCH   1  12
BRANCH   2  22
ATOM     22  O   UNL     1      13.520  -6.848 -32.816  1.00  0.00    -0.502 OA
ATOM     23  H   UNL     1      13.006  -6.007 -32.576  1.00  0.00     0.293 HD
ENDBRANCH   2  22
BRANCH   6  24
ATOM     24  O   UNL     1      17.484  -5.286 -36.019  1.00  0.00    -0.507 OA
ATOM     25  H   UNL     1      16.536  -4.964 -36.149  1.00  0.00     0.293 HD
ENDBRANCH   6  24
BRANCH   8  26
ATOM     26  O   UNL     1      21.235  -7.167 -33.687  1.00  0.00    -0.508 OA
ATOM     27  H   UNL     1      21.631  -8.074 -33.908  1.00  0.00     0.293 HD
ENDBRANCH   8  26
TORSDOF 6
ENDMDL
MODEL 2
REMARK VINA RESULT:    -5.991      1.735      6.673
REMARK INTER + INTRA:          -7.511
REMARK INTER:                  -7.101
REMARK INTRA:                  -0.410
REMARK UNBOUND:                -0.294
REMARK SMILES O=c1c(O)c(-c2ccc(O)cc2O)oc2cc(O)cc(O)c12
REMARK SMILES IDX 5 1 3 2 2 3 1 4 22 5 20 6 19 7 17 8 16 9 15 10 14 11 6 12
REMARK SMILES IDX 8 13 7 14 9 15 11 16 12 17 10 18 13 20 4 22 21 24 18 26
REMARK H PARENT 10 19 13 21 4 23 21 25 18 27
REMARK Flexibility Score: inf
ROOT
ATOM      1  C   UNL     1      16.703  -6.817 -31.698  1.00  0.00     0.184 A 
ATOM      2  C   UNL     1      16.314  -5.563 -31.202  1.00  0.00     0.208 A 
ATOM      3  C   UNL     1      15.328  -5.502 -30.206  1.00  0.00     0.238 A 
ATOM      4  O   UNL     1      15.021  -4.379 -29.727  1.00  0.00    -0.285 OA
ATOM      5  C   UNL     1      14.731  -6.695 -29.732  1.00  0.00     0.111 A 
ATOM      6  C   UNL     1      13.693  -6.750 -28.754  1.00  0.00     0.134 A 
ATOM      7  C   UNL     1      13.268  -7.993 -28.265  1.00  0.00     0.093 A 
ATOM      8  C   UNL     1      13.799  -9.184 -28.767  1.00  0.00     0.123 A 
ATOM      9  C   UNL     1      14.770  -9.142 -29.764  1.00  0.00     0.094 A 
ATOM     10  C   UNL     1      15.241  -7.918 -30.246  1.00  0.00     0.146 A 
ATOM     11  O   UNL     1      16.175  -7.923 -31.189  1.00  0.00    -0.451 OA
ENDROOT
BRANCH   1  12
ATOM     12  C   UNL     1      17.725  -6.950 -32.758  1.00  0.00     0.063 A 
ATOM     13  C   UNL     1      18.259  -7.057 -35.127  1.00  0.00     0.047 A 
ATOM     14  C   UNL     1      17.318  -6.938 -34.102  1.00  0.00     0.020 A 
ATOM     15  C   UNL     1      19.620  -7.175 -34.824  1.00  0.00     0.119 A 
ATOM     16  C   UNL     1      20.036  -7.164 -33.489  1.00  0.00     0.093 A 
ATOM     17  C   UNL     1      19.099  -7.040 -32.453  1.00  0.00     0.130 A 
BRANCH  15  18
ATOM     18  O   UNL     1      20.566  -7.298 -35.838  1.00  0.00    -0.508 OA
ATOM     19  H   UNL     1      20.491  -6.770 -36.700  1.00  0.00     0.293 HD
ENDBRANCH  15  18
BRANCH  17  20
ATOM     20  O   UNL     1      19.533  -6.981 -31.128  1.00  0.00    -0.507 OA
ATOM     21  H   UNL     1      18.892  -6.796 -30.366  1.00  0.00     0.293 HD
ENDBRANCH  17  20
ENDBRANCH   1  12
BRANCH   2  22
ATOM     22  O   UNL     1      16.933  -4.402 -31.675  1.00  0.00    -0.502 OA
ATOM     23  H   UNL     1      16.653  -3.476 -31.373  1.00  0.00     0.293 HD
ENDBRANCH   2  22
BRANCH   6  24
ATOM     24  O   UNL     1      13.032  -5.625 -28.254  1.00  0.00    -0.507 OA
ATOM     25  H   UNL     1      13.471  -4.890 -27.721  1.00  0.00     0.293 HD
ENDBRANCH   6  24
BRANCH   8  26
ATOM     26  O   UNL     1      13.360 -10.415 -28.287  1.00  0.00    -0.508 OA
ATOM     27  H   UNL     1      12.499 -10.836 -28.616  1.00  0.00     0.293 HD
ENDBRANCH   8  26
TORSDOF 6
ENDMDL
MODEL 3
REMARK VINA RESULT:    -5.918      1.617      6.673
REMARK INTER + INTRA:          -7.424
REMARK INTER:                  -7.061
REMARK INTRA:                  -0.363
REMARK UNBOUND:                -0.294
REMARK SMILES O=c1c(O)c(-c2ccc(O)cc2O)oc2cc(O)cc(O)c12
REMARK SMILES IDX 5 1 3 2 2 3 1 4 22 5 20 6 19 7 17 8 16 9 15 10 14 11 6 12
REMARK SMILES IDX 8 13 7 14 9 15 11 16 12 17 10 18 13 20 4 22 21 24 18 26
REMARK H PARENT 10 19 13 21 4 23 21 25 18 27
REMARK Flexibility Score: inf
ROOT
ATOM      1  C   UNL     1      15.215  -7.789 -31.230  1.00  0.00     0.184 A 
ATOM      2  C   UNL     1      14.154  -6.985 -30.788  1.00  0.00     0.208 A 
ATOM      3  C   UNL     1      13.511  -7.306 -29.584  1.00  0.00     0.238 A 
ATOM      4  O   UNL     1      12.595  -6.550 -29.166  1.00  0.00    -0.285 OA
ATOM      5  C   UNL     1      13.928  -8.441 -28.845  1.00  0.00     0.111 A 
ATOM      6  C   UNL     1      13.322  -8.885 -27.631  1.00  0.00     0.134 A 
ATOM      7  C   UNL     1      13.900  -9.944 -26.918  1.00  0.00     0.093 A 
ATOM      8  C   UNL     1      15.023 -10.615 -27.409  1.00  0.00     0.123 A 
ATOM      9  C   UNL     1      15.586 -10.227 -28.622  1.00  0.00     0.094 A 
ATOM     10  C   UNL     1      15.055  -9.151 -29.338  1.00  0.00     0.146 A 
ATOM     11  O   UNL     1      15.628  -8.807 -30.485  1.00  0.00    -0.451 OA
ENDROOT
BRANCH   1  12
ATOM     12  C   UNL     1      15.924  -7.514 -32.498  1.00  0.00     0.063 A 
ATOM     13  C   UNL     1      15.849  -7.318 -34.920  1.00  0.00     0.047 A 
ATOM     14  C   UNL     1      15.210  -7.577 -33.705  1.00  0.00     0.020 A 
ATOM     15  C   UNL     1      17.207  -6.977 -34.942  1.00  0.00     0.119 A 
ATOM     16  C   UNL     1      17.920  -6.889 -33.743  1.00  0.00     0.093 A 
ATOM     17  C   UNL     1      17.285  -7.143 -32.518  1.00  0.00     0.130 A 
BRANCH  15  18
ATOM     18  O   UNL     1      17.855  -6.720 -36.148  1.00  0.00    -0.508 OA
ATOM     19  H   UNL     1      18.609  -7.310 -36.481  1.00  0.00     0.293 HD
ENDBRANCH  15  18
BRANCH  17  20
ATOM     20  O   UNL     1      17.996  -7.003 -31.326  1.00  0.00    -0.507 OA
ATOM     21  H   UNL     1      18.195  -7.797 -30.729  1.00  0.00     0.293 HD
ENDBRANCH  17  20
ENDBRANCH   1  12
BRANCH   2  22
ATOM     22  O   UNL     1      13.775  -5.860 -31.528  1.00  0.00    -0.502 OA
ATOM     23  H   UNL     1      13.974  -4.915 -31.221  1.00  0.00     0.293 HD
ENDBRANCH   2  22
BRANCH   6  24
ATOM     24  O   UNL     1      12.147  -8.345 -27.102  1.00  0.00    -0.507 OA
ATOM     25  H   UNL     1      11.497  -7.769 -27.616  1.00  0.00     0.293 HD
ENDBRANCH   6  24
BRANCH   8  26
ATOM     26  O   UNL     1      15.582 -11.676 -26.701  1.00  0.00    -0.508 OA
ATOM     27  H   UNL     1      16.376 -12.193 -27.060  1.00  0.00     0.293 HD
ENDBRANCH   8  26
TORSDOF 6
ENDMDL
MODEL 4
REMARK VINA RESULT:    -5.848      1.351      2.842
REMARK INTER + INTRA:          -7.339
REMARK INTER:                  -6.921
REMARK INTRA:                  -0.418
REMARK UNBOUND:                -0.294
REMARK SMILES O=c1c(O)c(-c2ccc(O)cc2O)oc2cc(O)cc(O)c12
REMARK SMILES IDX 5 1 3 2 2 3 1 4 22 5 20 6 19 7 17 8 16 9 15 10 14 11 6 12
REMARK SMILES IDX 8 13 7 14 9 15 11 16 12 17 10 18 13 20 4 22 21 24 18 26
REMARK H PARENT 10 19 13 21 4 23 21 25 18 27
REMARK Flexibility Score: inf
ROOT
ATOM      1  C   UNL     1      16.004  -7.719 -31.594  1.00  0.00     0.184 A 
ATOM      2  C   UNL     1      17.365  -7.420 -31.426  1.00  0.00     0.208 A 
ATOM      3  C   UNL     1      18.131  -7.079 -32.551  1.00  0.00     0.238 A 
ATOM      4  O   UNL     1      19.337  -6.759 -32.387  1.00  0.00    -0.285 OA
ATOM      5  C   UNL     1      17.528  -7.060 -33.832  1.00  0.00     0.111 A 
ATOM      6  C   UNL     1      18.217  -6.769 -35.048  1.00  0.00     0.134 A 
ATOM      7  C   UNL     1      17.494  -6.651 -36.242  1.00  0.00     0.093 A 
ATOM      8  C   UNL     1      16.115  -6.878 -36.274  1.00  0.00     0.123 A 
ATOM      9  C   UNL     1      15.443  -7.221 -35.104  1.00  0.00     0.094 A 
ATOM     10  C   UNL     1      16.131  -7.310 -33.891  1.00  0.00     0.146 A 
ATOM     11  O   UNL     1      15.450  -7.629 -32.796  1.00  0.00    -0.451 OA
ENDROOT
BRANCH   1  12
ATOM     12  C   UNL     1      15.145  -8.101 -30.452  1.00  0.00     0.063 A 
ATOM     13  C   UNL     1      14.413  -9.806 -28.882  1.00  0.00     0.047 A 
ATOM     14  C   UNL     1      15.208  -9.414 -29.962  1.00  0.00     0.020 A 
ATOM     15  C   UNL     1      13.557  -8.884 -28.268  1.00  0.00     0.119 A 
ATOM     16  C   UNL     1      13.506  -7.567 -28.735  1.00  0.00     0.093 A 
ATOM     17  C   UNL     1      14.304  -7.164 -29.816  1.00  0.00     0.130 A 
BRANCH  15  18
ATOM     18  O   UNL     1      12.758  -9.264 -27.193  1.00  0.00    -0.508 OA
ATOM     19  H   UNL     1      11.754  -9.368 -27.288  1.00  0.00     0.293 HD
ENDBRANCH  15  18
BRANCH  17  20
ATOM     20  O   UNL     1      14.279  -5.835 -30.239  1.00  0.00    -0.507 OA
ATOM     21  H   UNL     1      13.556  -5.193 -29.935  1.00  0.00     0.293 HD
ENDBRANCH  17  20
ENDBRANCH   1  12
BRANCH   2  22
ATOM     22  O   UNL     1      17.929  -7.429 -30.147  1.00  0.00    -0.502 OA
ATOM     23  H   UNL     1      17.923  -6.613 -29.545  1.00  0.00     0.293 HD
ENDBRANCH   2  22
BRANCH   6  24
ATOM     24  O   UNL     1      19.604  -6.615 -35.142  1.00  0.00    -0.507 OA
ATOM     25  H   UNL     1      20.168  -6.946 -35.910  1.00  0.00     0.293 HD
ENDBRANCH   6  24
BRANCH   8  26
ATOM     26  O   UNL     1      15.406  -6.773 -37.468  1.00  0.00    -0.508 OA
ATOM     27  H   UNL     1      15.827  -7.015 -38.357  1.00  0.00     0.293 HD
ENDBRANCH   8  26
TORSDOF 6
ENDMDL
MODEL 5
REMARK VINA RESULT:    -5.646      2.071      2.848
REMARK INTER + INTRA:          -7.095
REMARK INTER:                  -6.674
REMARK INTRA:                  -0.422
REMARK UNBOUND:                -0.294
REMARK SMILES O=c1c(O)c(-c2ccc(O)cc2O)oc2cc(O)cc(O)c12
REMARK SMILES IDX 5 1 3 2 2 3 1 4 22 5 20 6 19 7 17 8 16 9 15 10 14 11 6 12
REMARK SMILES IDX 8 13 7 14 9 15 11 16 12 17 10 18 13 20 4 22 21 24 18 26
REMARK H PARENT 10 19 13 21 4 23 21 25 18 27
REMARK Flexibility Score: inf
ROOT
ATOM      1  C   UNL     1      17.079  -6.823 -31.985  1.00  0.00     0.184 A 
ATOM      2  C   UNL     1      17.214  -5.491 -31.567  1.00  0.00     0.208 A 
ATOM      3  C   UNL     1      18.234  -4.703 -32.120  1.00  0.00     0.238 A 
ATOM      4  O   UNL     1      18.317  -3.494 -31.781  1.00  0.00    -0.285 OA
ATOM      5  C   UNL     1      19.119  -5.266 -33.073  1.00  0.00     0.111 A 
ATOM      6  C   UNL     1      20.215  -4.573 -33.670  1.00  0.00     0.134 A 
ATOM      7  C   UNL     1      20.944  -5.187 -34.697  1.00  0.00     0.093 A 
ATOM      8  C   UNL     1      20.657  -6.493 -35.102  1.00  0.00     0.123 A 
ATOM      9  C   UNL     1      19.628  -7.199 -34.484  1.00  0.00     0.094 A 
ATOM     10  C   UNL     1      18.859  -6.601 -33.483  1.00  0.00     0.146 A 
ATOM     11  O   UNL     1      17.880  -7.305 -32.928  1.00  0.00    -0.451 OA
ENDROOT
BRANCH   1  12
ATOM     12  C   UNL     1      16.035  -7.711 -31.430  1.00  0.00     0.063 A 
ATOM     13  C   UNL     1      15.204  -9.025 -29.561  1.00  0.00     0.047 A 
ATOM     14  C   UNL     1      16.174  -8.188 -30.117  1.00  0.00     0.020 A 
ATOM     15  C   UNL     1      14.073  -9.382 -30.305  1.00  0.00     0.119 A 
ATOM     16  C   UNL     1      13.915  -8.892 -31.605  1.00  0.00     0.093 A 
ATOM     17  C   UNL     1      14.882  -8.048 -32.170  1.00  0.00     0.130 A 
BRANCH  15  18
ATOM     18  O   UNL     1      13.101 -10.218 -29.762  1.00  0.00    -0.508 OA
ATOM     19  H   UNL     1      12.809 -11.068 -30.232  1.00  0.00     0.293 HD
ENDBRANCH  15  18
BRANCH  17  20
ATOM     20  O   UNL     1      14.687  -7.527 -33.449  1.00  0.00    -0.507 OA
ATOM     21  H   UNL     1      13.759  -7.345 -33.814  1.00  0.00     0.293 HD
ENDBRANCH  17  20
ENDBRANCH   1  12
BRANCH   2  22
ATOM     22  O   UNL     1      16.316  -4.956 -30.638  1.00  0.00    -0.502 OA
ATOM     23  H   UNL     1      15.349  -5.257 -30.582  1.00  0.00     0.293 HD
ENDBRANCH   2  22
BRANCH   6  24
ATOM     24  O   UNL     1      20.642  -3.302 -33.276  1.00  0.00    -0.507 OA
ATOM     25  H   UNL     1      21.150  -3.104 -32.426  1.00  0.00     0.293 HD
ENDBRANCH   6  24
BRANCH   8  26
ATOM     26  O   UNL     1      21.397  -7.101 -36.113  1.00  0.00    -0.508 OA
ATOM     27  H   UNL     1      22.214  -6.656 -36.513  1.00  0.00     0.293 HD
ENDBRANCH   8  26
TORSDOF 6
ENDMDL
MODEL 6
REMARK VINA RESULT:    -5.541      3.099      5.258
REMARK INTER + INTRA:          -6.969
REMARK INTER:                  -6.564
REMARK INTRA:                  -0.404
REMARK UNBOUND:                -0.294
REMARK SMILES O=c1c(O)c(-c2ccc(O)cc2O)oc2cc(O)cc(O)c12
REMARK SMILES IDX 5 1 3 2 2 3 1 4 22 5 20 6 19 7 17 8 16 9 15 10 14 11 6 12
REMARK SMILES IDX 8 13 7 14 9 15 11 16 12 17 10 18 13 20 4 22 21 24 18 26
REMARK H PARENT 10 19 13 21 4 23 21 25 18 27
REMARK Flexibility Score: inf
ROOT
ATOM      1  C   UNL     1      19.574  -5.646 -33.710  1.00  0.00     0.184 A 
ATOM      2  C   UNL     1      19.889  -4.291 -33.523  1.00  0.00     0.208 A 
ATOM      3  C   UNL     1      20.972  -3.741 -34.224  1.00  0.00     0.238 A 
ATOM      4  O   UNL     1      21.217  -2.513 -34.093  1.00  0.00    -0.285 OA
ATOM      5  C   UNL     1      21.738  -4.560 -35.089  1.00  0.00     0.111 A 
ATOM      6  C   UNL     1      22.884  -4.119 -35.819  1.00  0.00     0.134 A 
ATOM      7  C   UNL     1      23.487  -4.980 -36.745  1.00  0.00     0.093 A 
ATOM      8  C   UNL     1      23.025  -6.287 -36.920  1.00  0.00     0.123 A 
ATOM      9  C   UNL     1      21.945  -6.746 -36.170  1.00  0.00     0.094 A 
ATOM     10  C   UNL     1      21.300  -5.899 -35.264  1.00  0.00     0.146 A 
ATOM     11  O   UNL     1      20.267  -6.373 -34.577  1.00  0.00    -0.451 OA
ENDROOT
BRANCH   1  12
ATOM     12  C   UNL     1      18.455  -6.291 -32.990  1.00  0.00     0.063 A 
ATOM     13  C   UNL     1      16.144  -7.045 -32.992  1.00  0.00     0.047 A 
ATOM     14  C   UNL     1      17.220  -6.436 -33.642  1.00  0.00     0.020 A 
ATOM     15  C   UNL     1      16.293  -7.531 -31.688  1.00  0.00     0.119 A 
ATOM     16  C   UNL     1      17.526  -7.412 -31.040  1.00  0.00     0.093 A 
ATOM     17  C   UNL     1      18.613  -6.806 -31.687  1.00  0.00     0.130 A 
BRANCH  15  18
ATOM     18  O   UNL     1      15.225  -8.137 -31.030  1.00  0.00    -0.508 OA
ATOM     19  H   UNL     1      15.326  -9.036 -30.573  1.00  0.00     0.293 HD
ENDBRANCH  15  18
BRANCH  17  20
ATOM     20  O   UNL     1      19.851  -6.739 -31.047  1.00  0.00    -0.507 OA
ATOM     21  H   UNL     1      20.290  -7.561 -30.649  1.00  0.00     0.293 HD
ENDBRANCH  17  20
ENDBRANCH   1  12
BRANCH   2  22
ATOM     22  O   UNL     1      19.104  -3.503 -32.676  1.00  0.00    -0.502 OA
ATOM     23  H   UNL     1      18.876  -3.784 -31.729  1.00  0.00     0.293 HD
ENDBRANCH   2  22
BRANCH   6  24
ATOM     24  O   UNL     1      23.480  -2.866 -35.652  1.00  0.00    -0.507 OA
ATOM     25  H   UNL     1      22.986  -1.987 -35.673  1.00  0.00     0.293 HD
ENDBRANCH   6  24
BRANCH   8  26
ATOM     26  O   UNL     1      23.639  -7.141 -37.832  1.00  0.00    -0.508 OA
ATOM     27  H   UNL     1      23.473  -7.060 -38.828  1.00  0.00     0.293 HD
ENDBRANCH   8  26
TORSDOF 6
ENDMDL
MODEL 7
REMARK VINA RESULT:    -5.540      2.994      8.176
REMARK INTER + INTRA:          -6.968
REMARK INTER:                  -6.568
REMARK INTRA:                  -0.400
REMARK UNBOUND:                -0.294
REMARK SMILES O=c1c(O)c(-c2ccc(O)cc2O)oc2cc(O)cc(O)c12
REMARK SMILES IDX 5 1 3 2 2 3 1 4 22 5 20 6 19 7 17 8 16 9 15 10 14 11 6 12
REMARK SMILES IDX 8 13 7 14 9 15 11 16 12 17 10 18 13 20 4 22 21 24 18 26
REMARK H PARENT 10 19 13 21 4 23 21 25 18 27
REMARK Flexibility Score: inf
ROOT
ATOM      1  C   UNL     1      20.525  -6.194 -35.507  1.00  0.00     0.184 A 
ATOM      2  C   UNL     1      19.394  -6.107 -36.333  1.00  0.00     0.208 A 
ATOM      3  C   UNL     1      18.130  -6.370 -35.786  1.00  0.00     0.238 A 
ATOM      4  O   UNL     1      17.114  -6.239 -36.519  1.00  0.00    -0.285 OA
ATOM      5  C   UNL     1      18.015  -6.734 -34.422  1.00  0.00     0.111 A 
ATOM      6  C   UNL     1      16.788  -7.063 -33.771  1.00  0.00     0.134 A 
ATOM      7  C   UNL     1      16.777  -7.281 -32.387  1.00  0.00     0.093 A 
ATOM      8  C   UNL     1      17.959  -7.246 -31.643  1.00  0.00     0.123 A 
ATOM      9  C   UNL     1      19.170  -6.985 -32.279  1.00  0.00     0.094 A 
ATOM     10  C   UNL     1      19.209  -6.727 -33.652  1.00  0.00     0.146 A 
ATOM     11  O   UNL     1      20.383  -6.472 -34.217  1.00  0.00    -0.451 OA
ENDROOT
BRANCH   1  12
ATOM     12  C   UNL     1      21.888  -5.944 -36.025  1.00  0.00     0.063 A 
ATOM     13  C   UNL     1      23.723  -6.636 -37.460  1.00  0.00     0.047 A 
ATOM     14  C   UNL     1      22.441  -6.845 -36.948  1.00  0.00     0.020 A 
ATOM     15  C   UNL     1      24.464  -5.514 -37.067  1.00  0.00     0.119 A 
ATOM     16  C   UNL     1      23.911  -4.600 -36.166  1.00  0.00     0.093 A 
ATOM     17  C   UNL     1      22.622  -4.800 -35.650  1.00  0.00     0.130 A 
BRANCH  15  18
ATOM     18  O   UNL     1      25.745  -5.298 -37.569  1.00  0.00    -0.508 OA
ATOM     19  H   UNL     1      26.307  -4.511 -37.265  1.00  0.00     0.293 HD
ENDBRANCH  15  18
BRANCH  17  20
ATOM     20  O   UNL     1      22.064  -3.853 -34.791  1.00  0.00    -0.507 OA
ATOM     21  H   UNL     1      22.498  -3.616 -33.906  1.00  0.00     0.293 HD
ENDBRANCH  17  20
ENDBRANCH   1  12
BRANCH   2  22
ATOM     22  O   UNL     1      19.535  -5.729 -37.672  1.00  0.00    -0.502 OA
ATOM     23  H   UNL     1      19.458  -6.392 -38.435  1.00  0.00     0.293 HD
ENDBRANCH   2  22
BRANCH   6  24
ATOM     24  O   UNL     1      15.568  -7.214 -34.435  1.00  0.00    -0.507 OA
ATOM     25  H   UNL     1      14.717  -6.730 -34.192  1.00  0.00     0.293 HD
ENDBRANCH   6  24
BRANCH   8  26
ATOM     26  O   UNL     1      17.942  -7.480 -30.270  1.00  0.00    -0.508 OA
ATOM     27  H   UNL     1      17.556  -8.333 -29.883  1.00  0.00     0.293 HD
ENDBRANCH   8  26
TORSDOF 6
ENDMDL
MODEL 8
REMARK VINA RESULT:    -5.533      2.078      6.951
REMARK INTER + INTRA:          -6.959
REMARK INTER:                  -6.530
REMARK INTRA:                  -0.429
REMARK UNBOUND:                -0.294
REMARK SMILES O=c1c(O)c(-c2ccc(O)cc2O)oc2cc(O)cc(O)c12
REMARK SMILES IDX 5 1 3 2 2 3 1 4 22 5 20 6 19 7 17 8 16 9 15 10 14 11 6 12
REMARK SMILES IDX 8 13 7 14 9 15 11 16 12 17 10 18 13 20 4 22 21 24 18 26
REMARK H PARENT 10 19 13 21 4 23 21 25 18 27
REMARK Flexibility Score: inf
ROOT
ATOM      1  C   UNL     1      15.476  -6.868 -30.645  1.00  0.00     0.184 A 
ATOM      2  C   UNL     1      15.067  -7.948 -29.848  1.00  0.00     0.208 A 
ATOM      3  C   UNL     1      13.868  -7.846 -29.126  1.00  0.00     0.238 A 
ATOM      4  O   UNL     1      13.480  -8.839 -28.456  1.00  0.00    -0.285 OA
ATOM      5  C   UNL     1      13.104  -6.657 -29.197  1.00  0.00     0.111 A 
ATOM      6  C   UNL     1      11.893  -6.427 -28.476  1.00  0.00     0.134 A 
ATOM      7  C   UNL     1      11.152  -5.264 -28.723  1.00  0.00     0.093 A 
ATOM      8  C   UNL     1      11.611  -4.293 -29.617  1.00  0.00     0.123 A 
ATOM      9  C   UNL     1      12.820  -4.481 -30.281  1.00  0.00     0.094 A 
ATOM     10  C   UNL     1      13.564  -5.647 -30.084  1.00  0.00     0.146 A 
ATOM     11  O   UNL     1      14.707  -5.791 -30.745  1.00  0.00    -0.451 OA
ENDROOT
BRANCH   1  12
ATOM     12  C   UNL     1      16.736  -6.905 -31.418  1.00  0.00     0.063 A 
ATOM     13  C   UNL     1      19.162  -6.763 -31.444  1.00  0.00     0.047 A 
ATOM     14  C   UNL     1      17.954  -6.729 -30.743  1.00  0.00     0.020 A 
ATOM     15  C   UNL     1      19.169  -6.989 -32.825  1.00  0.00     0.119 A 
ATOM     16  C   UNL     1      17.961  -7.188 -33.501  1.00  0.00     0.093 A 
ATOM     17  C   UNL     1      16.744  -7.160 -32.805  1.00  0.00     0.130 A 
BRANCH  15  18
ATOM     18  O   UNL     1      20.368  -7.021 -33.534  1.00  0.00    -0.508 OA
ATOM     19  H   UNL     1      20.388  -6.958 -34.545  1.00  0.00     0.293 HD
ENDBRANCH  15  18
BRANCH  17  20
ATOM     20  O   UNL     1      15.551  -7.410 -33.484  1.00  0.00    -0.507 OA
ATOM     21  H   UNL     1      14.992  -6.658 -33.872  1.00  0.00     0.293 HD
ENDBRANCH  17  20
ENDBRANCH   1  12
BRANCH   2  22
ATOM     22  O   UNL     1      15.832  -9.117 -29.811  1.00  0.00    -0.502 OA
ATOM     23  H   UNL     1      16.326  -9.469 -30.624  1.00  0.00     0.293 HD
ENDBRANCH   2  22
BRANCH   6  24
ATOM     24  O   UNL     1      11.394  -7.288 -27.495  1.00  0.00    -0.507 OA
ATOM     25  H   UNL     1      10.418  -7.512 -27.369  1.00  0.00     0.293 HD
ENDBRANCH   6  24
BRANCH   8  26
ATOM     26  O   UNL     1      10.875  -3.133 -29.845  1.00  0.00    -0.508 OA
ATOM     27  H   UNL     1      11.327  -2.233 -29.963  1.00  0.00     0.293 HD
ENDBRANCH   8  26
TORSDOF 6
ENDMDL
MODEL 9
REMARK VINA RESULT:    -5.429      2.229      6.559
REMARK INTER + INTRA:          -6.834
REMARK INTER:                  -6.545
REMARK INTRA:                  -0.289
REMARK UNBOUND:                -0.294
REMARK SMILES O=c1c(O)c(-c2ccc(O)cc2O)oc2cc(O)cc(O)c12
REMARK SMILES IDX 5 1 3 2 2 3 1 4 22 5 20 6 19 7 17 8 16 9 15 10 14 11 6 12
REMARK SMILES IDX 8 13 7 14 9 15 11 16 12 17 10 18 13 20 4 22 21 24 18 26
REMARK H PARENT 10 19 13 21 4 23 21 25 18 27
REMARK Flexibility Score: inf
ROOT
ATOM      1  C   UNL     1      16.406  -6.532 -31.469  1.00  0.00     0.184 A 
ATOM      2  C   UNL     1      15.250  -7.317 -31.345  1.00  0.00     0.208 A 
ATOM      3  C   UNL     1      14.340  -7.031 -30.317  1.00  0.00     0.238 A 
ATOM      4  O   UNL     1      13.278  -7.704 -30.244  1.00  0.00    -0.285 OA
ATOM      5  C   UNL     1      14.608  -5.974 -29.414  1.00  0.00     0.111 A 
ATOM      6  C   UNL     1      13.776  -5.620 -28.309  1.00  0.00     0.134 A 
ATOM      7  C   UNL     1      14.073  -4.474 -27.559  1.00  0.00     0.093 A 
ATOM      8  C   UNL     1      15.207  -3.707 -27.835  1.00  0.00     0.123 A 
ATOM      9  C   UNL     1      16.057  -4.077 -28.874  1.00  0.00     0.094 A 
ATOM     10  C   UNL     1      15.769  -5.193 -29.663  1.00  0.00     0.146 A 
ATOM     11  O   UNL     1      16.600  -5.505 -30.650  1.00  0.00    -0.451 OA
ENDROOT
BRANCH   1  12
ATOM     12  C   UNL     1      17.413  -6.790 -32.521  1.00  0.00     0.063 A 
ATOM     13  C   UNL     1      17.944  -6.983 -34.885  1.00  0.00     0.047 A 
ATOM     14  C   UNL     1      17.017  -6.748 -33.867  1.00  0.00     0.020 A 
ATOM     15  C   UNL     1      19.283  -7.246 -34.571  1.00  0.00     0.119 A 
ATOM     16  C   UNL     1      19.690  -7.265 -33.234  1.00  0.00     0.093 A 
ATOM     17  C   UNL     1      18.767  -7.027 -32.206  1.00  0.00     0.130 A 
BRANCH  15  18
ATOM     18  O   UNL     1      20.215  -7.484 -35.578  1.00  0.00    -0.508 OA
ATOM     19  H   UNL     1      19.930  -7.631 -36.540  1.00  0.00     0.293 HD
ENDBRANCH  15  18
BRANCH  17  20
ATOM     20  O   UNL     1      19.198  -7.000 -30.879  1.00  0.00    -0.507 OA
ATOM     21  H   UNL     1      19.820  -6.278 -30.536  1.00  0.00     0.293 HD
ENDBRANCH  17  20
ENDBRANCH   1  12
BRANCH   2  22
ATOM     22  O   UNL     1      15.001  -8.343 -32.262  1.00  0.00    -0.502 OA
ATOM     23  H   UNL     1      14.090  -8.777 -32.357  1.00  0.00     0.293 HD
ENDBRANCH   2  22
BRANCH   6  24
ATOM     24  O   UNL     1      12.673  -6.370 -27.892  1.00  0.00    -0.507 OA
ATOM     25  H   UNL     1      12.292  -6.361 -26.957  1.00  0.00     0.293 HD
ENDBRANCH   6  24
BRANCH   8  26
ATOM     26  O   UNL     1      15.502  -2.577 -27.076  1.00  0.00    -0.508 OA
ATOM     27  H   UNL     1      14.896  -1.765 -27.075  1.00  0.00     0.293 HD
ENDBRANCH   8  26
TORSDOF 6
ENDMDL
