MODEL 1
REMARK VINA RESULT:    -6.754      0.000      0.000
REMARK INTER + INTRA:         -12.568
REMARK INTER:                 -10.703
REMARK INTRA:                  -1.865
REMARK UNBOUND:                -1.865
REMARK SMILES C[C@H]1O[C@H](O[C@H]2CC[C@@]3(C)[C@H](CC[C@@]4(C)[C@H]3C=C[C@]35OC[C@@]6(CCC(C)(C)C[C@H]63)[C@@H](O)C[C@]45C)[C@]2(C)CO)[C@@H](O)[C@H](O[C@H]2O[C@H](CO)[C@H](O)[C@@H](O)[C@H]2O)[C@H]1O
REMARK SMILES IDX 1 1 2 2 54 3 41 4 39 5 4 6 3 7 55 8 42 10 43 11 52 12 44 13
REMARK SMILES IDX 50 14 45 15 48 16 53 17 51 19 46 21 47 22 49 24 5 26 6 27
REMARK SMILES IDX 7 28 35 29 8 30 11 31 36 32 9 33 12 34 10 35 16 36 13 37
REMARK SMILES IDX 14 38 17 39 15 40 33 41 18 42 19 43 32 44 34 45 29 46 20 47
REMARK SMILES IDX 30 48 22 49 28 50 21 51 23 52 25 53 24 54 26 55 27 56 37 57
REMARK SMILES IDX 38 58 31 60 40 62
REMARK H PARENT 55 9 53 18 51 20 47 23 49 25 38 59 31 61 40 63
REMARK Flexibility Score: inf
ROOT
ATOM      1  C   UNL     1      27.983   5.660  40.818  1.00  0.00     0.041 C 
ATOM      2  C   UNL     1      26.709   4.819  40.767  1.00  0.00     0.150 C 
ATOM      3  C   UNL     1      25.881   4.977  42.059  1.00  0.00     0.175 C 
ATOM      4  C   UNL     1      24.626   4.061  42.023  1.00  0.00     0.186 C 
ATOM      5  C   UNL     1      24.965   2.638  41.520  1.00  0.00     0.202 C 
ATOM      6  C   UNL     1      25.928   2.659  40.305  1.00  0.00     0.282 C 
ATOM      7  O   UNL     1      27.064   3.465  40.567  1.00  0.00    -0.344 OA
ENDROOT
BRANCH   3   8
ATOM      8  O   UNL     1      26.661   4.739  43.208  1.00  0.00    -0.388 OA
ATOM      9  H   UNL     1      26.646   5.555  43.766  1.00  0.00     0.211 HD
ENDBRANCH   3   8
BRANCH   4  10
ATOM     10  O   UNL     1      23.641   4.620  41.165  1.00  0.00    -0.341 OA
BRANCH  10  11
ATOM     11  C   UNL     1      22.357   4.678  41.779  1.00  0.00     0.282 C 
ATOM     12  C   UNL     1      21.258   5.077  40.761  1.00  0.00     0.202 C 
ATOM     13  O   UNL     1      22.374   5.580  42.875  1.00  0.00    -0.341 OA
ATOM     14  C   UNL     1      21.435   6.536  40.295  1.00  0.00     0.179 C 
ATOM     15  C   UNL     1      22.695   6.902  42.473  1.00  0.00     0.178 C 
ATOM     16  C   UNL     1      21.619   7.470  41.505  1.00  0.00     0.177 C 
BRANCH  12  17
ATOM     17  O   UNL     1      21.268   4.213  39.653  1.00  0.00    -0.385 OA
ATOM     18  H   UNL     1      21.202   4.782  38.842  1.00  0.00     0.211 HD
ENDBRANCH  12  17
BRANCH  14  19
ATOM     19  O   UNL     1      22.554   6.651  39.450  1.00  0.00    -0.387 OA
ATOM     20  H   UNL     1      22.716   7.623  39.307  1.00  0.00     0.211 HD
ENDBRANCH  14  19
BRANCH  15  21
ATOM     21  C   UNL     1      22.840   7.771  43.729  1.00  0.00     0.191 C 
BRANCH  21  22
ATOM     22  O   UNL     1      21.979   7.322  44.744  1.00  0.00    -0.394 OA
ATOM     23  H   UNL     1      21.333   6.695  44.331  1.00  0.00     0.210 HD
ENDBRANCH  21  22
ENDBRANCH  15  21
BRANCH  16  24
ATOM     24  O   UNL     1      20.389   7.700  42.156  1.00  0.00    -0.387 OA
ATOM     25  H   UNL     1      20.246   6.970  42.815  1.00  0.00     0.211 HD
ENDBRANCH  16  24
ENDBRANCH  10  11
ENDBRANCH   4  10
BRANCH   6  26
ATOM     26  O   UNL     1      25.243   3.120  39.140  1.00  0.00    -0.346 OA
BRANCH  26  27
ATOM     27  C   UNL     1      24.926   2.106  38.185  1.00  0.00     0.130 C 
ATOM     28  C   UNL     1      23.381   2.082  38.029  1.00  0.00     0.033 C 
ATOM     29  C   UNL     1      25.827   2.258  36.871  1.00  0.00     0.020 C 
ATOM     30  C   UNL     1      22.759   2.468  36.684  1.00  0.00     0.010 C 
ATOM     31  C   UNL     1      25.010   2.631  35.535  1.00  0.00     0.006 C 
ATOM     32  C   UNL     1      26.910   3.369  37.063  1.00  0.00     0.017 C 
ATOM     33  C   UNL     1      23.639   3.356  35.777  1.00  0.00    -0.022 C 
ATOM     34  C   UNL     1      24.844   1.453  34.526  1.00  0.00     0.005 C 
ATOM     35  C   UNL     1      23.871   4.723  36.495  1.00  0.00     0.012 C 
ATOM     36  C   UNL     1      22.945   3.700  34.379  1.00  0.00     0.024 C 
ATOM     37  C   UNL     1      24.329   1.927  33.159  1.00  0.00     0.008 C 
ATOM     38  C   UNL     1      22.944   2.635  33.216  1.00  0.00    -0.017 C 
ATOM     39  C   UNL     1      21.560   4.315  34.482  1.00  0.00    -0.024 C 
ATOM     40  C   UNL     1      21.883   1.514  33.507  1.00  0.00     0.013 C 
ATOM     41  C   UNL     1      22.599   3.436  31.834  1.00  0.00     0.009 C 
ATOM     42  C   UNL     1      20.783   4.519  33.401  1.00  0.00     0.005 C 
ATOM     43  C   UNL     1      21.190   4.212  31.963  1.00  0.00     0.096 C 
ATOM     44  C   UNL     1      22.612   2.492  30.574  1.00  0.00     0.043 C 
ATOM     45  C   UNL     1      23.710   4.512  31.497  1.00  0.00     0.015 C 
ATOM     46  C   UNL     1      20.009   3.567  31.200  1.00  0.00     0.037 C 
ATOM     47  O   UNL     1      21.304   5.470  31.309  1.00  0.00    -0.369 OA
ATOM     48  C   UNL     1      21.692   2.920  29.389  1.00  0.00     0.124 C 
ATOM     49  C   UNL     1      20.457   3.827  29.791  1.00  0.00     0.026 C 
ATOM     50  C   UNL     1      19.466   2.137  31.401  1.00  0.00     0.014 C 
ATOM     51  C   UNL     1      20.879   5.297  29.968  1.00  0.00     0.171 C 
ATOM     52  C   UNL     1      19.256   3.646  28.827  1.00  0.00     0.013 C 
ATOM     53  C   UNL     1      18.262   1.849  30.445  1.00  0.00    -0.035 C 
ATOM     54  C   UNL     1      18.590   2.257  28.972  1.00  0.00     0.007 C 
ATOM     55  C   UNL     1      17.965   0.334  30.479  1.00  0.00     0.011 C 
ATOM     56  C   UNL     1      16.987   2.587  30.922  1.00  0.00     0.011 C 
BRANCH  29  57
ATOM     57  C   UNL     1      26.653   0.934  36.705  1.00  0.00     0.165 C 
BRANCH  57  58
ATOM     58  O   UNL     1      26.980   0.358  37.946  1.00  0.00    -0.396 OA
ATOM     59  H   UNL     1      27.927   0.065  37.904  1.00  0.00     0.210 HD
ENDBRANCH  57  58
ENDBRANCH  29  57
BRANCH  48  60
ATOM     60  O   UNL     1      22.472   3.536  28.396  1.00  0.00    -0.392 OA
ATOM     61  H   UNL     1      22.301   4.511  28.454  1.00  0.00     0.210 HD
ENDBRANCH  48  60
ENDBRANCH  26  27
ENDBRANCH   6  26
BRANCH   5  62
ATOM     62  O   UNL     1      25.520   1.893  42.576  1.00  0.00    -0.385 OA
ATOM     63  H   UNL     1      26.489   1.782  42.385  1.00  0.00     0.211 HD
ENDBRANCH   5  62
TORSDOF 14
ENDMDL
MODEL 2
REMARK VINA RESULT:    -6.497      1.481      3.452
REMARK INTER + INTRA:         -12.160
REMARK INTER:                 -10.331
REMARK INTRA:                  -1.829
REMARK UNBOUND:                -1.865
REMARK SMILES C[C@H]1O[C@H](O[C@H]2CC[C@@]3(C)[C@H](CC[C@@]4(C)[C@H]3C=C[C@]35OC[C@@]6(CCC(C)(C)C[C@H]63)[C@@H](O)C[C@]45C)[C@]2(C)CO)[C@@H](O)[C@H](O[C@H]2O[C@H](CO)[C@H](O)[C@@H](O)[C@H]2O)[C@H]1O
REMARK SMILES IDX 1 1 2 2 54 3 41 4 39 5 4 6 3 7 55 8 42 10 43 11 52 12 44 13
REMARK SMILES IDX 50 14 45 15 48 16 53 17 51 19 46 21 47 22 49 24 5 26 6 27
REMARK SMILES IDX 7 28 35 29 8 30 11 31 36 32 9 33 12 34 10 35 16 36 13 37
REMARK SMILES IDX 14 38 17 39 15 40 33 41 18 42 19 43 32 44 34 45 29 46 20 47
REMARK SMILES IDX 30 48 22 49 28 50 21 51 23 52 25 53 24 54 26 55 27 56 37 57
REMARK SMILES IDX 38 58 31 60 40 62
REMARK H PARENT 55 9 53 18 51 20 47 23 49 25 38 59 31 61 40 63
REMARK Flexibility Score: inf
ROOT
ATOM      1  C   UNL     1      23.999   1.285  43.250  1.00  0.00     0.041 C 
ATOM      2  C   UNL     1      23.975   2.391  42.195  1.00  0.00     0.150 C 
ATOM      3  C   UNL     1      23.985   3.789  42.848  1.00  0.00     0.175 C 
ATOM      4  C   UNL     1      23.886   4.901  41.768  1.00  0.00     0.186 C 
ATOM      5  C   UNL     1      22.808   4.578  40.705  1.00  0.00     0.202 C 
ATOM      6  C   UNL     1      22.843   3.091  40.267  1.00  0.00     0.282 C 
ATOM      7  O   UNL     1      22.824   2.227  41.390  1.00  0.00    -0.344 OA
ENDROOT
BRANCH   3   8
ATOM      8  O   UNL     1      22.969   3.917  43.816  1.00  0.00    -0.388 OA
ATOM      9  H   UNL     1      23.382   3.838  44.711  1.00  0.00     0.211 HD
ENDBRANCH   3   8
BRANCH   4  10
ATOM     10  O   UNL     1      25.137   5.052  41.110  1.00  0.00    -0.341 OA
BRANCH  10  11
ATOM     11  C   UNL     1      26.231   5.062  42.023  1.00  0.00     0.282 C 
ATOM     12  C   UNL     1      26.662   6.509  42.376  1.00  0.00     0.202 C 
ATOM     13  O   UNL     1      27.325   4.331  41.490  1.00  0.00    -0.341 OA
ATOM     14  C   UNL     1      27.280   7.218  41.155  1.00  0.00     0.179 C 
ATOM     15  C   UNL     1      27.800   4.890  40.275  1.00  0.00     0.178 C 
ATOM     16  C   UNL     1      28.350   6.327  40.497  1.00  0.00     0.177 C 
BRANCH  12  17
ATOM     17  O   UNL     1      25.571   7.249  42.861  1.00  0.00    -0.385 OA
ATOM     18  H   UNL     1      25.940   8.078  43.265  1.00  0.00     0.211 HD
ENDBRANCH  12  17
BRANCH  14  19
ATOM     19  O   UNL     1      26.288   7.522  40.206  1.00  0.00    -0.387 OA
ATOM     20  H   UNL     1      26.708   8.100  39.514  1.00  0.00     0.211 HD
ENDBRANCH  14  19
BRANCH  15  21
ATOM     21  C   UNL     1      28.872   3.957  39.696  1.00  0.00     0.191 C 
BRANCH  21  22
ATOM     22  O   UNL     1      29.739   3.511  40.708  1.00  0.00    -0.394 OA
ATOM     23  H   UNL     1      30.629   3.910  40.536  1.00  0.00     0.210 HD
ENDBRANCH  21  22
ENDBRANCH  15  21
BRANCH  16  24
ATOM     24  O   UNL     1      29.541   6.327  41.253  1.00  0.00    -0.387 OA
ATOM     25  H   UNL     1      29.782   7.271  41.451  1.00  0.00     0.211 HD
ENDBRANCH  16  24
ENDBRANCH  10  11
ENDBRANCH   4  10
BRANCH   6  26
ATOM     26  O   UNL     1      23.994   2.840  39.460  1.00  0.00    -0.346 OA
BRANCH  26  27
ATOM     27  C   UNL     1      23.810   1.865  38.433  1.00  0.00     0.130 C 
ATOM     28  C   UNL     1      22.298   1.846  38.077  1.00  0.00     0.033 C 
ATOM     29  C   UNL     1      24.873   2.071  37.254  1.00  0.00     0.020 C 
ATOM     30  C   UNL     1      21.853   2.285  36.679  1.00  0.00     0.010 C 
ATOM     31  C   UNL     1      24.233   2.496  35.839  1.00  0.00     0.006 C 
ATOM     32  C   UNL     1      25.915   3.174  37.629  1.00  0.00     0.017 C 
ATOM     33  C   UNL     1      22.838   3.209  35.930  1.00  0.00    -0.022 C 
ATOM     34  C   UNL     1      24.206   1.359  34.772  1.00  0.00     0.005 C 
ATOM     35  C   UNL     1      22.966   4.546  36.725  1.00  0.00     0.012 C 
ATOM     36  C   UNL     1      22.329   3.608  34.468  1.00  0.00     0.024 C 
ATOM     37  C   UNL     1      23.870   1.886  33.369  1.00  0.00     0.008 C 
ATOM     38  C   UNL     1      22.484   2.590  33.274  1.00  0.00    -0.017 C 
ATOM     39  C   UNL     1      20.938   4.217  34.415  1.00  0.00    -0.024 C 
ATOM     40  C   UNL     1      21.402   1.457  33.380  1.00  0.00     0.013 C 
ATOM     41  C   UNL     1      22.317   3.445  31.892  1.00  0.00     0.009 C 
ATOM     42  C   UNL     1      20.307   4.463  33.252  1.00  0.00     0.005 C 
ATOM     43  C   UNL     1      20.898   4.214  31.867  1.00  0.00     0.096 C 
ATOM     44  C   UNL     1      22.499   2.552  30.607  1.00  0.00     0.043 C 
ATOM     45  C   UNL     1      23.456   4.535  31.744  1.00  0.00     0.015 C 
ATOM     46  C   UNL     1      19.830   3.599  30.933  1.00  0.00     0.037 C 
ATOM     47  O   UNL     1      21.088   5.498  31.284  1.00  0.00    -0.369 OA
ATOM     48  C   UNL     1      21.737   3.026  29.331  1.00  0.00     0.124 C 
ATOM     49  C   UNL     1      20.455   3.916  29.605  1.00  0.00     0.026 C 
ATOM     50  C   UNL     1      19.274   2.161  31.006  1.00  0.00     0.014 C 
ATOM     51  C   UNL     1      20.842   5.377  29.893  1.00  0.00     0.171 C 
ATOM     52  C   UNL     1      19.390   3.772  28.487  1.00  0.00     0.013 C 
ATOM     53  C   UNL     1      18.206   1.910  29.890  1.00  0.00    -0.035 C 
ATOM     54  C   UNL     1      18.719   2.377  28.490  1.00  0.00     0.007 C 
ATOM     55  C   UNL     1      17.916   0.395  29.826  1.00  0.00     0.011 C 
ATOM     56  C   UNL     1      16.876   2.628  30.227  1.00  0.00     0.011 C 
BRANCH  29  57
ATOM     57  C   UNL     1      25.721   0.754  37.144  1.00  0.00     0.165 C 
BRANCH  57  58
ATOM     58  O   UNL     1      26.403   0.466  38.340  1.00  0.00    -0.396 OA
ATOM     59  H   UNL     1      25.746   0.507  39.081  1.00  0.00     0.210 HD
ENDBRANCH  57  58
ENDBRANCH  29  57
BRANCH  48  60
ATOM     60  O   UNL     1      22.635   3.683  28.473  1.00  0.00    -0.392 OA
ATOM     61  H   UNL     1      22.146   3.877  27.632  1.00  0.00     0.210 HD
ENDBRANCH  48  60
ENDBRANCH  26  27
ENDBRANCH   6  26
BRANCH   5  62
ATOM     62  O   UNL     1      21.541   4.913  41.214  1.00  0.00    -0.385 OA
ATOM     63  H   UNL     1      21.583   5.859  41.518  1.00  0.00     0.211 HD
ENDBRANCH   5  62
TORSDOF 14
ENDMDL
MODEL 3
REMARK VINA RESULT:    -6.345      2.819      6.193
REMARK INTER + INTRA:         -11.919
REMARK INTER:                  -9.690
REMARK INTRA:                  -2.229
REMARK UNBOUND:                -1.865
REMARK SMILES C[C@H]1O[C@H](O[C@H]2CC[C@@]3(C)[C@H](CC[C@@]4(C)[C@H]3C=C[C@]35OC[C@@]6(CCC(C)(C)C[C@H]63)[C@@H](O)C[C@]45C)[C@]2(C)CO)[C@@H](O)[C@H](O[C@H]2O[C@H](CO)[C@H](O)[C@@H](O)[C@H]2O)[C@H]1O
REMARK SMILES IDX 1 1 2 2 54 3 41 4 39 5 4 6 3 7 55 8 42 10 43 11 52 12 44 13
REMARK SMILES IDX 50 14 45 15 48 16 53 17 51 19 46 21 47 22 49 24 5 26 6 27
REMARK SMILES IDX 7 28 35 29 8 30 11 31 36 32 9 33 12 34 10 35 16 36 13 37
REMARK SMILES IDX 14 38 17 39 15 40 33 41 18 42 19 43 32 44 34 45 29 46 20 47
REMARK SMILES IDX 30 48 22 49 28 50 21 51 23 52 25 53 24 54 26 55 27 56 37 57
REMARK SMILES IDX 38 58 31 60 40 62
REMARK H PARENT 55 9 53 18 51 20 47 23 49 25 38 59 31 61 40 63
REMARK Flexibility Score: inf
ROOT
ATOM      1  C   UNL     1      25.352   2.692  40.797  1.00  0.00     0.041 C 
ATOM      2  C   UNL     1      25.772   2.735  39.329  1.00  0.00     0.150 C 
ATOM      3  C   UNL     1      26.995   1.829  39.069  1.00  0.00     0.175 C 
ATOM      4  C   UNL     1      27.456   1.939  37.589  1.00  0.00     0.186 C 
ATOM      5  C   UNL     1      27.496   3.409  37.106  1.00  0.00     0.202 C 
ATOM      6  C   UNL     1      26.262   4.217  37.581  1.00  0.00     0.282 C 
ATOM      7  O   UNL     1      26.063   4.074  38.977  1.00  0.00    -0.344 OA
ENDROOT
BRANCH   3   8
ATOM      8  O   UNL     1      28.048   2.111  39.961  1.00  0.00    -0.388 OA
ATOM      9  H   UNL     1      27.895   1.599  40.793  1.00  0.00     0.211 HD
ENDBRANCH   3   8
BRANCH   4  10
ATOM     10  O   UNL     1      26.569   1.212  36.749  1.00  0.00    -0.341 OA
BRANCH  10  11
ATOM     11  C   UNL     1      26.462  -0.157  37.130  1.00  0.00     0.282 C 
ATOM     12  C   UNL     1      27.052  -1.096  36.047  1.00  0.00     0.202 C 
ATOM     13  O   UNL     1      25.108  -0.490  37.398  1.00  0.00    -0.341 OA
ATOM     14  C   UNL     1      26.196  -1.071  34.765  1.00  0.00     0.179 C 
ATOM     15  C   UNL     1      24.281  -0.317  36.257  1.00  0.00     0.178 C 
ATOM     16  C   UNL     1      24.707  -1.269  35.106  1.00  0.00     0.177 C 
BRANCH  12  17
ATOM     17  O   UNL     1      28.378  -0.740  35.748  1.00  0.00    -0.385 OA
ATOM     18  H   UNL     1      28.863  -1.580  35.537  1.00  0.00     0.211 HD
ENDBRANCH  12  17
BRANCH  14  19
ATOM     19  O   UNL     1      26.354   0.152  34.089  1.00  0.00    -0.387 OA
ATOM     20  H   UNL     1      27.328   0.273  33.922  1.00  0.00     0.211 HD
ENDBRANCH  14  19
BRANCH  15  21
ATOM     21  C   UNL     1      22.823  -0.550  36.674  1.00  0.00     0.191 C 
BRANCH  21  22
ATOM     22  O   UNL     1      22.129  -1.252  35.674  1.00  0.00    -0.394 OA
ATOM     23  H   UNL     1      22.569  -1.050  34.809  1.00  0.00     0.210 HD
ENDBRANCH  21  22
ENDBRANCH  15  21
BRANCH  16  24
ATOM     24  O   UNL     1      24.435  -2.620  35.408  1.00  0.00    -0.387 OA
ATOM     25  H   UNL     1      25.229  -3.161  35.152  1.00  0.00     0.211 HD
ENDBRANCH  16  24
ENDBRANCH  10  11
ENDBRANCH   4  10
BRANCH   6  26
ATOM     26  O   UNL     1      25.097   3.807  36.864  1.00  0.00    -0.346 OA
BRANCH  26  27
ATOM     27  C   UNL     1      24.333   4.871  36.294  1.00  0.00     0.130 C 
ATOM     28  C   UNL     1      24.903   5.142  34.875  1.00  0.00     0.033 C 
ATOM     29  C   UNL     1      22.764   4.596  36.450  1.00  0.00     0.020 C 
ATOM     30  C   UNL     1      24.021   4.878  33.651  1.00  0.00     0.010 C 
ATOM     31  C   UNL     1      21.979   4.376  35.062  1.00  0.00     0.006 C 
ATOM     32  C   UNL     1      22.506   3.325  37.322  1.00  0.00     0.017 C 
ATOM     33  C   UNL     1      22.868   3.875  33.869  1.00  0.00    -0.022 C 
ATOM     34  C   UNL     1      21.089   5.579  34.622  1.00  0.00     0.005 C 
ATOM     35  C   UNL     1      23.482   2.478  34.203  1.00  0.00     0.012 C 
ATOM     36  C   UNL     1      21.969   3.664  32.565  1.00  0.00     0.024 C 
ATOM     37  C   UNL     1      20.143   5.211  33.469  1.00  0.00     0.008 C 
ATOM     38  C   UNL     1      20.874   4.731  32.181  1.00  0.00    -0.017 C 
ATOM     39  C   UNL     1      22.735   3.275  31.312  1.00  0.00    -0.024 C 
ATOM     40  C   UNL     1      21.549   6.003  31.554  1.00  0.00     0.013 C 
ATOM     41  C   UNL     1      19.857   4.014  31.122  1.00  0.00     0.009 C 
ATOM     42  C   UNL     1      22.147   3.212  30.102  1.00  0.00     0.005 C 
ATOM     43  C   UNL     1      20.666   3.470  29.836  1.00  0.00     0.096 C 
ATOM     44  C   UNL     1      18.676   4.961  30.688  1.00  0.00     0.043 C 
ATOM     45  C   UNL     1      19.114   2.780  31.779  1.00  0.00     0.015 C 
ATOM     46  C   UNL     1      20.492   4.304  28.546  1.00  0.00     0.037 C 
ATOM     47  O   UNL     1      20.112   2.219  29.449  1.00  0.00    -0.369 OA
ATOM     48  C   UNL     1      18.075   4.701  29.272  1.00  0.00     0.124 C 
ATOM     49  C   UNL     1      19.054   3.996  28.246  1.00  0.00     0.026 C 
ATOM     50  C   UNL     1      20.833   5.800  28.374  1.00  0.00     0.014 C 
ATOM     51  C   UNL     1      19.108   2.476  28.481  1.00  0.00     0.171 C 
ATOM     52  C   UNL     1      18.741   4.379  26.776  1.00  0.00     0.013 C 
ATOM     53  C   UNL     1      20.520   6.289  26.922  1.00  0.00    -0.035 C 
ATOM     54  C   UNL     1      19.090   5.854  26.466  1.00  0.00     0.007 C 
ATOM     55  C   UNL     1      20.593   7.831  26.900  1.00  0.00     0.011 C 
ATOM     56  C   UNL     1      21.574   5.756  25.920  1.00  0.00     0.011 C 
BRANCH  29  57
ATOM     57  C   UNL     1      22.156   5.775  37.289  1.00  0.00     0.165 C 
BRANCH  57  58
ATOM     58  O   UNL     1      22.892   6.964  37.137  1.00  0.00    -0.396 OA
ATOM     59  H   UNL     1      22.287   7.722  37.342  1.00  0.00     0.210 HD
ENDBRANCH  57  58
ENDBRANCH  29  57
BRANCH  48  60
ATOM     60  O   UNL     1      16.875   3.982  29.403  1.00  0.00    -0.392 OA
ATOM     61  H   UNL     1      16.133   4.635  29.317  1.00  0.00     0.210 HD
ENDBRANCH  48  60
ENDBRANCH  26  27
ENDBRANCH   6  26
BRANCH   5  62
ATOM     62  O   UNL     1      28.684   4.012  37.555  1.00  0.00    -0.385 OA
ATOM     63  H   UNL     1      29.441   3.458  37.228  1.00  0.00     0.211 HD
ENDBRANCH   5  62
TORSDOF 14
ENDMDL
MODEL 4
REMARK VINA RESULT:    -5.963      3.798     11.033
REMARK INTER + INTRA:         -11.314
REMARK INTER:                  -9.354
REMARK INTRA:                  -1.959
REMARK UNBOUND:                -1.865
REMARK SMILES C[C@H]1O[C@H](O[C@H]2CC[C@@]3(C)[C@H](CC[C@@]4(C)[C@H]3C=C[C@]35OC[C@@]6(CCC(C)(C)C[C@H]63)[C@@H](O)C[C@]45C)[C@]2(C)CO)[C@@H](O)[C@H](O[C@H]2O[C@H](CO)[C@H](O)[C@@H](O)[C@H]2O)[C@H]1O
REMARK SMILES IDX 1 1 2 2 54 3 41 4 39 5 4 6 3 7 55 8 42 10 43 11 52 12 44 13
REMARK SMILES IDX 50 14 45 15 48 16 53 17 51 19 46 21 47 22 49 24 5 26 6 27
REMARK SMILES IDX 7 28 35 29 8 30 11 31 36 32 9 33 12 34 10 35 16 36 13 37
REMARK SMILES IDX 14 38 17 39 15 40 33 41 18 42 19 43 32 44 34 45 29 46 20 47
REMARK SMILES IDX 30 48 22 49 28 50 21 51 23 52 25 53 24 54 26 55 27 56 37 57
REMARK SMILES IDX 38 58 31 60 40 62
REMARK H PARENT 55 9 53 18 51 20 47 23 49 25 38 59 31 61 40 63
REMARK Flexibility Score: inf
ROOT
ATOM      1  C   UNL     1      20.795   3.621  31.825  1.00  0.00     0.041 C 
ATOM      2  C   UNL     1      21.403   3.343  33.199  1.00  0.00     0.150 C 
ATOM      3  C   UNL     1      20.818   2.058  33.822  1.00  0.00     0.175 C 
ATOM      4  C   UNL     1      21.391   1.829  35.248  1.00  0.00     0.186 C 
ATOM      5  C   UNL     1      21.395   3.131  36.084  1.00  0.00     0.202 C 
ATOM      6  C   UNL     1      21.871   4.356  35.260  1.00  0.00     0.282 C 
ATOM      7  O   UNL     1      21.160   4.456  34.038  1.00  0.00    -0.344 OA
ENDROOT
BRANCH   3   8
ATOM      8  O   UNL     1      19.409   2.079  33.828  1.00  0.00    -0.388 OA
ATOM      9  H   UNL     1      19.101   2.375  32.936  1.00  0.00     0.211 HD
ENDBRANCH   3   8
BRANCH   4  10
ATOM     10  O   UNL     1      22.724   1.342  35.164  1.00  0.00    -0.341 OA
BRANCH  10  11
ATOM     11  C   UNL     1      22.843   0.244  34.264  1.00  0.00     0.282 C 
ATOM     12  C   UNL     1      23.098  -1.085  35.021  1.00  0.00     0.202 C 
ATOM     13  O   UNL     1      23.877   0.488  33.321  1.00  0.00    -0.341 OA
ATOM     14  C   UNL     1      24.489  -1.087  35.687  1.00  0.00     0.179 C 
ATOM     15  C   UNL     1      25.142   0.646  33.946  1.00  0.00     0.178 C 
ATOM     16  C   UNL     1      25.571  -0.654  34.680  1.00  0.00     0.177 C 
BRANCH  12  17
ATOM     17  O   UNL     1      22.102  -1.307  35.986  1.00  0.00    -0.385 OA
ATOM     18  H   UNL     1      22.527  -1.183  36.875  1.00  0.00     0.211 HD
ENDBRANCH  12  17
BRANCH  14  19
ATOM     19  O   UNL     1      24.509  -0.212  36.788  1.00  0.00    -0.387 OA
ATOM     20  H   UNL     1      25.325  -0.423  37.317  1.00  0.00     0.211 HD
ENDBRANCH  14  19
BRANCH  15  21
ATOM     21  C   UNL     1      26.164   1.055  32.877  1.00  0.00     0.191 C 
BRANCH  21  22
ATOM     22  O   UNL     1      25.522   1.334  31.659  1.00  0.00    -0.394 OA
ATOM     23  H   UNL     1      25.106   0.493  31.341  1.00  0.00     0.210 HD
ENDBRANCH  21  22
ENDBRANCH  15  21
BRANCH  16  24
ATOM     24  O   UNL     1      25.867  -1.699  33.779  1.00  0.00    -0.387 OA
ATOM     25  H   UNL     1      26.587  -2.256  34.177  1.00  0.00     0.211 HD
ENDBRANCH  16  24
ENDBRANCH  10  11
ENDBRANCH   4  10
BRANCH   6  26
ATOM     26  O   UNL     1      23.276   4.273  35.019  1.00  0.00    -0.346 OA
BRANCH  26  27
ATOM     27  C   UNL     1      24.040   5.369  35.525  1.00  0.00     0.130 C 
ATOM     28  C   UNL     1      24.017   5.274  37.075  1.00  0.00     0.033 C 
ATOM     29  C   UNL     1      25.455   5.468  34.784  1.00  0.00     0.020 C 
ATOM     30  C   UNL     1      25.325   5.009  37.828  1.00  0.00     0.010 C 
ATOM     31  C   UNL     1      26.730   5.197  35.729  1.00  0.00     0.006 C 
ATOM     32  C   UNL     1      25.541   4.443  33.606  1.00  0.00     0.017 C 
ATOM     33  C   UNL     1      26.438   4.328  37.003  1.00  0.00    -0.022 C 
ATOM     34  C   UNL     1      27.541   6.476  36.105  1.00  0.00     0.005 C 
ATOM     35  C   UNL     1      25.946   2.906  36.584  1.00  0.00     0.012 C 
ATOM     36  C   UNL     1      27.784   4.104  37.836  1.00  0.00     0.024 C 
ATOM     37  C   UNL     1      28.895   6.137  36.748  1.00  0.00     0.008 C 
ATOM     38  C   UNL     1      28.781   5.305  38.060  1.00  0.00    -0.017 C 
ATOM     39  C   UNL     1      27.611   3.359  39.149  1.00  0.00    -0.024 C 
ATOM     40  C   UNL     1      28.221   6.280  39.156  1.00  0.00     0.013 C 
ATOM     41  C   UNL     1      30.212   4.661  38.511  1.00  0.00     0.009 C 
ATOM     42  C   UNL     1      28.616   3.227  40.035  1.00  0.00     0.005 C 
ATOM     43  C   UNL     1      30.035   3.751  39.833  1.00  0.00     0.096 C 
ATOM     44  C   UNL     1      31.324   5.756  38.723  1.00  0.00     0.043 C 
ATOM     45  C   UNL     1      30.817   3.741  37.373  1.00  0.00     0.015 C 
ATOM     46  C   UNL     1      30.565   4.379  41.143  1.00  0.00     0.037 C 
ATOM     47  O   UNL     1      30.864   2.602  39.707  1.00  0.00    -0.369 OA
ATOM     48  C   UNL     1      32.445   5.402  39.748  1.00  0.00     0.124 C 
ATOM     49  C   UNL     1      32.037   4.344  40.854  1.00  0.00     0.026 C 
ATOM     50  C   UNL     1      30.108   5.718  41.761  1.00  0.00     0.014 C 
ATOM     51  C   UNL     1      32.113   2.907  40.305  1.00  0.00     0.171 C 
ATOM     52  C   UNL     1      32.826   4.538  42.175  1.00  0.00     0.013 C 
ATOM     53  C   UNL     1      30.874   6.017  43.092  1.00  0.00    -0.035 C 
ATOM     54  C   UNL     1      32.417   5.832  42.919  1.00  0.00     0.007 C 
ATOM     55  C   UNL     1      30.599   7.481  43.494  1.00  0.00     0.011 C 
ATOM     56  C   UNL     1      30.364   5.112  44.240  1.00  0.00     0.011 C 
BRANCH  29  57
ATOM     57  C   UNL     1      25.529   6.872  34.085  1.00  0.00     0.165 C 
BRANCH  57  58
ATOM     58  O   UNL     1      24.606   7.781  34.632  1.00  0.00    -0.396 OA
ATOM     59  H   UNL     1      24.131   7.322  35.372  1.00  0.00     0.210 HD
ENDBRANCH  57  58
ENDBRANCH  29  57
BRANCH  48  60
ATOM     60  O   UNL     1      33.595   4.991  39.053  1.00  0.00    -0.392 OA
ATOM     61  H   UNL     1      33.754   5.653  38.333  1.00  0.00     0.210 HD
ENDBRANCH  48  60
ENDBRANCH  26  27
ENDBRANCH   6  26
BRANCH   5  62
ATOM     62  O   UNL     1      20.107   3.354  36.601  1.00  0.00    -0.385 OA
ATOM     63  H   UNL     1      19.640   3.974  35.979  1.00  0.00     0.211 HD
ENDBRANCH   5  62
TORSDOF 14
ENDMDL
MODEL 5
REMARK VINA RESULT:    -5.846      5.653      9.974
REMARK INTER + INTRA:         -11.129
REMARK INTER:                  -9.237
REMARK INTRA:                  -1.892
REMARK UNBOUND:                -1.865
REMARK SMILES C[C@H]1O[C@H](O[C@H]2CC[C@@]3(C)[C@H](CC[C@@]4(C)[C@H]3C=C[C@]35OC[C@@]6(CCC(C)(C)C[C@H]63)[C@@H](O)C[C@]45C)[C@]2(C)CO)[C@@H](O)[C@H](O[C@H]2O[C@H](CO)[C@H](O)[C@@H](O)[C@H]2O)[C@H]1O
REMARK SMILES IDX 1 1 2 2 54 3 41 4 39 5 4 6 3 7 55 8 42 10 43 11 52 12 44 13
REMARK SMILES IDX 50 14 45 15 48 16 53 17 51 19 46 21 47 22 49 24 5 26 6 27
REMARK SMILES IDX 7 28 35 29 8 30 11 31 36 32 9 33 12 34 10 35 16 36 13 37
REMARK SMILES IDX 14 38 17 39 15 40 33 41 18 42 19 43 32 44 34 45 29 46 20 47
REMARK SMILES IDX 30 48 22 49 28 50 21 51 23 52 25 53 24 54 26 55 27 56 37 57
REMARK SMILES IDX 38 58 31 60 40 62
REMARK H PARENT 55 9 53 18 51 20 47 23 49 25 38 59 31 61 40 63
REMARK Flexibility Score: inf
ROOT
ATOM      1  C   UNL     1      20.005   4.477  34.276  1.00  0.00     0.041 C 
ATOM      2  C   UNL     1      21.278   4.054  35.008  1.00  0.00     0.150 C 
ATOM      3  C   UNL     1      21.002   2.891  35.984  1.00  0.00     0.175 C 
ATOM      4  C   UNL     1      22.288   2.521  36.775  1.00  0.00     0.186 C 
ATOM      5  C   UNL     1      23.026   3.777  37.296  1.00  0.00     0.202 C 
ATOM      6  C   UNL     1      23.083   4.906  36.235  1.00  0.00     0.282 C 
ATOM      7  O   UNL     1      21.797   5.172  35.702  1.00  0.00    -0.344 OA
ENDROOT
BRANCH   3   8
ATOM      8  O   UNL     1      19.929   3.184  36.850  1.00  0.00    -0.388 OA
ATOM      9  H   UNL     1      19.515   4.031  36.554  1.00  0.00     0.211 HD
ENDBRANCH   3   8
BRANCH   4  10
ATOM     10  O   UNL     1      23.176   1.789  35.941  1.00  0.00    -0.341 OA
BRANCH  10  11
ATOM     11  C   UNL     1      22.555   0.644  35.363  1.00  0.00     0.282 C 
ATOM     12  C   UNL     1      22.676  -0.595  36.286  1.00  0.00     0.202 C 
ATOM     13  O   UNL     1      23.115   0.372  34.086  1.00  0.00    -0.341 OA
ATOM     14  C   UNL     1      24.139  -1.067  36.395  1.00  0.00     0.179 C 
ATOM     15  C   UNL     1      24.504   0.091  34.162  1.00  0.00     0.178 C 
ATOM     16  C   UNL     1      24.772  -1.192  34.996  1.00  0.00     0.177 C 
BRANCH  12  17
ATOM     17  O   UNL     1      22.164  -0.315  37.564  1.00  0.00    -0.385 OA
ATOM     18  H   UNL     1      21.204  -0.087  37.448  1.00  0.00     0.211 HD
ENDBRANCH  12  17
BRANCH  14  19
ATOM     19  O   UNL     1      24.894  -0.161  37.162  1.00  0.00    -0.387 OA
ATOM     20  H   UNL     1      25.212   0.553  36.546  1.00  0.00     0.211 HD
ENDBRANCH  14  19
BRANCH  15  21
ATOM     21  C   UNL     1      25.052  -0.039  32.734  1.00  0.00     0.191 C 
BRANCH  21  22
ATOM     22  O   UNL     1      26.014  -1.060  32.664  1.00  0.00    -0.394 OA
ATOM     23  H   UNL     1      26.053  -1.369  31.723  1.00  0.00     0.210 HD
ENDBRANCH  21  22
ENDBRANCH  15  21
BRANCH  16  24
ATOM     24  O   UNL     1      24.318  -2.356  34.340  1.00  0.00    -0.387 OA
ATOM     25  H   UNL     1      24.234  -3.080  35.016  1.00  0.00     0.211 HD
ENDBRANCH  16  24
ENDBRANCH  10  11
ENDBRANCH   4  10
BRANCH   6  26
ATOM     26  O   UNL     1      23.996   4.560  35.193  1.00  0.00    -0.346 OA
BRANCH  26  27
ATOM     27  C   UNL     1      24.833   5.628  34.745  1.00  0.00     0.130 C 
ATOM     28  C   UNL     1      26.152   5.558  35.564  1.00  0.00     0.033 C 
ATOM     29  C   UNL     1      24.924   5.650  33.148  1.00  0.00     0.020 C 
ATOM     30  C   UNL     1      27.466   5.246  34.842  1.00  0.00     0.010 C 
ATOM     31  C   UNL     1      26.387   5.337  32.552  1.00  0.00     0.006 C 
ATOM     32  C   UNL     1      23.947   4.604  32.519  1.00  0.00     0.017 C 
ATOM     33  C   UNL     1      27.321   4.502  33.496  1.00  0.00    -0.022 C 
ATOM     34  C   UNL     1      27.137   6.583  31.989  1.00  0.00     0.005 C 
ATOM     35  C   UNL     1      26.696   3.098  33.770  1.00  0.00     0.012 C 
ATOM     36  C   UNL     1      28.724   4.231  32.780  1.00  0.00     0.024 C 
ATOM     37  C   UNL     1      28.380   6.193  31.174  1.00  0.00     0.008 C 
ATOM     38  C   UNL     1      29.439   5.388  31.983  1.00  0.00    -0.017 C 
ATOM     39  C   UNL     1      29.756   3.515  33.636  1.00  0.00    -0.024 C 
ATOM     40  C   UNL     1      30.103   6.405  32.978  1.00  0.00     0.013 C 
ATOM     41  C   UNL     1      30.555   4.686  31.018  1.00  0.00     0.009 C 
ATOM     42  C   UNL     1      31.031   3.351  33.235  1.00  0.00     0.005 C 
ATOM     43  C   UNL     1      31.589   3.807  31.890  1.00  0.00     0.096 C 
ATOM     44  C   UNL     1      31.317   5.733  30.121  1.00  0.00     0.043 C 
ATOM     45  C   UNL     1      29.879   3.722  29.959  1.00  0.00     0.015 C 
ATOM     46  C   UNL     1      32.992   4.431  32.077  1.00  0.00     0.037 C 
ATOM     47  O   UNL     1      31.895   2.620  31.168  1.00  0.00    -0.369 OA
ATOM     48  C   UNL     1      32.769   5.345  29.702  1.00  0.00     0.124 C 
ATOM     49  C   UNL     1      33.498   4.324  30.668  1.00  0.00     0.026 C 
ATOM     50  C   UNL     1      33.302   5.799  32.723  1.00  0.00     0.014 C 
ATOM     51  C   UNL     1      33.052   2.877  30.390  1.00  0.00     0.171 C 
ATOM     52  C   UNL     1      35.039   4.504  30.660  1.00  0.00     0.013 C 
ATOM     53  C   UNL     1      34.840   6.084  32.733  1.00  0.00    -0.035 C 
ATOM     54  C   UNL     1      35.480   5.826  31.331  1.00  0.00     0.007 C 
ATOM     55  C   UNL     1      35.058   7.566  33.106  1.00  0.00     0.011 C 
ATOM     56  C   UNL     1      35.555   5.221  33.802  1.00  0.00     0.011 C 
BRANCH  29  57
ATOM     57  C   UNL     1      24.375   7.038  32.660  1.00  0.00     0.165 C 
BRANCH  57  58
ATOM     58  O   UNL     1      23.937   7.837  33.732  1.00  0.00    -0.396 OA
ATOM     59  H   UNL     1      24.410   7.533  34.549  1.00  0.00     0.210 HD
ENDBRANCH  57  58
ENDBRANCH  29  57
BRANCH  48  60
ATOM     60  O   UNL     1      32.758   4.870  28.379  1.00  0.00    -0.392 OA
ATOM     61  H   UNL     1      31.906   4.377  28.253  1.00  0.00     0.210 HD
ENDBRANCH  48  60
ENDBRANCH  26  27
ENDBRANCH   6  26
BRANCH   5  62
ATOM     62  O   UNL     1      22.397   4.232  38.468  1.00  0.00    -0.385 OA
ATOM     63  H   UNL     1      23.111   4.454  39.122  1.00  0.00     0.211 HD
ENDBRANCH   5  62
TORSDOF 14
ENDMDL
MODEL 6
REMARK VINA RESULT:    -5.845      4.144     10.967
REMARK INTER + INTRA:         -11.128
REMARK INTER:                  -8.956
REMARK INTRA:                  -2.171
REMARK UNBOUND:                -1.865
REMARK SMILES C[C@H]1O[C@H](O[C@H]2CC[C@@]3(C)[C@H](CC[C@@]4(C)[C@H]3C=C[C@]35OC[C@@]6(CCC(C)(C)C[C@H]63)[C@@H](O)C[C@]45C)[C@]2(C)CO)[C@@H](O)[C@H](O[C@H]2O[C@H](CO)[C@H](O)[C@@H](O)[C@H]2O)[C@H]1O
REMARK SMILES IDX 1 1 2 2 54 3 41 4 39 5 4 6 3 7 55 8 42 10 43 11 52 12 44 13
REMARK SMILES IDX 50 14 45 15 48 16 53 17 51 19 46 21 47 22 49 24 5 26 6 27
REMARK SMILES IDX 7 28 35 29 8 30 11 31 36 32 9 33 12 34 10 35 16 36 13 37
REMARK SMILES IDX 14 38 17 39 15 40 33 41 18 42 19 43 32 44 34 45 29 46 20 47
REMARK SMILES IDX 30 48 22 49 28 50 21 51 23 52 25 53 24 54 26 55 27 56 37 57
REMARK SMILES IDX 38 58 31 60 40 62
REMARK H PARENT 55 9 53 18 51 20 47 23 49 25 38 59 31 61 40 63
REMARK Flexibility Score: inf
ROOT
ATOM      1  C   UNL     1      21.468   4.868  33.423  1.00  0.00     0.041 C 
ATOM      2  C   UNL     1      21.873   4.018  34.627  1.00  0.00     0.150 C 
ATOM      3  C   UNL     1      21.129   2.666  34.633  1.00  0.00     0.175 C 
ATOM      4  C   UNL     1      21.493   1.844  35.900  1.00  0.00     0.186 C 
ATOM      5  C   UNL     1      21.474   2.716  37.179  1.00  0.00     0.202 C 
ATOM      6  C   UNL     1      22.132   4.102  36.955  1.00  0.00     0.282 C 
ATOM      7  O   UNL     1      21.595   4.743  35.810  1.00  0.00    -0.344 OA
ENDROOT
BRANCH   3   8
ATOM      8  O   UNL     1      19.735   2.840  34.513  1.00  0.00    -0.388 OA
ATOM      9  H   UNL     1      19.494   3.703  34.932  1.00  0.00     0.211 HD
ENDBRANCH   3   8
BRANCH   4  10
ATOM     10  O   UNL     1      22.791   1.282  35.757  1.00  0.00    -0.341 OA
BRANCH  10  11
ATOM     11  C   UNL     1      22.922   0.520  34.561  1.00  0.00     0.282 C 
ATOM     12  C   UNL     1      23.137  -0.984  34.866  1.00  0.00     0.202 C 
ATOM     13  O   UNL     1      23.986   1.027  33.768  1.00  0.00    -0.341 OA
ATOM     14  C   UNL     1      24.508  -1.226  35.530  1.00  0.00     0.179 C 
ATOM     15  C   UNL     1      25.234   0.953  34.440  1.00  0.00     0.178 C 
ATOM     16  C   UNL     1      25.624  -0.522  34.737  1.00  0.00     0.177 C 
BRANCH  12  17
ATOM     17  O   UNL     1      22.111  -1.477  35.687  1.00  0.00    -0.385 OA
ATOM     18  H   UNL     1      21.410  -0.774  35.728  1.00  0.00     0.211 HD
ENDBRANCH  12  17
BRANCH  14  19
ATOM     19  O   UNL     1      24.508  -0.743  36.851  1.00  0.00    -0.387 OA
ATOM     20  H   UNL     1      23.642  -0.273  36.993  1.00  0.00     0.211 HD
ENDBRANCH  14  19
BRANCH  15  21
ATOM     21  C   UNL     1      26.293   1.655  33.579  1.00  0.00     0.191 C 
BRANCH  21  22
ATOM     22  O   UNL     1      27.584   1.378  34.058  1.00  0.00    -0.394 OA
ATOM     23  H   UNL     1      27.574   1.519  35.039  1.00  0.00     0.210 HD
ENDBRANCH  21  22
ENDBRANCH  15  21
BRANCH  16  24
ATOM     24  O   UNL     1      25.933  -1.236  33.559  1.00  0.00    -0.387 OA
ATOM     25  H   UNL     1      26.509  -0.660  32.990  1.00  0.00     0.211 HD
ENDBRANCH  16  24
ENDBRANCH  10  11
ENDBRANCH   4  10
BRANCH   6  26
ATOM     26  O   UNL     1      23.548   3.962  36.834  1.00  0.00    -0.346 OA
BRANCH  26  27
ATOM     27  C   UNL     1      24.238   3.731  38.063  1.00  0.00     0.130 C 
ATOM     28  C   UNL     1      25.172   2.509  37.848  1.00  0.00     0.033 C 
ATOM     29  C   UNL     1      24.871   5.089  38.627  1.00  0.00     0.020 C 
ATOM     30  C   UNL     1      26.690   2.705  37.919  1.00  0.00     0.010 C 
ATOM     31  C   UNL     1      26.480   5.115  38.669  1.00  0.00     0.006 C 
ATOM     32  C   UNL     1      24.421   6.313  37.765  1.00  0.00     0.017 C 
ATOM     33  C   UNL     1      27.185   4.144  37.658  1.00  0.00    -0.022 C 
ATOM     34  C   UNL     1      27.093   4.970  40.096  1.00  0.00     0.005 C 
ATOM     35  C   UNL     1      26.820   4.535  36.191  1.00  0.00     0.012 C 
ATOM     36  C   UNL     1      28.772   4.288  37.774  1.00  0.00     0.024 C 
ATOM     37  C   UNL     1      28.594   5.297  40.119  1.00  0.00     0.008 C 
ATOM     38  C   UNL     1      29.453   4.387  39.193  1.00  0.00    -0.017 C 
ATOM     39  C   UNL     1      29.571   3.323  36.914  1.00  0.00    -0.024 C 
ATOM     40  C   UNL     1      29.495   2.973  39.876  1.00  0.00     0.013 C 
ATOM     41  C   UNL     1      30.957   4.980  38.962  1.00  0.00     0.009 C 
ATOM     42  C   UNL     1      30.909   3.213  37.013  1.00  0.00     0.005 C 
ATOM     43  C   UNL     1      31.788   4.045  37.942  1.00  0.00     0.096 C 
ATOM     44  C   UNL     1      31.740   5.177  40.314  1.00  0.00     0.043 C 
ATOM     45  C   UNL     1      30.915   6.439  38.349  1.00  0.00     0.015 C 
ATOM     46  C   UNL     1      32.869   3.153  38.597  1.00  0.00     0.037 C 
ATOM     47  O   UNL     1      32.573   4.879  37.099  1.00  0.00    -0.369 OA
ATOM     48  C   UNL     1      33.294   5.074  40.227  1.00  0.00     0.124 C 
ATOM     49  C   UNL     1      33.844   4.216  39.014  1.00  0.00     0.026 C 
ATOM     50  C   UNL     1      32.634   2.091  39.692  1.00  0.00     0.014 C 
ATOM     51  C   UNL     1      33.844   5.031  37.709  1.00  0.00     0.171 C 
ATOM     52  C   UNL     1      35.214   3.562  39.330  1.00  0.00     0.013 C 
ATOM     53  C   UNL     1      33.973   1.393  40.100  1.00  0.00    -0.035 C 
ATOM     54  C   UNL     1      35.100   2.438  40.387  1.00  0.00     0.007 C 
ATOM     55  C   UNL     1      33.725   0.575  41.385  1.00  0.00     0.011 C 
ATOM     56  C   UNL     1      34.441   0.408  39.000  1.00  0.00     0.011 C 
BRANCH  29  57
ATOM     57  C   UNL     1      24.241   5.356  40.040  1.00  0.00     0.165 C 
BRANCH  57  58
ATOM     58  O   UNL     1      23.309   4.364  40.397  1.00  0.00    -0.396 OA
ATOM     59  H   UNL     1      22.521   4.817  40.793  1.00  0.00     0.210 HD
ENDBRANCH  57  58
ENDBRANCH  29  57
BRANCH  48  60
ATOM     60  O   UNL     1      33.845   6.367  40.223  1.00  0.00    -0.392 OA
ATOM     61  H   UNL     1      34.816   6.271  40.399  1.00  0.00     0.210 HD
ENDBRANCH  48  60
ENDBRANCH  26  27
ENDBRANCH   6  26
BRANCH   5  62
ATOM     62  O   UNL     1      20.146   2.865  37.617  1.00  0.00    -0.385 OA
ATOM     63  H   UNL     1      20.150   2.790  38.608  1.00  0.00     0.211 HD
ENDBRANCH   5  62
TORSDOF 14
ENDMDL
MODEL 7
REMARK VINA RESULT:    -5.820      5.269     10.030
REMARK INTER + INTRA:         -11.087
REMARK INTER:                  -9.294
REMARK INTRA:                  -1.793
REMARK UNBOUND:                -1.865
REMARK SMILES C[C@H]1O[C@H](O[C@H]2CC[C@@]3(C)[C@H](CC[C@@]4(C)[C@H]3C=C[C@]35OC[C@@]6(CCC(C)(C)C[C@H]63)[C@@H](O)C[C@]45C)[C@]2(C)CO)[C@@H](O)[C@H](O[C@H]2O[C@H](CO)[C@H](O)[C@@H](O)[C@H]2O)[C@H]1O
REMARK SMILES IDX 1 1 2 2 54 3 41 4 39 5 4 6 3 7 55 8 42 10 43 11 52 12 44 13
REMARK SMILES IDX 50 14 45 15 48 16 53 17 51 19 46 21 47 22 49 24 5 26 6 27
REMARK SMILES IDX 7 28 35 29 8 30 11 31 36 32 9 33 12 34 10 35 16 36 13 37
REMARK SMILES IDX 14 38 17 39 15 40 33 41 18 42 19 43 32 44 34 45 29 46 20 47
REMARK SMILES IDX 30 48 22 49 28 50 21 51 23 52 25 53 24 54 26 55 27 56 37 57
REMARK SMILES IDX 38 58 31 60 40 62
REMARK H PARENT 55 9 53 18 51 20 47 23 49 25 38 59 31 61 40 63
REMARK Flexibility Score: inf
ROOT
ATOM      1  C   UNL     1      34.902   6.843  44.003  1.00  0.00     0.041 C 
ATOM      2  C   UNL     1      34.571   6.169  42.673  1.00  0.00     0.150 C 
ATOM      3  C   UNL     1      35.796   5.425  42.101  1.00  0.00     0.175 C 
ATOM      4  C   UNL     1      35.466   4.808  40.714  1.00  0.00     0.186 C 
ATOM      5  C   UNL     1      34.703   5.803  39.806  1.00  0.00     0.202 C 
ATOM      6  C   UNL     1      33.602   6.575  40.578  1.00  0.00     0.282 C 
ATOM      7  O   UNL     1      34.119   7.154  41.764  1.00  0.00    -0.344 OA
ENDROOT
BRANCH   3   8
ATOM      8  O   UNL     1      36.928   6.262  42.038  1.00  0.00    -0.388 OA
ATOM      9  H   UNL     1      37.412   6.192  42.897  1.00  0.00     0.211 HD
ENDBRANCH   3   8
BRANCH   4  10
ATOM     10  O   UNL     1      34.667   3.644  40.878  1.00  0.00    -0.341 OA
BRANCH  10  11
ATOM     11  C   UNL     1      35.295   2.478  40.353  1.00  0.00     0.282 C 
ATOM     12  C   UNL     1      34.287   1.587  39.583  1.00  0.00     0.202 C 
ATOM     13  O   UNL     1      35.919   1.742  41.395  1.00  0.00    -0.341 OA
ATOM     14  C   UNL     1      33.251   0.966  40.542  1.00  0.00     0.179 C 
ATOM     15  C   UNL     1      34.986   1.301  42.369  1.00  0.00     0.178 C 
ATOM     16  C   UNL     1      33.952   0.319  41.751  1.00  0.00     0.177 C 
BRANCH  12  17
ATOM     17  O   UNL     1      33.635   2.324  38.581  1.00  0.00    -0.385 OA
ATOM     18  H   UNL     1      34.139   3.173  38.473  1.00  0.00     0.211 HD
ENDBRANCH  12  17
BRANCH  14  19
ATOM     19  O   UNL     1      32.354   1.948  41.001  1.00  0.00    -0.387 OA
ATOM     20  H   UNL     1      31.806   2.235  40.222  1.00  0.00     0.211 HD
ENDBRANCH  14  19
BRANCH  15  21
ATOM     21  C   UNL     1      35.759   0.653  43.525  1.00  0.00     0.191 C 
BRANCH  21  22
ATOM     22  O   UNL     1      34.892  -0.083  44.350  1.00  0.00    -0.394 OA
ATOM     23  H   UNL     1      34.582   0.522  45.072  1.00  0.00     0.210 HD
ENDBRANCH  21  22
ENDBRANCH  15  21
BRANCH  16  24
ATOM     24  O   UNL     1      34.539  -0.913  41.393  1.00  0.00    -0.387 OA
ATOM     25  H   UNL     1      35.515  -0.854  41.569  1.00  0.00     0.211 HD
ENDBRANCH  16  24
ENDBRANCH  10  11
ENDBRANCH   4  10
BRANCH   6  26
ATOM     26  O   UNL     1      32.509   5.707  40.879  1.00  0.00    -0.346 OA
BRANCH  26  27
ATOM     27  C   UNL     1      31.263   6.365  41.113  1.00  0.00     0.130 C 
ATOM     28  C   UNL     1      30.643   6.691  39.726  1.00  0.00     0.033 C 
ATOM     29  C   UNL     1      30.380   5.556  42.175  1.00  0.00     0.020 C 
ATOM     30  C   UNL     1      29.333   6.014  39.313  1.00  0.00     0.010 C 
ATOM     31  C   UNL     1      29.015   4.939  41.585  1.00  0.00     0.006 C 
ATOM     32  C   UNL     1      31.190   4.364  42.780  1.00  0.00     0.017 C 
ATOM     33  C   UNL     1      29.018   4.686  40.036  1.00  0.00    -0.022 C 
ATOM     34  C   UNL     1      27.721   5.692  42.021  1.00  0.00     0.005 C 
ATOM     35  C   UNL     1      30.119   3.643  39.662  1.00  0.00     0.012 C 
ATOM     36  C   UNL     1      27.626   4.044  39.582  1.00  0.00     0.024 C 
ATOM     37  C   UNL     1      26.447   4.902  41.684  1.00  0.00     0.008 C 
ATOM     38  C   UNL     1      26.273   4.602  40.167  1.00  0.00    -0.017 C 
ATOM     39  C   UNL     1      27.468   3.844  38.084  1.00  0.00    -0.024 C 
ATOM     40  C   UNL     1      25.907   5.968  39.483  1.00  0.00     0.013 C 
ATOM     41  C   UNL     1      25.128   3.471  39.886  1.00  0.00     0.009 C 
ATOM     42  C   UNL     1      26.302   3.461  37.531  1.00  0.00     0.005 C 
ATOM     43  C   UNL     1      25.030   3.140  38.310  1.00  0.00     0.096 C 
ATOM     44  C   UNL     1      23.723   3.881  40.467  1.00  0.00     0.043 C 
ATOM     45  C   UNL     1      25.454   2.118  40.641  1.00  0.00     0.015 C 
ATOM     46  C   UNL     1      23.797   3.731  37.587  1.00  0.00     0.037 C 
ATOM     47  O   UNL     1      24.814   1.742  38.153  1.00  0.00    -0.369 OA
ATOM     48  C   UNL     1      22.480   3.291  39.732  1.00  0.00     0.124 C 
ATOM     49  C   UNL     1      22.720   2.896  38.216  1.00  0.00     0.026 C 
ATOM     50  C   UNL     1      23.422   5.226  37.498  1.00  0.00     0.014 C 
ATOM     51  C   UNL     1      23.413   1.528  38.100  1.00  0.00     0.171 C 
ATOM     52  C   UNL     1      21.425   3.002  37.369  1.00  0.00     0.013 C 
ATOM     53  C   UNL     1      22.104   5.432  36.682  1.00  0.00    -0.035 C 
ATOM     54  C   UNL     1      20.973   4.468  37.166  1.00  0.00     0.007 C 
ATOM     55  C   UNL     1      21.628   6.886  36.883  1.00  0.00     0.011 C 
ATOM     56  C   UNL     1      22.354   5.226  35.167  1.00  0.00     0.011 C 
BRANCH  29  57
ATOM     57  C   UNL     1      30.116   6.507  43.396  1.00  0.00     0.165 C 
BRANCH  57  58
ATOM     58  O   UNL     1      30.401   5.881  44.623  1.00  0.00    -0.396 OA
ATOM     59  H   UNL     1      29.796   6.265  45.307  1.00  0.00     0.210 HD
ENDBRANCH  57  58
ENDBRANCH  29  57
BRANCH  48  60
ATOM     60  O   UNL     1      21.981   2.202  40.466  1.00  0.00    -0.392 OA
ATOM     61  H   UNL     1      21.596   2.567  41.304  1.00  0.00     0.210 HD
ENDBRANCH  48  60
ENDBRANCH  26  27
ENDBRANCH   6  26
BRANCH   5  62
ATOM     62  O   UNL     1      35.620   6.698  39.227  1.00  0.00    -0.385 OA
ATOM     63  H   UNL     1      36.330   6.873  39.900  1.00  0.00     0.211 HD
ENDBRANCH   5  62
TORSDOF 14
ENDMDL
MODEL 8
REMARK VINA RESULT:    -5.739      6.870     10.362
REMARK INTER + INTRA:         -10.960
REMARK INTER:                  -9.651
REMARK INTRA:                  -1.308
REMARK UNBOUND:                -1.865
REMARK SMILES C[C@H]1O[C@H](O[C@H]2CC[C@@]3(C)[C@H](CC[C@@]4(C)[C@H]3C=C[C@]35OC[C@@]6(CCC(C)(C)C[C@H]63)[C@@H](O)C[C@]45C)[C@]2(C)CO)[C@@H](O)[C@H](O[C@H]2O[C@H](CO)[C@H](O)[C@@H](O)[C@H]2O)[C@H]1O
REMARK SMILES IDX 1 1 2 2 54 3 41 4 39 5 4 6 3 7 55 8 42 10 43 11 52 12 44 13
REMARK SMILES IDX 50 14 45 15 48 16 53 17 51 19 46 21 47 22 49 24 5 26 6 27
REMARK SMILES IDX 7 28 35 29 8 30 11 31 36 32 9 33 12 34 10 35 16 36 13 37
REMARK SMILES IDX 14 38 17 39 15 40 33 41 18 42 19 43 32 44 34 45 29 46 20 47
REMARK SMILES IDX 30 48 22 49 28 50 21 51 23 52 25 53 24 54 26 55 27 56 37 57
REMARK SMILES IDX 38 58 31 60 40 62
REMARK H PARENT 55 9 53 18 51 20 47 23 49 25 38 59 31 61 40 63
REMARK Flexibility Score: inf
ROOT
ATOM      1  C   UNL     1      23.585   4.367  36.597  1.00  0.00     0.041 C 
ATOM      2  C   UNL     1      24.780   3.463  36.895  1.00  0.00     0.150 C 
ATOM      3  C   UNL     1      24.346   2.195  37.659  1.00  0.00     0.175 C 
ATOM      4  C   UNL     1      25.580   1.321  38.019  1.00  0.00     0.186 C 
ATOM      5  C   UNL     1      26.745   2.171  38.579  1.00  0.00     0.202 C 
ATOM      6  C   UNL     1      26.949   3.485  37.783  1.00  0.00     0.282 C 
ATOM      7  O   UNL     1      25.729   4.195  37.646  1.00  0.00    -0.344 OA
ENDROOT
BRANCH   3   8
ATOM      8  O   UNL     1      23.586   2.512  38.802  1.00  0.00    -0.388 OA
ATOM      9  H   UNL     1      22.711   2.862  38.504  1.00  0.00     0.211 HD
ENDBRANCH   3   8
BRANCH   4  10
ATOM     10  O   UNL     1      26.040   0.631  36.864  1.00  0.00    -0.341 OA
BRANCH  10  11
ATOM     11  C   UNL     1      25.859  -0.778  36.967  1.00  0.00     0.282 C 
ATOM     12  C   UNL     1      26.612  -1.532  35.841  1.00  0.00     0.202 C 
ATOM     13  O   UNL     1      24.476  -1.101  36.946  1.00  0.00    -0.341 OA
ATOM     14  C   UNL     1      25.982  -1.246  34.464  1.00  0.00     0.179 C 
ATOM     15  C   UNL     1      23.852  -0.695  35.738  1.00  0.00     0.178 C 
ATOM     16  C   UNL     1      24.455  -1.443  34.517  1.00  0.00     0.177 C 
BRANCH  12  17
ATOM     17  O   UNL     1      27.972  -1.181  35.831  1.00  0.00    -0.385 OA
ATOM     18  H   UNL     1      28.486  -2.007  36.027  1.00  0.00     0.211 HD
ENDBRANCH  12  17
BRANCH  14  19
ATOM     19  O   UNL     1      26.261   0.071  34.057  1.00  0.00    -0.387 OA
ATOM     20  H   UNL     1      27.134   0.326  34.461  1.00  0.00     0.211 HD
ENDBRANCH  14  19
BRANCH  15  21
ATOM     21  C   UNL     1      22.343  -0.942  35.862  1.00  0.00     0.191 C 
BRANCH  21  22
ATOM     22  O   UNL     1      21.783  -1.233  34.607  1.00  0.00    -0.394 OA
ATOM     23  H   UNL     1      22.122  -0.557  33.966  1.00  0.00     0.210 HD
ENDBRANCH  21  22
ENDBRANCH  15  21
BRANCH  16  24
ATOM     24  O   UNL     1      24.124  -2.815  34.519  1.00  0.00    -0.387 OA
ATOM     25  H   UNL     1      24.738  -3.281  35.147  1.00  0.00     0.211 HD
ENDBRANCH  16  24
ENDBRANCH  10  11
ENDBRANCH   4  10
BRANCH   6  26
ATOM     26  O   UNL     1      27.511   3.204  36.501  1.00  0.00    -0.346 OA
BRANCH  26  27
ATOM     27  C   UNL     1      28.880   2.794  36.519  1.00  0.00     0.130 C 
ATOM     28  C   UNL     1      29.058   1.724  35.408  1.00  0.00     0.033 C 
ATOM     29  C   UNL     1      29.855   4.063  36.525  1.00  0.00     0.020 C 
ATOM     30  C   UNL     1      29.963   2.032  34.211  1.00  0.00     0.010 C 
ATOM     31  C   UNL     1      30.765   4.218  35.206  1.00  0.00     0.006 C 
ATOM     32  C   UNL     1      29.043   5.390  36.673  1.00  0.00     0.017 C 
ATOM     33  C   UNL     1      30.188   3.531  33.919  1.00  0.00    -0.022 C 
ATOM     34  C   UNL     1      32.267   3.848  35.407  1.00  0.00     0.005 C 
ATOM     35  C   UNL     1      28.817   4.172  33.533  1.00  0.00     0.012 C 
ATOM     36  C   UNL     1      31.162   3.785  32.677  1.00  0.00     0.024 C 
ATOM     37  C   UNL     1      33.138   4.291  34.222  1.00  0.00     0.008 C 
ATOM     38  C   UNL     1      32.723   3.659  32.861  1.00  0.00    -0.017 C 
ATOM     39  C   UNL     1      30.761   3.083  31.391  1.00  0.00    -0.024 C 
ATOM     40  C   UNL     1      33.143   2.148  32.927  1.00  0.00     0.013 C 
ATOM     41  C   UNL     1      33.417   4.415  31.589  1.00  0.00     0.009 C 
ATOM     42  C   UNL     1      31.555   3.070  30.303  1.00  0.00     0.005 C 
ATOM     43  C   UNL     1      32.905   3.774  30.199  1.00  0.00     0.096 C 
ATOM     44  C   UNL     1      34.990   4.407  31.671  1.00  0.00     0.043 C 
ATOM     45  C   UNL     1      33.060   5.957  31.568  1.00  0.00     0.015 C 
ATOM     46  C   UNL     1      33.927   2.867  29.474  1.00  0.00     0.037 C 
ATOM     47  O   UNL     1      32.729   4.824  29.255  1.00  0.00    -0.369 OA
ATOM     48  C   UNL     1      35.745   4.457  30.307  1.00  0.00     0.124 C 
ATOM     49  C   UNL     1      34.930   3.906  29.066  1.00  0.00     0.026 C 
ATOM     50  C   UNL     1      34.583   1.594  30.049  1.00  0.00     0.014 C 
ATOM     51  C   UNL     1      33.943   4.961  28.535  1.00  0.00     0.171 C 
ATOM     52  C   UNL     1      35.856   3.323  27.966  1.00  0.00     0.013 C 
ATOM     53  C   UNL     1      35.563   0.947  29.015  1.00  0.00    -0.035 C 
ATOM     54  C   UNL     1      36.538   2.007  28.408  1.00  0.00     0.007 C 
ATOM     55  C   UNL     1      36.399  -0.128  29.743  1.00  0.00     0.011 C 
ATOM     56  C   UNL     1      34.782   0.242  27.878  1.00  0.00     0.011 C 
BRANCH  29  57
ATOM     57  C   UNL     1      30.722   3.989  37.832  1.00  0.00     0.165 C 
BRANCH  57  58
ATOM     58  O   UNL     1      30.631   2.731  38.454  1.00  0.00    -0.396 OA
ATOM     59  H   UNL     1      29.694   2.419  38.371  1.00  0.00     0.210 HD
ENDBRANCH  57  58
ENDBRANCH  29  57
BRANCH  48  60
ATOM     60  O   UNL     1      36.197   5.767  30.076  1.00  0.00    -0.392 OA
ATOM     61  H   UNL     1      35.968   6.301  30.880  1.00  0.00     0.210 HD
ENDBRANCH  48  60
ENDBRANCH  26  27
ENDBRANCH   6  26
BRANCH   5  62
ATOM     62  O   UNL     1      26.504   2.449  39.936  1.00  0.00    -0.385 OA
ATOM     63  H   UNL     1      27.386   2.509  40.389  1.00  0.00     0.211 HD
ENDBRANCH   5  62
TORSDOF 14
ENDMDL
MODEL 9
REMARK VINA RESULT:    -5.664      4.999      9.207
REMARK INTER + INTRA:         -10.841
REMARK INTER:                  -8.718
REMARK INTRA:                  -2.123
REMARK UNBOUND:                -1.865
REMARK SMILES C[C@H]1O[C@H](O[C@H]2CC[C@@]3(C)[C@H](CC[C@@]4(C)[C@H]3C=C[C@]35OC[C@@]6(CCC(C)(C)C[C@H]63)[C@@H](O)C[C@]45C)[C@]2(C)CO)[C@@H](O)[C@H](O[C@H]2O[C@H](CO)[C@H](O)[C@@H](O)[C@H]2O)[C@H]1O
REMARK SMILES IDX 1 1 2 2 54 3 41 4 39 5 4 6 3 7 55 8 42 10 43 11 52 12 44 13
REMARK SMILES IDX 50 14 45 15 48 16 53 17 51 19 46 21 47 22 49 24 5 26 6 27
REMARK SMILES IDX 7 28 35 29 8 30 11 31 36 32 9 33 12 34 10 35 16 36 13 37
REMARK SMILES IDX 14 38 17 39 15 40 33 41 18 42 19 43 32 44 34 45 29 46 20 47
REMARK SMILES IDX 30 48 22 49 28 50 21 51 23 52 25 53 24 54 26 55 27 56 37 57
REMARK SMILES IDX 38 58 31 60 40 62
REMARK H PARENT 55 9 53 18 51 20 47 23 49 25 38 59 31 61 40 63
REMARK Flexibility Score: inf
ROOT
ATOM      1  C   UNL     1      32.055   7.704  43.424  1.00  0.00     0.041 C 
ATOM      2  C   UNL     1      32.630   7.014  42.188  1.00  0.00     0.150 C 
ATOM      3  C   UNL     1      34.151   6.792  42.327  1.00  0.00     0.175 C 
ATOM      4  C   UNL     1      34.734   6.157  41.034  1.00  0.00     0.186 C 
ATOM      5  C   UNL     1      34.190   6.845  39.759  1.00  0.00     0.202 C 
ATOM      6  C   UNL     1      32.669   7.130  39.848  1.00  0.00     0.282 C 
ATOM      7  O   UNL     1      32.346   7.806  41.051  1.00  0.00    -0.344 OA
ENDROOT
BRANCH   3   8
ATOM      8  O   UNL     1      34.821   7.985  42.664  1.00  0.00    -0.388 OA
ATOM      9  H   UNL     1      34.660   8.169  43.622  1.00  0.00     0.211 HD
ENDBRANCH   3   8
BRANCH   4  10
ATOM     10  O   UNL     1      34.401   4.776  40.979  1.00  0.00    -0.341 OA
BRANCH  10  11
ATOM     11  C   UNL     1      35.461   3.945  41.443  1.00  0.00     0.282 C 
ATOM     12  C   UNL     1      36.112   3.152  40.281  1.00  0.00     0.202 C 
ATOM     13  O   UNL     1      34.990   3.061  42.450  1.00  0.00    -0.341 OA
ATOM     14  C   UNL     1      35.136   2.105  39.708  1.00  0.00     0.179 C 
ATOM     15  C   UNL     1      33.973   2.197  41.967  1.00  0.00     0.178 C 
ATOM     16  C   UNL     1      34.513   1.270  40.842  1.00  0.00     0.177 C 
BRANCH  12  17
ATOM     17  O   UNL     1      36.539   4.021  39.264  1.00  0.00    -0.385 OA
ATOM     18  H   UNL     1      36.978   3.461  38.570  1.00  0.00     0.211 HD
ENDBRANCH  12  17
BRANCH  14  19
ATOM     19  O   UNL     1      34.109   2.734  38.982  1.00  0.00    -0.387 OA
ATOM     20  H   UNL     1      34.395   3.673  38.818  1.00  0.00     0.211 HD
ENDBRANCH  14  19
BRANCH  15  21
ATOM     21  C   UNL     1      33.420   1.388  43.148  1.00  0.00     0.191 C 
BRANCH  21  22
ATOM     22  O   UNL     1      34.456   1.017  44.022  1.00  0.00    -0.394 OA
ATOM     23  H   UNL     1      34.116   0.279  44.590  1.00  0.00     0.210 HD
ENDBRANCH  21  22
ENDBRANCH  15  21
BRANCH  16  24
ATOM     24  O   UNL     1      35.433   0.321  41.333  1.00  0.00    -0.387 OA
ATOM     25  H   UNL     1      35.379   0.321  42.326  1.00  0.00     0.211 HD
ENDBRANCH  16  24
ENDBRANCH  10  11
ENDBRANCH   4  10
BRANCH   6  26
ATOM     26  O   UNL     1      31.931   5.911  39.743  1.00  0.00    -0.346 OA
BRANCH  26  27
ATOM     27  C   UNL     1      30.512   6.068  39.694  1.00  0.00     0.130 C 
ATOM     28  C   UNL     1      30.119   6.267  38.204  1.00  0.00     0.033 C 
ATOM     29  C   UNL     1      29.781   4.917  40.532  1.00  0.00     0.020 C 
ATOM     30  C   UNL     1      29.259   5.208  37.509  1.00  0.00     0.010 C 
ATOM     31  C   UNL     1      28.886   3.909  39.651  1.00  0.00     0.006 C 
ATOM     32  C   UNL     1      30.822   4.041  41.301  1.00  0.00     0.017 C 
ATOM     33  C   UNL     1      29.301   3.800  38.142  1.00  0.00    -0.022 C 
ATOM     34  C   UNL     1      27.346   4.121  39.789  1.00  0.00     0.005 C 
ATOM     35  C   UNL     1      30.756   3.246  38.022  1.00  0.00     0.012 C 
ATOM     36  C   UNL     1      28.362   2.749  37.388  1.00  0.00     0.024 C 
ATOM     37  C   UNL     1      26.543   2.964  39.176  1.00  0.00     0.008 C 
ATOM     38  C   UNL     1      26.808   2.746  37.657  1.00  0.00    -0.017 C 
ATOM     39  C   UNL     1      28.601   2.629  35.893  1.00  0.00    -0.024 C 
ATOM     40  C   UNL     1      26.125   3.946  36.911  1.00  0.00     0.013 C 
ATOM     41  C   UNL     1      26.234   1.311  37.127  1.00  0.00     0.009 C 
ATOM     42  C   UNL     1      27.794   1.906  35.093  1.00  0.00     0.005 C 
ATOM     43  C   UNL     1      26.591   1.096  35.568  1.00  0.00     0.096 C 
ATOM     44  C   UNL     1      24.688   1.153  37.380  1.00  0.00     0.043 C 
ATOM     45  C   UNL     1      26.862   0.103  37.935  1.00  0.00     0.015 C 
ATOM     46  C   UNL     1      25.407   1.273  34.589  1.00  0.00     0.037 C 
ATOM     47  O   UNL     1      26.933  -0.270  35.366  1.00  0.00    -0.369 OA
ATOM     48  C   UNL     1      23.923   0.225  36.386  1.00  0.00     0.124 C 
ATOM     49  C   UNL     1      24.598   0.064  34.962  1.00  0.00     0.026 C 
ATOM     50  C   UNL     1      24.546   2.542  34.421  1.00  0.00     0.014 C 
ATOM     51  C   UNL     1      25.747  -0.959  35.002  1.00  0.00     0.171 C 
ATOM     52  C   UNL     1      23.559  -0.223  33.847  1.00  0.00     0.013 C 
ATOM     53  C   UNL     1      23.443   2.337  33.331  1.00  0.00    -0.035 C 
ATOM     54  C   UNL     1      22.661   1.001  33.550  1.00  0.00     0.007 C 
ATOM     55  C   UNL     1      22.443   3.510  33.422  1.00  0.00     0.011 C 
ATOM     56  C   UNL     1      24.059   2.356  31.910  1.00  0.00     0.011 C 
BRANCH  29  57
ATOM     57  C   UNL     1      28.944   5.612  41.664  1.00  0.00     0.165 C 
BRANCH  57  58
ATOM     58  O   UNL     1      29.270   5.116  42.939  1.00  0.00    -0.396 OA
ATOM     59  H   UNL     1      28.436   4.775  43.353  1.00  0.00     0.210 HD
ENDBRANCH  57  58
ENDBRANCH  29  57
BRANCH  48  60
ATOM     60  O   UNL     1      23.710  -1.025  36.990  1.00  0.00    -0.392 OA
ATOM     61  H   UNL     1      23.593  -1.686  36.259  1.00  0.00     0.210 HD
ENDBRANCH  48  60
ENDBRANCH  26  27
ENDBRANCH   6  26
BRANCH   5  62
ATOM     62  O   UNL     1      34.903   8.036  39.535  1.00  0.00    -0.385 OA
ATOM     63  H   UNL     1      35.268   7.995  38.611  1.00  0.00     0.211 HD
ENDBRANCH   5  62
TORSDOF 14
ENDMDL
