MODEL 1
REMARK VINA RESULT:    -2.650      0.000      0.000
REMARK INTER + INTRA:          -2.650
REMARK INTER:                  -2.650
REMARK INTRA:                   0.000
REMARK UNBOUND:                 0.000
REMARK SMILES C[C@@H]1C(=O)CC[C@@H]2[C@@]1(C)CC[C@@H]1[C@]2(C)CC[C@]2(C)[C@@H]3CC(C)(C)CC[C@]3(C)CC[C@]12C
REMARK SMILES IDX 1 1 2 2 3 3 4 4 5 5 6 6 7 7 8 8 10 9 11 10 12 11 13 12 15 13
REMARK SMILES IDX 16 14 17 15 30 16 29 17 28 18 26 19 19 20 20 21 21 22 24 23
REMARK SMILES IDX 25 24 22 25 23 26 27 27 31 28 18 29 14 30 9 31
REMARK H PARENT
REMARK Flexibility Score: inf
ROOT
ATOM      1  C   UNL     1     127.125 109.765 139.123  1.00  0.00     0.016 C 
ATOM      2  C   UNL     1     125.712 109.680 138.499  1.00  0.00     0.059 C 
ATOM      3  C   UNL     1     125.379 108.238 138.278  1.00  0.00     0.136 C 
ATOM      4  O   UNL     1     124.517 107.682 138.940  1.00  0.00    -0.299 OA
ATOM      5  C   UNL     1     126.119 107.507 137.220  1.00  0.00     0.076 C 
ATOM      6  C   UNL     1     125.920 108.223 135.890  1.00  0.00     0.012 C 
ATOM      7  C   UNL     1     126.189 109.774 135.901  1.00  0.00     0.002 C 
ATOM      8  C   UNL     1     125.521 110.503 137.160  1.00  0.00    -0.020 C 
ATOM      9  C   UNL     1     123.996 110.665 136.908  1.00  0.00     0.008 C 
ATOM     10  C   UNL     1     123.646 111.351 135.576  1.00  0.00     0.005 C 
ATOM     11  C   UNL     1     124.248 110.590 134.364  1.00  0.00     0.002 C 
ATOM     12  C   UNL     1     125.818 110.459 134.487  1.00  0.00    -0.026 C 
ATOM     13  C   UNL     1     126.309 109.588 133.289  1.00  0.00     0.008 C 
ATOM     14  C   UNL     1     125.820 110.075 131.911  1.00  0.00     0.008 C 
ATOM     15  C   UNL     1     124.275 110.130 131.753  1.00  0.00    -0.024 C 
ATOM     16  C   UNL     1     123.652 111.009 132.936  1.00  0.00    -0.024 C 
ATOM     17  C   UNL     1     123.926 112.513 132.649  1.00  0.00     0.008 C 
ATOM     18  C   UNL     1     123.263 113.003 131.369  1.00  0.00     0.007 C 
ATOM     19  C   UNL     1     123.728 112.254 130.088  1.00  0.00    -0.029 C 
ATOM     20  C   UNL     1     123.870 110.696 130.299  1.00  0.00     0.002 C 
ATOM     21  C   UNL     1     124.573 109.999 129.071  1.00  0.00     0.011 C 
ATOM     22  C   UNL     1     125.725 110.749 128.298  1.00  0.00    -0.035 C 
ATOM     23  C   UNL     1     125.528 112.283 128.257  1.00  0.00     0.007 C 
ATOM     24  C   UNL     1     125.062 112.871 129.592  1.00  0.00     0.007 C 
ATOM     25  C   UNL     1     125.734 110.228 126.838  1.00  0.00     0.011 C 
ATOM     26  C   UNL     1     127.125 110.431 128.875  1.00  0.00     0.011 C 
ATOM     27  C   UNL     1     122.623 112.527 129.020  1.00  0.00     0.011 C 
ATOM     28  C   UNL     1     122.098 110.798 132.996  1.00  0.00     0.012 C 
ATOM     29  C   UNL     1     123.746 108.651 131.836  1.00  0.00     0.012 C 
ATOM     30  C   UNL     1     126.572 111.831 134.391  1.00  0.00     0.012 C 
ATOM     31  C   UNL     1     126.121 111.916 137.438  1.00  0.00     0.012 C 
ENDROOT
TORSDOF 0
ENDMDL
MODEL 2
REMARK VINA RESULT:    -2.567     11.844     16.629
REMARK INTER + INTRA:          -2.567
REMARK INTER:                  -2.567
REMARK INTRA:                   0.000
REMARK UNBOUND:                 0.000
REMARK SMILES C[C@@H]1C(=O)CC[C@@H]2[C@@]1(C)CC[C@@H]1[C@]2(C)CC[C@]2(C)[C@@H]3CC(C)(C)CC[C@]3(C)CC[C@]12C
REMARK SMILES IDX 1 1 2 2 3 3 4 4 5 5 6 6 7 7 8 8 10 9 11 10 12 11 13 12 15 13
REMARK SMILES IDX 16 14 17 15 30 16 29 17 28 18 26 19 19 20 20 21 21 22 24 23
REMARK SMILES IDX 25 24 22 25 23 26 27 27 31 28 18 29 14 30 9 31
REMARK H PARENT
REMARK Flexibility Score: inf
ROOT
ATOM      1  C   UNL     1     126.407 126.674 120.048  1.00  0.00     0.016 C 
ATOM      2  C   UNL     1     125.184 125.728 120.010  1.00  0.00     0.059 C 
ATOM      3  C   UNL     1     124.120 126.293 120.897  1.00  0.00     0.136 C 
ATOM      4  O   UNL     1     123.087 126.749 120.432  1.00  0.00    -0.299 OA
ATOM      5  C   UNL     1     124.354 126.272 122.362  1.00  0.00     0.076 C 
ATOM      6  C   UNL     1     124.592 124.835 122.807  1.00  0.00     0.012 C 
ATOM      7  C   UNL     1     125.664 124.032 121.979  1.00  0.00     0.002 C 
ATOM      8  C   UNL     1     125.488 124.224 120.399  1.00  0.00    -0.020 C 
ATOM      9  C   UNL     1     124.301 123.349 119.907  1.00  0.00     0.008 C 
ATOM     10  C   UNL     1     124.397 121.869 120.314  1.00  0.00     0.005 C 
ATOM     11  C   UNL     1     124.499 121.703 121.853  1.00  0.00     0.002 C 
ATOM     12  C   UNL     1     125.742 122.486 122.436  1.00  0.00    -0.026 C 
ATOM     13  C   UNL     1     125.692 122.351 123.991  1.00  0.00     0.008 C 
ATOM     14  C   UNL     1     125.563 120.901 124.496  1.00  0.00     0.008 C 
ATOM     15  C   UNL     1     124.300 120.148 123.992  1.00  0.00    -0.024 C 
ATOM     16  C   UNL     1     124.245 120.215 122.395  1.00  0.00    -0.024 C 
ATOM     17  C   UNL     1     125.298 119.233 121.809  1.00  0.00     0.008 C 
ATOM     18  C   UNL     1     125.024 117.780 122.176  1.00  0.00     0.007 C 
ATOM     19  C   UNL     1     125.019 117.506 123.707  1.00  0.00    -0.029 C 
ATOM     20  C   UNL     1     124.286 118.631 124.536  1.00  0.00     0.002 C 
ATOM     21  C   UNL     1     124.509 118.456 126.088  1.00  0.00     0.011 C 
ATOM     22  C   UNL     1     125.891 117.923 126.626  1.00  0.00    -0.035 C 
ATOM     23  C   UNL     1     126.564 116.909 125.670  1.00  0.00     0.007 C 
ATOM     24  C   UNL     1     126.479 117.318 124.196  1.00  0.00     0.007 C 
ATOM     25  C   UNL     1     125.631 117.207 127.976  1.00  0.00     0.011 C 
ATOM     26  C   UNL     1     126.885 119.069 126.933  1.00  0.00     0.011 C 
ATOM     27  C   UNL     1     124.254 116.157 123.886  1.00  0.00     0.011 C 
ATOM     28  C   UNL     1     122.826 119.770 121.891  1.00  0.00     0.012 C 
ATOM     29  C   UNL     1     123.049 120.872 124.613  1.00  0.00     0.012 C 
ATOM     30  C   UNL     1     127.124 121.905 121.974  1.00  0.00     0.012 C 
ATOM     31  C   UNL     1     126.758 123.821 119.589  1.00  0.00     0.012 C 
ENDROOT
TORSDOF 0
ENDMDL
MODEL 3
REMARK VINA RESULT:    -2.542      2.593      7.670
REMARK INTER + INTRA:          -2.542
REMARK INTER:                  -2.542
REMARK INTRA:                   0.000
REMARK UNBOUND:                 0.000
REMARK SMILES C[C@@H]1C(=O)CC[C@@H]2[C@@]1(C)CC[C@@H]1[C@]2(C)CC[C@]2(C)[C@@H]3CC(C)(C)CC[C@]3(C)CC[C@]12C
REMARK SMILES IDX 1 1 2 2 3 3 4 4 5 5 6 6 7 7 8 8 10 9 11 10 12 11 13 12 15 13
REMARK SMILES IDX 16 14 17 15 30 16 29 17 28 18 26 19 19 20 20 21 21 22 24 23
REMARK SMILES IDX 25 24 22 25 23 26 27 27 31 28 18 29 14 30 9 31
REMARK H PARENT
REMARK Flexibility Score: inf
ROOT
ATOM      1  C   UNL     1     121.542 112.122 128.200  1.00  0.00     0.016 C 
ATOM      2  C   UNL     1     123.000 112.321 128.678  1.00  0.00     0.059 C 
ATOM      3  C   UNL     1     123.841 111.229 128.096  1.00  0.00     0.136 C 
ATOM      4  O   UNL     1     124.674 111.466 127.236  1.00  0.00    -0.299 OA
ATOM      5  C   UNL     1     123.641 109.850 128.607  1.00  0.00     0.076 C 
ATOM      6  C   UNL     1     123.870 109.840 130.113  1.00  0.00     0.012 C 
ATOM      7  C   UNL     1     123.095 110.941 130.930  1.00  0.00     0.002 C 
ATOM      8  C   UNL     1     123.186 112.387 130.249  1.00  0.00    -0.020 C 
ATOM      9  C   UNL     1     124.583 113.004 130.542  1.00  0.00     0.008 C 
ATOM     10  C   UNL     1     124.960 113.029 132.033  1.00  0.00     0.005 C 
ATOM     11  C   UNL     1     124.930 111.608 132.657  1.00  0.00     0.002 C 
ATOM     12  C   UNL     1     123.510 110.935 132.489  1.00  0.00    -0.026 C 
ATOM     13  C   UNL     1     123.616 109.479 133.043  1.00  0.00     0.008 C 
ATOM     14  C   UNL     1     124.198 109.384 134.466  1.00  0.00     0.008 C 
ATOM     15  C   UNL     1     125.628 109.972 134.623  1.00  0.00    -0.024 C 
ATOM     16  C   UNL     1     125.644 111.479 134.087  1.00  0.00    -0.024 C 
ATOM     17  C   UNL     1     124.946 112.396 135.131  1.00  0.00     0.008 C 
ATOM     18  C   UNL     1     125.665 112.422 136.473  1.00  0.00     0.007 C 
ATOM     19  C   UNL     1     125.771 111.031 137.160  1.00  0.00    -0.029 C 
ATOM     20  C   UNL     1     126.123 109.868 136.154  1.00  0.00     0.002 C 
ATOM     21  C   UNL     1     125.982 108.448 136.825  1.00  0.00     0.011 C 
ATOM     22  C   UNL     1     124.842 108.191 137.884  1.00  0.00    -0.035 C 
ATOM     23  C   UNL     1     124.511 109.440 138.734  1.00  0.00     0.007 C 
ATOM     24  C   UNL     1     124.449 110.733 137.914  1.00  0.00     0.007 C 
ATOM     25  C   UNL     1     125.327 107.074 138.842  1.00  0.00     0.011 C 
ATOM     26  C   UNL     1     123.542 107.661 137.232  1.00  0.00     0.011 C 
ATOM     27  C   UNL     1     126.922 111.170 138.205  1.00  0.00     0.011 C 
ATOM     28  C   UNL     1     127.125 111.970 133.917  1.00  0.00     0.012 C 
ATOM     29  C   UNL     1     126.595 109.077 133.764  1.00  0.00     0.012 C 
ATOM     30  C   UNL     1     122.376 111.649 133.304  1.00  0.00     0.012 C 
ATOM     31  C   UNL     1     122.098 113.377 130.768  1.00  0.00     0.012 C 
ENDROOT
TORSDOF 0
ENDMDL
MODEL 4
REMARK VINA RESULT:    -2.349      1.774      3.971
REMARK INTER + INTRA:          -2.349
REMARK INTER:                  -2.349
REMARK INTRA:                   0.000
REMARK UNBOUND:                 0.000
REMARK SMILES C[C@@H]1C(=O)CC[C@@H]2[C@@]1(C)CC[C@@H]1[C@]2(C)CC[C@]2(C)[C@@H]3CC(C)(C)CC[C@]3(C)CC[C@]12C
REMARK SMILES IDX 1 1 2 2 3 3 4 4 5 5 6 6 7 7 8 8 10 9 11 10 12 11 13 12 15 13
REMARK SMILES IDX 16 14 17 15 30 16 29 17 28 18 26 19 19 20 20 21 21 22 24 23
REMARK SMILES IDX 25 24 22 25 23 26 27 27 31 28 18 29 14 30 9 31
REMARK H PARENT
REMARK Flexibility Score: inf
ROOT
ATOM      1  C   UNL     1     125.455 107.504 136.526  1.00  0.00     0.016 C 
ATOM      2  C   UNL     1     125.999 108.824 135.931  1.00  0.00     0.059 C 
ATOM      3  C   UNL     1     125.157 109.953 136.436  1.00  0.00     0.136 C 
ATOM      4  O   UNL     1     125.604 110.769 137.225  1.00  0.00    -0.299 OA
ATOM      5  C   UNL     1     123.763 110.058 135.937  1.00  0.00     0.076 C 
ATOM      6  C   UNL     1     123.786 110.159 134.417  1.00  0.00     0.012 C 
ATOM      7  C   UNL     1     124.650 109.073 133.672  1.00  0.00     0.002 C 
ATOM      8  C   UNL     1     126.084 108.861 134.350  1.00  0.00    -0.020 C 
ATOM      9  C   UNL     1     127.021 110.034 133.945  1.00  0.00     0.008 C 
ATOM     10  C   UNL     1     127.115 110.271 132.429  1.00  0.00     0.005 C 
ATOM     11  C   UNL     1     125.721 110.541 131.803  1.00  0.00     0.002 C 
ATOM     12  C   UNL     1     124.722 109.349 132.083  1.00  0.00    -0.026 C 
ATOM     13  C   UNL     1     123.328 109.765 131.516  1.00  0.00     0.008 C 
ATOM     14  C   UNL     1     123.358 110.234 130.049  1.00  0.00     0.008 C 
ATOM     15  C   UNL     1     124.276 111.458 129.777  1.00  0.00    -0.024 C 
ATOM     16  C   UNL     1     125.749 111.145 130.318  1.00  0.00    -0.024 C 
ATOM     17  C   UNL     1     126.451 110.161 129.339  1.00  0.00     0.008 C 
ATOM     18  C   UNL     1     126.632 110.740 127.943  1.00  0.00     0.007 C 
ATOM     19  C   UNL     1     125.299 111.129 127.242  1.00  0.00    -0.029 C 
ATOM     20  C   UNL     1     124.273 111.838 128.211  1.00  0.00     0.002 C 
ATOM     21  C   UNL     1     122.852 111.996 127.546  1.00  0.00     0.011 C 
ATOM     22  C   UNL     1     122.306 110.873 126.584  1.00  0.00    -0.035 C 
ATOM     23  C   UNL     1     123.423 110.176 125.770  1.00  0.00     0.007 C 
ATOM     24  C   UNL     1     124.673 109.864 126.599  1.00  0.00     0.007 C 
ATOM     25  C   UNL     1     121.328 111.539 125.583  1.00  0.00     0.011 C 
ATOM     26  C   UNL     1     121.484 109.801 127.338  1.00  0.00     0.011 C 
ATOM     27  C   UNL     1     125.700 112.122 126.106  1.00  0.00     0.011 C 
ATOM     28  C   UNL     1     126.592 112.469 130.367  1.00  0.00     0.012 C 
ATOM     29  C   UNL     1     123.660 112.682 130.549  1.00  0.00     0.012 C 
ATOM     30  C   UNL     1     125.123 108.011 131.369  1.00  0.00     0.012 C 
ATOM     31  C   UNL     1     126.768 107.524 133.928  1.00  0.00     0.012 C 
ENDROOT
TORSDOF 0
ENDMDL
MODEL 5
REMARK VINA RESULT:    -2.332     13.741     16.498
REMARK INTER + INTRA:          -2.332
REMARK INTER:                  -2.332
REMARK INTRA:                   0.000
REMARK UNBOUND:                 0.000
REMARK SMILES C[C@@H]1C(=O)CC[C@@H]2[C@@]1(C)CC[C@@H]1[C@]2(C)CC[C@]2(C)[C@@H]3CC(C)(C)CC[C@]3(C)CC[C@]12C
REMARK SMILES IDX 1 1 2 2 3 3 4 4 5 5 6 6 7 7 8 8 10 9 11 10 12 11 13 12 15 13
REMARK SMILES IDX 16 14 17 15 30 16 29 17 28 18 26 19 19 20 20 21 21 22 24 23
REMARK SMILES IDX 25 24 22 25 23 26 27 27 31 28 18 29 14 30 9 31
REMARK H PARENT
REMARK Flexibility Score: inf
ROOT
ATOM      1  C   UNL     1     122.355 115.437 121.266  1.00  0.00     0.016 C 
ATOM      2  C   UNL     1     123.095 116.472 120.385  1.00  0.00     0.059 C 
ATOM      3  C   UNL     1     124.541 116.089 120.319  1.00  0.00     0.136 C 
ATOM      4  O   UNL     1     125.035 115.675 119.282  1.00  0.00    -0.299 OA
ATOM      5  C   UNL     1     125.357 116.239 121.548  1.00  0.00     0.076 C 
ATOM      6  C   UNL     1     125.298 117.690 122.009  1.00  0.00     0.012 C 
ATOM      7  C   UNL     1     123.856 118.314 122.121  1.00  0.00     0.002 C 
ATOM      8  C   UNL     1     122.943 117.977 120.850  1.00  0.00    -0.020 C 
ATOM      9  C   UNL     1     123.359 118.892 119.664  1.00  0.00     0.008 C 
ATOM     10  C   UNL     1     123.373 120.393 119.999  1.00  0.00     0.005 C 
ATOM     11  C   UNL     1     124.316 120.705 121.192  1.00  0.00     0.002 C 
ATOM     12  C   UNL     1     123.908 119.887 122.480  1.00  0.00    -0.026 C 
ATOM     13  C   UNL     1     124.976 120.183 123.579  1.00  0.00     0.008 C 
ATOM     14  C   UNL     1     125.223 121.682 123.834  1.00  0.00     0.008 C 
ATOM     15  C   UNL     1     125.703 122.481 122.590  1.00  0.00    -0.024 C 
ATOM     16  C   UNL     1     124.674 122.257 121.386  1.00  0.00    -0.024 C 
ATOM     17  C   UNL     1     123.386 123.085 121.658  1.00  0.00     0.008 C 
ATOM     18  C   UNL     1     123.645 124.585 121.713  1.00  0.00     0.007 C 
ATOM     19  C   UNL     1     124.646 125.013 122.823  1.00  0.00    -0.029 C 
ATOM     20  C   UNL     1     125.884 124.042 122.949  1.00  0.00     0.002 C 
ATOM     21  C   UNL     1     126.747 124.355 124.232  1.00  0.00     0.011 C 
ATOM     22  C   UNL     1     126.037 124.825 125.559  1.00  0.00    -0.035 C 
ATOM     23  C   UNL     1     124.772 125.677 125.301  1.00  0.00     0.007 C 
ATOM     24  C   UNL     1     123.891 125.129 124.173  1.00  0.00     0.007 C 
ATOM     25  C   UNL     1     127.045 125.693 126.355  1.00  0.00     0.011 C 
ATOM     26  C   UNL     1     125.671 123.638 126.483  1.00  0.00     0.011 C 
ATOM     27  C   UNL     1     125.148 126.431 122.407  1.00  0.00     0.011 C 
ATOM     28  C   UNL     1     125.306 122.763 120.042  1.00  0.00     0.012 C 
ATOM     29  C   UNL     1     127.124 121.929 122.203  1.00  0.00     0.012 C 
ATOM     30  C   UNL     1     122.517 120.303 123.074  1.00  0.00     0.012 C 
ATOM     31  C   UNL     1     121.421 118.191 121.117  1.00  0.00     0.012 C 
ENDROOT
TORSDOF 0
ENDMDL
MODEL 6
REMARK VINA RESULT:    -2.305      3.530      6.878
REMARK INTER + INTRA:          -2.305
REMARK INTER:                  -2.305
REMARK INTRA:                   0.000
REMARK UNBOUND:                 0.000
REMARK SMILES C[C@@H]1C(=O)CC[C@@H]2[C@@]1(C)CC[C@@H]1[C@]2(C)CC[C@]2(C)[C@@H]3CC(C)(C)CC[C@]3(C)CC[C@]12C
REMARK SMILES IDX 1 1 2 2 3 3 4 4 5 5 6 6 7 7 8 8 10 9 11 10 12 11 13 12 15 13
REMARK SMILES IDX 16 14 17 15 30 16 29 17 28 18 26 19 19 20 20 21 21 22 24 23
REMARK SMILES IDX 25 24 22 25 23 26 27 27 31 28 18 29 14 30 9 31
REMARK H PARENT
REMARK Flexibility Score: inf
ROOT
ATOM      1  C   UNL     1     120.738 117.488 133.838  1.00  0.00     0.016 C 
ATOM      2  C   UNL     1     121.824 117.146 134.886  1.00  0.00     0.059 C 
ATOM      3  C   UNL     1     123.124 117.729 134.428  1.00  0.00     0.136 C 
ATOM      4  O   UNL     1     123.635 118.668 135.016  1.00  0.00    -0.299 OA
ATOM      5  C   UNL     1     123.779 117.121 133.244  1.00  0.00     0.076 C 
ATOM      6  C   UNL     1     124.021 115.641 133.514  1.00  0.00     0.012 C 
ATOM      7  C   UNL     1     122.777 114.831 134.041  1.00  0.00     0.002 C 
ATOM      8  C   UNL     1     121.988 115.603 135.200  1.00  0.00    -0.020 C 
ATOM      9  C   UNL     1     122.775 115.465 136.534  1.00  0.00     0.008 C 
ATOM     10  C   UNL     1     123.115 114.015 136.918  1.00  0.00     0.005 C 
ATOM     11  C   UNL     1     123.937 113.306 135.809  1.00  0.00     0.002 C 
ATOM     12  C   UNL     1     123.169 113.314 134.428  1.00  0.00    -0.026 C 
ATOM     13  C   UNL     1     124.120 112.684 133.361  1.00  0.00     0.008 C 
ATOM     14  C   UNL     1     124.695 111.311 133.759  1.00  0.00     0.008 C 
ATOM     15  C   UNL     1     125.521 111.309 135.075  1.00  0.00    -0.024 C 
ATOM     16  C   UNL     1     124.639 111.935 136.255  1.00  0.00    -0.024 C 
ATOM     17  C   UNL     1     123.573 110.894 136.699  1.00  0.00     0.008 C 
ATOM     18  C   UNL     1     124.187 109.621 137.266  1.00  0.00     0.007 C 
ATOM     19  C   UNL     1     125.104 108.862 136.265  1.00  0.00    -0.029 C 
ATOM     20  C   UNL     1     126.034 109.822 135.426  1.00  0.00     0.002 C 
ATOM     21  C   UNL     1     126.766 109.056 134.258  1.00  0.00     0.011 C 
ATOM     22  C   UNL     1     126.024 107.893 133.496  1.00  0.00    -0.035 C 
ATOM     23  C   UNL     1     125.056 107.095 134.402  1.00  0.00     0.007 C 
ATOM     24  C   UNL     1     124.227 107.984 135.335  1.00  0.00     0.007 C 
ATOM     25  C   UNL     1     127.099 106.912 132.963  1.00  0.00     0.011 C 
ATOM     26  C   UNL     1     125.254 108.401 132.253  1.00  0.00     0.011 C 
ATOM     27  C   UNL     1     125.993 107.926 137.143  1.00  0.00     0.011 C 
ATOM     28  C   UNL     1     125.553 112.257 137.490  1.00  0.00     0.012 C 
ATOM     29  C   UNL     1     126.799 112.190 134.823  1.00  0.00     0.012 C 
ATOM     30  C   UNL     1     121.858 112.452 134.433  1.00  0.00     0.012 C 
ATOM     31  C   UNL     1     120.545 115.056 135.427  1.00  0.00     0.012 C 
ENDROOT
TORSDOF 0
ENDMDL
MODEL 7
REMARK VINA RESULT:    -2.294     11.338     15.275
REMARK INTER + INTRA:          -2.294
REMARK INTER:                  -2.294
REMARK INTRA:                   0.000
REMARK UNBOUND:                 0.000
REMARK SMILES C[C@@H]1C(=O)CC[C@@H]2[C@@]1(C)CC[C@@H]1[C@]2(C)CC[C@]2(C)[C@@H]3CC(C)(C)CC[C@]3(C)CC[C@]12C
REMARK SMILES IDX 1 1 2 2 3 3 4 4 5 5 6 6 7 7 8 8 10 9 11 10 12 11 13 12 15 13
REMARK SMILES IDX 16 14 17 15 30 16 29 17 28 18 26 19 19 20 20 21 21 22 24 23
REMARK SMILES IDX 25 24 22 25 23 26 27 27 31 28 18 29 14 30 9 31
REMARK H PARENT
REMARK Flexibility Score: inf
ROOT
ATOM      1  C   UNL     1     126.234 115.255 124.980  1.00  0.00     0.016 C 
ATOM      2  C   UNL     1     124.866 115.907 124.670  1.00  0.00     0.059 C 
ATOM      3  C   UNL     1     124.380 115.385 123.354  1.00  0.00     0.136 C 
ATOM      4  O   UNL     1     123.417 114.638 123.288  1.00  0.00    -0.299 OA
ATOM      5  C   UNL     1     125.099 115.815 122.128  1.00  0.00     0.076 C 
ATOM      6  C   UNL     1     125.074 117.336 122.046  1.00  0.00     0.012 C 
ATOM      7  C   UNL     1     125.523 118.099 123.348  1.00  0.00     0.002 C 
ATOM      8  C   UNL     1     124.863 117.490 124.673  1.00  0.00    -0.020 C 
ATOM      9  C   UNL     1     123.387 117.968 124.777  1.00  0.00     0.008 C 
ATOM     10  C   UNL     1     123.210 119.493 124.677  1.00  0.00     0.005 C 
ATOM     11  C   UNL     1     123.797 120.053 123.354  1.00  0.00     0.002 C 
ATOM     12  C   UNL     1     125.329 119.695 123.206  1.00  0.00    -0.026 C 
ATOM     13  C   UNL     1     125.793 120.200 121.804  1.00  0.00     0.008 C 
ATOM     14  C   UNL     1     125.458 121.677 121.521  1.00  0.00     0.008 C 
ATOM     15  C   UNL     1     123.944 122.023 121.585  1.00  0.00    -0.024 C 
ATOM     16  C   UNL     1     123.351 121.551 122.995  1.00  0.00    -0.024 C 
ATOM     17  C   UNL     1     123.819 122.541 124.098  1.00  0.00     0.008 C 
ATOM     18  C   UNL     1     123.304 123.958 123.882  1.00  0.00     0.007 C 
ATOM     19  C   UNL     1     123.763 124.598 122.541  1.00  0.00    -0.029 C 
ATOM     20  C   UNL     1     123.706 123.595 121.324  1.00  0.00     0.002 C 
ATOM     21  C   UNL     1     124.402 124.191 120.040  1.00  0.00     0.011 C 
ATOM     22  C   UNL     1     125.683 125.098 120.192  1.00  0.00    -0.035 C 
ATOM     23  C   UNL     1     125.671 125.952 121.482  1.00  0.00     0.007 C 
ATOM     24  C   UNL     1     125.190 125.180 122.715  1.00  0.00     0.007 C 
ATOM     25  C   UNL     1     125.727 126.062 118.979  1.00  0.00     0.011 C 
ATOM     26  C   UNL     1     126.994 124.278 120.136  1.00  0.00     0.011 C 
ATOM     27  C   UNL     1     122.771 125.775 122.281  1.00  0.00     0.011 C 
ATOM     28  C   UNL     1     121.783 121.574 122.949  1.00  0.00     0.012 C 
ATOM     29  C   UNL     1     123.240 121.249 120.410  1.00  0.00     0.012 C 
ATOM     30  C   UNL     1     126.244 120.399 124.268  1.00  0.00     0.012 C 
ATOM     31  C   UNL     1     125.605 117.916 125.978  1.00  0.00     0.012 C 
ENDROOT
TORSDOF 0
ENDMDL
MODEL 8
REMARK VINA RESULT:    -2.274     12.431     15.638
REMARK INTER + INTRA:          -2.274
REMARK INTER:                  -2.274
REMARK INTRA:                   0.000
REMARK UNBOUND:                 0.000
REMARK SMILES C[C@@H]1C(=O)CC[C@@H]2[C@@]1(C)CC[C@@H]1[C@]2(C)CC[C@]2(C)[C@@H]3CC(C)(C)CC[C@]3(C)CC[C@]12C
REMARK SMILES IDX 1 1 2 2 3 3 4 4 5 5 6 6 7 7 8 8 10 9 11 10 12 11 13 12 15 13
REMARK SMILES IDX 16 14 17 15 30 16 29 17 28 18 26 19 19 20 20 21 21 22 24 23
REMARK SMILES IDX 25 24 22 25 23 26 27 27 31 28 18 29 14 30 9 31
REMARK H PARENT
REMARK Flexibility Score: inf
ROOT
ATOM      1  C   UNL     1     122.206 114.323 120.312  1.00  0.00     0.016 C 
ATOM      2  C   UNL     1     123.027 114.802 121.532  1.00  0.00     0.059 C 
ATOM      3  C   UNL     1     122.118 114.866 122.719  1.00  0.00     0.136 C 
ATOM      4  O   UNL     1     122.235 114.080 123.646  1.00  0.00    -0.299 OA
ATOM      5  C   UNL     1     121.077 115.923 122.741  1.00  0.00     0.076 C 
ATOM      6  C   UNL     1     121.750 117.285 122.616  1.00  0.00     0.012 C 
ATOM      7  C   UNL     1     122.783 117.431 121.436  1.00  0.00     0.002 C 
ATOM      8  C   UNL     1     123.778 116.181 121.334  1.00  0.00    -0.020 C 
ATOM      9  C   UNL     1     124.865 116.301 122.440  1.00  0.00     0.008 C 
ATOM     10  C   UNL     1     125.608 117.647 122.450  1.00  0.00     0.005 C 
ATOM     11  C   UNL     1     124.631 118.841 122.616  1.00  0.00     0.002 C 
ATOM     12  C   UNL     1     123.539 118.857 121.474  1.00  0.00    -0.026 C 
ATOM     13  C   UNL     1     122.546 120.018 121.793  1.00  0.00     0.008 C 
ATOM     14  C   UNL     1     123.223 121.379 122.041  1.00  0.00     0.008 C 
ATOM     15  C   UNL     1     124.240 121.395 123.216  1.00  0.00    -0.024 C 
ATOM     16  C   UNL     1     125.323 120.237 122.995  1.00  0.00    -0.024 C 
ATOM     17  C   UNL     1     126.314 120.676 121.880  1.00  0.00     0.008 C 
ATOM     18  C   UNL     1     127.105 121.925 122.247  1.00  0.00     0.007 C 
ATOM     19  C   UNL     1     126.222 123.175 122.520  1.00  0.00    -0.029 C 
ATOM     20  C   UNL     1     124.925 122.846 123.359  1.00  0.00     0.002 C 
ATOM     21  C   UNL     1     123.933 124.071 123.409  1.00  0.00     0.011 C 
ATOM     22  C   UNL     1     123.783 125.011 122.153  1.00  0.00    -0.035 C 
ATOM     23  C   UNL     1     125.096 125.165 121.350  1.00  0.00     0.007 C 
ATOM     24  C   UNL     1     125.855 123.846 121.171  1.00  0.00     0.007 C 
ATOM     25  C   UNL     1     123.363 126.415 122.658  1.00  0.00     0.011 C 
ATOM     26  C   UNL     1     122.656 124.544 121.200  1.00  0.00     0.011 C 
ATOM     27  C   UNL     1     127.124 124.153 123.336  1.00  0.00     0.011 C 
ATOM     28  C   UNL     1     126.140 120.012 124.316  1.00  0.00     0.012 C 
ATOM     29  C   UNL     1     123.427 121.136 124.537  1.00  0.00     0.012 C 
ATOM     30  C   UNL     1     124.126 119.141 120.048  1.00  0.00     0.012 C 
ATOM     31  C   UNL     1     124.497 116.083 119.954  1.00  0.00     0.012 C 
ENDROOT
TORSDOF 0
ENDMDL
MODEL 9
REMARK VINA RESULT:    -2.238      3.931      6.865
REMARK INTER + INTRA:          -2.238
REMARK INTER:                  -2.238
REMARK INTRA:                   0.000
REMARK UNBOUND:                 0.000
REMARK SMILES C[C@@H]1C(=O)CC[C@@H]2[C@@]1(C)CC[C@@H]1[C@]2(C)CC[C@]2(C)[C@@H]3CC(C)(C)CC[C@]3(C)CC[C@]12C
REMARK SMILES IDX 1 1 2 2 3 3 4 4 5 5 6 6 7 7 8 8 10 9 11 10 12 11 13 12 15 13
REMARK SMILES IDX 16 14 17 15 30 16 29 17 28 18 26 19 19 20 20 21 21 22 24 23
REMARK SMILES IDX 25 24 22 25 23 26 27 27 31 28 18 29 14 30 9 31
REMARK H PARENT
REMARK Flexibility Score: inf
ROOT
ATOM      1  C   UNL     1     120.531 117.707 137.249  1.00  0.00     0.016 C 
ATOM      2  C   UNL     1     121.630 117.031 138.102  1.00  0.00     0.059 C 
ATOM      3  C   UNL     1     122.914 117.771 137.894  1.00  0.00     0.136 C 
ATOM      4  O   UNL     1     123.407 118.441 138.786  1.00  0.00    -0.299 OA
ATOM      5  C   UNL     1     123.576 117.654 136.571  1.00  0.00     0.076 C 
ATOM      6  C   UNL     1     123.852 116.184 136.281  1.00  0.00     0.012 C 
ATOM      7  C   UNL     1     122.631 115.208 136.471  1.00  0.00     0.002 C 
ATOM      8  C   UNL     1     121.831 115.484 137.830  1.00  0.00    -0.020 C 
ATOM      9  C   UNL     1     122.628 114.885 139.024  1.00  0.00     0.008 C 
ATOM     10  C   UNL     1     123.004 113.404 138.851  1.00  0.00     0.005 C 
ATOM     11  C   UNL     1     123.835 113.170 137.561  1.00  0.00     0.002 C 
ATOM     12  C   UNL     1     123.059 113.665 136.277  1.00  0.00    -0.026 C 
ATOM     13  C   UNL     1     124.018 113.491 135.057  1.00  0.00     0.008 C 
ATOM     14  C   UNL     1     124.626 112.081 134.926  1.00  0.00     0.008 C 
ATOM     15  C   UNL     1     125.459 111.617 136.152  1.00  0.00    -0.024 C 
ATOM     16  C   UNL     1     124.571 111.747 137.477  1.00  0.00    -0.024 C 
ATOM     17  C   UNL     1     123.531 110.591 137.506  1.00  0.00     0.008 C 
ATOM     18  C   UNL     1     124.177 109.213 137.569  1.00  0.00     0.007 C 
ATOM     19  C   UNL     1     125.105 108.895 136.363  1.00  0.00    -0.029 C 
ATOM     20  C   UNL     1     126.008 110.117 135.936  1.00  0.00     0.002 C 
ATOM     21  C   UNL     1     126.751 109.849 134.570  1.00  0.00     0.011 C 
ATOM     22  C   UNL     1     126.031 109.029 133.433  1.00  0.00    -0.035 C 
ATOM     23  C   UNL     1     125.087 107.933 133.982  1.00  0.00     0.007 C 
ATOM     24  C   UNL     1     124.243 108.399 135.172  1.00  0.00     0.007 C 
ATOM     25  C   UNL     1     127.125 108.337 132.581  1.00  0.00     0.011 C 
ATOM     26  C   UNL     1     125.242 109.939 132.461  1.00  0.00     0.011 C 
ATOM     27  C   UNL     1     126.021 107.724 136.839  1.00  0.00     0.011 C 
ATOM     28  C   UNL     1     125.484 111.616 138.747  1.00  0.00     0.012 C 
ATOM     29  C   UNL     1     126.716 112.559 136.244  1.00  0.00     0.012 C 
ATOM     30  C   UNL     1     121.768 112.830 135.963  1.00  0.00     0.012 C 
ATOM     31  C   UNL     1     120.402 114.859 137.837  1.00  0.00     0.012 C 
ENDROOT
TORSDOF 0
ENDMDL
