MODEL 1
REMARK VINA RESULT:    -3.780      0.000      0.000
REMARK INTER + INTRA:          -6.184
REMARK INTER:                  -5.326
REMARK INTRA:                  -0.858
REMARK UNBOUND:                -0.858
REMARK SMILES CCCCCCCCC(=O)[O-]
REMARK SMILES IDX 6 1 7 2 8 3 9 4 10 5 11 6 5 7 4 8 3 9 2 10 1 11
REMARK H PARENT
REMARK Flexibility Score: inf
ROOT
ATOM      1  C   UNL     1      47.717  34.691 -16.194  1.00  0.00     0.000 C 
ENDROOT
BRANCH   1   2
ATOM      2  C   UNL     1      47.104  34.851 -14.798  1.00  0.00     0.006 C 
BRANCH   2   3
ATOM      3  C   UNL     1      48.164  34.667 -13.708  1.00  0.00     0.053 C 
BRANCH   3   4
ATOM      4  C   UNL     1      48.873  35.956 -13.443  1.00  0.00     0.041 C 
ATOM      5  O   UNL     1      50.058  35.952 -13.019  1.00  0.00    -0.550 OA
ATOM      6  O   UNL     1      48.242  37.165 -13.711  1.00  0.00    -0.550 OA
ENDBRANCH   3   4
ENDBRANCH   2   3
ENDBRANCH   1   2
BRANCH   1   7
ATOM      7  C   UNL     1      47.579  35.983 -17.009  1.00  0.00     0.000 C 
BRANCH   7   8
ATOM      8  C   UNL     1      48.948  36.635 -17.242  1.00  0.00    -0.000 C 
BRANCH   8   9
ATOM      9  C   UNL     1      50.084  35.637 -16.989  1.00  0.00    -0.000 C 
BRANCH   9  10
ATOM     10  C   UNL     1      51.388  36.365 -16.644  1.00  0.00    -0.003 C 
ATOM     11  C   UNL     1      51.111  37.681 -15.923  1.00  0.00     0.004 C 
ENDBRANCH   9  10
ENDBRANCH   8   9
ENDBRANCH   7   8
ENDBRANCH   1   7
TORSDOF 7
ENDMDL
MODEL 2
REMARK VINA RESULT:    -3.742     17.763     19.299
REMARK INTER + INTRA:          -6.131
REMARK INTER:                  -5.503
REMARK INTRA:                  -0.628
REMARK UNBOUND:                -0.858
REMARK SMILES CCCCCCCCC(=O)[O-]
REMARK SMILES IDX 6 1 7 2 8 3 9 4 10 5 11 6 5 7 4 8 3 9 2 10 1 11
REMARK H PARENT
REMARK Flexibility Score: inf
ROOT
ATOM      1  C   UNL     1      38.122  21.956 -24.454  1.00  0.00     0.000 C 
ENDROOT
BRANCH   1   2
ATOM      2  C   UNL     1      39.513  22.030 -25.093  1.00  0.00     0.006 C 
BRANCH   2   3
ATOM      3  C   UNL     1      40.092  23.444 -24.989  1.00  0.00     0.053 C 
BRANCH   3   4
ATOM      4  C   UNL     1      41.195  23.485 -23.980  1.00  0.00     0.041 C 
ATOM      5  O   UNL     1      41.881  22.455 -23.748  1.00  0.00    -0.550 OA
ATOM      6  O   UNL     1      41.499  24.675 -23.329  1.00  0.00    -0.550 OA
ENDBRANCH   3   4
ENDBRANCH   2   3
ENDBRANCH   1   2
BRANCH   1   7
ATOM      7  C   UNL     1      38.184  21.287 -23.075  1.00  0.00     0.000 C 
BRANCH   7   8
ATOM      8  C   UNL     1      37.810  19.802 -23.166  1.00  0.00    -0.000 C 
BRANCH   8   9
ATOM      9  C   UNL     1      38.802  18.936 -22.381  1.00  0.00    -0.000 C 
BRANCH   9  10
ATOM     10  C   UNL     1      40.109  19.695 -22.121  1.00  0.00    -0.003 C 
ATOM     11  C   UNL     1      41.240  19.159 -22.994  1.00  0.00     0.004 C 
ENDBRANCH   9  10
ENDBRANCH   8   9
ENDBRANCH   7   8
ENDBRANCH   1   7
TORSDOF 7
ENDMDL
MODEL 3
REMARK VINA RESULT:    -3.742     17.864     19.505
REMARK INTER + INTRA:          -6.131
REMARK INTER:                  -5.655
REMARK INTRA:                  -0.476
REMARK UNBOUND:                -0.858
REMARK SMILES CCCCCCCCC(=O)[O-]
REMARK SMILES IDX 6 1 7 2 8 3 9 4 10 5 11 6 5 7 4 8 3 9 2 10 1 11
REMARK H PARENT
REMARK Flexibility Score: inf
ROOT
ATOM      1  C   UNL     1      38.752  20.983 -24.593  1.00  0.00     0.000 C 
ENDROOT
BRANCH   1   2
ATOM      2  C   UNL     1      38.821  22.510 -24.473  1.00  0.00     0.006 C 
BRANCH   2   3
ATOM      3  C   UNL     1      40.095  23.056 -25.125  1.00  0.00     0.053 C 
BRANCH   3   4
ATOM      4  C   UNL     1      41.125  23.361 -24.085  1.00  0.00     0.041 C 
ATOM      5  O   UNL     1      41.207  24.518 -23.594  1.00  0.00    -0.550 OA
ATOM      6  O   UNL     1      41.965  22.356 -23.620  1.00  0.00    -0.550 OA
ENDBRANCH   3   4
ENDBRANCH   2   3
ENDBRANCH   1   2
BRANCH   1   7
ATOM      7  C   UNL     1      39.137  20.308 -23.272  1.00  0.00     0.000 C 
BRANCH   7   8
ATOM      8  C   UNL     1      38.089  19.267 -22.859  1.00  0.00    -0.000 C 
BRANCH   8   9
ATOM      9  C   UNL     1      36.918  19.926 -22.122  1.00  0.00    -0.000 C 
BRANCH   9  10
ATOM     10  C   UNL     1      37.378  21.180 -21.370  1.00  0.00    -0.003 C 
ATOM     11  C   UNL     1      36.259  22.215 -21.289  1.00  0.00     0.004 C 
ENDBRANCH   9  10
ENDBRANCH   8   9
ENDBRANCH   7   8
ENDBRANCH   1   7
TORSDOF 7
ENDMDL
MODEL 4
REMARK VINA RESULT:    -3.735      2.554      3.581
REMARK INTER + INTRA:          -6.122
REMARK INTER:                  -5.762
REMARK INTRA:                  -0.359
REMARK UNBOUND:                -0.858
REMARK SMILES CCCCCCCCC(=O)[O-]
REMARK SMILES IDX 6 1 7 2 8 3 9 4 10 5 11 6 5 7 4 8 3 9 2 10 1 11
REMARK H PARENT
REMARK Flexibility Score: inf
ROOT
ATOM      1  C   UNL     1      47.417  34.444 -13.318  1.00  0.00     0.000 C 
ENDROOT
BRANCH   1   2
ATOM      2  C   UNL     1      45.890  34.404 -13.453  1.00  0.00     0.006 C 
BRANCH   2   3
ATOM      3  C   UNL     1      45.223  35.339 -12.440  1.00  0.00     0.053 C 
BRANCH   3   4
ATOM      4  C   UNL     1      44.326  36.312 -13.136  1.00  0.00     0.041 C 
ATOM      5  O   UNL     1      44.792  37.090 -14.009  1.00  0.00    -0.550 OA
ATOM      6  O   UNL     1      42.966  36.327 -12.855  1.00  0.00    -0.550 OA
ENDBRANCH   3   4
ENDBRANCH   2   3
ENDBRANCH   1   2
BRANCH   1   7
ATOM      7  C   UNL     1      48.044  35.315 -14.413  1.00  0.00     0.000 C 
BRANCH   7   8
ATOM      8  C   UNL     1      47.803  34.712 -15.803  1.00  0.00    -0.000 C 
BRANCH   8   9
ATOM      9  C   UNL     1      48.950  35.057 -16.760  1.00  0.00    -0.000 C 
BRANCH   9  10
ATOM     10  C   UNL     1      48.948  36.552 -17.104  1.00  0.00    -0.003 C 
ATOM     11  C   UNL     1      47.610  36.978 -17.701  1.00  0.00     0.004 C 
ENDBRANCH   9  10
ENDBRANCH   8   9
ENDBRANCH   7   8
ENDBRANCH   1   7
TORSDOF 7
ENDMDL
MODEL 5
REMARK VINA RESULT:    -3.682      2.612      3.280
REMARK INTER + INTRA:          -6.046
REMARK INTER:                  -5.728
REMARK INTRA:                  -0.318
REMARK UNBOUND:                -0.858
REMARK SMILES CCCCCCCCC(=O)[O-]
REMARK SMILES IDX 6 1 7 2 8 3 9 4 10 5 11 6 5 7 4 8 3 9 2 10 1 11
REMARK H PARENT
REMARK Flexibility Score: inf
ROOT
ATOM      1  C   UNL     1      46.654  35.078 -14.060  1.00  0.00     0.000 C 
ENDROOT
BRANCH   1   2
ATOM      2  C   UNL     1      46.386  34.304 -12.764  1.00  0.00     0.006 C 
BRANCH   2   3
ATOM      3  C   UNL     1      45.794  35.219 -11.688  1.00  0.00     0.053 C 
BRANCH   3   4
ATOM      4  C   UNL     1      46.612  35.154 -10.438  1.00  0.00     0.041 C 
ATOM      5  O   UNL     1      47.703  35.778 -10.361  1.00  0.00    -0.550 OA
ATOM      6  O   UNL     1      46.145  34.445  -9.338  1.00  0.00    -0.550 OA
ENDBRANCH   3   4
ENDBRANCH   2   3
ENDBRANCH   1   2
BRANCH   1   7
ATOM      7  C   UNL     1      48.019  34.707 -14.652  1.00  0.00     0.000 C 
BRANCH   7   8
ATOM      8  C   UNL     1      47.963  34.671 -16.184  1.00  0.00    -0.000 C 
BRANCH   8   9
ATOM      9  C   UNL     1      49.172  35.390 -16.796  1.00  0.00    -0.000 C 
BRANCH   9  10
ATOM     10  C   UNL     1      48.801  36.811 -17.236  1.00  0.00    -0.003 C 
ATOM     11  C   UNL     1      47.317  36.913 -17.575  1.00  0.00     0.004 C 
ENDBRANCH   9  10
ENDBRANCH   8   9
ENDBRANCH   7   8
ENDBRANCH   1   7
TORSDOF 7
ENDMDL
MODEL 6
REMARK VINA RESULT:    -3.660     18.906     20.351
REMARK INTER + INTRA:          -6.015
REMARK INTER:                  -5.416
REMARK INTRA:                  -0.599
REMARK UNBOUND:                -0.858
REMARK SMILES CCCCCCCCC(=O)[O-]
REMARK SMILES IDX 6 1 7 2 8 3 9 4 10 5 11 6 5 7 4 8 3 9 2 10 1 11
REMARK H PARENT
REMARK Flexibility Score: inf
ROOT
ATOM      1  C   UNL     1      37.906  21.179 -22.811  1.00  0.00     0.000 C 
ENDROOT
BRANCH   1   2
ATOM      2  C   UNL     1      38.170  20.863 -24.287  1.00  0.00     0.006 C 
BRANCH   2   3
ATOM      3  C   UNL     1      38.216  22.144 -25.125  1.00  0.00     0.053 C 
BRANCH   3   4
ATOM      4  C   UNL     1      39.585  22.745 -25.089  1.00  0.00     0.041 C 
ATOM      5  O   UNL     1      39.728  23.995 -25.035  1.00  0.00    -0.550 OA
ATOM      6  O   UNL     1      40.705  21.922 -25.064  1.00  0.00    -0.550 OA
ENDBRANCH   3   4
ENDBRANCH   2   3
ENDBRANCH   1   2
BRANCH   1   7
ATOM      7  C   UNL     1      37.240  19.993 -22.103  1.00  0.00     0.000 C 
BRANCH   7   8
ATOM      8  C   UNL     1      37.976  18.684 -22.412  1.00  0.00    -0.000 C 
BRANCH   8   9
ATOM      9  C   UNL     1      39.167  18.486 -21.467  1.00  0.00    -0.000 C 
BRANCH   9  10
ATOM     10  C   UNL     1      40.395  17.974 -22.230  1.00  0.00    -0.003 C 
ATOM     11  C   UNL     1      41.163  19.125 -22.873  1.00  0.00     0.004 C 
ENDBRANCH   9  10
ENDBRANCH   8   9
ENDBRANCH   7   8
ENDBRANCH   1   7
TORSDOF 7
ENDMDL
MODEL 7
REMARK VINA RESULT:    -3.659      1.578      2.088
REMARK INTER + INTRA:          -6.014
REMARK INTER:                  -5.329
REMARK INTRA:                  -0.685
REMARK UNBOUND:                -0.858
REMARK SMILES CCCCCCCCC(=O)[O-]
REMARK SMILES IDX 6 1 7 2 8 3 9 4 10 5 11 6 5 7 4 8 3 9 2 10 1 11
REMARK H PARENT
REMARK Flexibility Score: inf
ROOT
ATOM      1  C   UNL     1      47.104  34.732 -14.935  1.00  0.00     0.000 C 
ENDROOT
BRANCH   1   2
ATOM      2  C   UNL     1      48.220  34.781 -13.885  1.00  0.00     0.006 C 
BRANCH   2   3
ATOM      3  C   UNL     1      48.140  36.067 -13.057  1.00  0.00     0.053 C 
BRANCH   3   4
ATOM      4  C   UNL     1      47.667  35.768 -11.670  1.00  0.00     0.041 C 
ATOM      5  O   UNL     1      46.689  34.996 -11.486  1.00  0.00    -0.550 OA
ATOM      6  O   UNL     1      48.338  36.302 -10.577  1.00  0.00    -0.550 OA
ENDBRANCH   3   4
ENDBRANCH   2   3
ENDBRANCH   1   2
BRANCH   1   7
ATOM      7  C   UNL     1      47.683  34.702 -16.354  1.00  0.00     0.000 C 
BRANCH   7   8
ATOM      8  C   UNL     1      47.423  36.026 -17.083  1.00  0.00    -0.000 C 
BRANCH   8   9
ATOM      9  C   UNL     1      48.722  36.823 -17.255  1.00  0.00    -0.000 C 
BRANCH   9  10
ATOM     10  C   UNL     1      49.948  35.938 -17.005  1.00  0.00    -0.003 C 
ATOM     11  C   UNL     1      50.933  36.616 -16.056  1.00  0.00     0.004 C 
ENDBRANCH   9  10
ENDBRANCH   8   9
ENDBRANCH   7   8
ENDBRANCH   1   7
TORSDOF 7
ENDMDL
MODEL 8
REMARK VINA RESULT:    -3.649      1.968      2.213
REMARK INTER + INTRA:          -6.000
REMARK INTER:                  -5.473
REMARK INTRA:                  -0.527
REMARK UNBOUND:                -0.858
REMARK SMILES CCCCCCCCC(=O)[O-]
REMARK SMILES IDX 6 1 7 2 8 3 9 4 10 5 11 6 5 7 4 8 3 9 2 10 1 11
REMARK H PARENT
REMARK Flexibility Score: inf
ROOT
ATOM      1  C   UNL     1      47.896  34.593 -16.010  1.00  0.00     0.000 C 
ENDROOT
BRANCH   1   2
ATOM      2  C   UNL     1      47.853  34.851 -14.499  1.00  0.00     0.006 C 
BRANCH   2   3
ATOM      3  C   UNL     1      46.689  35.776 -14.132  1.00  0.00     0.053 C 
BRANCH   3   4
ATOM      4  C   UNL     1      45.697  35.055 -13.276  1.00  0.00     0.041 C 
ATOM      5  O   UNL     1      45.997  33.950 -12.752  1.00  0.00    -0.550 OA
ATOM      6  O   UNL     1      44.458  35.627 -13.016  1.00  0.00    -0.550 OA
ENDBRANCH   3   4
ENDBRANCH   2   3
ENDBRANCH   1   2
BRANCH   1   7
ATOM      7  C   UNL     1      47.723  35.897 -16.797  1.00  0.00     0.000 C 
BRANCH   7   8
ATOM      8  C   UNL     1      49.069  36.608 -16.988  1.00  0.00    -0.000 C 
BRANCH   8   9
ATOM      9  C   UNL     1      50.197  35.598 -17.224  1.00  0.00    -0.000 C 
BRANCH   9  10
ATOM     10  C   UNL     1      51.552  36.177 -16.800  1.00  0.00    -0.003 C 
ATOM     11  C   UNL     1      51.409  37.073 -15.573  1.00  0.00     0.004 C 
ENDBRANCH   9  10
ENDBRANCH   8   9
ENDBRANCH   7   8
ENDBRANCH   1   7
TORSDOF 7
ENDMDL
MODEL 9
REMARK VINA RESULT:    -3.647      1.800      3.681
REMARK INTER + INTRA:          -5.997
REMARK INTER:                  -5.225
REMARK INTRA:                  -0.772
REMARK UNBOUND:                -0.858
REMARK SMILES CCCCCCCCC(=O)[O-]
REMARK SMILES IDX 6 1 7 2 8 3 9 4 10 5 11 6 5 7 4 8 3 9 2 10 1 11
REMARK H PARENT
REMARK Flexibility Score: inf
ROOT
ATOM      1  C   UNL     1      47.634  35.911 -16.936  1.00  0.00     0.000 C 
ENDROOT
BRANCH   1   2
ATOM      2  C   UNL     1      48.967  36.644 -17.128  1.00  0.00     0.006 C 
BRANCH   2   3
ATOM      3  C   UNL     1      50.148  35.675 -17.027  1.00  0.00     0.053 C 
BRANCH   3   4
ATOM      4  C   UNL     1      51.390  36.403 -16.626  1.00  0.00     0.041 C 
ATOM      5  O   UNL     1      52.464  36.221 -17.258  1.00  0.00    -0.550 OA
ATOM      6  O   UNL     1      51.353  37.320 -15.583  1.00  0.00    -0.550 OA
ENDBRANCH   3   4
ENDBRANCH   2   3
ENDBRANCH   1   2
BRANCH   1   7
ATOM      7  C   UNL     1      47.796  34.710 -15.996  1.00  0.00     0.000 C 
BRANCH   7   8
ATOM      8  C   UNL     1      46.897  34.850 -14.762  1.00  0.00    -0.000 C 
BRANCH   8   9
ATOM      9  C   UNL     1      47.703  34.672 -13.470  1.00  0.00    -0.000 C 
BRANCH   9  10
ATOM     10  C   UNL     1      49.011  35.471 -13.523  1.00  0.00    -0.003 C 
ATOM     11  C   UNL     1      48.783  36.927 -13.128  1.00  0.00     0.004 C 
ENDBRANCH   9  10
ENDBRANCH   8   9
ENDBRANCH   7   8
ENDBRANCH   1   7
TORSDOF 7
ENDMDL
