MODEL 1
REMARK VINA RESULT:    -4.779      0.000      0.000
REMARK INTER + INTRA:          -7.489
REMARK INTER:                  -7.294
REMARK INTRA:                  -0.195
REMARK UNBOUND:                -0.195
REMARK SMILES CC1=CCC[C@@H](C)C(=O)C[C@@H](C(C)C)C(=O)C1
REMARK SMILES IDX 8 1 9 2 6 3 7 4 5 5 4 6 3 7 2 8 1 9 10 11 11 12 15 13 16 14
REMARK SMILES IDX 17 15 12 17 13 18 14 19
REMARK H PARENT
REMARK Flexibility Score: 70.00
ROOT
ATOM      1  C   UNL     1     -20.353  36.529  13.323  1.00  0.00     0.136 C 
ATOM      2  O   UNL     1     -21.536  36.734  13.088  1.00  0.00    -0.299 OA
ENDROOT
BRANCH   1   3
ATOM      3  C   UNL     1     -19.919  36.345  14.765  1.00  0.00     0.053 C 
ATOM      4  C   UNL     1     -21.069  35.791  15.615  1.00  0.00     0.016 C 
BRANCH   3   5
ATOM      5  C   UNL     1     -19.369  37.654  15.364  1.00  0.00     0.015 C 
BRANCH   5   6
ATOM      6  C   UNL     1     -17.864  37.558  15.674  1.00  0.00     0.028 C 
BRANCH   6   7
ATOM      7  C   UNL     1     -17.128  38.751  15.122  1.00  0.00    -0.028 C 
ATOM      8  C   UNL     1     -16.277  38.708  14.070  1.00  0.00    -0.070 CG0
ATOM      9  C   UNL     1     -15.667  40.004  13.600  1.00  0.00     0.039 C 
ATOM     10  G   UNL     1     -15.904  37.416  13.358  1.00  0.00     0.000 G0
ENDBRANCH   6   7
ENDBRANCH   5   6
ENDBRANCH   3   5
ENDBRANCH   1   3
BRANCH   1  11
ATOM     11  C   UNL     1     -19.378  36.497  12.167  1.00  0.00     0.087 C 
BRANCH  11  12
ATOM     12  C   UNL     1     -17.975  35.985  12.596  1.00  0.00     0.066 C 
BRANCH  12  13
ATOM     13  C   UNL     1     -16.895  37.013  12.286  1.00  0.00     0.140 C 
ATOM     14  O   UNL     1     -16.799  37.474  11.158  1.00  0.00    -0.299 OA
BRANCH  13  15
ATOM     15  C   UNL     1     -15.881  37.416  13.331  1.00  0.00     0.106 CG0
ATOM     16  G   UNL     1     -16.285  38.687  14.063  1.00  0.00     0.000 G0
ENDBRANCH  13  15
ENDBRANCH  12  13
BRANCH  12  17
ATOM     17  C   UNL     1     -17.603  34.598  11.978  1.00  0.00    -0.006 C 
ATOM     18  C   UNL     1     -18.647  34.053  10.986  1.00  0.00     0.008 C 
ATOM     19  C   UNL     1     -17.320  33.553  13.070  1.00  0.00     0.008 C 
ENDBRANCH  12  17
ENDBRANCH  11  12
ENDBRANCH   1  11
TORSDOF 1
ENDMDL
MODEL 2
REMARK VINA RESULT:    -4.401     16.602     18.799
REMARK INTER + INTRA:          -6.912
REMARK INTER:                  -6.965
REMARK INTRA:                   0.053
REMARK UNBOUND:                -0.195
REMARK SMILES CC1=CCC[C@@H](C)C(=O)C[C@@H](C(C)C)C(=O)C1
REMARK SMILES IDX 8 1 9 2 6 3 7 4 5 5 4 6 3 7 2 8 1 9 10 11 11 12 15 13 16 14
REMARK SMILES IDX 17 15 12 17 13 18 14 19
REMARK H PARENT
REMARK Flexibility Score: 70.00
ROOT
ATOM      1  C   UNL     1     -28.634  22.683  11.481  1.00  0.00     0.136 C 
ATOM      2  O   UNL     1     -27.871  22.591  10.530  1.00  0.00    -0.299 OA
ENDROOT
BRANCH   1   3
ATOM      3  C   UNL     1     -28.787  24.029  12.165  1.00  0.00     0.053 C 
ATOM      4  C   UNL     1     -29.221  25.105  11.162  1.00  0.00     0.016 C 
BRANCH   3   5
ATOM      5  C   UNL     1     -27.496  24.444  12.896  1.00  0.00     0.015 C 
BRANCH   5   6
ATOM      6  C   UNL     1     -26.808  23.246  13.576  1.00  0.00     0.028 C 
BRANCH   6   7
ATOM      7  C   UNL     1     -27.226  23.138  15.019  1.00  0.00    -0.028 C 
ATOM      8  C   UNL     1     -27.855  22.067  15.558  1.00  0.00    -0.070 CG0
ATOM      9  C   UNL     1     -28.149  22.089  17.036  1.00  0.00     0.039 C 
ATOM     10  G   UNL     1     -28.285  20.860  14.736  1.00  0.00     0.000 G0
ENDBRANCH   6   7
ENDBRANCH   5   6
ENDBRANCH   3   5
ENDBRANCH   1   3
BRANCH   1  11
ATOM     11  C   UNL     1     -29.368  21.444  11.946  1.00  0.00     0.087 C 
BRANCH  11  12
ATOM     12  C   UNL     1     -30.232  21.712  13.208  1.00  0.00     0.066 C 
BRANCH  12  13
ATOM     13  C   UNL     1     -29.738  20.899  14.397  1.00  0.00     0.140 C 
ATOM     14  O   UNL     1     -30.541  20.321  15.115  1.00  0.00    -0.299 OA
BRANCH  13  15
ATOM     15  C   UNL     1     -28.272  20.859  14.759  1.00  0.00     0.106 CG0
ATOM     16  G   UNL     1     -27.847  22.077  15.565  1.00  0.00     0.000 G0
ENDBRANCH  13  15
ENDBRANCH  12  13
BRANCH  12  17
ATOM     17  C   UNL     1     -31.759  21.474  12.979  1.00  0.00    -0.006 C 
ATOM     18  C   UNL     1     -32.116  20.033  12.571  1.00  0.00     0.008 C 
ATOM     19  C   UNL     1     -32.338  22.467  11.958  1.00  0.00     0.008 C 
ENDBRANCH  12  17
ENDBRANCH  11  12
ENDBRANCH   1  11
TORSDOF 1
ENDMDL
MODEL 3
REMARK VINA RESULT:    -4.356      1.373      3.785
REMARK INTER + INTRA:          -6.843
REMARK INTER:                  -7.567
REMARK INTRA:                   0.725
REMARK UNBOUND:                -0.195
REMARK SMILES CC1=CCC[C@@H](C)C(=O)C[C@@H](C(C)C)C(=O)C1
REMARK SMILES IDX 8 1 9 2 6 3 7 4 5 5 4 6 3 7 2 8 1 9 10 11 11 12 15 13 16 14
REMARK SMILES IDX 17 15 12 17 13 18 14 19
REMARK H PARENT
REMARK Flexibility Score: 70.00
ROOT
ATOM      1  C   UNL     1     -19.770  36.462  13.550  1.00  0.00     0.136 C 
ATOM      2  O   UNL     1     -20.992  36.490  13.529  1.00  0.00    -0.299 OA
ENDROOT
BRANCH   1   3
ATOM      3  C   UNL     1     -19.030  36.035  12.297  1.00  0.00     0.053 C 
ATOM      4  C   UNL     1     -19.932  36.153  11.063  1.00  0.00     0.016 C 
BRANCH   3   5
ATOM      5  C   UNL     1     -18.461  34.609  12.431  1.00  0.00     0.015 C 
BRANCH   5   6
ATOM      6  C   UNL     1     -17.051  34.607  13.048  1.00  0.00     0.028 C 
BRANCH   6   7
ATOM      7  C   UNL     1     -16.130  35.520  12.281  1.00  0.00    -0.028 C 
ATOM      8  C   UNL     1     -15.683  36.715  12.733  1.00  0.00    -0.070 CG0
ATOM      9  C   UNL     1     -14.714  37.482  11.869  1.00  0.00     0.039 C 
ATOM     10  G   UNL     1     -16.124  37.316  14.060  1.00  0.00     0.000 G0
ENDBRANCH   6   7
ENDBRANCH   5   6
ENDBRANCH   3   5
ENDBRANCH   1   3
BRANCH   1  11
ATOM     11  C   UNL     1     -19.057  36.828  14.833  1.00  0.00     0.087 C 
BRANCH  11  12
ATOM     12  C   UNL     1     -18.474  38.268  14.792  1.00  0.00     0.066 C 
BRANCH  12  13
ATOM     13  C   UNL     1     -17.232  38.335  13.914  1.00  0.00     0.140 C 
ATOM     14  O   UNL     1     -17.161  39.168  13.022  1.00  0.00    -0.299 OA
BRANCH  13  15
ATOM     15  C   UNL     1     -16.113  37.332  14.070  1.00  0.00     0.106 CG0
ATOM     16  G   UNL     1     -15.693  36.730  12.738  1.00  0.00     0.000 G0
ENDBRANCH  13  15
ENDBRANCH  12  13
BRANCH  12  17
ATOM     17  C   UNL     1     -18.177  38.860  16.208  1.00  0.00    -0.006 C 
ATOM     18  C   UNL     1     -16.884  39.692  16.282  1.00  0.00     0.008 C 
ATOM     19  C   UNL     1     -18.158  37.763  17.285  1.00  0.00     0.008 C 
ENDBRANCH  12  17
ENDBRANCH  11  12
ENDBRANCH   1  11
TORSDOF 1
ENDMDL
MODEL 4
REMARK VINA RESULT:    -4.322      1.697      3.761
REMARK INTER + INTRA:          -6.791
REMARK INTER:                  -6.740
REMARK INTRA:                  -0.051
REMARK UNBOUND:                -0.195
REMARK SMILES CC1=CCC[C@@H](C)C(=O)C[C@@H](C(C)C)C(=O)C1
REMARK SMILES IDX 8 1 9 2 6 3 7 4 5 5 4 6 3 7 2 8 1 9 10 11 11 12 15 13 16 14
REMARK SMILES IDX 17 15 12 17 13 18 14 19
REMARK H PARENT
REMARK Flexibility Score: 70.00
ROOT
ATOM      1  C   UNL     1     -17.981  35.443  12.323  1.00  0.00     0.136 C 
ATOM      2  O   UNL     1     -17.351  34.483  11.902  1.00  0.00    -0.299 OA
ENDROOT
BRANCH   1   3
ATOM      3  C   UNL     1     -18.062  36.692  11.466  1.00  0.00     0.053 C 
ATOM      4  C   UNL     1     -18.844  36.420  10.175  1.00  0.00     0.016 C 
BRANCH   3   5
ATOM      5  C   UNL     1     -16.663  37.260  11.155  1.00  0.00     0.015 C 
BRANCH   5   6
ATOM      6  C   UNL     1     -15.737  37.214  12.384  1.00  0.00     0.028 C 
BRANCH   6   7
ATOM      7  C   UNL     1     -15.869  38.473  13.200  1.00  0.00    -0.028 C 
ATOM      8  C   UNL     1     -16.275  38.512  14.491  1.00  0.00    -0.070 CG0
ATOM      9  C   UNL     1     -16.295  39.849  15.187  1.00  0.00     0.039 C 
ATOM     10  G   UNL     1     -16.723  37.275  15.255  1.00  0.00     0.000 G0
ENDBRANCH   6   7
ENDBRANCH   5   6
ENDBRANCH   3   5
ENDBRANCH   1   3
BRANCH   1  11
ATOM     11  C   UNL     1     -18.625  35.348  13.688  1.00  0.00     0.087 C 
BRANCH  11  12
ATOM     12  C   UNL     1     -19.093  36.732  14.215  1.00  0.00     0.066 C 
BRANCH  12  13
ATOM     13  C   UNL     1     -18.232  37.197  15.382  1.00  0.00     0.140 C 
ATOM     14  O   UNL     1     -18.763  37.581  16.415  1.00  0.00    -0.299 OA
BRANCH  13  15
ATOM     15  C   UNL     1     -16.729  37.273  15.259  1.00  0.00     0.106 CG0
ATOM     16  G   UNL     1     -16.277  38.515  14.504  1.00  0.00     0.000 G0
ENDBRANCH  13  15
ENDBRANCH  12  13
BRANCH  12  17
ATOM     17  C   UNL     1     -20.607  36.772  14.601  1.00  0.00    -0.006 C 
ATOM     18  C   UNL     1     -21.036  35.659  15.575  1.00  0.00     0.008 C 
ATOM     19  C   UNL     1     -21.508  36.756  13.355  1.00  0.00     0.008 C 
ENDBRANCH  12  17
ENDBRANCH  11  12
ENDBRANCH   1  11
TORSDOF 1
ENDMDL
MODEL 5
REMARK VINA RESULT:    -4.223      1.836      4.812
REMARK INTER + INTRA:          -6.640
REMARK INTER:                  -6.970
REMARK INTRA:                   0.330
REMARK UNBOUND:                -0.195
REMARK SMILES CC1=CCC[C@@H](C)C(=O)C[C@@H](C(C)C)C(=O)C1
REMARK SMILES IDX 8 1 9 2 6 3 7 4 5 5 4 6 3 7 2 8 1 9 10 11 11 12 15 13 16 14
REMARK SMILES IDX 17 15 12 17 13 18 14 19
REMARK H PARENT
REMARK Flexibility Score: 70.00
ROOT
ATOM      1  C   UNL     1     -16.744  37.009  11.481  1.00  0.00     0.136 C 
ATOM      2  O   UNL     1     -15.542  36.792  11.537  1.00  0.00    -0.299 OA
ENDROOT
BRANCH   1   3
ATOM      3  C   UNL     1     -17.623  36.049  10.702  1.00  0.00     0.053 C 
ATOM      4  C   UNL     1     -19.004  36.661  10.441  1.00  0.00     0.016 C 
BRANCH   3   5
ATOM      5  C   UNL     1     -17.746  34.687  11.412  1.00  0.00     0.015 C 
BRANCH   5   6
ATOM      6  C   UNL     1     -17.610  34.820  12.940  1.00  0.00     0.028 C 
BRANCH   6   7
ATOM      7  C   UNL     1     -18.950  35.086  13.574  1.00  0.00    -0.028 C 
ATOM      8  C   UNL     1     -19.162  35.968  14.580  1.00  0.00    -0.070 CG0
ATOM      9  C   UNL     1     -20.576  36.164  15.063  1.00  0.00     0.039 C 
ATOM     10  G   UNL     1     -18.039  36.751  15.244  1.00  0.00     0.000 G0
ENDBRANCH   6   7
ENDBRANCH   5   6
ENDBRANCH   3   5
ENDBRANCH   1   3
BRANCH   1  11
ATOM     11  C   UNL     1     -17.293  38.240  12.170  1.00  0.00     0.087 C 
BRANCH  11  12
ATOM     12  C   UNL     1     -16.764  38.386  13.623  1.00  0.00     0.066 C 
BRANCH  12  13
ATOM     13  C   UNL     1     -17.867  38.129  14.640  1.00  0.00     0.140 C 
ATOM     14  O   UNL     1     -18.575  39.052  15.016  1.00  0.00    -0.299 OA
BRANCH  13  15
ATOM     15  C   UNL     1     -18.051  36.765  15.261  1.00  0.00     0.106 CG0
ATOM     16  G   UNL     1     -19.158  35.970  14.583  1.00  0.00     0.000 G0
ENDBRANCH  13  15
ENDBRANCH  12  13
BRANCH  12  17
ATOM     17  C   UNL     1     -16.075  39.762  13.898  1.00  0.00    -0.006 C 
ATOM     18  C   UNL     1     -14.827  40.023  13.034  1.00  0.00     0.008 C 
ATOM     19  C   UNL     1     -15.727  39.931  15.386  1.00  0.00     0.008 C 
ENDBRANCH  12  17
ENDBRANCH  11  12
ENDBRANCH   1  11
TORSDOF 1
ENDMDL
MODEL 6
REMARK VINA RESULT:    -4.214      1.771      4.091
REMARK INTER + INTRA:          -6.626
REMARK INTER:                  -6.518
REMARK INTRA:                  -0.108
REMARK UNBOUND:                -0.195
REMARK SMILES CC1=CCC[C@@H](C)C(=O)C[C@@H](C(C)C)C(=O)C1
REMARK SMILES IDX 8 1 9 2 6 3 7 4 5 5 4 6 3 7 2 8 1 9 10 11 11 12 15 13 16 14
REMARK SMILES IDX 17 15 12 17 13 18 14 19
REMARK H PARENT
REMARK Flexibility Score: 70.00
ROOT
ATOM      1  C   UNL     1     -17.699  36.874  11.703  1.00  0.00     0.136 C 
ATOM      2  O   UNL     1     -18.181  36.767  10.584  1.00  0.00    -0.299 OA
ENDROOT
BRANCH   1   3
ATOM      3  C   UNL     1     -17.754  35.679  12.637  1.00  0.00     0.053 C 
ATOM      4  C   UNL     1     -16.996  34.486  12.043  1.00  0.00     0.016 C 
BRANCH   3   5
ATOM      5  C   UNL     1     -19.206  35.295  12.982  1.00  0.00     0.015 C 
BRANCH   5   6
ATOM      6  C   UNL     1     -19.926  36.408  13.765  1.00  0.00     0.028 C 
BRANCH   6   7
ATOM      7  C   UNL     1     -19.393  36.504  15.170  1.00  0.00    -0.028 C 
ATOM      8  C   UNL     1     -18.728  37.574  15.668  1.00  0.00    -0.070 CG0
ATOM      9  C   UNL     1     -18.314  37.538  17.117  1.00  0.00     0.039 C 
ATOM     10  G   UNL     1     -18.373  38.792  14.828  1.00  0.00     0.000 G0
ENDBRANCH   6   7
ENDBRANCH   5   6
ENDBRANCH   3   5
ENDBRANCH   1   3
BRANCH   1  11
ATOM     11  C   UNL     1     -17.095  38.200  12.110  1.00  0.00     0.087 C 
BRANCH  11  12
ATOM     12  C   UNL     1     -16.248  38.087  13.407  1.00  0.00     0.066 C 
BRANCH  12  13
ATOM     13  C   UNL     1     -16.878  38.876  14.547  1.00  0.00     0.140 C 
ATOM     14  O   UNL     1     -16.170  39.539  15.292  1.00  0.00    -0.299 OA
BRANCH  13  15
ATOM     15  C   UNL     1     -18.358  38.788  14.830  1.00  0.00     0.106 CG0
ATOM     16  G   UNL     1     -18.714  37.559  15.654  1.00  0.00     0.000 G0
ENDBRANCH  13  15
ENDBRANCH  12  13
BRANCH  12  17
ATOM     17  C   UNL     1     -14.754  38.503  13.213  1.00  0.00    -0.006 C 
ATOM     18  C   UNL     1     -14.562  39.967  12.776  1.00  0.00     0.008 C 
ATOM     19  C   UNL     1     -14.029  37.564  12.234  1.00  0.00     0.008 C 
ENDBRANCH  12  17
ENDBRANCH  11  12
ENDBRANCH   1  11
TORSDOF 1
ENDMDL
MODEL 7
REMARK VINA RESULT:    -4.084      1.341      2.146
REMARK INTER + INTRA:          -6.429
REMARK INTER:                  -7.111
REMARK INTRA:                   0.682
REMARK UNBOUND:                -0.195
REMARK SMILES CC1=CCC[C@@H](C)C(=O)C[C@@H](C(C)C)C(=O)C1
REMARK SMILES IDX 8 1 9 2 6 3 7 4 5 5 4 6 3 7 2 8 1 9 10 11 11 12 15 13 16 14
REMARK SMILES IDX 17 15 12 17 13 18 14 19
REMARK H PARENT
REMARK Flexibility Score: 70.00
ROOT
ATOM      1  C   UNL     1     -19.553  36.514  14.719  1.00  0.00     0.136 C 
ATOM      2  O   UNL     1     -20.374  36.126  15.539  1.00  0.00    -0.299 OA
ENDROOT
BRANCH   1   3
ATOM      3  C   UNL     1     -18.335  37.273  15.212  1.00  0.00     0.053 C 
ATOM      4  C   UNL     1     -18.125  37.051  16.715  1.00  0.00     0.016 C 
BRANCH   3   5
ATOM      5  C   UNL     1     -18.431  38.775  14.883  1.00  0.00     0.015 C 
BRANCH   5   6
ATOM      6  C   UNL     1     -17.172  39.288  14.160  1.00  0.00     0.028 C 
BRANCH   6   7
ATOM      7  C   UNL     1     -16.221  38.156  13.875  1.00  0.00    -0.028 C 
ATOM      8  C   UNL     1     -16.135  37.504  12.691  1.00  0.00    -0.070 CG0
ATOM      9  C   UNL     1     -15.085  36.433  12.547  1.00  0.00     0.039 C 
ATOM     10  G   UNL     1     -17.058  37.797  11.517  1.00  0.00     0.000 G0
ENDBRANCH   6   7
ENDBRANCH   5   6
ENDBRANCH   3   5
ENDBRANCH   1   3
BRANCH   1  11
ATOM     11  C   UNL     1     -19.806  36.242  13.253  1.00  0.00     0.087 C 
BRANCH  11  12
ATOM     12  C   UNL     1     -18.510  35.837  12.498  1.00  0.00     0.066 C 
BRANCH  12  13
ATOM     13  C   UNL     1     -18.196  36.819  11.377  1.00  0.00     0.140 C 
ATOM     14  O   UNL     1     -18.827  36.771  10.331  1.00  0.00    -0.299 OA
BRANCH  13  15
ATOM     15  C   UNL     1     -17.057  37.802  11.500  1.00  0.00     0.106 CG0
ATOM     16  G   UNL     1     -16.144  37.479  12.674  1.00  0.00     0.000 G0
ENDBRANCH  13  15
ENDBRANCH  12  13
BRANCH  12  17
ATOM     17  C   UNL     1     -18.540  34.373  11.951  1.00  0.00    -0.006 C 
ATOM     18  C   UNL     1     -18.419  33.293  13.042  1.00  0.00     0.008 C 
ATOM     19  C   UNL     1     -17.468  34.152  10.872  1.00  0.00     0.008 C 
ENDBRANCH  12  17
ENDBRANCH  11  12
ENDBRANCH   1  11
TORSDOF 1
ENDMDL
MODEL 8
REMARK VINA RESULT:    -4.030      1.922      4.081
REMARK INTER + INTRA:          -6.345
REMARK INTER:                  -6.685
REMARK INTRA:                   0.339
REMARK UNBOUND:                -0.195
REMARK SMILES CC1=CCC[C@@H](C)C(=O)C[C@@H](C(C)C)C(=O)C1
REMARK SMILES IDX 8 1 9 2 6 3 7 4 5 5 4 6 3 7 2 8 1 9 10 11 11 12 15 13 16 14
REMARK SMILES IDX 17 15 12 17 13 18 14 19
REMARK H PARENT
REMARK Flexibility Score: 70.00
ROOT
ATOM      1  C   UNL     1     -15.511  37.614  12.359  1.00  0.00     0.136 C 
ATOM      2  O   UNL     1     -14.659  37.029  13.014  1.00  0.00    -0.299 OA
ENDROOT
BRANCH   1   3
ATOM      3  C   UNL     1     -15.688  39.107  12.562  1.00  0.00     0.053 C 
ATOM      4  C   UNL     1     -14.436  39.723  13.199  1.00  0.00     0.016 C 
BRANCH   3   5
ATOM      5  C   UNL     1     -16.945  39.422  13.395  1.00  0.00     0.015 C 
BRANCH   5   6
ATOM      6  C   UNL     1     -16.947  38.674  14.741  1.00  0.00     0.028 C 
BRANCH   6   7
ATOM      7  C   UNL     1     -18.301  38.075  15.017  1.00  0.00    -0.028 C 
ATOM      8  C   UNL     1     -18.584  36.753  14.950  1.00  0.00    -0.070 CG0
ATOM      9  C   UNL     1     -19.977  36.308  15.319  1.00  0.00     0.039 C 
ATOM     10  G   UNL     1     -17.568  35.710  14.509  1.00  0.00     0.000 G0
ENDBRANCH   6   7
ENDBRANCH   5   6
ENDBRANCH   3   5
ENDBRANCH   1   3
BRANCH   1  11
ATOM     11  C   UNL     1     -16.366  36.814  11.400  1.00  0.00     0.087 C 
BRANCH  11  12
ATOM     12  C   UNL     1     -17.765  36.488  11.991  1.00  0.00     0.066 C 
BRANCH  12  13
ATOM     13  C   UNL     1     -17.678  35.381  13.033  1.00  0.00     0.140 C 
ATOM     14  O   UNL     1     -17.762  34.211  12.687  1.00  0.00    -0.299 OA
BRANCH  13  15
ATOM     15  C   UNL     1     -17.573  35.704  14.505  1.00  0.00     0.106 CG0
ATOM     16  G   UNL     1     -18.586  36.755  14.935  1.00  0.00     0.000 G0
ENDBRANCH  13  15
ENDBRANCH  12  13
BRANCH  12  17
ATOM     17  C   UNL     1     -18.832  36.135  10.905  1.00  0.00    -0.006 C 
ATOM     18  C   UNL     1     -18.868  37.115   9.718  1.00  0.00     0.008 C 
ATOM     19  C   UNL     1     -20.236  36.000  11.517  1.00  0.00     0.008 C 
ENDBRANCH  12  17
ENDBRANCH  11  12
ENDBRANCH   1  11
TORSDOF 1
ENDMDL
MODEL 9
REMARK VINA RESULT:    -4.013     16.691     18.852
REMARK INTER + INTRA:          -6.319
REMARK INTER:                  -6.331
REMARK INTRA:                   0.012
REMARK UNBOUND:                -0.195
REMARK SMILES CC1=CCC[C@@H](C)C(=O)C[C@@H](C(C)C)C(=O)C1
REMARK SMILES IDX 8 1 9 2 6 3 7 4 5 5 4 6 3 7 2 8 1 9 10 11 11 12 15 13 16 14
REMARK SMILES IDX 17 15 12 17 13 18 14 19
REMARK H PARENT
REMARK Flexibility Score: 70.00
ROOT
ATOM      1  C   UNL     1     -31.072  22.423  12.456  1.00  0.00     0.136 C 
ATOM      2  O   UNL     1     -31.579  23.044  11.533  1.00  0.00    -0.299 OA
ENDROOT
BRANCH   1   3
ATOM      3  C   UNL     1     -31.416  20.955  12.621  1.00  0.00     0.053 C 
ATOM      4  C   UNL     1     -32.715  20.612  11.881  1.00  0.00     0.016 C 
BRANCH   3   5
ATOM      5  C   UNL     1     -31.505  20.556  14.107  1.00  0.00     0.015 C 
BRANCH   5   6
ATOM      6  C   UNL     1     -30.214  19.876  14.599  1.00  0.00     0.028 C 
BRANCH   6   7
ATOM      7  C   UNL     1     -29.682  20.565  15.828  1.00  0.00    -0.028 C 
ATOM      8  C   UNL     1     -28.555  21.315  15.860  1.00  0.00    -0.070 CG0
ATOM      9  C   UNL     1     -28.191  21.991  17.157  1.00  0.00     0.039 C 
ATOM     10  G   UNL     1     -27.643  21.490  14.654  1.00  0.00     0.000 G0
ENDBRANCH   6   7
ENDBRANCH   5   6
ENDBRANCH   3   5
ENDBRANCH   1   3
BRANCH   1  11
ATOM     11  C   UNL     1     -30.148  23.156  13.404  1.00  0.00     0.087 C 
BRANCH  11  12
ATOM     12  C   UNL     1     -28.679  23.169  12.900  1.00  0.00     0.066 C 
BRANCH  12  13
ATOM     13  C   UNL     1     -27.707  22.847  14.026  1.00  0.00     0.140 C 
ATOM     14  O   UNL     1     -26.907  23.693  14.401  1.00  0.00    -0.299 OA
BRANCH  13  15
ATOM     15  C   UNL     1     -27.653  21.467  14.638  1.00  0.00     0.106 CG0
ATOM     16  G   UNL     1     -28.559  21.343  15.855  1.00  0.00     0.000 G0
ENDBRANCH  13  15
ENDBRANCH  12  13
BRANCH  12  17
ATOM     17  C   UNL     1     -28.276  24.504  12.194  1.00  0.00    -0.006 C 
ATOM     18  C   UNL     1     -29.344  25.609  12.283  1.00  0.00     0.008 C 
ATOM     19  C   UNL     1     -27.884  24.270  10.725  1.00  0.00     0.008 C 
ENDBRANCH  12  17
ENDBRANCH  11  12
ENDBRANCH   1  11
TORSDOF 1
ENDMDL
