MODEL 1
REMARK VINA RESULT:    33.338      0.000      0.000
REMARK INTER + INTRA:          39.841
REMARK INTER:                  40.159
REMARK INTRA:                  -0.319
REMARK UNBOUND:                -0.319
REMARK SMILES COc1ccc([C@@H]2CC(=O)c3c(O)cc(O)cc3O2)cc1O
REMARK SMILES IDX 7 1 8 2 9 3 10 4 11 5 12 6 14 7 15 8 17 9 18 10 19 11 6 12
REMARK SMILES IDX 3 13 21 14 4 15 20 16 5 17 2 18 1 19 22 20 13 22 16 24
REMARK H PARENT 22 21 13 23 16 25
REMARK Flexibility Score: inf
ROOT
ATOM      1  C   UNL     1       9.940   2.313   8.927  1.00  0.00     0.211 C 
ATOM      2  C   UNL     1       9.641   3.583   8.123  1.00  0.00     0.131 C 
ATOM      3  C   UNL     1      10.811   3.944   7.249  1.00  0.00     0.174 C 
ATOM      4  O   UNL     1      10.948   5.148   6.913  1.00  0.00    -0.294 OA
ATOM      5  C   UNL     1      11.691   2.869   6.702  1.00  0.00     0.102 A 
ATOM      6  C   UNL     1      12.745   3.089   5.769  1.00  0.00     0.133 A 
ATOM      7  C   UNL     1      13.391   1.992   5.186  1.00  0.00     0.093 A 
ATOM      8  C   UNL     1      13.049   0.686   5.540  1.00  0.00     0.123 A 
ATOM      9  C   UNL     1      12.057   0.465   6.497  1.00  0.00     0.093 A 
ATOM     10  C   UNL     1      11.394   1.543   7.087  1.00  0.00     0.138 A 
ATOM     11  O   UNL     1      10.424   1.288   8.061  1.00  0.00    -0.484 OA
ENDROOT
BRANCH   1  12
ATOM     12  C   UNL     1       8.707   1.838   9.657  1.00  0.00    -0.003 A 
ATOM     13  C   UNL     1       6.411   0.883  10.992  1.00  0.00     0.160 A 
ATOM     14  C   UNL     1       6.343   1.253   9.636  1.00  0.00     0.158 A 
ATOM     15  C   UNL     1       7.642   0.986  11.669  1.00  0.00     0.051 A 
ATOM     16  C   UNL     1       7.485   1.721   8.977  1.00  0.00     0.057 A 
ATOM     17  C   UNL     1       8.778   1.453  11.005  1.00  0.00     0.011 A 
BRANCH  13  18
ATOM     18  O   UNL     1       5.250   0.418  11.629  1.00  0.00    -0.493 OA
ATOM     19  C   UNL     1       4.974   0.570  13.017  1.00  0.00     0.278 C 
ENDBRANCH  13  18
BRANCH  14  20
ATOM     20  O   UNL     1       5.146   1.161   8.925  1.00  0.00    -0.504 OA
ATOM     21  H   UNL     1       4.243   1.227   9.377  1.00  0.00     0.293 HD
ENDBRANCH  14  20
ENDBRANCH   1  12
BRANCH   6  22
ATOM     22  O   UNL     1      13.199   4.358   5.399  1.00  0.00    -0.507 OA
ATOM     23  H   UNL     1      12.786   5.226   5.707  1.00  0.00     0.293 HD
ENDBRANCH   6  22
BRANCH   8  24
ATOM     24  O   UNL     1      13.711  -0.384   4.941  1.00  0.00    -0.508 OA
ATOM     25  H   UNL     1      14.452  -0.237   4.266  1.00  0.00     0.293 HD
ENDBRANCH   8  24
TORSDOF 5
ENDMDL
MODEL 2
REMARK VINA RESULT:    33.562      1.571      3.170
REMARK INTER + INTRA:          40.110
REMARK INTER:                  40.406
REMARK INTRA:                  -0.296
REMARK UNBOUND:                -0.319
REMARK SMILES COc1ccc([C@@H]2CC(=O)c3c(O)cc(O)cc3O2)cc1O
REMARK SMILES IDX 7 1 8 2 9 3 10 4 11 5 12 6 14 7 15 8 17 9 18 10 19 11 6 12
REMARK SMILES IDX 3 13 21 14 4 15 20 16 5 17 2 18 1 19 22 20 13 22 16 24
REMARK H PARENT 22 21 13 23 16 25
REMARK Flexibility Score: inf
ROOT
ATOM      1  C   UNL     1       9.008   1.286   8.517  1.00  0.00     0.211 C 
ATOM      2  C   UNL     1      10.143   0.258   8.580  1.00  0.00     0.131 C 
ATOM      3  C   UNL     1      11.091   0.446   7.427  1.00  0.00     0.174 C 
ATOM      4  O   UNL     1      11.762  -0.548   7.046  1.00  0.00    -0.294 OA
ATOM      5  C   UNL     1      11.309   1.808   6.857  1.00  0.00     0.102 A 
ATOM      6  C   UNL     1      12.273   2.116   5.854  1.00  0.00     0.133 A 
ATOM      7  C   UNL     1      12.518   3.453   5.519  1.00  0.00     0.093 A 
ATOM      8  C   UNL     1      11.800   4.488   6.121  1.00  0.00     0.123 A 
ATOM      9  C   UNL     1      10.813   4.189   7.062  1.00  0.00     0.093 A 
ATOM     10  C   UNL     1      10.556   2.863   7.418  1.00  0.00     0.138 A 
ATOM     11  O   UNL     1       9.543   2.597   8.345  1.00  0.00    -0.484 OA
ENDROOT
BRANCH   1  12
ATOM     12  C   UNL     1       8.164   1.230   9.768  1.00  0.00    -0.003 A 
ATOM     13  C   UNL     1       6.590   1.198  12.110  1.00  0.00     0.160 A 
ATOM     14  C   UNL     1       7.988   1.332  12.195  1.00  0.00     0.158 A 
ATOM     15  C   UNL     1       5.987   1.091  10.841  1.00  0.00     0.051 A 
ATOM     16  C   UNL     1       8.764   1.352  11.031  1.00  0.00     0.057 A 
ATOM     17  C   UNL     1       6.768   1.113   9.683  1.00  0.00     0.011 A 
BRANCH  13  18
ATOM     18  O   UNL     1       5.836   1.179  13.294  1.00  0.00    -0.493 OA
ATOM     19  C   UNL     1       5.408   2.339  13.999  1.00  0.00     0.278 C 
ENDBRANCH  13  18
BRANCH  14  20
ATOM     20  O   UNL     1       8.626   1.447  13.430  1.00  0.00    -0.504 OA
ATOM     21  H   UNL     1       8.446   2.218  14.061  1.00  0.00     0.293 HD
ENDBRANCH  14  20
ENDBRANCH   1  12
BRANCH   6  22
ATOM     22  O   UNL     1      12.996   1.147   5.153  1.00  0.00    -0.507 OA
ATOM     23  H   UNL     1      13.958   0.907   5.337  1.00  0.00     0.293 HD
ENDBRANCH   6  22
BRANCH   8  24
ATOM     24  O   UNL     1      12.067   5.808   5.765  1.00  0.00    -0.508 OA
ATOM     25  H   UNL     1      11.361   6.393   5.333  1.00  0.00     0.293 HD
ENDBRANCH   8  24
TORSDOF 5
ENDMDL
MODEL 3
REMARK VINA RESULT:    33.613      4.430      8.801
REMARK INTER + INTRA:          40.172
REMARK INTER:                  40.533
REMARK INTRA:                  -0.362
REMARK UNBOUND:                -0.319
REMARK SMILES COc1ccc([C@@H]2CC(=O)c3c(O)cc(O)cc3O2)cc1O
REMARK SMILES IDX 7 1 8 2 9 3 10 4 11 5 12 6 14 7 15 8 17 9 18 10 19 11 6 12
REMARK SMILES IDX 3 13 21 14 4 15 20 16 5 17 2 18 1 19 22 20 13 22 16 24
REMARK H PARENT 22 21 13 23 16 25
REMARK Flexibility Score: inf
ROOT
ATOM      1  C   UNL     1      14.927   2.266   8.114  1.00  0.00     0.211 C 
ATOM      2  C   UNL     1      14.654   0.966   7.348  1.00  0.00     0.131 C 
ATOM      3  C   UNL     1      13.205   0.879   6.954  1.00  0.00     0.174 C 
ATOM      4  O   UNL     1      12.710  -0.263   6.771  1.00  0.00    -0.294 OA
ATOM      5  C   UNL     1      12.435   2.125   6.666  1.00  0.00     0.102 A 
ATOM      6  C   UNL     1      11.101   2.150   6.166  1.00  0.00     0.133 A 
ATOM      7  C   UNL     1      10.538   3.367   5.763  1.00  0.00     0.093 A 
ATOM      8  C   UNL     1      11.247   4.563   5.885  1.00  0.00     0.123 A 
ATOM      9  C   UNL     1      12.533   4.552   6.428  1.00  0.00     0.093 A 
ATOM     10  C   UNL     1      13.119   3.350   6.831  1.00  0.00     0.138 A 
ATOM     11  O   UNL     1      14.398   3.378   7.395  1.00  0.00    -0.484 OA
ENDROOT
BRANCH   1  12
ATOM     12  C   UNL     1      16.407   2.451   8.344  1.00  0.00    -0.003 A 
ATOM     13  C   UNL     1      19.186   2.794   8.701  1.00  0.00     0.160 A 
ATOM     14  C   UNL     1      18.652   1.513   8.463  1.00  0.00     0.158 A 
ATOM     15  C   UNL     1      18.316   3.901   8.747  1.00  0.00     0.051 A 
ATOM     16  C   UNL     1      17.275   1.349   8.282  1.00  0.00     0.057 A 
ATOM     17  C   UNL     1      16.942   3.730   8.564  1.00  0.00     0.011 A 
BRANCH  13  18
ATOM     18  O   UNL     1      20.571   2.930   8.881  1.00  0.00    -0.493 OA
ATOM     19  C   UNL     1      21.493   3.255   7.846  1.00  0.00     0.278 C 
ENDBRANCH  13  18
BRANCH  14  20
ATOM     20  O   UNL     1      19.478   0.391   8.403  1.00  0.00    -0.504 OA
ATOM     21  H   UNL     1      20.487   0.463   8.365  1.00  0.00     0.293 HD
ENDBRANCH  14  20
ENDBRANCH   1  12
BRANCH   6  22
ATOM     22  O   UNL     1      10.292   1.016   6.065  1.00  0.00    -0.507 OA
ATOM     23  H   UNL     1      10.626   0.066   6.130  1.00  0.00     0.293 HD
ENDBRANCH   6  22
BRANCH   8  24
ATOM     24  O   UNL     1      10.658   5.757   5.474  1.00  0.00    -0.508 OA
ATOM     25  H   UNL     1       9.710   5.783   5.116  1.00  0.00     0.293 HD
ENDBRANCH   8  24
TORSDOF 5
ENDMDL
MODEL 4
REMARK VINA RESULT:    33.863      1.534      7.621
REMARK INTER + INTRA:          40.473
REMARK INTER:                  40.807
REMARK INTRA:                  -0.333
REMARK UNBOUND:                -0.319
REMARK SMILES COc1ccc([C@@H]2CC(=O)c3c(O)cc(O)cc3O2)cc1O
REMARK SMILES IDX 7 1 8 2 9 3 10 4 11 5 12 6 14 7 15 8 17 9 18 10 19 11 6 12
REMARK SMILES IDX 3 13 21 14 4 15 20 16 5 17 2 18 1 19 22 20 13 22 16 24
REMARK H PARENT 22 21 13 23 16 25
REMARK Flexibility Score: inf
ROOT
ATOM      1  C   UNL     1       8.926   2.274   8.932  1.00  0.00     0.211 C 
ATOM      2  C   UNL     1       9.127   1.187   9.994  1.00  0.00     0.131 C 
ATOM      3  C   UNL     1       7.884   1.026  10.826  1.00  0.00     0.174 C 
ATOM      4  O   UNL     1       8.008   0.569  11.991  1.00  0.00    -0.294 OA
ATOM      5  C   UNL     1       6.543   1.280  10.219  1.00  0.00     0.102 A 
ATOM      6  C   UNL     1       5.303   1.038  10.877  1.00  0.00     0.133 A 
ATOM      7  C   UNL     1       4.108   1.141  10.156  1.00  0.00     0.093 A 
ATOM      8  C   UNL     1       4.109   1.524   8.813  1.00  0.00     0.123 A 
ATOM      9  C   UNL     1       5.317   1.820   8.179  1.00  0.00     0.093 A 
ATOM     10  C   UNL     1       6.523   1.716   8.876  1.00  0.00     0.138 A 
ATOM     11  O   UNL     1       7.713   2.045   8.219  1.00  0.00    -0.484 OA
ENDROOT
BRANCH   1  12
ATOM     12  C   UNL     1      10.093   2.310   7.974  1.00  0.00    -0.003 A 
ATOM     13  C   UNL     1      12.319   2.391   6.241  1.00  0.00     0.160 A 
ATOM     14  C   UNL     1      11.717   3.585   6.681  1.00  0.00     0.158 A 
ATOM     15  C   UNL     1      11.803   1.158   6.686  1.00  0.00     0.051 A 
ATOM     16  C   UNL     1      10.616   3.539   7.544  1.00  0.00     0.057 A 
ATOM     17  C   UNL     1      10.705   1.121   7.548  1.00  0.00     0.011 A 
BRANCH  13  18
ATOM     18  O   UNL     1      13.420   2.466   5.374  1.00  0.00    -0.493 OA
ATOM     19  C   UNL     1      14.127   1.339   4.867  1.00  0.00     0.278 C 
ENDBRANCH  13  18
BRANCH  14  20
ATOM     20  O   UNL     1      12.199   4.827   6.271  1.00  0.00    -0.504 OA
ATOM     21  H   UNL     1      13.093   4.934   5.808  1.00  0.00     0.293 HD
ENDBRANCH  14  20
ENDBRANCH   1  12
BRANCH   6  22
ATOM     22  O   UNL     1       5.197   0.710  12.231  1.00  0.00    -0.507 OA
ATOM     23  H   UNL     1       4.336   0.459  12.694  1.00  0.00     0.293 HD
ENDBRANCH   6  22
BRANCH   8  24
ATOM     24  O   UNL     1       2.902   1.618   8.124  1.00  0.00    -0.508 OA
ATOM     25  H   UNL     1       2.854   1.487   7.120  1.00  0.00     0.293 HD
ENDBRANCH   8  24
TORSDOF 5
ENDMDL
MODEL 5
REMARK VINA RESULT:    34.100      5.176      7.559
REMARK INTER + INTRA:          40.759
REMARK INTER:                  41.044
REMARK INTRA:                  -0.285
REMARK UNBOUND:                -0.319
REMARK SMILES COc1ccc([C@@H]2CC(=O)c3c(O)cc(O)cc3O2)cc1O
REMARK SMILES IDX 7 1 8 2 9 3 10 4 11 5 12 6 14 7 15 8 17 9 18 10 19 11 6 12
REMARK SMILES IDX 3 13 21 14 4 15 20 16 5 17 2 18 1 19 22 20 13 22 16 24
REMARK H PARENT 22 21 13 23 16 25
REMARK Flexibility Score: inf
ROOT
ATOM      1  C   UNL     1      15.342   3.875   8.319  1.00  0.00     0.211 C 
ATOM      2  C   UNL     1      14.182   4.869   8.446  1.00  0.00     0.131 C 
ATOM      3  C   UNL     1      13.193   4.673   7.330  1.00  0.00     0.174 C 
ATOM      4  O   UNL     1      12.479   5.652   6.995  1.00  0.00    -0.294 OA
ATOM      5  C   UNL     1      12.989   3.314   6.745  1.00  0.00     0.102 A 
ATOM      6  C   UNL     1      11.994   2.995   5.777  1.00  0.00     0.133 A 
ATOM      7  C   UNL     1      11.773   1.657   5.430  1.00  0.00     0.093 A 
ATOM      8  C   UNL     1      12.545   0.634   5.983  1.00  0.00     0.123 A 
ATOM      9  C   UNL     1      13.561   0.946   6.888  1.00  0.00     0.093 A 
ATOM     10  C   UNL     1      13.795   2.273   7.256  1.00  0.00     0.138 A 
ATOM     11  O   UNL     1      14.838   2.552   8.145  1.00  0.00    -0.484 OA
ENDROOT
BRANCH   1  12
ATOM     12  C   UNL     1      16.236   3.935   9.534  1.00  0.00    -0.003 A 
ATOM     13  C   UNL     1      17.901   3.974  11.812  1.00  0.00     0.160 A 
ATOM     14  C   UNL     1      16.505   3.870  11.954  1.00  0.00     0.158 A 
ATOM     15  C   UNL     1      18.455   4.049  10.519  1.00  0.00     0.051 A 
ATOM     16  C   UNL     1      15.684   3.847  10.821  1.00  0.00     0.057 A 
ATOM     17  C   UNL     1      17.630   4.023   9.393  1.00  0.00     0.011 A 
BRANCH  13  18
ATOM     18  O   UNL     1      18.701   3.998  12.965  1.00  0.00    -0.493 OA
ATOM     19  C   UNL     1      19.111   2.842  13.688  1.00  0.00     0.278 C 
ENDBRANCH  13  18
BRANCH  14  20
ATOM     20  O   UNL     1      15.915   3.788  13.215  1.00  0.00    -0.504 OA
ATOM     21  H   UNL     1      15.010   3.358  13.361  1.00  0.00     0.293 HD
ENDBRANCH  14  20
ENDBRANCH   1  12
BRANCH   6  22
ATOM     22  O   UNL     1      11.215   3.954   5.125  1.00  0.00    -0.507 OA
ATOM     23  H   UNL     1      11.192   4.090   4.125  1.00  0.00     0.293 HD
ENDBRANCH   6  22
BRANCH   8  24
ATOM     24  O   UNL     1      12.300  -0.687   5.615  1.00  0.00    -0.508 OA
ATOM     25  H   UNL     1      11.692  -1.285   6.162  1.00  0.00     0.293 HD
ENDBRANCH   8  24
TORSDOF 5
ENDMDL
MODEL 6
REMARK VINA RESULT:    34.148      1.730      2.184
REMARK INTER + INTRA:          40.816
REMARK INTER:                  41.178
REMARK INTRA:                  -0.362
REMARK UNBOUND:                -0.319
REMARK SMILES COc1ccc([C@@H]2CC(=O)c3c(O)cc(O)cc3O2)cc1O
REMARK SMILES IDX 7 1 8 2 9 3 10 4 11 5 12 6 14 7 15 8 17 9 18 10 19 11 6 12
REMARK SMILES IDX 3 13 21 14 4 15 20 16 5 17 2 18 1 19 22 20 13 22 16 24
REMARK H PARENT 22 21 13 23 16 25
REMARK Flexibility Score: inf
ROOT
ATOM      1  C   UNL     1       9.527   2.985   8.166  1.00  0.00     0.211 C 
ATOM      2  C   UNL     1       9.768   4.279   7.379  1.00  0.00     0.131 C 
ATOM      3  C   UNL     1      11.210   4.384   6.965  1.00  0.00     0.174 C 
ATOM      4  O   UNL     1      11.684   5.531   6.760  1.00  0.00    -0.294 OA
ATOM      5  C   UNL     1      11.997   3.147   6.682  1.00  0.00     0.102 A 
ATOM      6  C   UNL     1      13.324   3.137   6.165  1.00  0.00     0.133 A 
ATOM      7  C   UNL     1      13.902   1.924   5.770  1.00  0.00     0.093 A 
ATOM      8  C   UNL     1      13.214   0.719   5.917  1.00  0.00     0.123 A 
ATOM      9  C   UNL     1      11.935   0.716   6.477  1.00  0.00     0.093 A 
ATOM     10  C   UNL     1      11.335   1.913   6.873  1.00  0.00     0.138 A 
ATOM     11  O   UNL     1      10.064   1.872   7.454  1.00  0.00    -0.484 OA
ENDROOT
BRANCH   1  12
ATOM     12  C   UNL     1       8.053   2.779   8.418  1.00  0.00    -0.003 A 
ATOM     13  C   UNL     1       5.285   2.397   8.817  1.00  0.00     0.160 A 
ATOM     14  C   UNL     1       5.799   3.687   8.585  1.00  0.00     0.158 A 
ATOM     15  C   UNL     1       6.169   1.301   8.838  1.00  0.00     0.051 A 
ATOM     16  C   UNL     1       7.171   3.870   8.383  1.00  0.00     0.057 A 
ATOM     17  C   UNL     1       7.538   1.491   8.634  1.00  0.00     0.011 A 
BRANCH  13  18
ATOM     18  O   UNL     1       3.905   2.242   9.019  1.00  0.00    -0.493 OA
ATOM     19  C   UNL     1       2.971   1.913   7.996  1.00  0.00     0.278 C 
ENDBRANCH  13  18
BRANCH  14  20
ATOM     20  O   UNL     1       4.959   4.799   8.551  1.00  0.00    -0.504 OA
ATOM     21  H   UNL     1       5.296   5.737   8.731  1.00  0.00     0.293 HD
ENDBRANCH  14  20
ENDBRANCH   1  12
BRANCH   6  22
ATOM     22  O   UNL     1      14.113   4.283   6.038  1.00  0.00    -0.507 OA
ATOM     23  H   UNL     1      14.542   4.590   5.178  1.00  0.00     0.293 HD
ENDBRANCH   6  22
BRANCH   8  24
ATOM     24  O   UNL     1      13.817  -0.471   5.514  1.00  0.00    -0.508 OA
ATOM     25  H   UNL     1      14.572  -0.479   4.838  1.00  0.00     0.293 HD
ENDBRANCH   8  24
TORSDOF 5
ENDMDL
MODEL 7
REMARK VINA RESULT:    34.380      5.586      7.620
REMARK INTER + INTRA:          41.096
REMARK INTER:                  41.429
REMARK INTRA:                  -0.333
REMARK UNBOUND:                -0.319
REMARK SMILES COc1ccc([C@@H]2CC(=O)c3c(O)cc(O)cc3O2)cc1O
REMARK SMILES IDX 7 1 8 2 9 3 10 4 11 5 12 6 14 7 15 8 17 9 18 10 19 11 6 12
REMARK SMILES IDX 3 13 21 14 4 15 20 16 5 17 2 18 1 19 22 20 13 22 16 24
REMARK H PARENT 22 21 13 23 16 25
REMARK Flexibility Score: inf
ROOT
ATOM      1  C   UNL     1      15.514   2.897   8.868  1.00  0.00     0.211 C 
ATOM      2  C   UNL     1      15.348   3.973   9.947  1.00  0.00     0.131 C 
ATOM      3  C   UNL     1      16.613   4.116  10.750  1.00  0.00     0.174 C 
ATOM      4  O   UNL     1      16.521   4.560  11.923  1.00  0.00    -0.294 OA
ATOM      5  C   UNL     1      17.936   3.859  10.107  1.00  0.00     0.102 A 
ATOM      6  C   UNL     1      19.194   4.085  10.737  1.00  0.00     0.133 A 
ATOM      7  C   UNL     1      20.370   3.981   9.985  1.00  0.00     0.093 A 
ATOM      8  C   UNL     1      20.332   3.614   8.638  1.00  0.00     0.123 A 
ATOM      9  C   UNL     1      19.107   3.334   8.031  1.00  0.00     0.093 A 
ATOM     10  C   UNL     1      17.919   3.438   8.759  1.00  0.00     0.138 A 
ATOM     11  O   UNL     1      16.711   3.126   8.128  1.00  0.00    -0.484 OA
ENDROOT
BRANCH   1  12
ATOM     12  C   UNL     1      14.324   2.881   7.940  1.00  0.00    -0.003 A 
ATOM     13  C   UNL     1      12.055   2.836   6.262  1.00  0.00     0.160 A 
ATOM     14  C   UNL     1      12.655   1.633   6.679  1.00  0.00     0.158 A 
ATOM     15  C   UNL     1      12.596   4.060   6.702  1.00  0.00     0.051 A 
ATOM     16  C   UNL     1      13.776   1.660   7.514  1.00  0.00     0.057 A 
ATOM     17  C   UNL     1      13.715   4.080   7.537  1.00  0.00     0.011 A 
BRANCH  13  18
ATOM     18  O   UNL     1      10.932   2.780   5.422  1.00  0.00    -0.493 OA
ATOM     19  C   UNL     1      10.195   3.915   4.980  1.00  0.00     0.278 C 
ENDBRANCH  13  18
BRANCH  14  20
ATOM     20  O   UNL     1      12.148   0.399   6.272  1.00  0.00    -0.504 OA
ATOM     21  H   UNL     1      11.222   0.299   5.877  1.00  0.00     0.293 HD
ENDBRANCH  14  20
ENDBRANCH   1  12
BRANCH   6  22
ATOM     22  O   UNL     1      19.336   4.396  12.091  1.00  0.00    -0.507 OA
ATOM     23  H   UNL     1      19.976   5.085  12.456  1.00  0.00     0.293 HD
ENDBRANCH   6  22
BRANCH   8  24
ATOM     24  O   UNL     1      21.521   3.518   7.918  1.00  0.00    -0.508 OA
ATOM     25  H   UNL     1      21.742   4.169   7.173  1.00  0.00     0.293 HD
ENDBRANCH   8  24
TORSDOF 5
ENDMDL
