MODEL 1
REMARK VINA RESULT:    -5.239      0.000      0.000
REMARK INTER + INTRA:          -7.079
REMARK INTER:                  -6.771
REMARK INTRA:                  -0.309
REMARK UNBOUND:                -0.309
REMARK SMILES CCO[C@@H]1O[C@H](CO)[C@@H](O)[C@@H](O)[C@@H]1O
REMARK SMILES IDX 4 1 13 2 11 3 9 4 6 5 5 6 3 7 2 8 1 9 14 10 12 12 7 14 8 15
REMARK SMILES IDX 10 17
REMARK H PARENT 14 11 12 13 8 16 10 18
REMARK Flexibility Score: inf
ROOT
ATOM      1  C   UNL     1       7.345   3.410  18.092  1.00  0.00     0.281 C 
ATOM      2  C   UNL     1       6.856   3.808  19.520  1.00  0.00     0.202 C 
ATOM      3  C   UNL     1       7.226   5.263  19.847  1.00  0.00     0.179 C 
ATOM      4  C   UNL     1       6.819   6.203  18.695  1.00  0.00     0.177 C 
ATOM      5  C   UNL     1       7.233   5.610  17.312  1.00  0.00     0.178 C 
ATOM      6  O   UNL     1       8.064   4.472  17.470  1.00  0.00    -0.341 OA
ENDROOT
BRANCH   1   7
ATOM      7  O   UNL     1       8.071   2.180  18.142  1.00  0.00    -0.350 OA
BRANCH   7   8
ATOM      8  C   UNL     1       7.522   1.121  17.378  1.00  0.00     0.160 C 
ATOM      9  C   UNL     1       6.973   0.011  18.271  1.00  0.00     0.035 C 
ENDBRANCH   7   8
ENDBRANCH   1   7
BRANCH   2  10
ATOM     10  O   UNL     1       7.407   2.969  20.503  1.00  0.00    -0.385 OA
ATOM     11  H   UNL     1       8.392   3.096  20.471  1.00  0.00     0.211 HD
ENDBRANCH   2  10
BRANCH   3  12
ATOM     12  O   UNL     1       6.602   5.650  21.044  1.00  0.00    -0.387 OA
ATOM     13  H   UNL     1       5.666   5.321  20.997  1.00  0.00     0.211 HD
ENDBRANCH   3  12
BRANCH   5  14
ATOM     14  C   UNL     1       7.986   6.639  16.458  1.00  0.00     0.191 C 
BRANCH  14  15
ATOM     15  O   UNL     1       7.669   7.945  16.862  1.00  0.00    -0.394 OA
ATOM     16  H   UNL     1       7.906   8.017  17.823  1.00  0.00     0.210 HD
ENDBRANCH  14  15
ENDBRANCH   5  14
BRANCH   4  17
ATOM     17  O   UNL     1       5.429   6.409  18.728  1.00  0.00    -0.387 OA
ATOM     18  H   UNL     1       5.264   7.307  18.337  1.00  0.00     0.211 HD
ENDBRANCH   4  17
TORSDOF 7
ENDMDL
MODEL 2
REMARK VINA RESULT:    -5.148      1.696      4.468
REMARK INTER + INTRA:          -6.962
REMARK INTER:                  -6.719
REMARK INTRA:                  -0.242
REMARK UNBOUND:                -0.309
REMARK SMILES CCO[C@@H]1O[C@H](CO)[C@@H](O)[C@@H](O)[C@@H]1O
REMARK SMILES IDX 4 1 13 2 11 3 9 4 6 5 5 6 3 7 2 8 1 9 14 10 12 12 7 14 8 15
REMARK SMILES IDX 10 17
REMARK H PARENT 14 11 12 13 8 16 10 18
REMARK Flexibility Score: inf
ROOT
ATOM      1  C   UNL     1       8.136   5.929  16.642  1.00  0.00     0.281 C 
ATOM      2  C   UNL     1       7.245   6.816  17.567  1.00  0.00     0.202 C 
ATOM      3  C   UNL     1       5.960   6.079  17.973  1.00  0.00     0.179 C 
ATOM      4  C   UNL     1       6.282   4.660  18.484  1.00  0.00     0.177 C 
ATOM      5  C   UNL     1       7.302   3.942  17.546  1.00  0.00     0.178 C 
ATOM      6  O   UNL     1       7.510   4.681  16.354  1.00  0.00    -0.341 OA
ENDROOT
BRANCH   1   7
ATOM      7  O   UNL     1       8.518   6.659  15.474  1.00  0.00    -0.350 OA
BRANCH   7   8
ATOM      8  C   UNL     1       9.267   5.926  14.521  1.00  0.00     0.160 C 
ATOM      9  C   UNL     1      10.582   6.624  14.182  1.00  0.00     0.035 C 
ENDBRANCH   7   8
ENDBRANCH   1   7
BRANCH   2  10
ATOM     10  O   UNL     1       6.895   8.023  16.938  1.00  0.00    -0.385 OA
ATOM     11  H   UNL     1       6.218   7.801  16.246  1.00  0.00     0.211 HD
ENDBRANCH   2  10
BRANCH   3  12
ATOM     12  O   UNL     1       5.284   6.817  18.958  1.00  0.00    -0.387 OA
ATOM     13  H   UNL     1       5.550   6.434  19.835  1.00  0.00     0.211 HD
ENDBRANCH   3  12
BRANCH   5  14
ATOM     14  C   UNL     1       6.823   2.536  17.162  1.00  0.00     0.191 C 
BRANCH  14  15
ATOM     15  O   UNL     1       5.783   2.118  18.007  1.00  0.00    -0.394 OA
ATOM     16  H   UNL     1       5.810   2.700  18.810  1.00  0.00     0.210 HD
ENDBRANCH  14  15
ENDBRANCH   5  14
BRANCH   4  17
ATOM     17  O   UNL     1       6.805   4.740  19.786  1.00  0.00    -0.387 OA
ATOM     18  H   UNL     1       7.776   4.544  19.716  1.00  0.00     0.211 HD
ENDBRANCH   4  17
TORSDOF 7
ENDMDL
MODEL 3
REMARK VINA RESULT:    -4.747     13.042     14.936
REMARK INTER + INTRA:          -6.443
REMARK INTER:                  -6.286
REMARK INTRA:                  -0.157
REMARK UNBOUND:                -0.309
REMARK SMILES CCO[C@@H]1O[C@H](CO)[C@@H](O)[C@@H](O)[C@@H]1O
REMARK SMILES IDX 4 1 13 2 11 3 9 4 6 5 5 6 3 7 2 8 1 9 14 10 12 12 7 14 8 15
REMARK SMILES IDX 10 17
REMARK H PARENT 14 11 12 13 8 16 10 18
REMARK Flexibility Score: inf
ROOT
ATOM      1  C   UNL     1      13.642  -0.570   7.332  1.00  0.00     0.281 C 
ATOM      2  C   UNL     1      15.018  -1.282   7.523  1.00  0.00     0.202 C 
ATOM      3  C   UNL     1      14.831  -2.732   7.994  1.00  0.00     0.179 C 
ATOM      4  C   UNL     1      13.796  -3.464   7.116  1.00  0.00     0.177 C 
ATOM      5  C   UNL     1      12.534  -2.578   6.879  1.00  0.00     0.178 C 
ATOM      6  O   UNL     1      12.558  -1.421   7.699  1.00  0.00    -0.341 OA
ENDROOT
BRANCH   1   7
ATOM      7  O   UNL     1      13.636   0.687   8.011  1.00  0.00    -0.350 OA
BRANCH   7   8
ATOM      8  C   UNL     1      13.122   1.775   7.264  1.00  0.00     0.160 C 
ATOM      9  C   UNL     1      13.859   3.074   7.582  1.00  0.00     0.035 C 
ENDBRANCH   7   8
ENDBRANCH   1   7
BRANCH   2  10
ATOM     10  O   UNL     1      15.822  -0.604   8.455  1.00  0.00    -0.385 OA
ATOM     11  H   UNL     1      16.715  -0.489   8.035  1.00  0.00     0.211 HD
ENDBRANCH   2  10
BRANCH   3  12
ATOM     12  O   UNL     1      16.067  -3.401   7.961  1.00  0.00    -0.387 OA
ATOM     13  H   UNL     1      16.367  -3.493   8.903  1.00  0.00     0.211 HD
ENDBRANCH   3  12
BRANCH   5  14
ATOM     14  C   UNL     1      11.240  -3.348   7.174  1.00  0.00     0.191 C 
BRANCH  14  15
ATOM     15  O   UNL     1      10.631  -3.770   5.982  1.00  0.00    -0.394 OA
ATOM     16  H   UNL     1      10.326  -4.703   6.127  1.00  0.00     0.210 HD
ENDBRANCH  14  15
ENDBRANCH   5  14
BRANCH   4  17
ATOM     17  O   UNL     1      14.382  -3.800   5.884  1.00  0.00    -0.387 OA
ATOM     18  H   UNL     1      14.215  -3.036   5.271  1.00  0.00     0.211 HD
ENDBRANCH   4  17
TORSDOF 7
ENDMDL
MODEL 4
REMARK VINA RESULT:    -4.729     13.212     14.426
REMARK INTER + INTRA:          -6.420
REMARK INTER:                  -6.224
REMARK INTRA:                  -0.196
REMARK UNBOUND:                -0.309
REMARK SMILES CCO[C@@H]1O[C@H](CO)[C@@H](O)[C@@H](O)[C@@H]1O
REMARK SMILES IDX 4 1 13 2 11 3 9 4 6 5 5 6 3 7 2 8 1 9 14 10 12 12 7 14 8 15
REMARK SMILES IDX 10 17
REMARK H PARENT 14 11 12 13 8 16 10 18
REMARK Flexibility Score: inf
ROOT
ATOM      1  C   UNL     1      12.987  -2.372   7.476  1.00  0.00     0.281 C 
ATOM      2  C   UNL     1      14.367  -3.078   7.656  1.00  0.00     0.202 C 
ATOM      3  C   UNL     1      15.526  -2.103   7.399  1.00  0.00     0.179 C 
ATOM      4  C   UNL     1      15.320  -0.790   8.180  1.00  0.00     0.177 C 
ATOM      5  C   UNL     1      13.854  -0.275   8.036  1.00  0.00     0.178 C 
ATOM      6  O   UNL     1      13.143  -1.017   7.060  1.00  0.00    -0.341 OA
ENDROOT
BRANCH   1   7
ATOM      7  O   UNL     1      12.146  -3.141   6.614  1.00  0.00    -0.350 OA
BRANCH   7   8
ATOM      8  C   UNL     1      10.978  -3.666   7.220  1.00  0.00     0.160 C 
ATOM      9  C   UNL     1      10.367  -2.679   8.212  1.00  0.00     0.035 C 
ENDBRANCH   7   8
ENDBRANCH   1   7
BRANCH   2  10
ATOM     10  O   UNL     1      14.499  -4.176   6.790  1.00  0.00    -0.385 OA
ATOM     11  H   UNL     1      15.079  -4.838   7.250  1.00  0.00     0.211 HD
ENDBRANCH   2  10
BRANCH   3  12
ATOM     12  O   UNL     1      16.741  -2.709   7.764  1.00  0.00    -0.387 OA
ATOM     13  H   UNL     1      17.110  -2.176   8.516  1.00  0.00     0.211 HD
ENDBRANCH   3  12
BRANCH   5  14
ATOM     14  C   UNL     1      13.811   1.206   7.639  1.00  0.00     0.191 C 
BRANCH  14  15
ATOM     15  O   UNL     1      13.758   1.344   6.243  1.00  0.00    -0.394 OA
ATOM     16  H   UNL     1      13.115   0.666   5.909  1.00  0.00     0.210 HD
ENDBRANCH  14  15
ENDBRANCH   5  14
BRANCH   4  17
ATOM     17  O   UNL     1      15.622  -0.999   9.536  1.00  0.00    -0.387 OA
ATOM     18  H   UNL     1      15.737  -0.101   9.945  1.00  0.00     0.211 HD
ENDBRANCH   4  17
TORSDOF 7
ENDMDL
MODEL 5
REMARK VINA RESULT:    -4.686     13.430     15.032
REMARK INTER + INTRA:          -6.364
REMARK INTER:                  -6.210
REMARK INTRA:                  -0.154
REMARK UNBOUND:                -0.309
REMARK SMILES CCO[C@@H]1O[C@H](CO)[C@@H](O)[C@@H](O)[C@@H]1O
REMARK SMILES IDX 4 1 13 2 11 3 9 4 6 5 5 6 3 7 2 8 1 9 14 10 12 12 7 14 8 15
REMARK SMILES IDX 10 17
REMARK H PARENT 14 11 12 13 8 16 10 18
REMARK Flexibility Score: inf
ROOT
ATOM      1  C   UNL     1      14.811  -3.021   8.341  1.00  0.00     0.281 C 
ATOM      2  C   UNL     1      15.099  -1.489   8.283  1.00  0.00     0.202 C 
ATOM      3  C   UNL     1      14.305  -0.818   7.152  1.00  0.00     0.179 C 
ATOM      4  C   UNL     1      12.822  -1.236   7.202  1.00  0.00     0.177 C 
ATOM      5  C   UNL     1      12.678  -2.775   7.417  1.00  0.00     0.178 C 
ATOM      6  O   UNL     1      13.931  -3.429   7.296  1.00  0.00    -0.341 OA
ENDROOT
BRANCH   1   7
ATOM      7  O   UNL     1      16.036  -3.755   8.374  1.00  0.00    -0.350 OA
BRANCH   7   8
ATOM      8  C   UNL     1      16.381  -4.413   7.168  1.00  0.00     0.160 C 
ATOM      9  C   UNL     1      17.884  -4.359   6.907  1.00  0.00     0.035 C 
ENDBRANCH   7   8
ENDBRANCH   1   7
BRANCH   2  10
ATOM     10  O   UNL     1      16.466  -1.230   8.090  1.00  0.00    -0.385 OA
ATOM     11  H   UNL     1      16.799  -0.800   8.921  1.00  0.00     0.211 HD
ENDBRANCH   2  10
BRANCH   3  12
ATOM     12  O   UNL     1      14.428   0.578   7.254  1.00  0.00    -0.387 OA
ATOM     13  H   UNL     1      13.562   0.963   6.957  1.00  0.00     0.211 HD
ENDBRANCH   3  12
BRANCH   5  14
ATOM     14  C   UNL     1      11.712  -3.399   6.402  1.00  0.00     0.191 C 
BRANCH  14  15
ATOM     15  O   UNL     1      10.777  -4.223   7.049  1.00  0.00    -0.394 OA
ATOM     16  H   UNL     1       9.880  -3.834   6.877  1.00  0.00     0.210 HD
ENDBRANCH  14  15
ENDBRANCH   5  14
BRANCH   4  17
ATOM     17  O   UNL     1      12.176  -0.547   8.243  1.00  0.00    -0.387 OA
ATOM     18  H   UNL     1      12.886  -0.093   8.768  1.00  0.00     0.211 HD
ENDBRANCH   4  17
TORSDOF 7
ENDMDL
MODEL 6
REMARK VINA RESULT:    -4.674      2.032      4.429
REMARK INTER + INTRA:          -6.349
REMARK INTER:                  -6.087
REMARK INTRA:                  -0.262
REMARK UNBOUND:                -0.309
REMARK SMILES CCO[C@@H]1O[C@H](CO)[C@@H](O)[C@@H](O)[C@@H]1O
REMARK SMILES IDX 4 1 13 2 11 3 9 4 6 5 5 6 3 7 2 8 1 9 14 10 12 12 7 14 8 15
REMARK SMILES IDX 10 17
REMARK H PARENT 14 11 12 13 8 16 10 18
REMARK Flexibility Score: inf
ROOT
ATOM      1  C   UNL     1       7.405   4.428  21.230  1.00  0.00     0.281 C 
ATOM      2  C   UNL     1       7.068   5.701  20.393  1.00  0.00     0.202 C 
ATOM      3  C   UNL     1       7.558   5.558  18.944  1.00  0.00     0.179 C 
ATOM      4  C   UNL     1       7.114   4.207  18.347  1.00  0.00     0.177 C 
ATOM      5  C   UNL     1       7.369   3.039  19.351  1.00  0.00     0.178 C 
ATOM      6  O   UNL     1       8.135   3.474  20.462  1.00  0.00    -0.341 OA
ENDROOT
BRANCH   1   7
ATOM      7  O   UNL     1       8.052   4.794  22.450  1.00  0.00    -0.350 OA
BRANCH   7   8
ATOM      8  C   UNL     1       7.350   4.456  23.633  1.00  0.00     0.160 C 
ATOM      9  C   UNL     1       6.085   5.296  23.796  1.00  0.00     0.035 C 
ENDBRANCH   7   8
ENDBRANCH   1   7
BRANCH   2  10
ATOM     10  O   UNL     1       7.646   6.852  20.954  1.00  0.00    -0.385 OA
ATOM     11  H   UNL     1       8.352   6.544  21.581  1.00  0.00     0.211 HD
ENDBRANCH   2  10
BRANCH   3  12
ATOM     12  O   UNL     1       7.065   6.624  18.173  1.00  0.00    -0.387 OA
ATOM     13  H   UNL     1       6.358   6.248  17.585  1.00  0.00     0.211 HD
ENDBRANCH   3  12
BRANCH   5  14
ATOM     14  C   UNL     1       8.111   1.873  18.684  1.00  0.00     0.191 C 
BRANCH  14  15
ATOM     15  O   UNL     1       7.553   1.583  17.429  1.00  0.00    -0.394 OA
ATOM     16  H   UNL     1       7.078   2.400  17.127  1.00  0.00     0.210 HD
ENDBRANCH  14  15
ENDBRANCH   5  14
BRANCH   4  17
ATOM     17  O   UNL     1       5.749   4.266  18.020  1.00  0.00    -0.387 OA
ATOM     18  H   UNL     1       5.668   3.964  17.077  1.00  0.00     0.211 HD
ENDBRANCH   4  17
TORSDOF 7
ENDMDL
MODEL 7
REMARK VINA RESULT:    -4.651     12.607     14.466
REMARK INTER + INTRA:          -6.320
REMARK INTER:                  -6.069
REMARK INTRA:                  -0.250
REMARK UNBOUND:                -0.309
REMARK SMILES CCO[C@@H]1O[C@H](CO)[C@@H](O)[C@@H](O)[C@@H]1O
REMARK SMILES IDX 4 1 13 2 11 3 9 4 6 5 5 6 3 7 2 8 1 9 14 10 12 12 7 14 8 15
REMARK SMILES IDX 10 17
REMARK H PARENT 14 11 12 13 8 16 10 18
REMARK Flexibility Score: inf
ROOT
ATOM      1  C   UNL     1      17.674  -2.642  22.516  1.00  0.00     0.281 C 
ATOM      2  C   UNL     1      16.416  -2.769  23.430  1.00  0.00     0.202 C 
ATOM      3  C   UNL     1      16.592  -3.893  24.463  1.00  0.00     0.179 C 
ATOM      4  C   UNL     1      17.951  -3.768  25.181  1.00  0.00     0.177 C 
ATOM      5  C   UNL     1      19.100  -3.491  24.162  1.00  0.00     0.178 C 
ATOM      6  O   UNL     1      18.649  -3.636  22.826  1.00  0.00    -0.341 OA
ENDROOT
BRANCH   1   7
ATOM      7  O   UNL     1      17.289  -2.629  21.140  1.00  0.00    -0.350 OA
BRANCH   7   8
ATOM      8  C   UNL     1      17.832  -3.672  20.350  1.00  0.00     0.160 C 
ATOM      9  C   UNL     1      16.741  -4.584  19.795  1.00  0.00     0.035 C 
ENDBRANCH   7   8
ENDBRANCH   1   7
BRANCH   2  10
ATOM     10  O   UNL     1      15.258  -3.026  22.676  1.00  0.00    -0.385 OA
ATOM     11  H   UNL     1      14.547  -3.287  23.319  1.00  0.00     0.211 HD
ENDBRANCH   2  10
BRANCH   3  12
ATOM     12  O   UNL     1      15.538  -3.848  25.391  1.00  0.00    -0.387 OA
ATOM     13  H   UNL     1      15.763  -4.496  26.109  1.00  0.00     0.211 HD
ENDBRANCH   3  12
BRANCH   5  14
ATOM     14  C   UNL     1      20.285  -4.442  24.375  1.00  0.00     0.191 C 
BRANCH  14  15
ATOM     15  O   UNL     1      21.471  -3.720  24.582  1.00  0.00    -0.394 OA
ATOM     16  H   UNL     1      22.155  -4.105  23.975  1.00  0.00     0.210 HD
ENDBRANCH  14  15
ENDBRANCH   5  14
BRANCH   4  17
ATOM     17  O   UNL     1      17.888  -2.729  26.125  1.00  0.00    -0.387 OA
ATOM     18  H   UNL     1      18.518  -2.968  26.854  1.00  0.00     0.211 HD
ENDBRANCH   4  17
TORSDOF 7
ENDMDL
MODEL 8
REMARK VINA RESULT:    -4.624     12.584     14.513
REMARK INTER + INTRA:          -6.285
REMARK INTER:                  -6.123
REMARK INTRA:                  -0.161
REMARK UNBOUND:                -0.309
REMARK SMILES CCO[C@@H]1O[C@H](CO)[C@@H](O)[C@@H](O)[C@@H]1O
REMARK SMILES IDX 4 1 13 2 11 3 9 4 6 5 5 6 3 7 2 8 1 9 14 10 12 12 7 14 8 15
REMARK SMILES IDX 10 17
REMARK H PARENT 14 11 12 13 8 16 10 18
REMARK Flexibility Score: inf
ROOT
ATOM      1  C   UNL     1      18.890  -2.940  22.810  1.00  0.00     0.281 C 
ATOM      2  C   UNL     1      18.145  -3.172  21.458  1.00  0.00     0.202 C 
ATOM      3  C   UNL     1      16.773  -3.825  21.685  1.00  0.00     0.179 C 
ATOM      4  C   UNL     1      15.987  -3.080  22.782  1.00  0.00     0.177 C 
ATOM      5  C   UNL     1      16.894  -2.777  24.016  1.00  0.00     0.178 C 
ATOM      6  O   UNL     1      18.141  -3.445  23.913  1.00  0.00    -0.341 OA
ENDROOT
BRANCH   1   7
ATOM      7  O   UNL     1      20.220  -3.457  22.738  1.00  0.00    -0.350 OA
BRANCH   7   8
ATOM      8  C   UNL     1      21.021  -3.227  23.883  1.00  0.00     0.160 C 
ATOM      9  C   UNL     1      21.313  -4.523  24.635  1.00  0.00     0.035 C 
ENDBRANCH   7   8
ENDBRANCH   1   7
BRANCH   2  10
ATOM     10  O   UNL     1      18.895  -3.984  20.591  1.00  0.00    -0.385 OA
ATOM     11  H   UNL     1      18.518  -4.901  20.657  1.00  0.00     0.211 HD
ENDBRANCH   2  10
BRANCH   3  12
ATOM     12  O   UNL     1      16.051  -3.834  20.480  1.00  0.00    -0.387 OA
ATOM     13  H   UNL     1      15.223  -4.355  20.648  1.00  0.00     0.211 HD
ENDBRANCH   3  12
BRANCH   5  14
ATOM     14  C   UNL     1      16.226  -3.208  25.328  1.00  0.00     0.191 C 
BRANCH  14  15
ATOM     15  O   UNL     1      15.998  -4.593  25.337  1.00  0.00    -0.394 OA
ATOM     16  H   UNL     1      15.015  -4.725  25.356  1.00  0.00     0.210 HD
ENDBRANCH  14  15
ENDBRANCH   5  14
BRANCH   4  17
ATOM     17  O   UNL     1      15.477  -1.879  22.259  1.00  0.00    -0.387 OA
ATOM     18  H   UNL     1      14.507  -2.024  22.105  1.00  0.00     0.211 HD
ENDBRANCH   4  17
TORSDOF 7
ENDMDL
MODEL 9
REMARK VINA RESULT:    -4.523     13.353     15.046
REMARK INTER + INTRA:          -6.154
REMARK INTER:                  -5.849
REMARK INTRA:                  -0.304
REMARK UNBOUND:                -0.309
REMARK SMILES CCO[C@@H]1O[C@H](CO)[C@@H](O)[C@@H](O)[C@@H]1O
REMARK SMILES IDX 4 1 13 2 11 3 9 4 6 5 5 6 3 7 2 8 1 9 14 10 12 12 7 14 8 15
REMARK SMILES IDX 10 17
REMARK H PARENT 14 11 12 13 8 16 10 18
REMARK Flexibility Score: inf
ROOT
ATOM      1  C   UNL     1      19.526  -4.654  22.676  1.00  0.00     0.281 C 
ATOM      2  C   UNL     1      19.427  -4.278  24.187  1.00  0.00     0.202 C 
ATOM      3  C   UNL     1      18.376  -3.182  24.418  1.00  0.00     0.179 C 
ATOM      4  C   UNL     1      17.052  -3.534  23.710  1.00  0.00     0.177 C 
ATOM      5  C   UNL     1      17.310  -4.040  22.256  1.00  0.00     0.178 C 
ATOM      6  O   UNL     1      18.663  -3.847  21.878  1.00  0.00    -0.341 OA
ENDROOT
BRANCH   1   7
ATOM      7  O   UNL     1      20.889  -4.628  22.247  1.00  0.00    -0.350 OA
BRANCH   7   8
ATOM      8  C   UNL     1      21.172  -3.739  21.182  1.00  0.00     0.160 C 
ATOM      9  C   UNL     1      22.083  -2.598  21.629  1.00  0.00     0.035 C 
ENDBRANCH   7   8
ENDBRANCH   1   7
BRANCH   2  10
ATOM     10  O   UNL     1      20.662  -3.834  24.688  1.00  0.00    -0.385 OA
ATOM     11  H   UNL     1      21.088  -4.612  25.135  1.00  0.00     0.211 HD
ENDBRANCH   2  10
BRANCH   3  12
ATOM     12  O   UNL     1      18.167  -3.012  25.797  1.00  0.00    -0.387 OA
ATOM     13  H   UNL     1      17.393  -2.399  25.895  1.00  0.00     0.211 HD
ENDBRANCH   3  12
BRANCH   5  14
ATOM     14  C   UNL     1      16.419  -3.315  21.239  1.00  0.00     0.191 C 
BRANCH  14  15
ATOM     15  O   UNL     1      15.667  -2.310  21.866  1.00  0.00    -0.394 OA
ATOM     16  H   UNL     1      15.743  -2.458  22.844  1.00  0.00     0.210 HD
ENDBRANCH  14  15
ENDBRANCH   5  14
BRANCH   4  17
ATOM     17  O   UNL     1      16.376  -4.522  24.446  1.00  0.00    -0.387 OA
ATOM     18  H   UNL     1      16.145  -5.246  23.807  1.00  0.00     0.211 HD
ENDBRANCH   4  17
TORSDOF 7
ENDMDL
