MODEL 1
REMARK VINA RESULT:    -1.916      0.000      0.000
REMARK INTER + INTRA:          -1.916
REMARK INTER:                  -1.916
REMARK INTRA:                   0.000
REMARK UNBOUND:                 0.000
REMARK SMILES CC(=O)[O-]
REMARK SMILES IDX 1 1 2 2 3 3 4 4
REMARK H PARENT
REMARK Flexibility Score: inf
ROOT
ATOM      1  C   UNL     1      22.928  14.883  42.544  1.00  0.00     0.063 C 
ATOM      2  C   UNL     1      22.825  16.371  42.539  1.00  0.00     0.038 C 
ATOM      3  O   UNL     1      22.707  17.000  43.623  1.00  0.00    -0.550 OA
ATOM      4  O   UNL     1      22.913  17.070  41.342  1.00  0.00    -0.550 OA
ENDROOT
TORSDOF 0
ENDMDL
MODEL 2
REMARK VINA RESULT:    -1.903      1.330      1.693
REMARK INTER + INTRA:          -1.903
REMARK INTER:                  -1.903
REMARK INTRA:                   0.000
REMARK UNBOUND:                 0.000
REMARK SMILES CC(=O)[O-]
REMARK SMILES IDX 1 1 2 2 3 3 4 4
REMARK H PARENT
REMARK Flexibility Score: inf
ROOT
ATOM      1  C   UNL     1      22.882  17.172  43.661  1.00  0.00     0.063 C 
ATOM      2  C   UNL     1      22.891  16.328  42.432  1.00  0.00     0.038 C 
ATOM      3  O   UNL     1      22.760  15.079  42.523  1.00  0.00    -0.550 OA
ATOM      4  O   UNL     1      22.990  16.921  41.180  1.00  0.00    -0.550 OA
ENDROOT
TORSDOF 0
ENDMDL
MODEL 3
REMARK VINA RESULT:    -1.834      9.373      9.625
REMARK INTER + INTRA:          -1.834
REMARK INTER:                  -1.834
REMARK INTRA:                   0.000
REMARK UNBOUND:                 0.000
REMARK SMILES CC(=O)[O-]
REMARK SMILES IDX 1 1 2 2 3 3 4 4
REMARK H PARENT
REMARK Flexibility Score: inf
ROOT
ATOM      1  C   UNL     1      30.616  17.516  38.884  1.00  0.00     0.063 C 
ATOM      2  C   UNL     1      31.824  16.888  39.491  1.00  0.00     0.038 C 
ATOM      3  O   UNL     1      32.677  17.602  40.081  1.00  0.00    -0.550 OA
ATOM      4  O   UNL     1      31.986  15.509  39.454  1.00  0.00    -0.550 OA
ENDROOT
TORSDOF 0
ENDMDL
MODEL 4
REMARK VINA RESULT:    -1.746     10.828     11.444
REMARK INTER + INTRA:          -1.746
REMARK INTER:                  -1.746
REMARK INTRA:                   0.000
REMARK UNBOUND:                 0.000
REMARK SMILES CC(=O)[O-]
REMARK SMILES IDX 1 1 2 2 3 3 4 4
REMARK H PARENT
REMARK Flexibility Score: inf
ROOT
ATOM      1  C   UNL     1      18.238  17.183  51.318  1.00  0.00     0.063 C 
ATOM      2  C   UNL     1      16.997  17.233  52.143  1.00  0.00     0.038 C 
ATOM      3  O   UNL     1      15.887  16.930  51.632  1.00  0.00    -0.550 OA
ATOM      4  O   UNL     1      17.069  17.563  53.490  1.00  0.00    -0.550 OA
ENDROOT
TORSDOF 0
ENDMDL
MODEL 5
REMARK VINA RESULT:    -1.740      9.466      9.941
REMARK INTER + INTRA:          -1.740
REMARK INTER:                  -1.740
REMARK INTRA:                   0.000
REMARK UNBOUND:                 0.000
REMARK SMILES CC(=O)[O-]
REMARK SMILES IDX 1 1 2 2 3 3 4 4
REMARK H PARENT
REMARK Flexibility Score: inf
ROOT
ATOM      1  C   UNL     1      16.977  17.175  52.045  1.00  0.00     0.063 C 
ATOM      2  C   UNL     1      18.054  17.291  51.019  1.00  0.00     0.038 C 
ATOM      3  O   UNL     1      19.192  16.801  51.241  1.00  0.00    -0.550 OA
ATOM      4  O   UNL     1      17.788  17.892  49.796  1.00  0.00    -0.550 OA
ENDROOT
TORSDOF 0
ENDMDL
MODEL 6
REMARK VINA RESULT:    -1.726      8.917      9.099
REMARK INTER + INTRA:          -1.726
REMARK INTER:                  -1.726
REMARK INTRA:                   0.000
REMARK UNBOUND:                 0.000
REMARK SMILES CC(=O)[O-]
REMARK SMILES IDX 1 1 2 2 3 3 4 4
REMARK H PARENT
REMARK Flexibility Score: inf
ROOT
ATOM      1  C   UNL     1      32.129  16.328  39.054  1.00  0.00     0.063 C 
ATOM      2  C   UNL     1      31.295  17.470  39.528  1.00  0.00     0.038 C 
ATOM      3  O   UNL     1      31.688  18.183  40.487  1.00  0.00    -0.550 OA
ATOM      4  O   UNL     1      30.109  17.782  38.876  1.00  0.00    -0.550 OA
ENDROOT
TORSDOF 0
ENDMDL
MODEL 7
REMARK VINA RESULT:    -1.723     18.620     18.963
REMARK INTER + INTRA:          -1.723
REMARK INTER:                  -1.723
REMARK INTRA:                   0.000
REMARK UNBOUND:                 0.000
REMARK SMILES CC(=O)[O-]
REMARK SMILES IDX 1 1 2 2 3 3 4 4
REMARK H PARENT
REMARK Flexibility Score: inf
ROOT
ATOM      1  C   UNL     1      17.300  30.231  53.594  1.00  0.00     0.063 C 
ATOM      2  C   UNL     1      16.248  29.507  54.364  1.00  0.00     0.038 C 
ATOM      3  O   UNL     1      16.295  29.476  55.621  1.00  0.00    -0.550 OA
ATOM      4  O   UNL     1      15.185  28.911  53.699  1.00  0.00    -0.550 OA
ENDROOT
TORSDOF 0
ENDMDL
MODEL 8
REMARK VINA RESULT:    -1.710     18.620     18.679
REMARK INTER + INTRA:          -1.710
REMARK INTER:                  -1.710
REMARK INTRA:                   0.000
REMARK UNBOUND:                 0.000
REMARK SMILES CC(=O)[O-]
REMARK SMILES IDX 1 1 2 2 3 3 4 4
REMARK H PARENT
REMARK Flexibility Score: inf
ROOT
ATOM      1  C   UNL     1      16.346  29.493  54.041  1.00  0.00     0.063 C 
ATOM      2  C   UNL     1      17.633  30.186  53.745  1.00  0.00     0.038 C 
ATOM      3  O   UNL     1      17.692  31.042  52.824  1.00  0.00    -0.550 OA
ATOM      4  O   UNL     1      18.756  29.929  54.520  1.00  0.00    -0.550 OA
ENDROOT
TORSDOF 0
ENDMDL
