MODEL 1
REMARK VINA RESULT:    -4.227      0.000      0.000
REMARK INTER + INTRA:          -5.875
REMARK INTER:                  -5.462
REMARK INTRA:                  -0.413
REMARK UNBOUND:                -0.413
REMARK SMILES C=CC(=O)CCCCC
REMARK SMILES IDX 6 1 7 2 8 3 9 4 5 5 3 6 4 7 2 8 1 9
REMARK H PARENT
REMARK Flexibility Score: inf
ROOT
ATOM      1  C   UNL     1     122.839 176.258 117.205  1.00  0.00     0.008 C 
ENDROOT
BRANCH   1   2
ATOM      2  C   UNL     1     122.094 177.355 116.433  1.00  0.00     0.000 C 
BRANCH   2   3
ATOM      3  C   UNL     1     123.033 178.454 115.913  1.00  0.00    -0.003 C 
ATOM      4  C   UNL     1     122.315 179.485 115.043  1.00  0.00     0.004 C 
ENDBRANCH   2   3
ENDBRANCH   1   2
BRANCH   1   5
ATOM      5  C   UNL     1     122.636 176.416 118.719  1.00  0.00     0.080 C 
BRANCH   5   6
ATOM      6  C   UNL     1     123.936 176.529 119.483  1.00  0.00     0.155 C 
ATOM      7  O   UNL     1     124.357 175.552 120.162  1.00  0.00    -0.295 OA
BRANCH   6   8
ATOM      8  C   UNL     1     124.746 177.764 119.465  1.00  0.00     0.039 C 
ATOM      9  C   UNL     1     124.222 178.988 119.412  1.00  0.00     0.012 C 
ENDBRANCH   6   8
ENDBRANCH   5   6
ENDBRANCH   1   5
TORSDOF 5
ENDMDL
MODEL 2
REMARK VINA RESULT:    -4.154      9.272     10.343
REMARK INTER + INTRA:          -5.782
REMARK INTER:                  -5.293
REMARK INTRA:                  -0.489
REMARK UNBOUND:                -0.413
REMARK SMILES C=CC(=O)CCCCC
REMARK SMILES IDX 6 1 7 2 8 3 9 4 5 5 3 6 4 7 2 8 1 9
REMARK H PARENT
REMARK Flexibility Score: inf
ROOT
ATOM      1  C   UNL     1     117.949 178.748 126.585  1.00  0.00     0.008 C 
ENDROOT
BRANCH   1   2
ATOM      2  C   UNL     1     118.758 179.287 125.397  1.00  0.00     0.000 C 
BRANCH   2   3
ATOM      3  C   UNL     1     119.242 178.172 124.458  1.00  0.00    -0.003 C 
ATOM      4  C   UNL     1     119.255 178.598 122.990  1.00  0.00     0.004 C 
ENDBRANCH   2   3
ENDBRANCH   1   2
BRANCH   1   5
ATOM      5  C   UNL     1     116.500 179.257 126.541  1.00  0.00     0.080 C 
BRANCH   5   6
ATOM      6  C   UNL     1     115.503 178.176 126.190  1.00  0.00     0.155 C 
ATOM      7  O   UNL     1     114.576 177.885 126.995  1.00  0.00    -0.295 OA
BRANCH   6   8
ATOM      8  C   UNL     1     115.576 177.432 124.916  1.00  0.00     0.039 C 
ATOM      9  C   UNL     1     115.193 177.938 123.744  1.00  0.00     0.012 C 
ENDBRANCH   6   8
ENDBRANCH   5   6
ENDBRANCH   1   5
TORSDOF 5
ENDMDL
MODEL 3
REMARK VINA RESULT:    -4.070     14.022     15.102
REMARK INTER + INTRA:          -5.673
REMARK INTER:                  -5.481
REMARK INTRA:                  -0.192
REMARK UNBOUND:                -0.413
REMARK SMILES C=CC(=O)CCCCC
REMARK SMILES IDX 6 1 7 2 8 3 9 4 5 5 3 6 4 7 2 8 1 9
REMARK H PARENT
REMARK Flexibility Score: inf
ROOT
ATOM      1  C   UNL     1     116.253 164.392 119.367  1.00  0.00     0.008 C 
ENDROOT
BRANCH   1   2
ATOM      2  C   UNL     1     115.676 163.921 120.710  1.00  0.00     0.000 C 
BRANCH   2   3
ATOM      3  C   UNL     1     115.614 165.047 121.754  1.00  0.00    -0.003 C 
ATOM      4  C   UNL     1     114.252 165.143 122.439  1.00  0.00     0.004 C 
ENDBRANCH   2   3
ENDBRANCH   1   2
BRANCH   1   5
ATOM      5  C   UNL     1     115.178 165.093 118.523  1.00  0.00     0.080 C 
BRANCH   5   6
ATOM      6  C   UNL     1     115.736 165.753 117.283  1.00  0.00     0.155 C 
ATOM      7  O   UNL     1     115.172 166.774 116.802  1.00  0.00    -0.295 OA
BRANCH   6   8
ATOM      8  C   UNL     1     116.938 165.236 116.598  1.00  0.00     0.039 C 
ATOM      9  C   UNL     1     117.070 165.191 115.272  1.00  0.00     0.012 C 
ENDBRANCH   6   8
ENDBRANCH   5   6
ENDBRANCH   1   5
TORSDOF 5
ENDMDL
MODEL 4
REMARK VINA RESULT:    -4.041     13.438     14.666
REMARK INTER + INTRA:          -5.636
REMARK INTER:                  -5.373
REMARK INTRA:                  -0.262
REMARK UNBOUND:                -0.413
REMARK SMILES C=CC(=O)CCCCC
REMARK SMILES IDX 6 1 7 2 8 3 9 4 5 5 3 6 4 7 2 8 1 9
REMARK H PARENT
REMARK Flexibility Score: inf
ROOT
ATOM      1  C   UNL     1     116.315 164.451 119.093  1.00  0.00     0.008 C 
ENDROOT
BRANCH   1   2
ATOM      2  C   UNL     1     115.314 165.201 118.204  1.00  0.00     0.000 C 
BRANCH   2   3
ATOM      3  C   UNL     1     115.952 165.729 116.910  1.00  0.00    -0.003 C 
ATOM      4  C   UNL     1     115.421 167.103 116.505  1.00  0.00     0.004 C 
ENDBRANCH   2   3
ENDBRANCH   1   2
BRANCH   1   5
ATOM      5  C   UNL     1     115.631 163.911 120.358  1.00  0.00     0.080 C 
BRANCH   5   6
ATOM      6  C   UNL     1     115.735 164.853 121.536  1.00  0.00     0.155 C 
ATOM      7  O   UNL     1     116.863 165.119 122.035  1.00  0.00    -0.295 OA
BRANCH   6   8
ATOM      8  C   UNL     1     114.543 165.483 122.139  1.00  0.00     0.039 C 
ATOM      9  C   UNL     1     113.485 165.883 121.433  1.00  0.00     0.012 C 
ENDBRANCH   6   8
ENDBRANCH   5   6
ENDBRANCH   1   5
TORSDOF 5
ENDMDL
MODEL 5
REMARK VINA RESULT:    -3.963      1.759      4.311
REMARK INTER + INTRA:          -5.534
REMARK INTER:                  -5.245
REMARK INTRA:                  -0.289
REMARK UNBOUND:                -0.413
REMARK SMILES C=CC(=O)CCCCC
REMARK SMILES IDX 6 1 7 2 8 3 9 4 5 5 3 6 4 7 2 8 1 9
REMARK H PARENT
REMARK Flexibility Score: inf
ROOT
ATOM      1  C   UNL     1     124.169 178.724 119.184  1.00  0.00     0.008 C 
ENDROOT
BRANCH   1   2
ATOM      2  C   UNL     1     124.498 177.951 120.469  1.00  0.00     0.000 C 
BRANCH   2   3
ATOM      3  C   UNL     1     123.621 176.702 120.647  1.00  0.00    -0.003 C 
ATOM      4  C   UNL     1     122.136 177.036 120.785  1.00  0.00     0.004 C 
ENDBRANCH   2   3
ENDBRANCH   1   2
BRANCH   1   5
ATOM      5  C   UNL     1     124.444 177.865 117.940  1.00  0.00     0.080 C 
BRANCH   5   6
ATOM      6  C   UNL     1     123.281 177.833 116.974  1.00  0.00     0.155 C 
ATOM      7  O   UNL     1     122.374 176.965 117.105  1.00  0.00    -0.295 OA
BRANCH   6   8
ATOM      8  C   UNL     1     123.166 178.795 115.859  1.00  0.00     0.039 C 
ATOM      9  C   UNL     1     122.009 179.117 115.280  1.00  0.00     0.012 C 
ENDBRANCH   6   8
ENDBRANCH   5   6
ENDBRANCH   1   5
TORSDOF 5
ENDMDL
MODEL 6
REMARK VINA RESULT:    -3.950      9.986     11.256
REMARK INTER + INTRA:          -5.518
REMARK INTER:                  -4.904
REMARK INTRA:                  -0.614
REMARK UNBOUND:                -0.413
REMARK SMILES C=CC(=O)CCCCC
REMARK SMILES IDX 6 1 7 2 8 3 9 4 5 5 3 6 4 7 2 8 1 9
REMARK H PARENT
REMARK Flexibility Score: inf
ROOT
ATOM      1  C   UNL     1     116.867 179.507 126.766  1.00  0.00     0.008 C 
ENDROOT
BRANCH   1   2
ATOM      2  C   UNL     1     118.111 179.225 125.913  1.00  0.00     0.000 C 
BRANCH   2   3
ATOM      3  C   UNL     1     119.172 178.407 126.666  1.00  0.00    -0.003 C 
ATOM      4  C   UNL     1     118.772 178.107 128.110  1.00  0.00     0.004 C 
ENDBRANCH   2   3
ENDBRANCH   1   2
BRANCH   1   5
ATOM      5  C   UNL     1     115.581 179.236 125.971  1.00  0.00     0.080 C 
BRANCH   5   6
ATOM      6  C   UNL     1     115.473 177.809 125.486  1.00  0.00     0.155 C 
ATOM      7  O   UNL     1     115.354 177.567 124.253  1.00  0.00    -0.295 OA
BRANCH   6   8
ATOM      8  C   UNL     1     115.501 176.664 126.419  1.00  0.00     0.039 C 
ATOM      9  C   UNL     1     116.308 175.613 126.274  1.00  0.00     0.012 C 
ENDBRANCH   6   8
ENDBRANCH   5   6
ENDBRANCH   1   5
TORSDOF 5
ENDMDL
MODEL 7
REMARK VINA RESULT:    -3.940      8.678      9.716
REMARK INTER + INTRA:          -5.505
REMARK INTER:                  -5.057
REMARK INTRA:                  -0.447
REMARK UNBOUND:                -0.413
REMARK SMILES C=CC(=O)CCCCC
REMARK SMILES IDX 6 1 7 2 8 3 9 4 5 5 3 6 4 7 2 8 1 9
REMARK H PARENT
REMARK Flexibility Score: inf
ROOT
ATOM      1  C   UNL     1     117.223 179.006 126.797  1.00  0.00     0.008 C 
ENDROOT
BRANCH   1   2
ATOM      2  C   UNL     1     115.871 179.382 126.173  1.00  0.00     0.000 C 
BRANCH   2   3
ATOM      3  C   UNL     1     115.082 178.155 125.692  1.00  0.00    -0.003 C 
ATOM      4  C   UNL     1     115.232 177.905 124.191  1.00  0.00     0.004 C 
ENDBRANCH   2   3
ENDBRANCH   1   2
BRANCH   1   5
ATOM      5  C   UNL     1     118.368 179.211 125.794  1.00  0.00     0.080 C 
BRANCH   5   6
ATOM      6  C   UNL     1     118.840 177.922 125.162  1.00  0.00     0.155 C 
ATOM      7  O   UNL     1     118.660 176.823 125.755  1.00  0.00    -0.295 OA
BRANCH   6   8
ATOM      8  C   UNL     1     119.520 177.900 123.850  1.00  0.00     0.039 C 
ATOM      9  C   UNL     1     119.168 178.674 122.824  1.00  0.00     0.012 C 
ENDBRANCH   6   8
ENDBRANCH   5   6
ENDBRANCH   1   5
TORSDOF 5
ENDMDL
MODEL 8
REMARK VINA RESULT:    -3.873      8.301      9.780
REMARK INTER + INTRA:          -5.418
REMARK INTER:                  -5.108
REMARK INTRA:                  -0.311
REMARK UNBOUND:                -0.413
REMARK SMILES C=CC(=O)CCCCC
REMARK SMILES IDX 6 1 7 2 8 3 9 4 5 5 3 6 4 7 2 8 1 9
REMARK H PARENT
REMARK Flexibility Score: inf
ROOT
ATOM      1  C   UNL     1     118.387 178.330 127.324  1.00  0.00     0.008 C 
ENDROOT
BRANCH   1   2
ATOM      2  C   UNL     1     119.781 177.924 127.824  1.00  0.00     0.000 C 
BRANCH   2   3
ATOM      3  C   UNL     1     120.888 178.240 126.807  1.00  0.00    -0.003 C 
ATOM      4  C   UNL     1     122.058 179.005 127.424  1.00  0.00     0.004 C 
ENDBRANCH   2   3
ENDBRANCH   1   2
BRANCH   1   5
ATOM      5  C   UNL     1     118.475 179.036 125.963  1.00  0.00     0.080 C 
BRANCH   5   6
ATOM      6  C   UNL     1     117.881 178.224 124.835  1.00  0.00     0.155 C 
ATOM      7  O   UNL     1     116.663 177.893 124.867  1.00  0.00    -0.295 OA
BRANCH   6   8
ATOM      8  C   UNL     1     118.687 177.793 123.675  1.00  0.00     0.039 C 
ATOM      9  C   UNL     1     119.364 178.636 122.894  1.00  0.00     0.012 C 
ENDBRANCH   6   8
ENDBRANCH   5   6
ENDBRANCH   1   5
TORSDOF 5
ENDMDL
MODEL 9
REMARK VINA RESULT:    -3.854      7.904      8.769
REMARK INTER + INTRA:          -5.393
REMARK INTER:                  -4.959
REMARK INTRA:                  -0.434
REMARK UNBOUND:                -0.413
REMARK SMILES C=CC(=O)CCCCC
REMARK SMILES IDX 6 1 7 2 8 3 9 4 5 5 3 6 4 7 2 8 1 9
REMARK H PARENT
REMARK Flexibility Score: inf
ROOT
ATOM      1  C   UNL     1     118.799 178.995 125.825  1.00  0.00     0.008 C 
ENDROOT
BRANCH   1   2
ATOM      2  C   UNL     1     118.434 177.990 124.724  1.00  0.00     0.000 C 
BRANCH   2   3
ATOM      3  C   UNL     1     119.551 177.824 123.681  1.00  0.00    -0.003 C 
ATOM      4  C   UNL     1     119.404 178.782 122.500  1.00  0.00     0.004 C 
ENDBRANCH   2   3
ENDBRANCH   1   2
BRANCH   1   5
ATOM      5  C   UNL     1     118.851 178.310 127.199  1.00  0.00     0.080 C 
BRANCH   5   6
ATOM      6  C   UNL     1     120.217 177.756 127.534  1.00  0.00     0.155 C 
ATOM      7  O   UNL     1     120.321 176.676 128.178  1.00  0.00    -0.295 OA
BRANCH   6   8
ATOM      8  C   UNL     1     121.459 178.445 127.129  1.00  0.00     0.039 C 
ATOM      9  C   UNL     1     122.368 177.909 126.313  1.00  0.00     0.012 C 
ENDBRANCH   6   8
ENDBRANCH   5   6
ENDBRANCH   1   5
TORSDOF 5
ENDMDL
