MODEL 1
REMARK VINA RESULT:    -3.317      0.000      0.000
REMARK INTER + INTRA:          -3.728
REMARK INTER:                  -3.608
REMARK INTRA:                  -0.120
REMARK UNBOUND:                -0.120
REMARK SMILES CC(=O)c1cc(C)ccc1O
REMARK SMILES IDX 7 1 6 2 5 3 4 4 10 5 9 6 8 7 2 8 3 9 1 10 11 11
REMARK H PARENT 11 12
REMARK Flexibility Score: inf
ROOT
ATOM      1  C   UNL     1      22.325  22.495  45.445  1.00  0.00     0.044 C 
ATOM      2  C   UNL     1      20.914  22.947  45.682  1.00  0.00    -0.050 A 
ATOM      3  C   UNL     1      20.193  23.574  44.655  1.00  0.00     0.019 A 
ATOM      4  C   UNL     1      18.854  23.976  44.847  1.00  0.00     0.059 A 
ATOM      5  C   UNL     1      18.243  23.719  46.098  1.00  0.00     0.126 A 
ATOM      6  C   UNL     1      18.966  23.077  47.114  1.00  0.00     0.047 A 
ATOM      7  C   UNL     1      20.287  22.688  46.906  1.00  0.00     0.007 A 
ENDROOT
BRANCH   4   8
ATOM      8  C   UNL     1      18.110  24.659  43.751  1.00  0.00     0.163 C 
ATOM      9  O   UNL     1      16.875  24.885  43.869  1.00  0.00    -0.294 OA
ATOM     10  C   UNL     1      18.797  25.125  42.502  1.00  0.00     0.093 C 
ENDBRANCH   4   8
BRANCH   5  11
ATOM     11  O   UNL     1      16.917  24.085  46.331  1.00  0.00    -0.507 OA
ATOM     12  H   UNL     1      16.507  24.045  47.256  1.00  0.00     0.293 HD
ENDBRANCH   5  11
TORSDOF 2
ENDMDL
MODEL 2
REMARK VINA RESULT:    -3.001     18.397     19.989
REMARK INTER + INTRA:          -3.384
REMARK INTER:                  -3.272
REMARK INTRA:                  -0.112
REMARK UNBOUND:                -0.120
REMARK SMILES CC(=O)c1cc(C)ccc1O
REMARK SMILES IDX 7 1 6 2 5 3 4 4 10 5 9 6 8 7 2 8 3 9 1 10 11 11
REMARK H PARENT 11 12
REMARK Flexibility Score: inf
ROOT
ATOM      1  C   UNL     1      29.936  24.164  26.962  1.00  0.00     0.044 C 
ATOM      2  C   UNL     1      30.904  24.398  28.085  1.00  0.00    -0.050 A 
ATOM      3  C   UNL     1      30.434  24.569  29.395  1.00  0.00     0.019 A 
ATOM      4  C   UNL     1      31.330  24.757  30.469  1.00  0.00     0.059 A 
ATOM      5  C   UNL     1      32.720  24.751  30.201  1.00  0.00     0.126 A 
ATOM      6  C   UNL     1      33.181  24.563  28.890  1.00  0.00     0.047 A 
ATOM      7  C   UNL     1      32.282  24.380  27.842  1.00  0.00     0.007 A 
ENDROOT
BRANCH   4   8
ATOM      8  C   UNL     1      30.813  24.957  31.853  1.00  0.00     0.163 C 
ATOM      9  O   UNL     1      31.614  25.045  32.822  1.00  0.00    -0.294 OA
ATOM     10  C   UNL     1      29.346  25.095  32.135  1.00  0.00     0.093 C 
ENDBRANCH   4   8
BRANCH   5  11
ATOM     11  O   UNL     1      33.645  24.918  31.232  1.00  0.00    -0.507 OA
ATOM     12  H   UNL     1      33.824  24.188  31.911  1.00  0.00     0.293 HD
ENDBRANCH   5  11
TORSDOF 2
ENDMDL
MODEL 3
REMARK VINA RESULT:    -2.952     17.249     18.584
REMARK INTER + INTRA:          -3.331
REMARK INTER:                  -3.211
REMARK INTRA:                  -0.120
REMARK UNBOUND:                -0.120
REMARK SMILES CC(=O)c1cc(C)ccc1O
REMARK SMILES IDX 7 1 6 2 5 3 4 4 10 5 9 6 8 7 2 8 3 9 1 10 11 11
REMARK H PARENT 11 12
REMARK Flexibility Score: inf
ROOT
ATOM      1  C   UNL     1      34.860  25.122  33.122  1.00  0.00     0.044 C 
ATOM      2  C   UNL     1      33.389  25.125  32.823  1.00  0.00    -0.050 A 
ATOM      3  C   UNL     1      32.940  25.065  31.496  1.00  0.00     0.019 A 
ATOM      4  C   UNL     1      31.562  25.033  31.196  1.00  0.00     0.059 A 
ATOM      5  C   UNL     1      30.635  25.045  32.265  1.00  0.00     0.126 A 
ATOM      6  C   UNL     1      31.093  25.088  33.590  1.00  0.00     0.047 A 
ATOM      7  C   UNL     1      32.458  25.120  33.867  1.00  0.00     0.007 A 
ENDROOT
BRANCH   4   8
ATOM      8  C   UNL     1      31.102  24.989  29.778  1.00  0.00     0.163 C 
ATOM      9  O   UNL     1      29.875  25.086  29.507  1.00  0.00    -0.294 OA
ATOM     10  C   UNL     1      32.070  24.868  28.638  1.00  0.00     0.093 C 
ENDBRANCH   4   8
BRANCH   5  11
ATOM     11  O   UNL     1      29.263  24.999  32.020  1.00  0.00    -0.507 OA
ATOM     12  H   UNL     1      28.877  24.486  31.236  1.00  0.00     0.293 HD
ENDBRANCH   5  11
TORSDOF 2
ENDMDL
MODEL 4
REMARK VINA RESULT:    -2.843     17.773     19.154
REMARK INTER + INTRA:          -3.213
REMARK INTER:                  -3.101
REMARK INTRA:                  -0.112
REMARK UNBOUND:                -0.120
REMARK SMILES CC(=O)c1cc(C)ccc1O
REMARK SMILES IDX 7 1 6 2 5 3 4 4 10 5 9 6 8 7 2 8 3 9 1 10 11 11
REMARK H PARENT 11 12
REMARK Flexibility Score: inf
ROOT
ATOM      1  C   UNL     1      29.225  25.100  32.409  1.00  0.00     0.044 C 
ATOM      2  C   UNL     1      30.707  25.071  32.646  1.00  0.00    -0.050 A 
ATOM      3  C   UNL     1      31.594  25.103  31.560  1.00  0.00     0.019 A 
ATOM      4  C   UNL     1      32.990  25.110  31.763  1.00  0.00     0.059 A 
ATOM      5  C   UNL     1      33.482  25.101  33.090  1.00  0.00     0.126 A 
ATOM      6  C   UNL     1      32.588  25.086  34.170  1.00  0.00     0.047 A 
ATOM      7  C   UNL     1      31.212  25.078  33.950  1.00  0.00     0.007 A 
ENDROOT
BRANCH   4   8
ATOM      8  C   UNL     1      33.919  25.124  30.596  1.00  0.00     0.163 C 
ATOM      9  O   UNL     1      35.166  25.125  30.780  1.00  0.00    -0.294 OA
ATOM     10  C   UNL     1      33.413  25.103  29.185  1.00  0.00     0.093 C 
ENDBRANCH   4   8
BRANCH   5  11
ATOM     11  O   UNL     1      34.854  25.123  33.342  1.00  0.00    -0.507 OA
ATOM     12  H   UNL     1      35.444  24.320  33.157  1.00  0.00     0.293 HD
ENDBRANCH   5  11
TORSDOF 2
ENDMDL
MODEL 5
REMARK VINA RESULT:    -2.767     18.767     20.191
REMARK INTER + INTRA:          -3.130
REMARK INTER:                  -2.858
REMARK INTRA:                  -0.272
REMARK UNBOUND:                -0.120
REMARK SMILES CC(=O)c1cc(C)ccc1O
REMARK SMILES IDX 7 1 6 2 5 3 4 4 10 5 9 6 8 7 2 8 3 9 1 10 11 11
REMARK H PARENT 11 12
REMARK Flexibility Score: inf
ROOT
ATOM      1  C   UNL     1      29.611  24.763  32.449  1.00  0.00     0.044 C 
ATOM      2  C   UNL     1      30.768  24.707  31.495  1.00  0.00    -0.050 A 
ATOM      3  C   UNL     1      30.567  24.299  30.168  1.00  0.00     0.019 A 
ATOM      4  C   UNL     1      31.636  24.272  29.247  1.00  0.00     0.059 A 
ATOM      5  C   UNL     1      32.918  24.683  29.684  1.00  0.00     0.126 A 
ATOM      6  C   UNL     1      33.106  25.106  31.008  1.00  0.00     0.047 A 
ATOM      7  C   UNL     1      32.039  25.125  31.904  1.00  0.00     0.007 A 
ENDROOT
BRANCH   4   8
ATOM      8  C   UNL     1      31.408  23.817  27.846  1.00  0.00     0.163 C 
ATOM      9  O   UNL     1      32.332  23.239  27.210  1.00  0.00    -0.294 OA
ATOM     10  C   UNL     1      30.084  23.993  27.164  1.00  0.00     0.093 C 
ENDBRANCH   4   8
BRANCH   5  11
ATOM     11  O   UNL     1      34.002  24.688  28.807  1.00  0.00    -0.507 OA
ATOM     12  H   UNL     1      34.115  23.978  28.094  1.00  0.00     0.293 HD
ENDBRANCH   5  11
TORSDOF 2
ENDMDL
MODEL 6
REMARK VINA RESULT:    -2.725     18.670     20.253
REMARK INTER + INTRA:          -3.084
REMARK INTER:                  -2.972
REMARK INTRA:                  -0.112
REMARK UNBOUND:                -0.120
REMARK SMILES CC(=O)c1cc(C)ccc1O
REMARK SMILES IDX 7 1 6 2 5 3 4 4 10 5 9 6 8 7 2 8 3 9 1 10 11 11
REMARK H PARENT 11 12
REMARK Flexibility Score: inf
ROOT
ATOM      1  C   UNL     1      34.051  23.639  27.907  1.00  0.00     0.044 C 
ATOM      2  C   UNL     1      32.587  23.937  28.043  1.00  0.00    -0.050 A 
ATOM      3  C   UNL     1      32.049  24.271  29.295  1.00  0.00     0.019 A 
ATOM      4  C   UNL     1      30.682  24.586  29.438  1.00  0.00     0.059 A 
ATOM      5  C   UNL     1      29.860  24.577  28.285  1.00  0.00     0.126 A 
ATOM      6  C   UNL     1      30.409  24.259  27.035  1.00  0.00     0.047 A 
ATOM      7  C   UNL     1      31.762  23.948  26.913  1.00  0.00     0.007 A 
ENDROOT
BRANCH   4   8
ATOM      8  C   UNL     1      30.123  24.920  30.780  1.00  0.00     0.163 C 
ATOM      9  O   UNL     1      28.887  25.125  30.918  1.00  0.00    -0.294 OA
ATOM     10  C   UNL     1      30.992  24.987  32.001  1.00  0.00     0.093 C 
ENDBRANCH   4   8
BRANCH   5  11
ATOM     11  O   UNL     1      28.505  24.897  28.373  1.00  0.00    -0.507 OA
ATOM     12  H   UNL     1      28.089  25.621  27.799  1.00  0.00     0.293 HD
ENDBRANCH   5  11
TORSDOF 2
ENDMDL
MODEL 7
REMARK VINA RESULT:    -2.710      1.415      3.700
REMARK INTER + INTRA:          -3.068
REMARK INTER:                  -2.940
REMARK INTRA:                  -0.128
REMARK UNBOUND:                -0.120
REMARK SMILES CC(=O)c1cc(C)ccc1O
REMARK SMILES IDX 7 1 6 2 5 3 4 4 10 5 9 6 8 7 2 8 3 9 1 10 11 11
REMARK H PARENT 11 12
REMARK Flexibility Score: inf
ROOT
ATOM      1  C   UNL     1      18.592  25.125  41.694  1.00  0.00     0.044 C 
ATOM      2  C   UNL     1      18.321  24.711  43.110  1.00  0.00    -0.050 A 
ATOM      3  C   UNL     1      19.298  24.021  43.843  1.00  0.00     0.019 A 
ATOM      4  C   UNL     1      19.074  23.652  45.186  1.00  0.00     0.059 A 
ATOM      5  C   UNL     1      17.844  24.008  45.790  1.00  0.00     0.126 A 
ATOM      6  C   UNL     1      16.879  24.711  45.056  1.00  0.00     0.047 A 
ATOM      7  C   UNL     1      17.117  25.067  43.730  1.00  0.00     0.007 A 
ENDROOT
BRANCH   4   8
ATOM      8  C   UNL     1      20.117  22.902  45.943  1.00  0.00     0.163 C 
ATOM      9  O   UNL     1      19.856  22.433  47.084  1.00  0.00    -0.294 OA
ATOM     10  C   UNL     1      21.480  22.652  45.371  1.00  0.00     0.093 C 
ENDBRANCH   4   8
BRANCH   5  11
ATOM     11  O   UNL     1      17.582  23.678  47.120  1.00  0.00    -0.507 OA
ATOM     12  H   UNL     1      18.077  24.118  47.887  1.00  0.00     0.293 HD
ENDBRANCH   5  11
TORSDOF 2
ENDMDL
MODEL 8
REMARK VINA RESULT:    -2.644     18.041     19.446
REMARK INTER + INTRA:          -2.996
REMARK INTER:                  -2.868
REMARK INTRA:                  -0.128
REMARK UNBOUND:                -0.120
REMARK SMILES CC(=O)c1cc(C)ccc1O
REMARK SMILES IDX 7 1 6 2 5 3 4 4 10 5 9 6 8 7 2 8 3 9 1 10 11 11
REMARK H PARENT 11 12
REMARK Flexibility Score: inf
ROOT
ATOM      1  C   UNL     1      32.327  25.125  33.737  1.00  0.00     0.044 C 
ATOM      2  C   UNL     1      31.610  25.104  32.419  1.00  0.00    -0.050 A 
ATOM      3  C   UNL     1      32.335  24.998  31.223  1.00  0.00     0.019 A 
ATOM      4  C   UNL     1      31.676  24.943  29.977  1.00  0.00     0.059 A 
ATOM      5  C   UNL     1      30.262  24.980  29.956  1.00  0.00     0.126 A 
ATOM      6  C   UNL     1      29.544  25.070  31.157  1.00  0.00     0.047 A 
ATOM      7  C   UNL     1      30.211  25.123  32.379  1.00  0.00     0.007 A 
ENDROOT
BRANCH   4   8
ATOM      8  C   UNL     1      32.465  24.850  28.714  1.00  0.00     0.163 C 
ATOM      9  O   UNL     1      31.894  24.994  27.599  1.00  0.00    -0.294 OA
ATOM     10  C   UNL     1      33.947  24.622  28.725  1.00  0.00     0.093 C 
ENDBRANCH   4   8
BRANCH   5  11
ATOM     11  O   UNL     1      29.565  24.914  28.748  1.00  0.00    -0.507 OA
ATOM     12  H   UNL     1      29.056  25.708  28.381  1.00  0.00     0.293 HD
ENDBRANCH   5  11
TORSDOF 2
ENDMDL
MODEL 9
REMARK VINA RESULT:    -2.603     19.996     21.503
REMARK INTER + INTRA:          -2.952
REMARK INTER:                  -2.674
REMARK INTRA:                  -0.278
REMARK UNBOUND:                -0.120
REMARK SMILES CC(=O)c1cc(C)ccc1O
REMARK SMILES IDX 7 1 6 2 5 3 4 4 10 5 9 6 8 7 2 8 3 9 1 10 11 11
REMARK H PARENT 11 12
REMARK Flexibility Score: inf
ROOT
ATOM      1  C   UNL     1      29.668  24.773  27.333  1.00  0.00     0.044 C 
ATOM      2  C   UNL     1      30.792  24.765  28.328  1.00  0.00    -0.050 A 
ATOM      3  C   UNL     1      32.110  24.546  27.901  1.00  0.00     0.019 A 
ATOM      4  C   UNL     1      33.183  24.569  28.816  1.00  0.00     0.059 A 
ATOM      5  C   UNL     1      32.907  24.834  30.179  1.00  0.00     0.126 A 
ATOM      6  C   UNL     1      31.588  25.068  30.595  1.00  0.00     0.047 A 
ATOM      7  C   UNL     1      30.540  25.042  29.676  1.00  0.00     0.007 A 
ENDROOT
BRANCH   4   8
ATOM      8  C   UNL     1      34.576  24.314  28.348  1.00  0.00     0.163 C 
ATOM      9  O   UNL     1      35.546  24.907  28.893  1.00  0.00    -0.294 OA
ATOM     10  C   UNL     1      34.872  23.333  27.252  1.00  0.00     0.093 C 
ENDBRANCH   4   8
BRANCH   5  11
ATOM     11  O   UNL     1      33.936  24.881  31.119  1.00  0.00    -0.507 OA
ATOM     12  H   UNL     1      34.358  25.757  31.406  1.00  0.00     0.293 HD
ENDBRANCH   5  11
TORSDOF 2
ENDMDL
