MODEL 1
REMARK VINA RESULT:    -4.531      0.000      0.000
REMARK INTER + INTRA:          -5.572
REMARK INTER:                  -6.385
REMARK INTRA:                   0.814
REMARK UNBOUND:                 0.814
REMARK SMILES CC1=CCC(=C(C)C)C(=O)CC(C)=CCC1
REMARK SMILES IDX 12 1 14 2 13 3 15 4 16 5 2 6 1 7 3 8 11 10 9 11 10 12 5 13
REMARK SMILES IDX 6 14 7 15 8 16 4 17
REMARK H PARENT
REMARK Flexibility Score: 60.00
ROOT
ATOM      1  C   UNL     1     -13.391  15.112 -30.830  1.00  0.00    -0.070 C 
ATOM      2  C   UNL     1     -12.558  14.978 -29.771  1.00  0.00    -0.027 C 
ATOM      3  C   UNL     1     -14.394  16.239 -30.804  1.00  0.00     0.039 C 
ENDROOT
BRANCH   2   4
ATOM      4  C   UNL     1     -11.445  13.968 -29.635  1.00  0.00     0.032 C 
BRANCH   4   5
ATOM      5  C   UNL     1     -11.953  12.559 -29.279  1.00  0.00     0.034 C 
BRANCH   5   6
ATOM      6  C   UNL     1     -13.254  12.587 -28.499  1.00  0.00    -0.077 C 
ATOM      7  C   UNL     1     -13.205  12.973 -27.041  1.00  0.00     0.039 C 
ATOM      8  C   UNL     1     -14.457  12.264 -29.026  1.00  0.00    -0.023 CG0
ATOM      9  G   UNL     1     -14.707  11.798 -30.441  1.00  0.00     0.000 G0
ENDBRANCH   5   6
ENDBRANCH   4   5
ENDBRANCH   2   4
BRANCH   1  10
ATOM     10  C   UNL     1     -13.362  14.204 -32.046  1.00  0.00     0.111 C 
BRANCH  10  11
ATOM     11  C   UNL     1     -14.705  13.575 -32.325  1.00  0.00     0.163 C 
ATOM     12  O   UNL     1     -15.163  13.645 -33.498  1.00  0.00    -0.294 OA
BRANCH  11  13
ATOM     13  C   UNL     1     -15.463  12.808 -31.288  1.00  0.00    -0.002 C 
ATOM     14  C   UNL     1     -16.765  13.112 -31.019  1.00  0.00    -0.069 C 
ATOM     15  C   UNL     1     -17.519  12.425 -29.903  1.00  0.00     0.039 C 
ATOM     16  C   UNL     1     -17.498  14.187 -31.791  1.00  0.00     0.039 C 
BRANCH  13  17
ATOM     17  C   UNL     1     -14.705  11.792 -30.443  1.00  0.00     0.066 CG0
ATOM     18  G   UNL     1     -14.472  12.297 -29.038  1.00  0.00     0.000 G0
ENDBRANCH  13  17
ENDBRANCH  11  13
ENDBRANCH  10  11
ENDBRANCH   1  10
TORSDOF 0
ENDMDL
MODEL 2
REMARK VINA RESULT:    -4.316      1.425      3.690
REMARK INTER + INTRA:          -5.268
REMARK INTER:                  -5.624
REMARK INTRA:                   0.356
REMARK UNBOUND:                 0.814
REMARK SMILES CC1=CCC(=C(C)C)C(=O)CC(C)=CCC1
REMARK SMILES IDX 12 1 14 2 13 3 15 4 16 5 2 6 1 7 3 8 11 10 9 11 10 12 5 13
REMARK SMILES IDX 6 14 7 15 8 16 4 17
REMARK H PARENT
REMARK Flexibility Score: 60.00
ROOT
ATOM      1  C   UNL     1     -18.084  13.462 -29.485  1.00  0.00    -0.070 C 
ATOM      2  C   UNL     1     -17.869  12.489 -28.569  1.00  0.00    -0.027 C 
ATOM      3  C   UNL     1     -19.400  13.463 -30.223  1.00  0.00     0.039 C 
ENDROOT
BRANCH   2   4
ATOM      4  C   UNL     1     -16.657  12.355 -27.678  1.00  0.00     0.032 C 
BRANCH   4   5
ATOM      5  C   UNL     1     -15.711  11.225 -28.121  1.00  0.00     0.034 C 
BRANCH   5   6
ATOM      6  C   UNL     1     -14.252  11.641 -28.100  1.00  0.00    -0.077 C 
ATOM      7  C   UNL     1     -13.480  11.477 -26.814  1.00  0.00     0.039 C 
ATOM      8  C   UNL     1     -13.604  12.172 -29.161  1.00  0.00    -0.023 CG0
ATOM      9  G   UNL     1     -14.211  12.469 -30.512  1.00  0.00     0.000 G0
ENDBRANCH   5   6
ENDBRANCH   4   5
ENDBRANCH   2   4
BRANCH   1  10
ATOM     10  C   UNL     1     -17.084  14.561 -29.800  1.00  0.00     0.111 C 
BRANCH  10  11
ATOM     11  C   UNL     1     -16.126  14.167 -30.898  1.00  0.00     0.163 C 
ATOM     12  O   UNL     1     -16.562  14.126 -32.081  1.00  0.00    -0.294 OA
BRANCH  11  13
ATOM     13  C   UNL     1     -14.675  13.909 -30.643  1.00  0.00    -0.002 C 
ATOM     14  C   UNL     1     -13.778  14.937 -30.660  1.00  0.00    -0.069 C 
ATOM     15  C   UNL     1     -12.294  14.688 -30.513  1.00  0.00     0.039 C 
ATOM     16  C   UNL     1     -14.222  16.366 -30.879  1.00  0.00     0.039 C 
BRANCH  13  17
ATOM     17  C   UNL     1     -14.209  12.464 -30.519  1.00  0.00     0.066 CG0
ATOM     18  G   UNL     1     -13.606  12.186 -29.162  1.00  0.00     0.000 G0
ENDBRANCH  13  17
ENDBRANCH  11  13
ENDBRANCH  10  11
ENDBRANCH   1  10
TORSDOF 0
ENDMDL
MODEL 3
REMARK VINA RESULT:    -4.228      1.355      3.712
REMARK INTER + INTRA:          -5.144
REMARK INTER:                  -5.701
REMARK INTRA:                   0.557
REMARK UNBOUND:                 0.814
REMARK SMILES CC1=CCC(=C(C)C)C(=O)CC(C)=CCC1
REMARK SMILES IDX 12 1 14 2 13 3 15 4 16 5 2 6 1 7 3 8 11 10 9 11 10 12 5 13
REMARK SMILES IDX 6 14 7 15 8 16 4 17
REMARK H PARENT
REMARK Flexibility Score: 60.00
ROOT
ATOM      1  C   UNL     1     -15.030  14.836 -31.398  1.00  0.00    -0.070 C 
ATOM      2  C   UNL     1     -16.364  14.895 -31.174  1.00  0.00    -0.027 C 
ATOM      3  C   UNL     1     -14.193  16.029 -31.007  1.00  0.00     0.039 C 
ENDROOT
BRANCH   2   4
ATOM      4  C   UNL     1     -17.360  13.788 -31.425  1.00  0.00     0.032 C 
BRANCH   4   5
ATOM      5  C   UNL     1     -16.980  12.470 -30.727  1.00  0.00     0.034 C 
BRANCH   5   6
ATOM      6  C   UNL     1     -16.779  12.636 -29.233  1.00  0.00    -0.077 C 
ATOM      7  C   UNL     1     -17.911  13.212 -28.418  1.00  0.00     0.039 C 
ATOM      8  C   UNL     1     -15.635  12.318 -28.586  1.00  0.00    -0.023 CG0
ATOM      9  G   UNL     1     -14.374  11.787 -29.226  1.00  0.00     0.000 G0
ENDBRANCH   5   6
ENDBRANCH   4   5
ENDBRANCH   2   4
BRANCH   1  10
ATOM     10  C   UNL     1     -14.328  13.633 -32.003  1.00  0.00     0.111 C 
BRANCH  10  11
ATOM     11  C   UNL     1     -13.229  13.104 -31.115  1.00  0.00     0.163 C 
ATOM     12  O   UNL     1     -12.093  12.909 -31.626  1.00  0.00    -0.294 OA
BRANCH  11  13
ATOM     13  C   UNL     1     -13.419  12.885 -29.647  1.00  0.00    -0.002 C 
ATOM     14  C   UNL     1     -12.660  13.570 -28.743  1.00  0.00    -0.069 C 
ATOM     15  C   UNL     1     -12.758  13.288 -27.262  1.00  0.00     0.039 C 
ATOM     16  C   UNL     1     -11.652  14.606 -29.187  1.00  0.00     0.039 C 
BRANCH  13  17
ATOM     17  C   UNL     1     -14.362  11.777 -29.198  1.00  0.00     0.066 CG0
ATOM     18  G   UNL     1     -15.626  12.333 -28.583  1.00  0.00     0.000 G0
ENDBRANCH  13  17
ENDBRANCH  11  13
ENDBRANCH  10  11
ENDBRANCH   1  10
TORSDOF 0
ENDMDL
MODEL 4
REMARK VINA RESULT:    -4.120      1.491      3.673
REMARK INTER + INTRA:          -4.992
REMARK INTER:                  -5.520
REMARK INTRA:                   0.528
REMARK UNBOUND:                 0.814
REMARK SMILES CC1=CCC(=C(C)C)C(=O)CC(C)=CCC1
REMARK SMILES IDX 12 1 14 2 13 3 15 4 16 5 2 6 1 7 3 8 11 10 9 11 10 12 5 13
REMARK SMILES IDX 6 14 7 15 8 16 4 17
REMARK H PARENT
REMARK Flexibility Score: 60.00
ROOT
ATOM      1  C   UNL     1     -16.601  13.952 -30.408  1.00  0.00    -0.070 C 
ATOM      2  C   UNL     1     -17.540  13.438 -29.581  1.00  0.00    -0.027 C 
ATOM      3  C   UNL     1     -16.113  15.354 -30.142  1.00  0.00     0.039 C 
ENDROOT
BRANCH   2   4
ATOM      4  C   UNL     1     -18.104  12.038 -29.632  1.00  0.00     0.032 C 
BRANCH   4   5
ATOM      5  C   UNL     1     -17.051  10.956 -29.332  1.00  0.00     0.034 C 
BRANCH   5   6
ATOM      6  C   UNL     1     -16.160  11.317 -28.159  1.00  0.00    -0.077 C 
ATOM      7  C   UNL     1     -16.797  11.488 -26.802  1.00  0.00     0.039 C 
ATOM      8  C   UNL     1     -14.825  11.516 -28.259  1.00  0.00    -0.023 CG0
ATOM      9  G   UNL     1     -14.013  11.451 -29.532  1.00  0.00     0.000 G0
ENDBRANCH   5   6
ENDBRANCH   4   5
ENDBRANCH   2   4
BRANCH   1  10
ATOM     10  C   UNL     1     -15.998  13.192 -31.577  1.00  0.00     0.111 C 
BRANCH  10  11
ATOM     11  C   UNL     1     -14.496  13.087 -31.478  1.00  0.00     0.163 C 
ATOM     12  O   UNL     1     -13.815  13.315 -32.515  1.00  0.00    -0.294 OA
BRANCH  11  13
ATOM     13  C   UNL     1     -13.794  12.806 -30.188  1.00  0.00    -0.002 C 
ATOM     14  C   UNL     1     -12.894  13.699 -29.683  1.00  0.00    -0.069 C 
ATOM     15  C   UNL     1     -12.093  13.390 -28.439  1.00  0.00     0.039 C 
ATOM     16  C   UNL     1     -12.620  15.016 -30.374  1.00  0.00     0.039 C 
BRANCH  13  17
ATOM     17  C   UNL     1     -13.992  11.442 -29.539  1.00  0.00     0.066 CG0
ATOM     18  G   UNL     1     -14.817  11.539 -28.276  1.00  0.00     0.000 G0
ENDBRANCH  13  17
ENDBRANCH  11  13
ENDBRANCH  10  11
ENDBRANCH   1  10
TORSDOF 0
ENDMDL
MODEL 5
REMARK VINA RESULT:    -3.977      1.701      3.412
REMARK INTER + INTRA:          -4.790
REMARK INTER:                  -5.576
REMARK INTRA:                   0.785
REMARK UNBOUND:                 0.814
REMARK SMILES CC1=CCC(=C(C)C)C(=O)CC(C)=CCC1
REMARK SMILES IDX 12 1 14 2 13 3 15 4 16 5 2 6 1 7 3 8 11 10 9 11 10 12 5 13
REMARK SMILES IDX 6 14 7 15 8 16 4 17
REMARK H PARENT
REMARK Flexibility Score: 60.00
ROOT
ATOM      1  C   UNL     1     -12.890  13.514 -28.975  1.00  0.00    -0.070 C 
ATOM      2  C   UNL     1     -12.609  14.664 -29.632  1.00  0.00    -0.027 C 
ATOM      3  C   UNL     1     -11.735  12.648 -28.539  1.00  0.00     0.039 C 
ENDROOT
BRANCH   2   4
ATOM      4  C   UNL     1     -13.610  15.699 -30.087  1.00  0.00     0.032 C 
BRANCH   4   5
ATOM      5  C   UNL     1     -13.787  15.731 -31.615  1.00  0.00     0.034 C 
BRANCH   5   6
ATOM      6  C   UNL     1     -13.568  14.374 -32.258  1.00  0.00    -0.077 C 
ATOM      7  C   UNL     1     -12.222  14.085 -32.876  1.00  0.00     0.039 C 
ATOM      8  C   UNL     1     -14.515  13.412 -32.330  1.00  0.00    -0.023 CG0
ATOM      9  G   UNL     1     -15.935  13.527 -31.827  1.00  0.00     0.000 G0
ENDBRANCH   5   6
ENDBRANCH   4   5
ENDBRANCH   2   4
BRANCH   1  10
ATOM     10  C   UNL     1     -14.298  13.058 -28.637  1.00  0.00     0.111 C 
BRANCH  10  11
ATOM     11  C   UNL     1     -14.944  12.303 -29.774  1.00  0.00     0.163 C 
ATOM     12  O   UNL     1     -14.485  11.166 -30.070  1.00  0.00    -0.294 OA
BRANCH  11  13
ATOM     13  C   UNL     1     -16.148  12.817 -30.496  1.00  0.00    -0.002 C 
ATOM     14  C   UNL     1     -17.402  12.541 -30.032  1.00  0.00    -0.069 C 
ATOM     15  C   UNL     1     -18.634  12.957 -30.802  1.00  0.00     0.039 C 
ATOM     16  C   UNL     1     -17.614  11.764 -28.752  1.00  0.00     0.039 C 
BRANCH  13  17
ATOM     17  C   UNL     1     -15.945  13.517 -31.834  1.00  0.00     0.066 CG0
ATOM     18  G   UNL     1     -14.515  13.411 -32.309  1.00  0.00     0.000 G0
ENDBRANCH  13  17
ENDBRANCH  11  13
ENDBRANCH  10  11
ENDBRANCH   1  10
TORSDOF 0
ENDMDL
MODEL 6
REMARK VINA RESULT:    -3.947      2.051      3.529
REMARK INTER + INTRA:          -4.749
REMARK INTER:                  -5.784
REMARK INTRA:                   1.035
REMARK UNBOUND:                 0.814
REMARK SMILES CC1=CCC(=C(C)C)C(=O)CC(C)=CCC1
REMARK SMILES IDX 12 1 14 2 13 3 15 4 16 5 2 6 1 7 3 8 11 10 9 11 10 12 5 13
REMARK SMILES IDX 6 14 7 15 8 16 4 17
REMARK H PARENT
REMARK Flexibility Score: 60.00
ROOT
ATOM      1  C   UNL     1     -12.531  13.827 -28.871  1.00  0.00    -0.070 C 
ATOM      2  C   UNL     1     -12.149  14.602 -29.913  1.00  0.00    -0.027 C 
ATOM      3  C   UNL     1     -12.203  14.303 -27.478  1.00  0.00     0.039 C 
ENDROOT
BRANCH   2   4
ATOM      4  C   UNL     1     -12.442  14.342 -31.372  1.00  0.00     0.032 C 
BRANCH   4   5
ATOM      5  C   UNL     1     -13.413  15.369 -31.981  1.00  0.00     0.034 C 
BRANCH   5   6
ATOM      6  C   UNL     1     -14.465  15.837 -30.994  1.00  0.00    -0.077 C 
ATOM      7  C   UNL     1     -14.410  17.267 -30.514  1.00  0.00     0.039 C 
ATOM      8  C   UNL     1     -15.441  15.043 -30.498  1.00  0.00    -0.023 CG0
ATOM      9  G   UNL     1     -15.630  13.576 -30.806  1.00  0.00     0.000 G0
ENDBRANCH   5   6
ENDBRANCH   4   5
ENDBRANCH   2   4
BRANCH   1  10
ATOM     10  C   UNL     1     -13.284  12.517 -29.024  1.00  0.00     0.111 C 
BRANCH  10  11
ATOM     11  C   UNL     1     -14.719  12.625 -28.571  1.00  0.00     0.163 C 
ATOM     12  O   UNL     1     -14.950  12.679 -27.332  1.00  0.00    -0.294 OA
BRANCH  11  13
ATOM     13  C   UNL     1     -15.857  12.753 -29.533  1.00  0.00    -0.002 C 
ATOM     14  C   UNL     1     -17.005  12.040 -29.343  1.00  0.00    -0.069 C 
ATOM     15  C   UNL     1     -18.126  12.070 -30.357  1.00  0.00     0.039 C 
ATOM     16  C   UNL     1     -17.187  11.148 -28.135  1.00  0.00     0.039 C 
BRANCH  13  17
ATOM     17  C   UNL     1     -15.645  13.573 -30.799  1.00  0.00     0.066 CG0
ATOM     18  G   UNL     1     -15.436  15.037 -30.489  1.00  0.00     0.000 G0
ENDBRANCH  13  17
ENDBRANCH  11  13
ENDBRANCH  10  11
ENDBRANCH   1  10
TORSDOF 0
ENDMDL
MODEL 7
REMARK VINA RESULT:    -3.873      1.869      3.978
REMARK INTER + INTRA:          -4.644
REMARK INTER:                  -5.234
REMARK INTRA:                   0.589
REMARK UNBOUND:                 0.814
REMARK SMILES CC1=CCC(=C(C)C)C(=O)CC(C)=CCC1
REMARK SMILES IDX 12 1 14 2 13 3 15 4 16 5 2 6 1 7 3 8 11 10 9 11 10 12 5 13
REMARK SMILES IDX 6 14 7 15 8 16 4 17
REMARK H PARENT
REMARK Flexibility Score: 60.00
ROOT
ATOM      1  C   UNL     1     -12.238  14.526 -30.088  1.00  0.00    -0.070 C 
ATOM      2  C   UNL     1     -13.136  15.238 -30.810  1.00  0.00    -0.027 C 
ATOM      3  C   UNL     1     -10.888  14.258 -30.705  1.00  0.00     0.039 C 
ENDROOT
BRANCH   2   4
ATOM      4  C   UNL     1     -14.506  15.673 -30.348  1.00  0.00     0.032 C 
BRANCH   4   5
ATOM      5  C   UNL     1     -15.645  15.013 -31.146  1.00  0.00     0.034 C 
BRANCH   5   6
ATOM      6  C   UNL     1     -15.372  13.554 -31.457  1.00  0.00    -0.077 C 
ATOM      7  C   UNL     1     -15.081  13.170 -32.887  1.00  0.00     0.039 C 
ATOM      8  C   UNL     1     -15.395  12.568 -30.532  1.00  0.00    -0.023 CG0
ATOM      9  G   UNL     1     -15.722  12.737 -29.066  1.00  0.00     0.000 G0
ENDBRANCH   5   6
ENDBRANCH   4   5
ENDBRANCH   2   4
BRANCH   1  10
ATOM     10  C   UNL     1     -12.507  14.000 -28.690  1.00  0.00     0.111 C 
BRANCH  10  11
ATOM     11  C   UNL     1     -13.138  12.629 -28.704  1.00  0.00     0.163 C 
ATOM     12  O   UNL     1     -12.442  11.659 -29.111  1.00  0.00    -0.294 OA
BRANCH  11  13
ATOM     13  C   UNL     1     -14.515  12.374 -28.180  1.00  0.00    -0.002 C 
ATOM     14  C   UNL     1     -14.692  11.721 -26.995  1.00  0.00    -0.069 C 
ATOM     15  C   UNL     1     -16.073  11.357 -26.498  1.00  0.00     0.039 C 
ATOM     16  C   UNL     1     -13.515  11.287 -26.151  1.00  0.00     0.039 C 
BRANCH  13  17
ATOM     17  C   UNL     1     -15.702  12.722 -29.068  1.00  0.00     0.066 CG0
ATOM     18  G   UNL     1     -15.372  12.557 -30.533  1.00  0.00     0.000 G0
ENDBRANCH  13  17
ENDBRANCH  11  13
ENDBRANCH  10  11
ENDBRANCH   1  10
TORSDOF 0
ENDMDL
MODEL 8
REMARK VINA RESULT:    -3.208      1.866      3.764
REMARK INTER + INTRA:          -3.707
REMARK INTER:                  -4.215
REMARK INTRA:                   0.508
REMARK UNBOUND:                 0.814
REMARK SMILES CC1=CCC(=C(C)C)C(=O)CC(C)=CCC1
REMARK SMILES IDX 12 1 14 2 13 3 15 4 16 5 2 6 1 7 3 8 11 10 9 11 10 12 5 13
REMARK SMILES IDX 6 14 7 15 8 16 4 17
REMARK H PARENT
REMARK Flexibility Score: 60.00
ROOT
ATOM      1  C   UNL     1     -15.277  13.549 -31.771  1.00  0.00    -0.070 C 
ATOM      2  C   UNL     1     -15.927  12.448 -31.326  1.00  0.00    -0.027 C 
ATOM      3  C   UNL     1     -15.002  13.660 -33.250  1.00  0.00     0.039 C 
ENDROOT
BRANCH   2   4
ATOM      4  C   UNL     1     -16.358  12.181 -29.904  1.00  0.00     0.032 C 
BRANCH   4   5
ATOM      5  C   UNL     1     -15.466  11.151 -29.190  1.00  0.00     0.034 C 
BRANCH   5   6
ATOM      6  C   UNL     1     -14.398  11.799 -28.329  1.00  0.00    -0.077 C 
ATOM      7  C   UNL     1     -14.711  12.056 -26.875  1.00  0.00     0.039 C 
ATOM      8  C   UNL     1     -13.185  12.180 -28.790  1.00  0.00    -0.023 CG0
ATOM      9  G   UNL     1     -12.704  12.064 -30.218  1.00  0.00     0.000 G0
ENDBRANCH   5   6
ENDBRANCH   4   5
ENDBRANCH   2   4
BRANCH   1  10
ATOM     10  C   UNL     1     -14.827  14.685 -30.869  1.00  0.00     0.111 C 
BRANCH  10  11
ATOM     11  C   UNL     1     -13.376  14.562 -30.473  1.00  0.00     0.163 C 
ATOM     12  O   UNL     1     -12.898  15.427 -29.689  1.00  0.00    -0.294 OA
BRANCH  11  13
ATOM     13  C   UNL     1     -12.520  13.415 -30.907  1.00  0.00    -0.002 C 
ATOM     14  C   UNL     1     -11.677  13.547 -31.972  1.00  0.00    -0.069 C 
ATOM     15  C   UNL     1     -10.882  12.373 -32.495  1.00  0.00     0.039 C 
ATOM     16  C   UNL     1     -11.537  14.861 -32.707  1.00  0.00     0.039 C 
BRANCH  13  17
ATOM     17  C   UNL     1     -12.726  12.064 -30.234  1.00  0.00     0.066 CG0
ATOM     18  G   UNL     1     -13.171  12.217 -28.798  1.00  0.00     0.000 G0
ENDBRANCH  13  17
ENDBRANCH  11  13
ENDBRANCH  10  11
ENDBRANCH   1  10
TORSDOF 0
ENDMDL
MODEL 9
REMARK VINA RESULT:    -3.201      1.967      3.750
REMARK INTER + INTRA:          -3.697
REMARK INTER:                  -5.110
REMARK INTRA:                   1.413
REMARK UNBOUND:                 0.814
REMARK SMILES CC1=CCC(=C(C)C)C(=O)CC(C)=CCC1
REMARK SMILES IDX 12 1 14 2 13 3 15 4 16 5 2 6 1 7 3 8 11 10 9 11 10 12 5 13
REMARK SMILES IDX 6 14 7 15 8 16 4 17
REMARK H PARENT
REMARK Flexibility Score: 60.00
ROOT
ATOM      1  C   UNL     1     -12.040  12.552 -27.441  1.00  0.00    -0.070 C 
ATOM      2  C   UNL     1     -11.308  12.573 -28.579  1.00  0.00    -0.027 C 
ATOM      3  C   UNL     1     -11.372  12.070 -26.178  1.00  0.00     0.039 C 
ENDROOT
BRANCH   2   4
ATOM      4  C   UNL     1     -11.765  13.084 -29.924  1.00  0.00     0.032 C 
BRANCH   4   5
ATOM      5  C   UNL     1     -12.470  14.450 -29.839  1.00  0.00     0.034 C 
BRANCH   5   6
ATOM      6  C   UNL     1     -13.573  14.605 -30.868  1.00  0.00    -0.077 C 
ATOM      7  C   UNL     1     -13.702  15.926 -31.585  1.00  0.00     0.039 C 
ATOM      8  C   UNL     1     -14.466  13.634 -31.169  1.00  0.00    -0.023 CG0
ATOM      9  G   UNL     1     -14.541  12.269 -30.524  1.00  0.00     0.000 G0
ENDBRANCH   5   6
ENDBRANCH   4   5
ENDBRANCH   2   4
BRANCH   1  10
ATOM     10  C   UNL     1     -13.487  13.004 -27.360  1.00  0.00     0.111 C 
BRANCH  10  11
ATOM     11  C   UNL     1     -14.436  12.002 -27.970  1.00  0.00     0.163 C 
ATOM     12  O   UNL     1     -14.588  10.895 -27.385  1.00  0.00    -0.294 OA
BRANCH  11  13
ATOM     13  C   UNL     1     -15.254  12.306 -29.184  1.00  0.00    -0.002 C 
ATOM     14  C   UNL     1     -16.603  12.488 -29.080  1.00  0.00    -0.069 C 
ATOM     15  C   UNL     1     -17.465  12.690 -30.305  1.00  0.00     0.039 C 
ATOM     16  C   UNL     1     -17.302  12.446 -27.739  1.00  0.00     0.039 C 
BRANCH  13  17
ATOM     17  C   UNL     1     -14.574  12.255 -30.546  1.00  0.00     0.066 CG0
ATOM     18  G   UNL     1     -14.460  13.628 -31.166  1.00  0.00     0.000 G0
ENDBRANCH  13  17
ENDBRANCH  11  13
ENDBRANCH  10  11
ENDBRANCH   1  10
TORSDOF 0
ENDMDL
