MODEL 1
REMARK VINA RESULT:    -4.880      0.000      0.000
REMARK INTER + INTRA:         -10.958
REMARK INTER:                  -8.589
REMARK INTRA:                  -2.369
REMARK UNBOUND:                -2.369
REMARK SMILES CCCCCCCCCCCCCCC(=O)[O-]
REMARK SMILES IDX 9 1 10 2 11 3 12 4 13 5 14 6 15 7 16 8 17 9 8 10 7 11 6 12
REMARK SMILES IDX 5 13 4 14 3 15 2 16 1 17
REMARK H PARENT
REMARK Flexibility Score: inf
ROOT
ATOM      1  C   UNL     1     -14.884   5.215 -23.825  1.00  0.00     0.000 C 
ENDROOT
BRANCH   1   2
ATOM      2  C   UNL     1     -14.131   4.809 -22.545  1.00  0.00     0.000 C 
BRANCH   2   3
ATOM      3  C   UNL     1     -13.699   5.978 -21.641  1.00  0.00     0.000 C 
BRANCH   3   4
ATOM      4  C   UNL     1     -14.336   5.920 -20.243  1.00  0.00     0.000 C 
BRANCH   4   5
ATOM      5  C   UNL     1     -15.110   7.201 -19.894  1.00  0.00     0.006 C 
BRANCH   5   6
ATOM      6  C   UNL     1     -14.693   8.399 -20.759  1.00  0.00     0.053 C 
BRANCH   6   7
ATOM      7  C   UNL     1     -13.792   9.310 -19.987  1.00  0.00     0.041 C 
ATOM      8  O   UNL     1     -14.268  10.300 -19.370  1.00  0.00    -0.550 OA
ATOM      9  O   UNL     1     -12.431   9.039 -19.907  1.00  0.00    -0.550 OA
ENDBRANCH   6   7
ENDBRANCH   5   6
ENDBRANCH   4   5
ENDBRANCH   3   4
ENDBRANCH   2   3
ENDBRANCH   1   2
BRANCH   1  10
ATOM     10  C   UNL     1     -15.950   6.294 -23.579  1.00  0.00     0.000 C 
BRANCH  10  11
ATOM     11  C   UNL     1     -17.329   5.657 -23.345  1.00  0.00    -0.000 C 
BRANCH  11  12
ATOM     12  C   UNL     1     -17.816   5.811 -21.896  1.00  0.00    -0.000 C 
BRANCH  12  13
ATOM     13  C   UNL     1     -17.578   4.545 -21.055  1.00  0.00    -0.000 C 
BRANCH  13  14
ATOM     14  C   UNL     1     -17.576   3.259 -21.900  1.00  0.00    -0.000 C 
BRANCH  14  15
ATOM     15  C   UNL     1     -16.510   2.219 -21.504  1.00  0.00    -0.000 C 
BRANCH  15  16
ATOM     16  C   UNL     1     -15.784   2.542 -20.181  1.00  0.00    -0.003 C 
ATOM     17  C   UNL     1     -14.962   1.362 -19.662  1.00  0.00     0.004 C 
ENDBRANCH  15  16
ENDBRANCH  14  15
ENDBRANCH  13  14
ENDBRANCH  12  13
ENDBRANCH  11  12
ENDBRANCH  10  11
ENDBRANCH   1  10
TORSDOF 13
ENDMDL
MODEL 2
REMARK VINA RESULT:    -4.822      1.964      3.434
REMARK INTER + INTRA:         -10.856
REMARK INTER:                  -8.600
REMARK INTRA:                  -2.255
REMARK UNBOUND:                -2.369
REMARK SMILES CCCCCCCCCCCCCCC(=O)[O-]
REMARK SMILES IDX 9 1 10 2 11 3 12 4 13 5 14 6 15 7 16 8 17 9 8 10 7 11 6 12
REMARK SMILES IDX 5 13 4 14 3 15 2 16 1 17
REMARK H PARENT
REMARK Flexibility Score: inf
ROOT
ATOM      1  C   UNL     1     -14.944   4.832 -23.963  1.00  0.00     0.000 C 
ENDROOT
BRANCH   1   2
ATOM      2  C   UNL     1     -15.849   6.065 -23.782  1.00  0.00     0.000 C 
BRANCH   2   3
ATOM      3  C   UNL     1     -15.769   7.106 -24.914  1.00  0.00     0.000 C 
BRANCH   3   4
ATOM      4  C   UNL     1     -16.109   8.529 -24.443  1.00  0.00     0.000 C 
BRANCH   4   5
ATOM      5  C   UNL     1     -16.172   8.644 -22.911  1.00  0.00     0.006 C 
BRANCH   5   6
ATOM      6  C   UNL     1     -17.599   8.871 -22.393  1.00  0.00     0.053 C 
BRANCH   6   7
ATOM      7  C   UNL     1     -17.567   9.519 -21.045  1.00  0.00     0.041 C 
ATOM      8  O   UNL     1     -18.640   9.857 -20.478  1.00  0.00    -0.550 OA
ATOM      9  O   UNL     1     -16.355   9.707 -20.393  1.00  0.00    -0.550 OA
ENDBRANCH   6   7
ENDBRANCH   5   6
ENDBRANCH   4   5
ENDBRANCH   3   4
ENDBRANCH   2   3
ENDBRANCH   1   2
BRANCH   1  10
ATOM     10  C   UNL     1     -14.021   4.581 -22.761  1.00  0.00     0.000 C 
BRANCH  10  11
ATOM     11  C   UNL     1     -13.995   5.801 -21.827  1.00  0.00    -0.000 C 
BRANCH  11  12
ATOM     12  C   UNL     1     -14.460   5.468 -20.400  1.00  0.00    -0.000 C 
BRANCH  12  13
ATOM     13  C   UNL     1     -15.629   6.354 -19.938  1.00  0.00    -0.000 C 
BRANCH  13  14
ATOM     14  C   UNL     1     -17.003   5.778 -20.322  1.00  0.00    -0.000 C 
BRANCH  14  15
ATOM     15  C   UNL     1     -17.099   4.240 -20.285  1.00  0.00    -0.000 C 
BRANCH  15  16
ATOM     16  C   UNL     1     -17.679   3.620 -21.574  1.00  0.00    -0.003 C 
ATOM     17  C   UNL     1     -16.964   2.329 -21.974  1.00  0.00     0.004 C 
ENDBRANCH  15  16
ENDBRANCH  14  15
ENDBRANCH  13  14
ENDBRANCH  12  13
ENDBRANCH  11  12
ENDBRANCH  10  11
ENDBRANCH   1  10
TORSDOF 13
ENDMDL
MODEL 3
REMARK VINA RESULT:    -4.747      4.473      6.421
REMARK INTER + INTRA:         -10.724
REMARK INTER:                  -8.754
REMARK INTRA:                  -1.971
REMARK UNBOUND:                -2.369
REMARK SMILES CCCCCCCCCCCCCCC(=O)[O-]
REMARK SMILES IDX 9 1 10 2 11 3 12 4 13 5 14 6 15 7 16 8 17 9 8 10 7 11 6 12
REMARK SMILES IDX 5 13 4 14 3 15 2 16 1 17
REMARK H PARENT
REMARK Flexibility Score: inf
ROOT
ATOM      1  C   UNL     1     -17.512   4.443 -20.922  1.00  0.00     0.000 C 
ENDROOT
BRANCH   1   2
ATOM      2  C   UNL     1     -16.757   3.102 -20.885  1.00  0.00     0.000 C 
BRANCH   2   3
ATOM      3  C   UNL     1     -15.859   2.891 -19.652  1.00  0.00     0.000 C 
BRANCH   3   4
ATOM      4  C   UNL     1     -14.617   2.037 -19.956  1.00  0.00     0.000 C 
BRANCH   4   5
ATOM      5  C   UNL     1     -14.865   0.536 -19.733  1.00  0.00     0.006 C 
BRANCH   5   6
ATOM      6  C   UNL     1     -14.212  -0.339 -20.811  1.00  0.00     0.053 C 
BRANCH   6   7
ATOM      7  C   UNL     1     -14.033  -1.737 -20.309  1.00  0.00     0.041 C 
ATOM      8  O   UNL     1     -14.162  -2.714 -21.094  1.00  0.00    -0.550 OA
ATOM      9  O   UNL     1     -13.675  -1.960 -18.986  1.00  0.00    -0.550 OA
ENDBRANCH   6   7
ENDBRANCH   5   6
ENDBRANCH   4   5
ENDBRANCH   3   4
ENDBRANCH   2   3
ENDBRANCH   1   2
BRANCH   1  10
ATOM     10  C   UNL     1     -17.176   5.288 -22.160  1.00  0.00     0.000 C 
BRANCH  10  11
ATOM     11  C   UNL     1     -15.657   5.464 -22.308  1.00  0.00    -0.000 C 
BRANCH  11  12
ATOM     12  C   UNL     1     -15.100   4.794 -23.574  1.00  0.00    -0.000 C 
BRANCH  12  13
ATOM     13  C   UNL     1     -13.865   3.923 -23.287  1.00  0.00    -0.000 C 
BRANCH  13  14
ATOM     14  C   UNL     1     -14.143   2.420 -23.456  1.00  0.00    -0.000 C 
BRANCH  14  15
ATOM     15  C   UNL     1     -15.432   2.076 -24.227  1.00  0.00    -0.000 C 
BRANCH  15  16
ATOM     16  C   UNL     1     -15.998   0.677 -23.905  1.00  0.00    -0.003 C 
ATOM     17  C   UNL     1     -17.432   0.734 -23.379  1.00  0.00     0.004 C 
ENDBRANCH  15  16
ENDBRANCH  14  15
ENDBRANCH  13  14
ENDBRANCH  12  13
ENDBRANCH  11  12
ENDBRANCH  10  11
ENDBRANCH   1  10
TORSDOF 13
ENDMDL
MODEL 4
REMARK VINA RESULT:    -4.743      1.679      3.179
REMARK INTER + INTRA:         -10.717
REMARK INTER:                  -8.646
REMARK INTRA:                  -2.071
REMARK UNBOUND:                -2.369
REMARK SMILES CCCCCCCCCCCCCCC(=O)[O-]
REMARK SMILES IDX 9 1 10 2 11 3 12 4 13 5 14 6 15 7 16 8 17 9 8 10 7 11 6 12
REMARK SMILES IDX 5 13 4 14 3 15 2 16 1 17
REMARK H PARENT
REMARK Flexibility Score: inf
ROOT
ATOM      1  C   UNL     1     -17.465   5.547 -21.457  1.00  0.00     0.000 C 
ENDROOT
BRANCH   1   2
ATOM      2  C   UNL     1     -16.526   5.174 -22.619  1.00  0.00     0.000 C 
BRANCH   2   3
ATOM      3  C   UNL     1     -15.274   6.059 -22.757  1.00  0.00     0.000 C 
BRANCH   3   4
ATOM      4  C   UNL     1     -14.049   5.483 -22.028  1.00  0.00     0.000 C 
BRANCH   4   5
ATOM      5  C   UNL     1     -13.788   6.173 -20.680  1.00  0.00     0.006 C 
BRANCH   5   6
ATOM      6  C   UNL     1     -14.492   7.532 -20.564  1.00  0.00     0.053 C 
BRANCH   6   7
ATOM      7  C   UNL     1     -13.507   8.599 -20.203  1.00  0.00     0.041 C 
ATOM      8  O   UNL     1     -12.270   8.385 -20.313  1.00  0.00    -0.550 OA
ATOM      9  O   UNL     1     -13.955   9.849 -19.793  1.00  0.00    -0.550 OA
ENDBRANCH   6   7
ENDBRANCH   5   6
ENDBRANCH   4   5
ENDBRANCH   3   4
ENDBRANCH   2   3
ENDBRANCH   1   2
BRANCH   1  10
ATOM     10  C   UNL     1     -17.394   4.558 -20.284  1.00  0.00     0.000 C 
BRANCH  10  11
ATOM     11  C   UNL     1     -16.742   3.236 -20.721  1.00  0.00    -0.000 C 
BRANCH  11  12
ATOM     12  C   UNL     1     -15.712   2.717 -19.706  1.00  0.00    -0.000 C 
BRANCH  12  13
ATOM     13  C   UNL     1     -14.491   2.070 -20.382  1.00  0.00    -0.000 C 
BRANCH  13  14
ATOM     14  C   UNL     1     -14.854   1.313 -21.671  1.00  0.00    -0.000 C 
BRANCH  14  15
ATOM     15  C   UNL     1     -14.163   1.830 -22.948  1.00  0.00    -0.000 C 
BRANCH  15  16
ATOM     16  C   UNL     1     -15.129   2.072 -24.126  1.00  0.00    -0.003 C 
ATOM     17  C   UNL     1     -15.032   0.984 -25.195  1.00  0.00     0.004 C 
ENDBRANCH  15  16
ENDBRANCH  14  15
ENDBRANCH  13  14
ENDBRANCH  12  13
ENDBRANCH  11  12
ENDBRANCH  10  11
ENDBRANCH   1  10
TORSDOF 13
ENDMDL
MODEL 5
REMARK VINA RESULT:    -4.707      3.789      5.970
REMARK INTER + INTRA:         -10.653
REMARK INTER:                  -8.362
REMARK INTRA:                  -2.291
REMARK UNBOUND:                -2.369
REMARK SMILES CCCCCCCCCCCCCCC(=O)[O-]
REMARK SMILES IDX 9 1 10 2 11 3 12 4 13 5 14 6 15 7 16 8 17 9 8 10 7 11 6 12
REMARK SMILES IDX 5 13 4 14 3 15 2 16 1 17
REMARK H PARENT
REMARK Flexibility Score: inf
ROOT
ATOM      1  C   UNL     1     -17.765   3.615 -21.596  1.00  0.00     0.000 C 
ENDROOT
BRANCH   1   2
ATOM      2  C   UNL     1     -17.023   3.866 -20.271  1.00  0.00     0.000 C 
BRANCH   2   3
ATOM      3  C   UNL     1     -15.870   2.890 -19.973  1.00  0.00     0.000 C 
BRANCH   3   4
ATOM      4  C   UNL     1     -15.686   1.828 -21.069  1.00  0.00     0.000 C 
BRANCH   4   5
ATOM      5  C   UNL     1     -14.243   1.768 -21.596  1.00  0.00     0.006 C 
BRANCH   5   6
ATOM      6  C   UNL     1     -14.171   1.805 -23.129  1.00  0.00     0.053 C 
BRANCH   6   7
ATOM      7  C   UNL     1     -14.911   0.644 -23.713  1.00  0.00     0.041 C 
ATOM      8  O   UNL     1     -15.886   0.838 -24.488  1.00  0.00    -0.550 OA
ATOM      9  O   UNL     1     -14.496  -0.654 -23.443  1.00  0.00    -0.550 OA
ENDBRANCH   6   7
ENDBRANCH   5   6
ENDBRANCH   4   5
ENDBRANCH   3   4
ENDBRANCH   2   3
ENDBRANCH   1   2
BRANCH   1  10
ATOM     10  C   UNL     1     -17.685   4.804 -22.565  1.00  0.00     0.000 C 
BRANCH  10  11
ATOM     11  C   UNL     1     -17.032   4.387 -23.892  1.00  0.00    -0.000 C 
BRANCH  11  12
ATOM     12  C   UNL     1     -15.602   4.926 -24.047  1.00  0.00    -0.000 C 
BRANCH  12  13
ATOM     13  C   UNL     1     -15.215   5.906 -22.927  1.00  0.00    -0.000 C 
BRANCH  13  14
ATOM     14  C   UNL     1     -14.013   5.423 -22.099  1.00  0.00    -0.000 C 
BRANCH  14  15
ATOM     15  C   UNL     1     -13.664   6.299 -20.880  1.00  0.00    -0.000 C 
BRANCH  15  16
ATOM     16  C   UNL     1     -14.889   6.711 -20.037  1.00  0.00    -0.003 C 
ATOM     17  C   UNL     1     -15.030   8.228 -19.913  1.00  0.00     0.004 C 
ENDBRANCH  15  16
ENDBRANCH  14  15
ENDBRANCH  13  14
ENDBRANCH  12  13
ENDBRANCH  11  12
ENDBRANCH  10  11
ENDBRANCH   1  10
TORSDOF 13
ENDMDL
MODEL 6
REMARK VINA RESULT:    -4.697      3.145      5.640
REMARK INTER + INTRA:         -10.636
REMARK INTER:                  -8.154
REMARK INTRA:                  -2.481
REMARK UNBOUND:                -2.369
REMARK SMILES CCCCCCCCCCCCCCC(=O)[O-]
REMARK SMILES IDX 9 1 10 2 11 3 12 4 13 5 14 6 15 7 16 8 17 9 8 10 7 11 6 12
REMARK SMILES IDX 5 13 4 14 3 15 2 16 1 17
REMARK H PARENT
REMARK Flexibility Score: inf
ROOT
ATOM      1  C   UNL     1     -15.026   5.056 -23.743  1.00  0.00     0.000 C 
ENDROOT
BRANCH   1   2
ATOM      2  C   UNL     1     -16.281   4.178 -23.579  1.00  0.00     0.000 C 
BRANCH   2   3
ATOM      3  C   UNL     1     -17.362   4.752 -22.646  1.00  0.00     0.000 C 
BRANCH   3   4
ATOM      4  C   UNL     1     -17.485   3.977 -21.323  1.00  0.00     0.000 C 
BRANCH   4   5
ATOM      5  C   UNL     1     -16.670   2.673 -21.327  1.00  0.00     0.006 C 
BRANCH   5   6
ATOM      6  C   UNL     1     -15.806   2.511 -20.069  1.00  0.00     0.053 C 
BRANCH   6   7
ATOM      7  C   UNL     1     -14.799   1.422 -20.266  1.00  0.00     0.041 C 
ATOM      8  O   UNL     1     -14.778   0.430 -19.490  1.00  0.00    -0.550 OA
ATOM      9  O   UNL     1     -13.914   1.478 -21.336  1.00  0.00    -0.550 OA
ENDBRANCH   6   7
ENDBRANCH   5   6
ENDBRANCH   4   5
ENDBRANCH   3   4
ENDBRANCH   2   3
ENDBRANCH   1   2
BRANCH   1  10
ATOM     10  C   UNL     1     -13.937   4.749 -22.705  1.00  0.00     0.000 C 
BRANCH  10  11
ATOM     11  C   UNL     1     -13.749   5.933 -21.743  1.00  0.00    -0.000 C 
BRANCH  11  12
ATOM     12  C   UNL     1     -14.227   5.622 -20.316  1.00  0.00    -0.000 C 
BRANCH  12  13
ATOM     13  C   UNL     1     -15.383   6.532 -19.869  1.00  0.00    -0.000 C 
BRANCH  13  14
ATOM     14  C   UNL     1     -15.590   7.737 -20.803  1.00  0.00    -0.000 C 
BRANCH  14  15
ATOM     15  C   UNL     1     -17.061   8.101 -21.084  1.00  0.00    -0.000 C 
BRANCH  15  16
ATOM     16  C   UNL     1     -17.305   8.661 -22.501  1.00  0.00    -0.003 C 
ATOM     17  C   UNL     1     -16.080   8.519 -23.404  1.00  0.00     0.004 C 
ENDBRANCH  15  16
ENDBRANCH  14  15
ENDBRANCH  13  14
ENDBRANCH  12  13
ENDBRANCH  11  12
ENDBRANCH  10  11
ENDBRANCH   1  10
TORSDOF 13
ENDMDL
MODEL 7
REMARK VINA RESULT:    -4.694      2.047      4.050
REMARK INTER + INTRA:         -10.631
REMARK INTER:                  -8.289
REMARK INTRA:                  -2.342
REMARK UNBOUND:                -2.369
REMARK SMILES CCCCCCCCCCCCCCC(=O)[O-]
REMARK SMILES IDX 9 1 10 2 11 3 12 4 13 5 14 6 15 7 16 8 17 9 8 10 7 11 6 12
REMARK SMILES IDX 5 13 4 14 3 15 2 16 1 17
REMARK H PARENT
REMARK Flexibility Score: inf
ROOT
ATOM      1  C   UNL     1     -17.375   3.098 -21.404  1.00  0.00     0.000 C 
ENDROOT
BRANCH   1   2
ATOM      2  C   UNL     1     -17.062   3.863 -22.704  1.00  0.00     0.000 C 
BRANCH   2   3
ATOM      3  C   UNL     1     -16.086   3.153 -23.660  1.00  0.00     0.000 C 
BRANCH   3   4
ATOM      4  C   UNL     1     -14.635   3.637 -23.502  1.00  0.00     0.000 C 
BRANCH   4   5
ATOM      5  C   UNL     1     -14.540   5.156 -23.291  1.00  0.00     0.006 C 
BRANCH   5   6
ATOM      6  C   UNL     1     -13.786   5.530 -22.007  1.00  0.00     0.053 C 
BRANCH   6   7
ATOM      7  C   UNL     1     -14.484   6.650 -21.301  1.00  0.00     0.041 C 
ATOM      8  O   UNL     1     -15.705   6.874 -21.519  1.00  0.00    -0.550 OA
ATOM      9  O   UNL     1     -13.800   7.416 -20.366  1.00  0.00    -0.550 OA
ENDBRANCH   6   7
ENDBRANCH   5   6
ENDBRANCH   4   5
ENDBRANCH   3   4
ENDBRANCH   2   3
ENDBRANCH   1   2
BRANCH   1  10
ATOM     10  C   UNL     1     -16.776   3.763 -20.156  1.00  0.00     0.000 C 
BRANCH  10  11
ATOM     11  C   UNL     1     -15.351   3.252 -19.894  1.00  0.00    -0.000 C 
BRANCH  11  12
ATOM     12  C   UNL     1     -15.241   1.722 -19.988  1.00  0.00    -0.000 C 
BRANCH  12  13
ATOM     13  C   UNL     1     -14.058   1.268 -20.861  1.00  0.00    -0.000 C 
BRANCH  13  14
ATOM     14  C   UNL     1     -14.179  -0.197 -21.315  1.00  0.00    -0.000 C 
BRANCH  14  15
ATOM     15  C   UNL     1     -15.622  -0.718 -21.460  1.00  0.00    -0.000 C 
BRANCH  15  16
ATOM     16  C   UNL     1     -16.232  -0.486 -22.858  1.00  0.00    -0.003 C 
ATOM     17  C   UNL     1     -17.722  -0.147 -22.796  1.00  0.00     0.004 C 
ENDBRANCH  15  16
ENDBRANCH  14  15
ENDBRANCH  13  14
ENDBRANCH  12  13
ENDBRANCH  11  12
ENDBRANCH  10  11
ENDBRANCH   1  10
TORSDOF 13
ENDMDL
MODEL 8
REMARK VINA RESULT:    -4.687      2.228      4.397
REMARK INTER + INTRA:         -10.619
REMARK INTER:                  -8.647
REMARK INTRA:                  -1.972
REMARK UNBOUND:                -2.369
REMARK SMILES CCCCCCCCCCCCCCC(=O)[O-]
REMARK SMILES IDX 9 1 10 2 11 3 12 4 13 5 14 6 15 7 16 8 17 9 8 10 7 11 6 12
REMARK SMILES IDX 5 13 4 14 3 15 2 16 1 17
REMARK H PARENT
REMARK Flexibility Score: inf
ROOT
ATOM      1  C   UNL     1     -17.699   1.885 -22.427  1.00  0.00     0.000 C 
ENDROOT
BRANCH   1   2
ATOM      2  C   UNL     1     -17.117   3.112 -23.155  1.00  0.00     0.000 C 
BRANCH   2   3
ATOM      3  C   UNL     1     -15.691   2.930 -23.704  1.00  0.00     0.000 C 
BRANCH   3   4
ATOM      4  C   UNL     1     -14.975   4.265 -23.965  1.00  0.00     0.000 C 
BRANCH   4   5
ATOM      5  C   UNL     1     -14.308   4.833 -22.701  1.00  0.00     0.006 C 
BRANCH   5   6
ATOM      6  C   UNL     1     -15.042   6.061 -22.146  1.00  0.00     0.053 C 
BRANCH   6   7
ATOM      7  C   UNL     1     -14.717   6.251 -20.698  1.00  0.00     0.041 C 
ATOM      8  O   UNL     1     -15.632   6.507 -19.870  1.00  0.00    -0.550 OA
ATOM      9  O   UNL     1     -13.410   6.099 -20.253  1.00  0.00    -0.550 OA
ENDBRANCH   6   7
ENDBRANCH   5   6
ENDBRANCH   4   5
ENDBRANCH   3   4
ENDBRANCH   2   3
ENDBRANCH   1   2
BRANCH   1  10
ATOM     10  C   UNL     1     -17.610   0.596 -23.256  1.00  0.00     0.000 C 
BRANCH  10  11
ATOM     11  C   UNL     1     -16.853  -0.499 -22.488  1.00  0.00    -0.000 C 
BRANCH  11  12
ATOM     12  C   UNL     1     -15.432  -0.729 -23.025  1.00  0.00    -0.000 C 
BRANCH  12  13
ATOM     13  C   UNL     1     -14.359  -0.602 -21.930  1.00  0.00    -0.000 C 
BRANCH  13  14
ATOM     14  C   UNL     1     -14.907  -0.891 -20.522  1.00  0.00    -0.000 C 
BRANCH  14  15
ATOM     15  C   UNL     1     -14.830   0.292 -19.537  1.00  0.00    -0.000 C 
BRANCH  15  16
ATOM     16  C   UNL     1     -14.666   1.665 -20.221  1.00  0.00    -0.003 C 
ATOM     17  C   UNL     1     -15.601   2.724 -19.638  1.00  0.00     0.004 C 
ENDBRANCH  15  16
ENDBRANCH  14  15
ENDBRANCH  13  14
ENDBRANCH  12  13
ENDBRANCH  11  12
ENDBRANCH  10  11
ENDBRANCH   1  10
TORSDOF 13
ENDMDL
MODEL 9
REMARK VINA RESULT:    -4.669      2.047      3.174
REMARK INTER + INTRA:         -10.587
REMARK INTER:                  -8.576
REMARK INTRA:                  -2.011
REMARK UNBOUND:                -2.369
REMARK SMILES CCCCCCCCCCCCCCC(=O)[O-]
REMARK SMILES IDX 9 1 10 2 11 3 12 4 13 5 14 6 15 7 16 8 17 9 8 10 7 11 6 12
REMARK SMILES IDX 5 13 4 14 3 15 2 16 1 17
REMARK H PARENT
REMARK Flexibility Score: inf
ROOT
ATOM      1  C   UNL     1     -14.811   5.512 -22.746  1.00  0.00     0.000 C 
ENDROOT
BRANCH   1   2
ATOM      2  C   UNL     1     -13.595   5.493 -21.801  1.00  0.00     0.000 C 
BRANCH   2   3
ATOM      3  C   UNL     1     -13.808   6.198 -20.449  1.00  0.00     0.000 C 
BRANCH   3   4
ATOM      4  C   UNL     1     -14.048   7.710 -20.593  1.00  0.00     0.000 C 
BRANCH   4   5
ATOM      5  C   UNL     1     -15.327   8.174 -19.877  1.00  0.00     0.006 C 
BRANCH   5   6
ATOM      6  C   UNL     1     -16.602   7.821 -20.654  1.00  0.00     0.053 C 
BRANCH   6   7
ATOM      7  C   UNL     1     -17.154   9.037 -21.329  1.00  0.00     0.041 C 
ATOM      8  O   UNL     1     -17.650   9.972 -20.645  1.00  0.00    -0.550 OA
ATOM      9  O   UNL     1     -17.078   9.161 -22.710  1.00  0.00    -0.550 OA
ENDBRANCH   6   7
ENDBRANCH   5   6
ENDBRANCH   4   5
ENDBRANCH   3   4
ENDBRANCH   2   3
ENDBRANCH   1   2
BRANCH   1  10
ATOM     10  C   UNL     1     -14.871   4.290 -23.673  1.00  0.00     0.000 C 
BRANCH  10  11
ATOM     11  C   UNL     1     -13.776   3.274 -23.312  1.00  0.00    -0.000 C 
BRANCH  11  12
ATOM     12  C   UNL     1     -14.331   1.861 -23.073  1.00  0.00    -0.000 C 
BRANCH  12  13
ATOM     13  C   UNL     1     -14.125   1.383 -21.625  1.00  0.00    -0.000 C 
BRANCH  13  14
ATOM     14  C   UNL     1     -15.393   1.520 -20.766  1.00  0.00    -0.000 C 
BRANCH  14  15
ATOM     15  C   UNL     1     -15.474   2.807 -19.921  1.00  0.00    -0.000 C 
BRANCH  15  16
ATOM     16  C   UNL     1     -16.730   3.659 -20.201  1.00  0.00    -0.003 C 
ATOM     17  C   UNL     1     -17.456   3.228 -21.475  1.00  0.00     0.004 C 
ENDBRANCH  15  16
ENDBRANCH  14  15
ENDBRANCH  13  14
ENDBRANCH  12  13
ENDBRANCH  11  12
ENDBRANCH  10  11
ENDBRANCH   1  10
TORSDOF 13
ENDMDL
