MODEL 1
REMARK VINA RESULT:    -3.641      0.000      0.000
REMARK INTER + INTRA:          -4.733
REMARK INTER:                  -4.386
REMARK INTRA:                  -0.346
REMARK UNBOUND:                -0.346
REMARK SMILES Oc1cc(O)c2c(c1)O[C@H](c1ccc(O)c(O)c1)[C@@H](O)C2
REMARK SMILES IDX 21 1 19 2 10 3 9 4 7 5 8 6 2 7 3 8 4 9 6 10 20 11 11 13
REMARK SMILES IDX 18 14 12 15 16 16 13 17 14 18 17 19 15 21 5 23 1 25
REMARK H PARENT 20 12 17 20 15 22 5 24 1 26
REMARK Flexibility Score: inf
ROOT
ATOM      1  C   UNL     1     -16.361  17.718  -7.582  1.00  0.00     0.079 C 
ATOM      2  C   UNL     1     -17.681  18.256  -8.163  1.00  0.00     0.164 C 
ATOM      3  C   UNL     1     -18.870  17.523  -7.516  1.00  0.00     0.232 C 
ATOM      4  O   UNL     1     -18.744  16.120  -7.739  1.00  0.00    -0.482 OA
ATOM      5  C   UNL     1     -17.513  15.465  -7.635  1.00  0.00     0.131 A 
ATOM      6  C   UNL     1     -17.483  14.068  -7.623  1.00  0.00     0.093 A 
ATOM      7  C   UNL     1     -16.271  13.390  -7.482  1.00  0.00     0.122 A 
ATOM      8  C   UNL     1     -15.081  14.113  -7.353  1.00  0.00     0.092 A 
ATOM      9  C   UNL     1     -15.089  15.512  -7.372  1.00  0.00     0.126 A 
ATOM     10  C   UNL     1     -16.311  16.204  -7.549  1.00  0.00     0.039 A 
ENDROOT
BRANCH   2  11
ATOM     11  O   UNL     1     -17.783  19.635  -7.917  1.00  0.00    -0.389 OA
ATOM     12  H   UNL     1     -17.532  20.093  -8.762  1.00  0.00     0.211 HD
ENDBRANCH   2  11
BRANCH   3  13
ATOM     13  C   UNL     1     -20.185  18.017  -8.069  1.00  0.00    -0.001 A 
ATOM     14  C   UNL     1     -21.163  18.490  -7.183  1.00  0.00     0.057 A 
ATOM     15  C   UNL     1     -20.418  17.966  -9.463  1.00  0.00     0.012 A 
ATOM     16  C   UNL     1     -22.522  18.953  -7.815  1.00  0.00     0.157 A 
ATOM     17  C   UNL     1     -21.616  18.379 -10.065  1.00  0.00     0.050 A 
ATOM     18  C   UNL     1     -22.690  18.873  -9.324  1.00  0.00     0.157 A 
BRANCH  16  19
ATOM     19  O   UNL     1     -23.686  19.483  -7.034  1.00  0.00    -0.504 OA
ATOM     20  H   UNL     1     -23.622  20.233  -6.363  1.00  0.00     0.293 HD
ENDBRANCH  16  19
BRANCH  18  21
ATOM     21  O   UNL     1     -23.849  19.259  -9.997  1.00  0.00    -0.504 OA
ATOM     22  H   UNL     1     -24.215  18.785 -10.808  1.00  0.00     0.293 HD
ENDBRANCH  18  21
ENDBRANCH   3  13
BRANCH   9  23
ATOM     23  O   UNL     1     -13.875  16.179  -7.198  1.00  0.00    -0.507 OA
ATOM     24  H   UNL     1     -12.975  15.737  -7.323  1.00  0.00     0.293 HD
ENDBRANCH   9  23
BRANCH   7  25
ATOM     25  O   UNL     1     -16.261  11.997  -7.459  1.00  0.00    -0.508 OA
ATOM     26  H   UNL     1     -15.398  11.474  -7.532  1.00  0.00     0.293 HD
ENDBRANCH   7  25
TORSDOF 6
ENDMDL
MODEL 2
REMARK VINA RESULT:    -3.526      2.443      4.300
REMARK INTER + INTRA:          -4.594
REMARK INTER:                  -4.303
REMARK INTRA:                  -0.291
REMARK UNBOUND:                -0.346
REMARK SMILES Oc1cc(O)c2c(c1)O[C@H](c1ccc(O)c(O)c1)[C@@H](O)C2
REMARK SMILES IDX 21 1 19 2 10 3 9 4 7 5 8 6 2 7 3 8 4 9 6 10 20 11 11 13
REMARK SMILES IDX 18 14 12 15 16 16 13 17 14 18 17 19 15 21 5 23 1 25
REMARK H PARENT 20 12 17 20 15 22 5 24 1 26
REMARK Flexibility Score: inf
ROOT
ATOM      1  C   UNL     1     -14.746  13.807  -9.768  1.00  0.00     0.079 C 
ATOM      2  C   UNL     1     -15.602  15.061  -9.516  1.00  0.00     0.164 C 
ATOM      3  C   UNL     1     -15.860  15.219  -8.007  1.00  0.00     0.232 C 
ATOM      4  O   UNL     1     -16.505  14.049  -7.508  1.00  0.00    -0.482 OA
ATOM      5  C   UNL     1     -16.121  12.766  -7.915  1.00  0.00     0.131 A 
ATOM      6  C   UNL     1     -16.613  11.657  -7.223  1.00  0.00     0.093 A 
ATOM      7  C   UNL     1     -16.217  10.368  -7.585  1.00  0.00     0.122 A 
ATOM      8  C   UNL     1     -15.324  10.187  -8.647  1.00  0.00     0.092 A 
ATOM      9  C   UNL     1     -14.829  11.285  -9.358  1.00  0.00     0.126 A 
ATOM     10  C   UNL     1     -15.255  12.592  -9.017  1.00  0.00     0.039 A 
ENDROOT
BRANCH   2  11
ATOM     11  O   UNL     1     -14.938  16.197 -10.006  1.00  0.00    -0.389 OA
ATOM     12  H   UNL     1     -13.973  15.965 -10.052  1.00  0.00     0.211 HD
ENDBRANCH   2  11
BRANCH   3  13
ATOM     13  C   UNL     1     -16.708  16.435  -7.720  1.00  0.00    -0.001 A 
ATOM     14  C   UNL     1     -18.090  16.373  -7.948  1.00  0.00     0.057 A 
ATOM     15  C   UNL     1     -16.091  17.620  -7.256  1.00  0.00     0.012 A 
ATOM     16  C   UNL     1     -18.910  17.680  -7.668  1.00  0.00     0.157 A 
ATOM     17  C   UNL     1     -16.793  18.805  -6.985  1.00  0.00     0.050 A 
ATOM     18  C   UNL     1     -18.173  18.910  -7.163  1.00  0.00     0.157 A 
BRANCH  16  19
ATOM     19  O   UNL     1     -20.391  17.811  -7.855  1.00  0.00    -0.504 OA
ATOM     20  H   UNL     1     -20.826  18.471  -8.483  1.00  0.00     0.293 HD
ENDBRANCH  16  19
BRANCH  18  21
ATOM     21  O   UNL     1     -18.795  20.125  -6.875  1.00  0.00    -0.504 OA
ATOM     22  H   UNL     1     -18.606  20.986  -7.364  1.00  0.00     0.293 HD
ENDBRANCH  18  21
ENDBRANCH   3  13
BRANCH   9  23
ATOM     23  O   UNL     1     -13.910  11.046 -10.381  1.00  0.00    -0.507 OA
ATOM     24  H   UNL     1     -14.178  10.764 -11.314  1.00  0.00     0.293 HD
ENDBRANCH   9  23
BRANCH   7  25
ATOM     25  O   UNL     1     -16.705   9.274  -6.875  1.00  0.00    -0.508 OA
ATOM     26  H   UNL     1     -16.953   9.346  -5.897  1.00  0.00     0.293 HD
ENDBRANCH   7  25
TORSDOF 6
ENDMDL
MODEL 3
REMARK VINA RESULT:    -3.308      4.101      7.638
REMARK INTER + INTRA:          -4.331
REMARK INTER:                  -4.242
REMARK INTRA:                  -0.089
REMARK UNBOUND:                -0.346
REMARK SMILES Oc1cc(O)c2c(c1)O[C@H](c1ccc(O)c(O)c1)[C@@H](O)C2
REMARK SMILES IDX 21 1 19 2 10 3 9 4 7 5 8 6 2 7 3 8 4 9 6 10 20 11 11 13
REMARK SMILES IDX 18 14 12 15 16 16 13 17 14 18 17 19 15 21 5 23 1 25
REMARK H PARENT 20 12 17 20 15 22 5 24 1 26
REMARK Flexibility Score: inf
ROOT
ATOM      1  C   UNL     1     -14.469  15.884 -11.028  1.00  0.00     0.079 C 
ATOM      2  C   UNL     1     -14.283  14.508 -10.363  1.00  0.00     0.164 C 
ATOM      3  C   UNL     1     -15.551  14.135  -9.576  1.00  0.00     0.232 C 
ATOM      4  O   UNL     1     -15.824  15.142  -8.604  1.00  0.00    -0.482 OA
ATOM      5  C   UNL     1     -15.682  16.504  -8.895  1.00  0.00     0.131 A 
ATOM      6  C   UNL     1     -16.189  17.448  -7.998  1.00  0.00     0.093 A 
ATOM      7  C   UNL     1     -16.094  18.811  -8.281  1.00  0.00     0.122 A 
ATOM      8  C   UNL     1     -15.487  19.234  -9.469  1.00  0.00     0.092 A 
ATOM      9  C   UNL     1     -14.966  18.304 -10.375  1.00  0.00     0.126 A 
ATOM     10  C   UNL     1     -15.029  16.922 -10.075  1.00  0.00     0.039 A 
ENDROOT
BRANCH   2  11
ATOM     11  O   UNL     1     -14.029  13.536 -11.344  1.00  0.00    -0.389 OA
ATOM     12  H   UNL     1     -14.237  12.655 -10.932  1.00  0.00     0.211 HD
ENDBRANCH   2  11
BRANCH   3  13
ATOM     13  C   UNL     1     -15.403  12.793  -8.899  1.00  0.00    -0.001 A 
ATOM     14  C   UNL     1     -16.550  12.034  -8.630  1.00  0.00     0.057 A 
ATOM     15  C   UNL     1     -14.116  12.341  -8.524  1.00  0.00     0.012 A 
ATOM     16  C   UNL     1     -16.334  10.668  -7.891  1.00  0.00     0.157 A 
ATOM     17  C   UNL     1     -13.883  11.121  -7.871  1.00  0.00     0.050 A 
ATOM     18  C   UNL     1     -14.918  10.250  -7.528  1.00  0.00     0.157 A 
BRANCH  16  19
ATOM     19  O   UNL     1     -17.433   9.722  -7.513  1.00  0.00    -0.504 OA
ATOM     20  H   UNL     1     -18.352   9.727  -7.930  1.00  0.00     0.293 HD
ENDBRANCH  16  19
BRANCH  18  21
ATOM     21  O   UNL     1     -14.603   9.059  -6.875  1.00  0.00    -0.504 OA
ATOM     22  H   UNL     1     -15.244   8.289  -6.764  1.00  0.00     0.293 HD
ENDBRANCH  18  21
ENDBRANCH   3  13
BRANCH   9  23
ATOM     23  O   UNL     1     -14.409  18.783 -11.562  1.00  0.00    -0.507 OA
ATOM     24  H   UNL     1     -14.958  19.021 -12.376  1.00  0.00     0.293 HD
ENDBRANCH   9  23
BRANCH   7  25
ATOM     25  O   UNL     1     -16.616  19.738  -7.383  1.00  0.00    -0.508 OA
ATOM     26  H   UNL     1     -16.192  20.648  -7.257  1.00  0.00     0.293 HD
ENDBRANCH   7  25
TORSDOF 6
ENDMDL
