MODEL 1
REMARK VINA RESULT:    -4.725      0.000      0.000
REMARK INTER + INTRA:          -5.001
REMARK INTER:                  -5.001
REMARK INTRA:                   0.000
REMARK UNBOUND:                 0.000
REMARK SMILES O=c1ccc2cc(O)c(O)cc2o1
REMARK SMILES IDX 4 1 3 2 2 3 1 4 13 5 12 6 11 7 9 8 7 9 6 10 5 11 8 12 10 14
REMARK H PARENT 8 13 10 15
REMARK Flexibility Score: inf
ROOT
ATOM      1  C   UNL     1      -9.381  -0.353  -6.509  1.00  0.00     0.019 A 
ATOM      2  C   UNL     1      -8.662  -1.478  -6.908  1.00  0.00     0.094 A 
ATOM      3  C   UNL     1      -7.411  -1.306  -7.511  1.00  0.00     0.336 A 
ATOM      4  O   UNL     1      -6.747  -2.310  -7.880  1.00  0.00    -0.246 OA
ATOM      5  O   UNL     1      -6.917  -0.085  -7.699  1.00  0.00    -0.423 OA
ATOM      6  C   UNL     1      -7.569   1.016  -7.333  1.00  0.00     0.142 A 
ATOM      7  C   UNL     1      -7.000   2.273  -7.556  1.00  0.00     0.098 A 
ATOM      8  C   UNL     1      -7.683   3.436  -7.171  1.00  0.00     0.161 A 
ATOM      9  C   UNL     1      -8.943   3.340  -6.561  1.00  0.00     0.158 A 
ATOM     10  C   UNL     1      -9.519   2.081  -6.335  1.00  0.00     0.062 A 
ATOM     11  C   UNL     1      -8.837   0.919  -6.719  1.00  0.00     0.022 A 
ENDROOT
BRANCH   9  12
ATOM     12  O   UNL     1      -9.616   4.501  -6.183  1.00  0.00    -0.504 OA
ATOM     13  H   UNL     1      -9.460   5.383  -6.656  1.00  0.00     0.293 HD
ENDBRANCH   9  12
BRANCH   8  14
ATOM     14  O   UNL     1      -7.119   4.691  -7.392  1.00  0.00    -0.504 OA
ATOM     15  H   UNL     1      -7.065   5.091  -8.322  1.00  0.00     0.293 HD
ENDBRANCH   8  14
TORSDOF 2
ENDMDL
MODEL 2
REMARK VINA RESULT:    -4.676      1.574      4.910
REMARK INTER + INTRA:          -4.949
REMARK INTER:                  -4.949
REMARK INTRA:                   0.000
REMARK UNBOUND:                 0.000
REMARK SMILES O=c1ccc2cc(O)c(O)cc2o1
REMARK SMILES IDX 4 1 3 2 2 3 1 4 13 5 12 6 11 7 9 8 7 9 6 10 5 11 8 12 10 14
REMARK H PARENT 8 13 10 15
REMARK Flexibility Score: inf
ROOT
ATOM      1  C   UNL     1      -6.665   2.174  -9.402  1.00  0.00     0.019 A 
ATOM      2  C   UNL     1      -6.975   3.532  -9.344  1.00  0.00     0.094 A 
ATOM      3  C   UNL     1      -7.723   4.011  -8.263  1.00  0.00     0.336 A 
ATOM      4  O   UNL     1      -8.014   5.234  -8.193  1.00  0.00    -0.246 OA
ATOM      5  O   UNL     1      -8.131   3.181  -7.306  1.00  0.00    -0.423 OA
ATOM      6  C   UNL     1      -7.858   1.879  -7.322  1.00  0.00     0.142 A 
ATOM      7  C   UNL     1      -8.313   1.055  -6.289  1.00  0.00     0.098 A 
ATOM      8  C   UNL     1      -8.027  -0.317  -6.301  1.00  0.00     0.161 A 
ATOM      9  C   UNL     1      -7.282  -0.868  -7.354  1.00  0.00     0.158 A 
ATOM     10  C   UNL     1      -6.822  -0.047  -8.394  1.00  0.00     0.062 A 
ATOM     11  C   UNL     1      -7.108   1.325  -8.382  1.00  0.00     0.022 A 
ENDROOT
BRANCH   9  12
ATOM     12  O   UNL     1      -7.002  -2.234  -7.359  1.00  0.00    -0.504 OA
ATOM     13  H   UNL     1      -6.724  -2.722  -6.516  1.00  0.00     0.293 HD
ENDBRANCH   9  12
BRANCH   8  14
ATOM     14  O   UNL     1      -8.480  -1.141  -5.272  1.00  0.00    -0.504 OA
ATOM     15  H   UNL     1      -7.877  -1.834  -4.844  1.00  0.00     0.293 HD
ENDBRANCH   8  14
TORSDOF 2
ENDMDL
MODEL 3
REMARK VINA RESULT:    -4.633      1.229      2.330
REMARK INTER + INTRA:          -4.904
REMARK INTER:                  -4.904
REMARK INTRA:                   0.000
REMARK UNBOUND:                 0.000
REMARK SMILES O=c1ccc2cc(O)c(O)cc2o1
REMARK SMILES IDX 4 1 3 2 2 3 1 4 13 5 12 6 11 7 9 8 7 9 6 10 5 11 8 12 10 14
REMARK H PARENT 8 13 10 15
REMARK Flexibility Score: inf
ROOT
ATOM      1  C   UNL     1      -6.405   0.252  -9.230  1.00  0.00     0.019 A 
ATOM      2  C   UNL     1      -6.492  -1.136  -9.134  1.00  0.00     0.094 A 
ATOM      3  C   UNL     1      -7.145  -1.701  -8.033  1.00  0.00     0.336 A 
ATOM      4  O   UNL     1      -7.234  -2.952  -7.928  1.00  0.00    -0.246 OA
ATOM      5  O   UNL     1      -7.674  -0.923  -7.092  1.00  0.00    -0.423 OA
ATOM      6  C   UNL     1      -7.614   0.406  -7.144  1.00  0.00     0.142 A 
ATOM      7  C   UNL     1      -8.188   1.173  -6.126  1.00  0.00     0.098 A 
ATOM      8  C   UNL     1      -8.128   2.573  -6.176  1.00  0.00     0.161 A 
ATOM      9  C   UNL     1      -7.489   3.208  -7.251  1.00  0.00     0.158 A 
ATOM     10  C   UNL     1      -6.910   2.444  -8.275  1.00  0.00     0.062 A 
ATOM     11  C   UNL     1      -6.971   1.046  -8.225  1.00  0.00     0.022 A 
ENDROOT
BRANCH   9  12
ATOM     12  O   UNL     1      -7.432   4.601  -7.293  1.00  0.00    -0.504 OA
ATOM     13  H   UNL     1      -7.640   5.114  -8.142  1.00  0.00     0.293 HD
ENDBRANCH   9  12
BRANCH   8  14
ATOM     14  O   UNL     1      -8.700   3.340  -5.163  1.00  0.00    -0.504 OA
ATOM     15  H   UNL     1      -9.360   2.942  -4.506  1.00  0.00     0.293 HD
ENDBRANCH   8  14
TORSDOF 2
ENDMDL
MODEL 4
REMARK VINA RESULT:    -4.604      1.392      4.677
REMARK INTER + INTRA:          -4.873
REMARK INTER:                  -4.873
REMARK INTRA:                   0.000
REMARK UNBOUND:                 0.000
REMARK SMILES O=c1ccc2cc(O)c(O)cc2o1
REMARK SMILES IDX 4 1 3 2 2 3 1 4 13 5 12 6 11 7 9 8 7 9 6 10 5 11 8 12 10 14
REMARK H PARENT 8 13 10 15
REMARK Flexibility Score: inf
ROOT
ATOM      1  C   UNL     1      -8.296   2.031  -6.028  1.00  0.00     0.019 A 
ATOM      2  C   UNL     1      -8.234   3.379  -6.377  1.00  0.00     0.094 A 
ATOM      3  C   UNL     1      -7.610   3.742  -7.576  1.00  0.00     0.336 A 
ATOM      4  O   UNL     1      -7.544   4.954  -7.908  1.00  0.00    -0.246 OA
ATOM      5  O   UNL     1      -7.083   2.812  -8.368  1.00  0.00    -0.423 OA
ATOM      6  C   UNL     1      -7.119   1.515  -8.074  1.00  0.00     0.142 A 
ATOM      7  C   UNL     1      -6.549   0.583  -8.946  1.00  0.00     0.098 A 
ATOM      8  C   UNL     1      -6.586  -0.786  -8.640  1.00  0.00     0.161 A 
ATOM      9  C   UNL     1      -7.195  -1.223  -7.455  1.00  0.00     0.158 A 
ATOM     10  C   UNL     1      -7.769  -0.292  -6.576  1.00  0.00     0.062 A 
ATOM     11  C   UNL     1      -7.733   1.074  -6.881  1.00  0.00     0.022 A 
ENDROOT
BRANCH   9  12
ATOM     12  O   UNL     1      -7.226  -2.585  -7.157  1.00  0.00    -0.504 OA
ATOM     13  H   UNL     1      -8.096  -3.105  -7.146  1.00  0.00     0.293 HD
ENDBRANCH   9  12
BRANCH   8  14
ATOM     14  O   UNL     1      -6.018  -1.717  -9.507  1.00  0.00    -0.504 OA
ATOM     15  H   UNL     1      -5.254  -2.315  -9.216  1.00  0.00     0.293 HD
ENDBRANCH   8  14
TORSDOF 2
ENDMDL
MODEL 5
REMARK VINA RESULT:    -4.547      1.506      5.002
REMARK INTER + INTRA:          -4.813
REMARK INTER:                  -4.813
REMARK INTRA:                   0.000
REMARK UNBOUND:                 0.000
REMARK SMILES O=c1ccc2cc(O)c(O)cc2o1
REMARK SMILES IDX 4 1 3 2 2 3 1 4 13 5 12 6 11 7 9 8 7 9 6 10 5 11 8 12 10 14
REMARK H PARENT 8 13 10 15
REMARK Flexibility Score: inf
ROOT
ATOM      1  C   UNL     1      -7.118   2.677  -8.006  1.00  0.00     0.019 A 
ATOM      2  C   UNL     1      -7.804   3.434  -7.058  1.00  0.00     0.094 A 
ATOM      3  C   UNL     1      -8.482   2.777  -6.026  1.00  0.00     0.336 A 
ATOM      4  O   UNL     1      -9.108   3.444  -5.160  1.00  0.00    -0.246 OA
ATOM      5  O   UNL     1      -8.472   1.448  -5.953  1.00  0.00    -0.423 OA
ATOM      6  C   UNL     1      -7.831   0.687  -6.837  1.00  0.00     0.142 A 
ATOM      7  C   UNL     1      -7.855  -0.705  -6.709  1.00  0.00     0.098 A 
ATOM      8  C   UNL     1      -7.181  -1.511  -7.637  1.00  0.00     0.161 A 
ATOM      9  C   UNL     1      -6.479  -0.921  -8.699  1.00  0.00     0.158 A 
ATOM     10  C   UNL     1      -6.452   0.475  -8.832  1.00  0.00     0.062 A 
ATOM     11  C   UNL     1      -7.125   1.281  -7.905  1.00  0.00     0.022 A 
ENDROOT
BRANCH   9  12
ATOM     12  O   UNL     1      -5.812  -1.730  -9.618  1.00  0.00    -0.504 OA
ATOM     13  H   UNL     1      -4.814  -1.894  -9.553  1.00  0.00     0.293 HD
ENDBRANCH   9  12
BRANCH   8  14
ATOM     14  O   UNL     1      -7.203  -2.899  -7.513  1.00  0.00    -0.504 OA
ATOM     15  H   UNL     1      -6.353  -3.448  -7.552  1.00  0.00     0.293 HD
ENDBRANCH   8  14
TORSDOF 2
ENDMDL
MODEL 6
REMARK VINA RESULT:    -4.236     21.590     22.469
REMARK INTER + INTRA:          -4.483
REMARK INTER:                  -4.483
REMARK INTRA:                   0.000
REMARK UNBOUND:                 0.000
REMARK SMILES O=c1ccc2cc(O)c(O)cc2o1
REMARK SMILES IDX 4 1 3 2 2 3 1 4 13 5 12 6 11 7 9 8 7 9 6 10 5 11 8 12 10 14
REMARK H PARENT 8 13 10 15
REMARK Flexibility Score: inf
ROOT
ATOM      1  C   UNL     1       8.266  -2.473   9.078  1.00  0.00     0.019 A 
ATOM      2  C   UNL     1       8.299  -1.183   9.605  1.00  0.00     0.094 A 
ATOM      3  C   UNL     1       8.483  -0.100   8.738  1.00  0.00     0.336 A 
ATOM      4  O   UNL     1       8.517   1.072   9.195  1.00  0.00    -0.246 OA
ATOM      5  O   UNL     1       8.624  -0.302   7.430  1.00  0.00    -0.423 OA
ATOM      6  C   UNL     1       8.598  -1.516   6.886  1.00  0.00     0.142 A 
ATOM      7  C   UNL     1       8.751  -1.667   5.504  1.00  0.00     0.098 A 
ATOM      8  C   UNL     1       8.724  -2.944   4.926  1.00  0.00     0.161 A 
ATOM      9  C   UNL     1       8.544  -4.076   5.734  1.00  0.00     0.158 A 
ATOM     10  C   UNL     1       8.390  -3.931   7.120  1.00  0.00     0.062 A 
ATOM     11  C   UNL     1       8.417  -2.656   7.699  1.00  0.00     0.022 A 
ENDROOT
BRANCH   9  12
ATOM     12  O   UNL     1       8.519  -5.342   5.151  1.00  0.00    -0.504 OA
ATOM     13  H   UNL     1       7.677  -5.906   5.143  1.00  0.00     0.293 HD
ENDBRANCH   9  12
BRANCH   8  14
ATOM     14  O   UNL     1       8.877  -3.097   3.549  1.00  0.00    -0.504 OA
ATOM     15  H   UNL     1       8.226  -2.680   2.894  1.00  0.00     0.293 HD
ENDBRANCH   8  14
TORSDOF 2
ENDMDL
MODEL 7
REMARK VINA RESULT:    -4.093     14.398     16.562
REMARK INTER + INTRA:          -4.333
REMARK INTER:                  -4.333
REMARK INTRA:                   0.000
REMARK UNBOUND:                 0.000
REMARK SMILES O=c1ccc2cc(O)c(O)cc2o1
REMARK SMILES IDX 4 1 3 2 2 3 1 4 13 5 12 6 11 7 9 8 7 9 6 10 5 11 8 12 10 14
REMARK H PARENT 8 13 10 15
REMARK Flexibility Score: inf
ROOT
ATOM      1  C   UNL     1       7.159  -5.689  -8.248  1.00  0.00     0.019 A 
ATOM      2  C   UNL     1       8.017  -6.428  -9.063  1.00  0.00     0.094 A 
ATOM      3  C   UNL     1       7.801  -7.803  -9.205  1.00  0.00     0.336 A 
ATOM      4  O   UNL     1       8.565  -8.486  -9.936  1.00  0.00    -0.246 OA
ATOM      5  O   UNL     1       6.792  -8.395  -8.571  1.00  0.00    -0.423 OA
ATOM      6  C   UNL     1       5.951  -7.729  -7.785  1.00  0.00     0.142 A 
ATOM      7  C   UNL     1       4.908  -8.405  -7.144  1.00  0.00     0.098 A 
ATOM      8  C   UNL     1       4.018  -7.707  -6.315  1.00  0.00     0.161 A 
ATOM      9  C   UNL     1       4.173  -6.326  -6.125  1.00  0.00     0.158 A 
ATOM     10  C   UNL     1       5.218  -5.642  -6.765  1.00  0.00     0.062 A 
ATOM     11  C   UNL     1       6.106  -6.339  -7.594  1.00  0.00     0.022 A 
ENDROOT
BRANCH   9  12
ATOM     12  O   UNL     1       3.284  -5.640  -5.298  1.00  0.00    -0.504 OA
ATOM     13  H   UNL     1       2.871  -6.078  -4.484  1.00  0.00     0.293 HD
ENDBRANCH   9  12
BRANCH   8  14
ATOM     14  O   UNL     1       2.977  -8.378  -5.675  1.00  0.00    -0.504 OA
ATOM     15  H   UNL     1       3.154  -9.152  -5.046  1.00  0.00     0.293 HD
ENDBRANCH   8  14
TORSDOF 2
ENDMDL
MODEL 8
REMARK VINA RESULT:    -4.023      1.858      2.399
REMARK INTER + INTRA:          -4.258
REMARK INTER:                  -4.258
REMARK INTRA:                   0.000
REMARK UNBOUND:                 0.000
REMARK SMILES O=c1ccc2cc(O)c(O)cc2o1
REMARK SMILES IDX 4 1 3 2 2 3 1 4 13 5 12 6 11 7 9 8 7 9 6 10 5 11 8 12 10 14
REMARK H PARENT 8 13 10 15
REMARK Flexibility Score: inf
ROOT
ATOM      1  C   UNL     1      -7.538   0.689  -6.024  1.00  0.00     0.019 A 
ATOM      2  C   UNL     1      -8.281  -0.490  -6.052  1.00  0.00     0.094 A 
ATOM      3  C   UNL     1      -9.440  -0.544  -6.834  1.00  0.00     0.336 A 
ATOM      4  O   UNL     1     -10.125  -1.600  -6.872  1.00  0.00    -0.246 OA
ATOM      5  O   UNL     1      -9.826   0.516  -7.539  1.00  0.00    -0.423 OA
ATOM      6  C   UNL     1      -9.148   1.661  -7.541  1.00  0.00     0.142 A 
ATOM      7  C   UNL     1      -9.601   2.742  -8.302  1.00  0.00     0.098 A 
ATOM      8  C   UNL     1      -8.889   3.950  -8.308  1.00  0.00     0.161 A 
ATOM      9  C   UNL     1      -7.718   4.077  -7.547  1.00  0.00     0.158 A 
ATOM     10  C   UNL     1      -7.258   2.996  -6.781  1.00  0.00     0.062 A 
ATOM     11  C   UNL     1      -7.968   1.789  -6.776  1.00  0.00     0.022 A 
ENDROOT
BRANCH   9  12
ATOM     12  O   UNL     1      -7.016   5.282  -7.558  1.00  0.00    -0.504 OA
ATOM     13  H   UNL     1      -6.373   5.515  -8.306  1.00  0.00     0.293 HD
ENDBRANCH   9  12
BRANCH   8  14
ATOM     14  O   UNL     1      -9.339   5.030  -9.065  1.00  0.00    -0.504 OA
ATOM     15  H   UNL     1      -9.174   5.083 -10.064  1.00  0.00     0.293 HD
ENDBRANCH   8  14
TORSDOF 2
ENDMDL
MODEL 9
REMARK VINA RESULT:    -3.960     14.416     16.502
REMARK INTER + INTRA:          -4.191
REMARK INTER:                  -4.191
REMARK INTRA:                   0.000
REMARK UNBOUND:                 0.000
REMARK SMILES O=c1ccc2cc(O)c(O)cc2o1
REMARK SMILES IDX 4 1 3 2 2 3 1 4 13 5 12 6 11 7 9 8 7 9 6 10 5 11 8 12 10 14
REMARK H PARENT 8 13 10 15
REMARK Flexibility Score: inf
ROOT
ATOM      1  C   UNL     1       6.825  -8.406  -8.680  1.00  0.00     0.019 A 
ATOM      2  C   UNL     1       7.858  -7.700  -9.294  1.00  0.00     0.094 A 
ATOM      3  C   UNL     1       7.985  -6.329  -9.048  1.00  0.00     0.336 A 
ATOM      4  O   UNL     1       8.911  -5.675  -9.594  1.00  0.00    -0.246 OA
ATOM      5  O   UNL     1       7.129  -5.709  -8.239  1.00  0.00    -0.423 OA
ATOM      6  C   UNL     1       6.129  -6.343  -7.632  1.00  0.00     0.142 A 
ATOM      7  C   UNL     1       5.261  -5.640  -6.792  1.00  0.00     0.098 A 
ATOM      8  C   UNL     1       4.205  -6.304  -6.150  1.00  0.00     0.161 A 
ATOM      9  C   UNL     1       4.018  -7.679  -6.351  1.00  0.00     0.158 A 
ATOM     10  C   UNL     1       4.885  -8.391  -7.193  1.00  0.00     0.062 A 
ATOM     11  C   UNL     1       5.940  -7.728  -7.834  1.00  0.00     0.022 A 
ENDROOT
BRANCH   9  12
ATOM     12  O   UNL     1       2.966  -8.332  -5.710  1.00  0.00    -0.504 OA
ATOM     13  H   UNL     1       2.341  -7.841  -5.081  1.00  0.00     0.293 HD
ENDBRANCH   9  12
BRANCH   8  14
ATOM     14  O   UNL     1       3.338  -5.605  -5.313  1.00  0.00    -0.504 OA
ATOM     15  H   UNL     1       2.447  -5.995  -5.028  1.00  0.00     0.293 HD
ENDBRANCH   8  14
TORSDOF 2
ENDMDL
