MODEL 1
REMARK VINA RESULT:    -3.458      0.000      0.000
REMARK INTER + INTRA:          -3.908
REMARK INTER:                  -3.862
REMARK INTRA:                  -0.046
REMARK UNBOUND:                -0.046
REMARK SMILES CCCC(=O)[O-]
REMARK SMILES IDX 3 1 4 2 5 3 6 4 2 5 1 6
REMARK H PARENT
REMARK Flexibility Score: inf
ROOT
ATOM      1  C   UNL     1     -16.626  -8.394  -2.428  1.00  0.00     0.052 C 
ENDROOT
BRANCH   1   2
ATOM      2  C   UNL     1     -17.464  -9.608  -2.178  1.00  0.00     0.041 C 
ATOM      3  O   UNL     1     -18.523  -9.518  -1.502  1.00  0.00    -0.550 OA
ATOM      4  O   UNL     1     -17.102 -10.830  -2.732  1.00  0.00    -0.550 OA
ENDBRANCH   1   2
BRANCH   1   5
ATOM      5  C   UNL     1     -15.855  -8.539  -3.743  1.00  0.00     0.003 C 
ATOM      6  C   UNL     1     -16.649  -7.964  -4.912  1.00  0.00     0.004 C 
ENDBRANCH   1   5
TORSDOF 2
ENDMDL
MODEL 2
REMARK VINA RESULT:    -3.439      2.245      2.404
REMARK INTER + INTRA:          -3.887
REMARK INTER:                  -3.852
REMARK INTRA:                  -0.035
REMARK UNBOUND:                -0.046
REMARK SMILES CCCC(=O)[O-]
REMARK SMILES IDX 3 1 4 2 5 3 6 4 2 5 1 6
REMARK H PARENT
REMARK Flexibility Score: inf
ROOT
ATOM      1  C   UNL     1     -16.777  -8.370  -2.375  1.00  0.00     0.052 C 
ENDROOT
BRANCH   1   2
ATOM      2  C   UNL     1     -15.641  -7.973  -1.486  1.00  0.00     0.041 C 
ATOM      3  O   UNL     1     -15.869  -7.486  -0.347  1.00  0.00    -0.550 OA
ATOM      4  O   UNL     1     -14.330  -8.184  -1.895  1.00  0.00    -0.550 OA
ENDBRANCH   1   2
BRANCH   1   5
ATOM      5  C   UNL     1     -16.251  -8.883  -3.718  1.00  0.00     0.003 C 
ATOM      6  C   UNL     1     -16.638  -7.942  -4.856  1.00  0.00     0.004 C 
ENDBRANCH   1   5
TORSDOF 2
ENDMDL
MODEL 3
REMARK VINA RESULT:    -3.424      2.259      3.125
REMARK INTER + INTRA:          -3.870
REMARK INTER:                  -3.864
REMARK INTRA:                  -0.006
REMARK UNBOUND:                -0.046
REMARK SMILES CCCC(=O)[O-]
REMARK SMILES IDX 3 1 4 2 5 3 6 4 2 5 1 6
REMARK H PARENT
REMARK Flexibility Score: inf
ROOT
ATOM      1  C   UNL     1     -16.694  -8.406  -2.696  1.00  0.00     0.052 C 
ENDROOT
BRANCH   1   2
ATOM      2  C   UNL     1     -16.203  -8.579  -4.099  1.00  0.00     0.041 C 
ATOM      3  O   UNL     1     -16.706  -7.901  -5.034  1.00  0.00    -0.550 OA
ATOM      4  O   UNL     1     -15.157  -9.453  -4.368  1.00  0.00    -0.550 OA
ENDBRANCH   1   2
BRANCH   1   5
ATOM      5  C   UNL     1     -15.541  -8.003  -1.772  1.00  0.00     0.003 C 
ATOM      6  C   UNL     1     -16.043  -7.717  -0.360  1.00  0.00     0.004 C 
ENDBRANCH   1   5
TORSDOF 2
ENDMDL
MODEL 4
REMARK VINA RESULT:    -3.374      5.953      6.208
REMARK INTER + INTRA:          -3.814
REMARK INTER:                  -3.804
REMARK INTRA:                  -0.010
REMARK UNBOUND:                -0.046
REMARK SMILES CCCC(=O)[O-]
REMARK SMILES IDX 3 1 4 2 5 3 6 4 2 5 1 6
REMARK H PARENT
REMARK Flexibility Score: inf
ROOT
ATOM      1  C   UNL     1     -16.606 -13.985  -0.339  1.00  0.00     0.052 C 
ENDROOT
BRANCH   1   2
ATOM      2  C   UNL     1     -15.444 -13.854   0.594  1.00  0.00     0.041 C 
ATOM      3  O   UNL     1     -14.299 -13.586   0.145  1.00  0.00    -0.550 OA
ATOM      4  O   UNL     1     -15.635 -13.979   1.965  1.00  0.00    -0.550 OA
ENDBRANCH   1   2
BRANCH   1   5
ATOM      5  C   UNL     1     -16.196 -14.749  -1.601  1.00  0.00     0.003 C 
ATOM      6  C   UNL     1     -17.308 -14.724  -2.645  1.00  0.00     0.004 C 
ENDBRANCH   1   5
TORSDOF 2
ENDMDL
MODEL 5
REMARK VINA RESULT:    -3.356      2.165      3.100
REMARK INTER + INTRA:          -3.794
REMARK INTER:                  -3.788
REMARK INTRA:                  -0.007
REMARK UNBOUND:                -0.046
REMARK SMILES CCCC(=O)[O-]
REMARK SMILES IDX 3 1 4 2 5 3 6 4 2 5 1 6
REMARK H PARENT
REMARK Flexibility Score: inf
ROOT
ATOM      1  C   UNL     1     -16.754  -8.426  -2.727  1.00  0.00     0.052 C 
ENDROOT
BRANCH   1   2
ATOM      2  C   UNL     1     -16.267  -8.601  -4.130  1.00  0.00     0.041 C 
ATOM      3  O   UNL     1     -16.787  -7.942  -5.069  1.00  0.00    -0.550 OA
ATOM      4  O   UNL     1     -15.205  -9.458  -4.396  1.00  0.00    -0.550 OA
ENDBRANCH   1   2
BRANCH   1   5
ATOM      5  C   UNL     1     -17.290  -9.750  -2.176  1.00  0.00     0.003 C 
ATOM      6  C   UNL     1     -18.541  -9.529  -1.331  1.00  0.00     0.004 C 
ENDBRANCH   1   5
TORSDOF 2
ENDMDL
MODEL 6
REMARK VINA RESULT:    -3.347      2.417      2.946
REMARK INTER + INTRA:          -3.784
REMARK INTER:                  -3.774
REMARK INTRA:                  -0.010
REMARK UNBOUND:                -0.046
REMARK SMILES CCCC(=O)[O-]
REMARK SMILES IDX 3 1 4 2 5 3 6 4 2 5 1 6
REMARK H PARENT
REMARK Flexibility Score: inf
ROOT
ATOM      1  C   UNL     1     -15.951  -7.599  -1.601  1.00  0.00     0.052 C 
ENDROOT
BRANCH   1   2
ATOM      2  C   UNL     1     -15.955  -8.059  -0.178  1.00  0.00     0.041 C 
ATOM      3  O   UNL     1     -15.578  -9.225   0.112  1.00  0.00    -0.550 OA
ATOM      4  O   UNL     1     -16.328  -7.184   0.835  1.00  0.00    -0.550 OA
ENDBRANCH   1   2
BRANCH   1   5
ATOM      5  C   UNL     1     -16.816  -8.522  -2.464  1.00  0.00     0.003 C 
ATOM      6  C   UNL     1     -16.500  -8.344  -3.947  1.00  0.00     0.004 C 
ENDBRANCH   1   5
TORSDOF 2
ENDMDL
MODEL 7
REMARK VINA RESULT:    -3.335      3.031      3.655
REMARK INTER + INTRA:          -3.771
REMARK INTER:                  -3.708
REMARK INTRA:                  -0.062
REMARK UNBOUND:                -0.046
REMARK SMILES CCCC(=O)[O-]
REMARK SMILES IDX 3 1 4 2 5 3 6 4 2 5 1 6
REMARK H PARENT
REMARK Flexibility Score: inf
ROOT
ATOM      1  C   UNL     1     -17.816  -8.235   1.108  1.00  0.00     0.052 C 
ENDROOT
BRANCH   1   2
ATOM      2  C   UNL     1     -18.175  -9.424   0.274  1.00  0.00     0.041 C 
ATOM      3  O   UNL     1     -17.598 -10.528   0.463  1.00  0.00    -0.550 OA
ATOM      4  O   UNL     1     -19.180  -9.327  -0.680  1.00  0.00    -0.550 OA
ENDBRANCH   1   2
BRANCH   1   5
ATOM      5  C   UNL     1     -16.325  -7.914   0.970  1.00  0.00     0.003 C 
ATOM      6  C   UNL     1     -15.967  -7.575  -0.474  1.00  0.00     0.004 C 
ENDBRANCH   1   5
TORSDOF 2
ENDMDL
MODEL 8
REMARK VINA RESULT:    -3.289      5.066      5.979
REMARK INTER + INTRA:          -3.720
REMARK INTER:                  -3.705
REMARK INTRA:                  -0.015
REMARK UNBOUND:                -0.046
REMARK SMILES CCCC(=O)[O-]
REMARK SMILES IDX 3 1 4 2 5 3 6 4 2 5 1 6
REMARK H PARENT
REMARK Flexibility Score: inf
ROOT
ATOM      1  C   UNL     1     -16.371 -14.681  -1.080  1.00  0.00     0.052 C 
ENDROOT
BRANCH   1   2
ATOM      2  C   UNL     1     -16.889 -14.197  -2.397  1.00  0.00     0.041 C 
ATOM      3  O   UNL     1     -17.275 -15.021  -3.267  1.00  0.00    -0.550 OA
ATOM      4  O   UNL     1     -16.991 -12.834  -2.646  1.00  0.00    -0.550 OA
ENDBRANCH   1   2
BRANCH   1   5
ATOM      5  C   UNL     1     -16.686 -13.668   0.025  1.00  0.00     0.003 C 
ATOM      6  C   UNL     1     -15.671 -13.759   1.160  1.00  0.00     0.004 C 
ENDBRANCH   1   5
TORSDOF 2
ENDMDL
MODEL 9
REMARK VINA RESULT:    -3.273      2.141      3.261
REMARK INTER + INTRA:          -3.701
REMARK INTER:                  -3.663
REMARK INTRA:                  -0.038
REMARK UNBOUND:                -0.046
REMARK SMILES CCCC(=O)[O-]
REMARK SMILES IDX 3 1 4 2 5 3 6 4 2 5 1 6
REMARK H PARENT
REMARK Flexibility Score: inf
ROOT
ATOM      1  C   UNL     1     -15.879  -7.592  -1.620  1.00  0.00     0.052 C 
ENDROOT
BRANCH   1   2
ATOM      2  C   UNL     1     -16.809  -8.358  -2.506  1.00  0.00     0.041 C 
ATOM      3  O   UNL     1     -16.653  -8.340  -3.755  1.00  0.00    -0.550 OA
ATOM      4  O   UNL     1     -17.820  -9.133  -1.950  1.00  0.00    -0.550 OA
ENDBRANCH   1   2
BRANCH   1   5
ATOM      5  C   UNL     1     -15.774  -8.262  -0.247  1.00  0.00     0.003 C 
ATOM      6  C   UNL     1     -16.363  -7.374   0.845  1.00  0.00     0.004 C 
ENDBRANCH   1   5
TORSDOF 2
ENDMDL
