MODEL 1
REMARK VINA RESULT:    -4.264      0.000      0.000
REMARK INTER + INTRA:          -6.743
REMARK INTER:                  -6.508
REMARK INTRA:                  -0.235
REMARK UNBOUND:                -0.235
REMARK SMILES CCCCCCCCCCC(=O)[O-]
REMARK SMILES IDX 7 1 8 2 9 3 10 4 11 5 12 6 13 7 6 8 5 9 4 10 3 11 2 12 1 13
REMARK H PARENT
REMARK Flexibility Score: inf
ROOT
ATOM      1  C   UNL     1      -7.401 -10.050   0.296  1.00  0.00     0.000 C 
ENDROOT
BRANCH   1   2
ATOM      2  C   UNL     1      -7.946  -8.750  -0.314  1.00  0.00     0.000 C 
BRANCH   2   3
ATOM      3  C   UNL     1      -9.425  -8.499   0.037  1.00  0.00     0.006 C 
BRANCH   3   4
ATOM      4  C   UNL     1      -9.644  -7.502   1.186  1.00  0.00     0.053 C 
BRANCH   4   5
ATOM      5  C   UNL     1     -10.510  -6.351   0.776  1.00  0.00     0.041 C 
ATOM      6  O   UNL     1     -11.346  -6.488  -0.155  1.00  0.00    -0.550 OA
ATOM      7  O   UNL     1     -10.369  -5.118   1.400  1.00  0.00    -0.550 OA
ENDBRANCH   4   5
ENDBRANCH   3   4
ENDBRANCH   2   3
ENDBRANCH   1   2
BRANCH   1   8
ATOM      8  C   UNL     1      -6.321 -10.667  -0.606  1.00  0.00     0.000 C 
BRANCH   8   9
ATOM      9  C   UNL     1      -5.433 -11.678   0.138  1.00  0.00    -0.000 C 
BRANCH   9  10
ATOM     10  C   UNL     1      -6.250 -12.738   0.896  1.00  0.00    -0.000 C 
BRANCH  10  11
ATOM     11  C   UNL     1      -5.842 -14.173   0.528  1.00  0.00    -0.000 C 
BRANCH  11  12
ATOM     12  C   UNL     1      -6.918 -15.207   0.891  1.00  0.00    -0.003 C 
ATOM     13  C   UNL     1      -6.332 -16.616   0.936  1.00  0.00     0.004 C 
ENDBRANCH  11  12
ENDBRANCH  10  11
ENDBRANCH   9  10
ENDBRANCH   8   9
ENDBRANCH   1   8
TORSDOF 9
ENDMDL
MODEL 2
REMARK VINA RESULT:    -4.248      3.659      7.286
REMARK INTER + INTRA:          -6.718
REMARK INTER:                  -6.147
REMARK INTRA:                  -0.571
REMARK UNBOUND:                -0.235
REMARK SMILES CCCCCCCCCCC(=O)[O-]
REMARK SMILES IDX 7 1 8 2 9 3 10 4 11 5 12 6 13 7 6 8 5 9 4 10 3 11 2 12 1 13
REMARK H PARENT
REMARK Flexibility Score: inf
ROOT
ATOM      1  C   UNL     1      -7.395  -9.940   0.379  1.00  0.00     0.000 C 
ENDROOT
BRANCH   1   2
ATOM      2  C   UNL     1      -6.370 -10.565  -0.579  1.00  0.00     0.000 C 
BRANCH   2   3
ATOM      3  C   UNL     1      -5.300 -11.398   0.152  1.00  0.00     0.006 C 
BRANCH   3   4
ATOM      4  C   UNL     1      -5.335 -12.900  -0.172  1.00  0.00     0.053 C 
BRANCH   4   5
ATOM      5  C   UNL     1      -6.264 -13.649   0.733  1.00  0.00     0.041 C 
ATOM      6  O   UNL     1      -6.577 -13.172   1.855  1.00  0.00    -0.550 OA
ATOM      7  O   UNL     1      -6.756 -14.891   0.351  1.00  0.00    -0.550 OA
ENDBRANCH   4   5
ENDBRANCH   3   4
ENDBRANCH   2   3
ENDBRANCH   1   2
BRANCH   1   8
ATOM      8  C   UNL     1      -8.091  -8.735  -0.274  1.00  0.00     0.000 C 
BRANCH   8   9
ATOM      9  C   UNL     1      -7.308  -7.425  -0.088  1.00  0.00    -0.000 C 
BRANCH   9  10
ATOM     10  C   UNL     1      -7.864  -6.560   1.056  1.00  0.00    -0.000 C 
BRANCH  10  11
ATOM     11  C   UNL     1      -9.298  -6.949   1.447  1.00  0.00    -0.000 C 
BRANCH  11  12
ATOM     12  C   UNL     1     -10.347  -5.961   0.915  1.00  0.00    -0.003 C 
ATOM     13  C   UNL     1     -11.361  -6.666   0.019  1.00  0.00     0.004 C 
ENDBRANCH  11  12
ENDBRANCH  10  11
ENDBRANCH   9  10
ENDBRANCH   8   9
ENDBRANCH   1   8
TORSDOF 9
ENDMDL
MODEL 3
REMARK VINA RESULT:    -4.150      1.643      2.247
REMARK INTER + INTRA:          -6.569
REMARK INTER:                  -6.118
REMARK INTRA:                  -0.451
REMARK UNBOUND:                -0.235
REMARK SMILES CCCCCCCCCCC(=O)[O-]
REMARK SMILES IDX 7 1 8 2 9 3 10 4 11 5 12 6 13 7 6 8 5 9 4 10 3 11 2 12 1 13
REMARK H PARENT
REMARK Flexibility Score: inf
ROOT
ATOM      1  C   UNL     1      -7.226  -7.964  -0.243  1.00  0.00     0.000 C 
ENDROOT
BRANCH   1   2
ATOM      2  C   UNL     1      -8.386  -7.596   0.695  1.00  0.00     0.000 C 
BRANCH   2   3
ATOM      3  C   UNL     1      -9.761  -7.996   0.129  1.00  0.00     0.006 C 
BRANCH   3   4
ATOM      4  C   UNL     1     -10.805  -6.867   0.144  1.00  0.00     0.053 C 
BRANCH   4   5
ATOM      5  C   UNL     1     -10.794  -6.107   1.434  1.00  0.00     0.041 C 
ATOM      6  O   UNL     1     -10.339  -4.934   1.474  1.00  0.00    -0.550 OA
ATOM      7  O   UNL     1     -11.255  -6.706   2.599  1.00  0.00    -0.550 OA
ENDBRANCH   4   5
ENDBRANCH   3   4
ENDBRANCH   2   3
ENDBRANCH   1   2
BRANCH   1   8
ATOM      8  C   UNL     1      -6.435  -9.161   0.306  1.00  0.00     0.000 C 
BRANCH   8   9
ATOM      9  C   UNL     1      -6.769 -10.476  -0.418  1.00  0.00    -0.000 C 
BRANCH   9  10
ATOM     10  C   UNL     1      -5.656 -11.528  -0.275  1.00  0.00    -0.000 C 
BRANCH  10  11
ATOM     11  C   UNL     1      -6.118 -12.776   0.494  1.00  0.00    -0.000 C 
BRANCH  11  12
ATOM     12  C   UNL     1      -5.761 -12.716   1.987  1.00  0.00    -0.003 C 
ATOM     13  C   UNL     1      -6.945 -12.222   2.815  1.00  0.00     0.004 C 
ENDBRANCH  11  12
ENDBRANCH  10  11
ENDBRANCH   9  10
ENDBRANCH   8   9
ENDBRANCH   1   8
TORSDOF 9
ENDMDL
MODEL 4
REMARK VINA RESULT:    -4.108      2.005      3.114
REMARK INTER + INTRA:          -6.504
REMARK INTER:                  -5.905
REMARK INTRA:                  -0.599
REMARK UNBOUND:                -0.235
REMARK SMILES CCCCCCCCCCC(=O)[O-]
REMARK SMILES IDX 7 1 8 2 9 3 10 4 11 5 12 6 13 7 6 8 5 9 4 10 3 11 2 12 1 13
REMARK H PARENT
REMARK Flexibility Score: inf
ROOT
ATOM      1  C   UNL     1      -9.037  -8.564   0.145  1.00  0.00     0.000 C 
ENDROOT
BRANCH   1   2
ATOM      2  C   UNL     1     -10.148  -7.504   0.125  1.00  0.00     0.000 C 
BRANCH   2   3
ATOM      3  C   UNL     1     -10.395  -6.871   1.508  1.00  0.00     0.006 C 
BRANCH   3   4
ATOM      4  C   UNL     1      -9.951  -5.404   1.622  1.00  0.00     0.053 C 
BRANCH   4   5
ATOM      5  C   UNL     1      -8.617  -5.271   2.292  1.00  0.00     0.041 C 
ATOM      6  O   UNL     1      -8.101  -6.258   2.877  1.00  0.00    -0.550 OA
ATOM      7  O   UNL     1      -7.962  -4.046   2.298  1.00  0.00    -0.550 OA
ENDBRANCH   4   5
ENDBRANCH   3   4
ENDBRANCH   2   3
ENDBRANCH   1   2
BRANCH   1   8
ATOM      8  C   UNL     1      -7.688  -7.951  -0.265  1.00  0.00     0.000 C 
BRANCH   8   9
ATOM      9  C   UNL     1      -6.517  -8.469   0.586  1.00  0.00    -0.000 C 
BRANCH   9  10
ATOM     10  C   UNL     1      -6.588  -9.987   0.830  1.00  0.00    -0.000 C 
BRANCH  10  11
ATOM     11  C   UNL     1      -6.341 -10.802  -0.449  1.00  0.00    -0.000 C 
BRANCH  11  12
ATOM     12  C   UNL     1      -5.220 -11.839  -0.284  1.00  0.00    -0.003 C 
ATOM     13  C   UNL     1      -5.787 -13.200   0.115  1.00  0.00     0.004 C 
ENDBRANCH  11  12
ENDBRANCH  10  11
ENDBRANCH   9  10
ENDBRANCH   8   9
ENDBRANCH   1   8
TORSDOF 9
ENDMDL
MODEL 5
REMARK VINA RESULT:    -4.087      4.426      7.684
REMARK INTER + INTRA:          -6.472
REMARK INTER:                  -6.047
REMARK INTRA:                  -0.425
REMARK UNBOUND:                -0.235
REMARK SMILES CCCCCCCCCCC(=O)[O-]
REMARK SMILES IDX 7 1 8 2 9 3 10 4 11 5 12 6 13 7 6 8 5 9 4 10 3 11 2 12 1 13
REMARK H PARENT
REMARK Flexibility Score: inf
ROOT
ATOM      1  C   UNL     1      -6.575 -11.691   1.325  1.00  0.00     0.000 C 
ENDROOT
BRANCH   1   2
ATOM      2  C   UNL     1      -5.626 -12.122   0.197  1.00  0.00     0.000 C 
BRANCH   2   3
ATOM      3  C   UNL     1      -5.384 -13.643   0.168  1.00  0.00     0.006 C 
BRANCH   3   4
ATOM      4  C   UNL     1      -6.654 -14.491   0.353  1.00  0.00     0.053 C 
BRANCH   4   5
ATOM      5  C   UNL     1      -6.435 -15.635   1.294  1.00  0.00     0.041 C 
ATOM      6  O   UNL     1      -6.376 -15.431   2.535  1.00  0.00    -0.550 OA
ATOM      7  O   UNL     1      -6.262 -16.920   0.798  1.00  0.00    -0.550 OA
ENDBRANCH   4   5
ENDBRANCH   3   4
ENDBRANCH   2   3
ENDBRANCH   1   2
BRANCH   1   8
ATOM      8  C   UNL     1      -6.906 -10.194   1.220  1.00  0.00     0.000 C 
BRANCH   8   9
ATOM      9  C   UNL     1      -7.102  -9.730  -0.233  1.00  0.00    -0.000 C 
BRANCH   9  10
ATOM     10  C   UNL     1      -7.820  -8.373  -0.329  1.00  0.00    -0.000 C 
BRANCH  10  11
ATOM     11  C   UNL     1      -9.301  -8.460   0.074  1.00  0.00    -0.000 C 
BRANCH  11  12
ATOM     12  C   UNL     1      -9.842  -7.135   0.631  1.00  0.00    -0.003 C 
ATOM     13  C   UNL     1     -11.197  -6.794   0.017  1.00  0.00     0.004 C 
ENDBRANCH  11  12
ENDBRANCH  10  11
ENDBRANCH   9  10
ENDBRANCH   8   9
ENDBRANCH   1   8
TORSDOF 9
ENDMDL
MODEL 6
REMARK VINA RESULT:    -4.061      3.609      7.065
REMARK INTER + INTRA:          -6.433
REMARK INTER:                  -5.555
REMARK INTRA:                  -0.878
REMARK UNBOUND:                -0.235
REMARK SMILES CCCCCCCCCCC(=O)[O-]
REMARK SMILES IDX 7 1 8 2 9 3 10 4 11 5 12 6 13 7 6 8 5 9 4 10 3 11 2 12 1 13
REMARK H PARENT
REMARK Flexibility Score: inf
ROOT
ATOM      1  C   UNL     1      -9.529  -8.606   0.101  1.00  0.00     0.000 C 
ENDROOT
BRANCH   1   2
ATOM      2  C   UNL     1      -8.100  -8.650  -0.461  1.00  0.00     0.000 C 
BRANCH   2   3
ATOM      3  C   UNL     1      -7.162  -9.552   0.364  1.00  0.00     0.006 C 
BRANCH   3   4
ATOM      4  C   UNL     1      -6.671 -10.804  -0.381  1.00  0.00     0.053 C 
BRANCH   4   5
ATOM      5  C   UNL     1      -6.391 -11.941   0.553  1.00  0.00     0.041 C 
ATOM      6  O   UNL     1      -6.661 -11.835   1.778  1.00  0.00    -0.550 OA
ATOM      7  O   UNL     1      -5.800 -13.104   0.076  1.00  0.00    -0.550 OA
ENDBRANCH   4   5
ENDBRANCH   3   4
ENDBRANCH   2   3
ENDBRANCH   1   2
BRANCH   1   8
ATOM      8  C   UNL     1     -10.003  -7.155   0.279  1.00  0.00     0.000 C 
BRANCH   8   9
ATOM      9  C   UNL     1     -10.313  -6.807   1.745  1.00  0.00    -0.000 C 
BRANCH   9  10
ATOM     10  C   UNL     1      -9.373  -5.727   2.308  1.00  0.00    -0.000 C 
BRANCH  10  11
ATOM     11  C   UNL     1      -7.920  -6.213   2.428  1.00  0.00    -0.000 C 
BRANCH  11  12
ATOM     12  C   UNL     1      -6.911  -5.214   1.843  1.00  0.00    -0.003 C 
ATOM     13  C   UNL     1      -5.947  -5.906   0.883  1.00  0.00     0.004 C 
ENDBRANCH  11  12
ENDBRANCH  10  11
ENDBRANCH   9  10
ENDBRANCH   8   9
ENDBRANCH   1   8
TORSDOF 9
ENDMDL
MODEL 7
REMARK VINA RESULT:    -4.055     18.898     21.054
REMARK INTER + INTRA:          -6.424
REMARK INTER:                  -5.087
REMARK INTRA:                  -1.338
REMARK UNBOUND:                -0.235
REMARK SMILES CCCCCCCCCCC(=O)[O-]
REMARK SMILES IDX 7 1 8 2 9 3 10 4 11 5 12 6 13 7 6 8 5 9 4 10 3 11 2 12 1 13
REMARK H PARENT
REMARK Flexibility Score: inf
ROOT
ATOM      1  C   UNL     1     -20.913  -3.886 -12.904  1.00  0.00     0.000 C 
ENDROOT
BRANCH   1   2
ATOM      2  C   UNL     1     -19.913  -5.051 -12.941  1.00  0.00     0.000 C 
BRANCH   2   3
ATOM      3  C   UNL     1     -20.598  -6.429 -12.863  1.00  0.00     0.006 C 
BRANCH   3   4
ATOM      4  C   UNL     1     -19.897  -7.532 -13.672  1.00  0.00     0.053 C 
BRANCH   4   5
ATOM      5  C   UNL     1     -20.519  -8.876 -13.448  1.00  0.00     0.041 C 
ATOM      6  O   UNL     1     -20.287  -9.512 -12.387  1.00  0.00    -0.550 OA
ATOM      7  O   UNL     1     -21.327  -9.440 -14.427  1.00  0.00    -0.550 OA
ENDBRANCH   4   5
ENDBRANCH   3   4
ENDBRANCH   2   3
ENDBRANCH   1   2
BRANCH   1   8
ATOM      8  C   UNL     1     -22.335  -4.393 -12.619  1.00  0.00     0.000 C 
BRANCH   8   9
ATOM      9  C   UNL     1     -23.345  -3.969 -13.698  1.00  0.00    -0.000 C 
BRANCH   9  10
ATOM     10  C   UNL     1     -22.899  -4.368 -15.116  1.00  0.00    -0.000 C 
BRANCH  10  11
ATOM     11  C   UNL     1     -23.231  -5.830 -15.450  1.00  0.00    -0.000 C 
BRANCH  11  12
ATOM     12  C   UNL     1     -22.156  -6.499 -16.318  1.00  0.00    -0.003 C 
ATOM     13  C   UNL     1     -21.010  -5.534 -16.613  1.00  0.00     0.004 C 
ENDBRANCH  11  12
ENDBRANCH  10  11
ENDBRANCH   9  10
ENDBRANCH   8   9
ENDBRANCH   1   8
TORSDOF 9
ENDMDL
MODEL 8
REMARK VINA RESULT:    -4.013     18.690     20.498
REMARK INTER + INTRA:          -6.360
REMARK INTER:                  -5.314
REMARK INTRA:                  -1.046
REMARK UNBOUND:                -0.235
REMARK SMILES CCCCCCCCCCC(=O)[O-]
REMARK SMILES IDX 7 1 8 2 9 3 10 4 11 5 12 6 13 7 6 8 5 9 4 10 3 11 2 12 1 13
REMARK H PARENT
REMARK Flexibility Score: inf
ROOT
ATOM      1  C   UNL     1     -23.218  -6.230 -15.638  1.00  0.00     0.000 C 
ENDROOT
BRANCH   1   2
ATOM      2  C   UNL     1     -22.949  -4.768 -15.252  1.00  0.00     0.000 C 
BRANCH   2   3
ATOM      3  C   UNL     1     -23.717  -4.332 -13.990  1.00  0.00     0.006 C 
BRANCH   3   4
ATOM      4  C   UNL     1     -22.911  -4.447 -12.686  1.00  0.00     0.053 C 
BRANCH   4   5
ATOM      5  C   UNL     1     -22.080  -3.228 -12.429  1.00  0.00     0.041 C 
ATOM      6  O   UNL     1     -22.632  -2.109 -12.263  1.00  0.00    -0.550 OA
ATOM      7  O   UNL     1     -20.695  -3.322 -12.407  1.00  0.00    -0.550 OA
ENDBRANCH   4   5
ENDBRANCH   3   4
ENDBRANCH   2   3
ENDBRANCH   1   2
BRANCH   1   8
ATOM      8  C   UNL     1     -21.902  -6.978 -15.903  1.00  0.00     0.000 C 
BRANCH   8   9
ATOM      9  C   UNL     1     -20.662  -6.150 -15.528  1.00  0.00    -0.000 C 
BRANCH   9  10
ATOM     10  C   UNL     1     -19.771  -6.856 -14.491  1.00  0.00    -0.000 C 
BRANCH  10  11
ATOM     11  C   UNL     1     -20.362  -6.807 -13.073  1.00  0.00    -0.000 C 
BRANCH  11  12
ATOM     12  C   UNL     1     -20.713  -8.199 -12.529  1.00  0.00    -0.003 C 
ATOM     13  C   UNL     1     -20.122  -9.298 -13.409  1.00  0.00     0.004 C 
ENDBRANCH  11  12
ENDBRANCH  10  11
ENDBRANCH   9  10
ENDBRANCH   8   9
ENDBRANCH   1   8
TORSDOF 9
ENDMDL
MODEL 9
REMARK VINA RESULT:    -3.934     19.671     21.643
REMARK INTER + INTRA:          -6.239
REMARK INTER:                  -5.217
REMARK INTRA:                  -1.022
REMARK UNBOUND:                -0.235
REMARK SMILES CCCCCCCCCCC(=O)[O-]
REMARK SMILES IDX 7 1 8 2 9 3 10 4 11 5 12 6 13 7 6 8 5 9 4 10 3 11 2 12 1 13
REMARK H PARENT
REMARK Flexibility Score: inf
ROOT
ATOM      1  C   UNL     1     -21.646  -4.588 -15.438  1.00  0.00     0.000 C 
ENDROOT
BRANCH   1   2
ATOM      2  C   UNL     1     -22.236  -5.492 -16.531  1.00  0.00     0.000 C 
BRANCH   2   3
ATOM      3  C   UNL     1     -23.124  -6.616 -15.962  1.00  0.00     0.006 C 
BRANCH   3   4
ATOM      4  C   UNL     1     -22.586  -8.035 -16.209  1.00  0.00     0.053 C 
BRANCH   4   5
ATOM      5  C   UNL     1     -23.675  -8.992 -16.584  1.00  0.00     0.041 C 
ATOM      6  O   UNL     1     -24.882  -8.659 -16.457  1.00  0.00    -0.550 OA
ATOM      7  O   UNL     1     -23.356 -10.264 -17.041  1.00  0.00    -0.550 OA
ENDBRANCH   4   5
ENDBRANCH   3   4
ENDBRANCH   2   3
ENDBRANCH   1   2
BRANCH   1   8
ATOM      8  C   UNL     1     -22.501  -4.642 -14.163  1.00  0.00     0.000 C 
BRANCH   8   9
ATOM      9  C   UNL     1     -21.654  -4.718 -12.882  1.00  0.00    -0.000 C 
BRANCH   9  10
ATOM     10  C   UNL     1     -20.402  -5.595 -13.052  1.00  0.00    -0.000 C 
BRANCH  10  11
ATOM     11  C   UNL     1     -20.679  -7.081 -12.775  1.00  0.00    -0.000 C 
BRANCH  11  12
ATOM     12  C   UNL     1     -19.923  -8.013 -13.733  1.00  0.00    -0.003 C 
ATOM     13  C   UNL     1     -20.265  -9.476 -13.459  1.00  0.00     0.004 C 
ENDBRANCH  11  12
ENDBRANCH  10  11
ENDBRANCH   9  10
ENDBRANCH   8   9
ENDBRANCH   1   8
TORSDOF 9
ENDMDL
