MODEL 1
REMARK VINA RESULT:    -2.701      0.000      0.000
REMARK INTER + INTRA:          -4.401
REMARK INTER:                  -3.806
REMARK INTRA:                  -0.595
REMARK UNBOUND:                -0.595
REMARK SMILES CCCCCCCCC=O
REMARK SMILES IDX 5 1 4 2 3 3 2 4 1 5 6 6 7 7 8 8 9 9 10 10
REMARK H PARENT
REMARK Flexibility Score: inf
ROOT
ATOM      1  C   UNL     1     115.355 119.216 119.922  1.00  0.00     0.000 C 
ENDROOT
BRANCH   1   2
ATOM      2  C   UNL     1     114.760 118.045 120.712  1.00  0.00    -0.000 C 
BRANCH   2   3
ATOM      3  C   UNL     1     114.366 116.892 119.776  1.00  0.00    -0.000 C 
BRANCH   3   4
ATOM      4  C   UNL     1     114.656 115.512 120.385  1.00  0.00    -0.003 C 
ATOM      5  C   UNL     1     115.921 114.867 119.816  1.00  0.00     0.004 C 
ENDBRANCH   3   4
ENDBRANCH   2   3
ENDBRANCH   1   2
BRANCH   1   6
ATOM      6  C   UNL     1     116.752 118.867 119.388  1.00  0.00     0.000 C 
BRANCH   6   7
ATOM      7  C   UNL     1     117.713 118.397 120.498  1.00  0.00     0.008 C 
BRANCH   7   8
ATOM      8  C   UNL     1     118.796 117.420 120.014  1.00  0.00     0.072 C 
BRANCH   8   9
ATOM      9  C   UNL     1     119.922 118.114 119.302  1.00  0.00     0.224 C 
ATOM     10  O   UNL     1     120.976 118.311 119.882  1.00  0.00    -0.303 OA
ENDBRANCH   8   9
ENDBRANCH   7   8
ENDBRANCH   6   7
ENDBRANCH   1   6
TORSDOF 7
ENDMDL
MODEL 2
REMARK VINA RESULT:    -2.688      2.096      2.792
REMARK INTER + INTRA:          -4.383
REMARK INTER:                  -3.660
REMARK INTRA:                  -0.723
REMARK UNBOUND:                -0.595
REMARK SMILES CCCCCCCCC=O
REMARK SMILES IDX 5 1 4 2 3 3 2 4 1 5 6 6 7 7 8 8 9 9 10 10
REMARK H PARENT
REMARK Flexibility Score: inf
ROOT
ATOM      1  C   UNL     1     117.282 118.834 119.480  1.00  0.00     0.000 C 
ENDROOT
BRANCH   1   2
ATOM      2  C   UNL     1     115.823 119.214 119.757  1.00  0.00    -0.000 C 
BRANCH   2   3
ATOM      3  C   UNL     1     115.062 118.047 120.403  1.00  0.00    -0.000 C 
BRANCH   3   4
ATOM      4  C   UNL     1     114.449 117.094 119.366  1.00  0.00    -0.003 C 
ATOM      5  C   UNL     1     114.300 115.665 119.889  1.00  0.00     0.004 C 
ENDBRANCH   3   4
ENDBRANCH   2   3
ENDBRANCH   1   2
BRANCH   1   6
ATOM      6  C   UNL     1     117.845 117.955 120.607  1.00  0.00     0.000 C 
BRANCH   6   7
ATOM      7  C   UNL     1     118.503 116.664 120.083  1.00  0.00     0.008 C 
BRANCH   7   8
ATOM      8  C   UNL     1     117.995 115.384 120.766  1.00  0.00     0.072 C 
BRANCH   8   9
ATOM      9  C   UNL     1     117.377 115.653 122.108  1.00  0.00     0.224 C 
ATOM     10  O   UNL     1     117.972 115.340 123.125  1.00  0.00    -0.303 OA
ENDBRANCH   8   9
ENDBRANCH   7   8
ENDBRANCH   6   7
ENDBRANCH   1   6
TORSDOF 7
ENDMDL
MODEL 3
REMARK VINA RESULT:    -2.685      2.405      4.654
REMARK INTER + INTRA:          -4.379
REMARK INTER:                  -3.572
REMARK INTRA:                  -0.807
REMARK UNBOUND:                -0.595
REMARK SMILES CCCCCCCCC=O
REMARK SMILES IDX 5 1 4 2 3 3 2 4 1 5 6 6 7 7 8 8 9 9 10 10
REMARK H PARENT
REMARK Flexibility Score: inf
ROOT
ATOM      1  C   UNL     1     118.394 115.818 119.325  1.00  0.00     0.000 C 
ENDROOT
BRANCH   1   2
ATOM      2  C   UNL     1     119.062 117.121 119.778  1.00  0.00    -0.000 C 
BRANCH   2   3
ATOM      3  C   UNL     1     118.089 117.982 120.597  1.00  0.00    -0.000 C 
BRANCH   3   4
ATOM      4  C   UNL     1     117.144 118.810 119.713  1.00  0.00    -0.003 C 
ATOM      5  C   UNL     1     115.673 118.631 120.089  1.00  0.00     0.004 C 
ENDBRANCH   3   4
ENDBRANCH   2   3
ENDBRANCH   1   2
BRANCH   1   6
ATOM      6  C   UNL     1     117.692 115.121 120.501  1.00  0.00     0.000 C 
BRANCH   6   7
ATOM      7  C   UNL     1     116.254 114.684 120.160  1.00  0.00     0.008 C 
BRANCH   7   8
ATOM      8  C   UNL     1     115.207 115.118 121.199  1.00  0.00     0.072 C 
BRANCH   8   9
ATOM      9  C   UNL     1     115.829 115.557 122.494  1.00  0.00     0.224 C 
ATOM     10  O   UNL     1     115.503 116.620 122.994  1.00  0.00    -0.303 OA
ENDBRANCH   8   9
ENDBRANCH   7   8
ENDBRANCH   6   7
ENDBRANCH   1   6
TORSDOF 7
ENDMDL
MODEL 4
REMARK VINA RESULT:    -2.676      2.109      3.548
REMARK INTER + INTRA:          -4.366
REMARK INTER:                  -3.500
REMARK INTRA:                  -0.866
REMARK UNBOUND:                -0.595
REMARK SMILES CCCCCCCCC=O
REMARK SMILES IDX 5 1 4 2 3 3 2 4 1 5 6 6 7 7 8 8 9 9 10 10
REMARK H PARENT
REMARK Flexibility Score: inf
ROOT
ATOM      1  C   UNL     1     118.496 114.345 118.857  1.00  0.00     0.000 C 
ENDROOT
BRANCH   1   2
ATOM      2  C   UNL     1     117.294 113.777 119.621  1.00  0.00    -0.000 C 
BRANCH   2   3
ATOM      3  C   UNL     1     115.983 114.416 119.139  1.00  0.00    -0.000 C 
BRANCH   3   4
ATOM      4  C   UNL     1     115.080 114.859 120.300  1.00  0.00    -0.003 C 
ATOM      5  C   UNL     1     114.510 116.265 120.104  1.00  0.00     0.004 C 
ENDBRANCH   3   4
ENDBRANCH   2   3
ENDBRANCH   1   2
BRANCH   1   6
ATOM      6  C   UNL     1     118.351 115.860 118.650  1.00  0.00     0.000 C 
BRANCH   6   7
ATOM      7  C   UNL     1     118.952 116.679 119.808  1.00  0.00     0.008 C 
BRANCH   7   8
ATOM      8  C   UNL     1     117.962 117.657 120.462  1.00  0.00     0.072 C 
BRANCH   8   9
ATOM      9  C   UNL     1     117.663 117.304 121.891  1.00  0.00     0.224 C 
ATOM     10  O   UNL     1     117.696 116.139 122.248  1.00  0.00    -0.303 OA
ENDBRANCH   8   9
ENDBRANCH   7   8
ENDBRANCH   6   7
ENDBRANCH   1   6
TORSDOF 7
ENDMDL
MODEL 5
REMARK VINA RESULT:    -2.664      1.979      2.221
REMARK INTER + INTRA:          -4.349
REMARK INTER:                  -3.594
REMARK INTRA:                  -0.755
REMARK UNBOUND:                -0.595
REMARK SMILES CCCCCCCCC=O
REMARK SMILES IDX 5 1 4 2 3 3 2 4 1 5 6 6 7 7 8 8 9 9 10 10
REMARK H PARENT
REMARK Flexibility Score: inf
ROOT
ATOM      1  C   UNL     1     115.213 118.327 119.064  1.00  0.00     0.000 C 
ENDROOT
BRANCH   1   2
ATOM      2  C   UNL     1     114.467 117.604 120.191  1.00  0.00    -0.000 C 
BRANCH   2   3
ATOM      3  C   UNL     1     114.162 116.149 119.804  1.00  0.00    -0.000 C 
BRANCH   3   4
ATOM      4  C   UNL     1     114.927 115.136 120.670  1.00  0.00    -0.003 C 
ATOM      5  C   UNL     1     116.169 114.580 119.973  1.00  0.00     0.004 C 
ENDBRANCH   3   4
ENDBRANCH   2   3
ENDBRANCH   1   2
BRANCH   1   6
ATOM      6  C   UNL     1     116.436 119.081 119.609  1.00  0.00     0.000 C 
BRANCH   6   7
ATOM      7  C   UNL     1     117.645 118.157 119.852  1.00  0.00     0.008 C 
BRANCH   7   8
ATOM      8  C   UNL     1     118.233 118.257 121.269  1.00  0.00     0.072 C 
BRANCH   8   9
ATOM      9  C   UNL     1     117.585 117.302 122.230  1.00  0.00     0.224 C 
ATOM     10  O   UNL     1     116.702 117.694 122.973  1.00  0.00    -0.303 OA
ENDBRANCH   8   9
ENDBRANCH   7   8
ENDBRANCH   6   7
ENDBRANCH   1   6
TORSDOF 7
ENDMDL
MODEL 6
REMARK VINA RESULT:    -2.660      2.663      4.349
REMARK INTER + INTRA:          -4.344
REMARK INTER:                  -3.669
REMARK INTRA:                  -0.675
REMARK UNBOUND:                -0.595
REMARK SMILES CCCCCCCCC=O
REMARK SMILES IDX 5 1 4 2 3 3 2 4 1 5 6 6 7 7 8 8 9 9 10 10
REMARK H PARENT
REMARK Flexibility Score: inf
ROOT
ATOM      1  C   UNL     1     114.846 117.326 119.001  1.00  0.00     0.000 C 
ENDROOT
BRANCH   1   2
ATOM      2  C   UNL     1     114.930 118.645 119.777  1.00  0.00    -0.000 C 
BRANCH   2   3
ATOM      3  C   UNL     1     116.297 119.316 119.578  1.00  0.00    -0.000 C 
BRANCH   3   4
ATOM      4  C   UNL     1     117.460 118.315 119.641  1.00  0.00    -0.003 C 
ATOM      5  C   UNL     1     118.147 118.290 121.007  1.00  0.00     0.004 C 
ENDBRANCH   3   4
ENDBRANCH   2   3
ENDBRANCH   1   2
BRANCH   1   6
ATOM      6  C   UNL     1     114.033 116.279 119.779  1.00  0.00     0.000 C 
BRANCH   6   7
ATOM      7  C   UNL     1     114.840 115.000 120.076  1.00  0.00     0.008 C 
BRANCH   7   8
ATOM      8  C   UNL     1     116.038 115.222 121.013  1.00  0.00     0.072 C 
BRANCH   8   9
ATOM      9  C   UNL     1     115.624 115.704 122.374  1.00  0.00     0.224 C 
ATOM     10  O   UNL     1     114.924 114.999 123.081  1.00  0.00    -0.303 OA
ENDBRANCH   8   9
ENDBRANCH   7   8
ENDBRANCH   6   7
ENDBRANCH   1   6
TORSDOF 7
ENDMDL
MODEL 7
REMARK VINA RESULT:    -2.655      1.947      2.892
REMARK INTER + INTRA:          -4.336
REMARK INTER:                  -3.503
REMARK INTRA:                  -0.833
REMARK UNBOUND:                -0.595
REMARK SMILES CCCCCCCCC=O
REMARK SMILES IDX 5 1 4 2 3 3 2 4 1 5 6 6 7 7 8 8 9 9 10 10
REMARK H PARENT
REMARK Flexibility Score: inf
ROOT
ATOM      1  C   UNL     1     115.496 117.740 122.837  1.00  0.00     0.000 C 
ENDROOT
BRANCH   1   2
ATOM      2  C   UNL     1     114.701 118.514 121.780  1.00  0.00    -0.000 C 
BRANCH   2   3
ATOM      3  C   UNL     1     114.649 117.740 120.454  1.00  0.00    -0.000 C 
BRANCH   3   4
ATOM      4  C   UNL     1     114.927 118.635 119.237  1.00  0.00    -0.003 C 
ATOM      5  C   UNL     1     115.182 120.093 119.619  1.00  0.00     0.004 C 
ENDBRANCH   3   4
ENDBRANCH   2   3
ENDBRANCH   1   2
BRANCH   1   6
ATOM      6  C   UNL     1     116.715 117.046 122.211  1.00  0.00     0.000 C 
BRANCH   6   7
ATOM      7  C   UNL     1     117.942 117.973 122.112  1.00  0.00     0.008 C 
BRANCH   7   8
ATOM      8  C   UNL     1     118.435 118.204 120.674  1.00  0.00     0.072 C 
BRANCH   8   9
ATOM      9  C   UNL     1     118.456 116.941 119.862  1.00  0.00     0.224 C 
ATOM     10  O   UNL     1     117.991 116.935 118.735  1.00  0.00    -0.303 OA
ENDBRANCH   8   9
ENDBRANCH   7   8
ENDBRANCH   6   7
ENDBRANCH   1   6
TORSDOF 7
ENDMDL
MODEL 8
REMARK VINA RESULT:    -2.653      1.811      3.636
REMARK INTER + INTRA:          -4.335
REMARK INTER:                  -3.623
REMARK INTRA:                  -0.711
REMARK UNBOUND:                -0.595
REMARK SMILES CCCCCCCCC=O
REMARK SMILES IDX 5 1 4 2 3 3 2 4 1 5 6 6 7 7 8 8 9 9 10 10
REMARK H PARENT
REMARK Flexibility Score: inf
ROOT
ATOM      1  C   UNL     1     114.696 117.101 120.153  1.00  0.00     0.000 C 
ENDROOT
BRANCH   1   2
ATOM      2  C   UNL     1     115.312 118.386 120.718  1.00  0.00    -0.000 C 
BRANCH   2   3
ATOM      3  C   UNL     1     116.184 119.088 119.665  1.00  0.00    -0.000 C 
BRANCH   3   4
ATOM      4  C   UNL     1     117.638 118.594 119.680  1.00  0.00    -0.003 C 
ATOM      5  C   UNL     1     118.134 118.254 121.086  1.00  0.00     0.004 C 
ENDBRANCH   3   4
ENDBRANCH   2   3
ENDBRANCH   1   2
BRANCH   1   6
ATOM      6  C   UNL     1     115.147 115.874 120.960  1.00  0.00     0.000 C 
BRANCH   6   7
ATOM      7  C   UNL     1     115.648 114.724 120.065  1.00  0.00     0.008 C 
BRANCH   7   8
ATOM      8  C   UNL     1     117.026 114.980 119.434  1.00  0.00     0.072 C 
BRANCH   8   9
ATOM      9  C   UNL     1     118.130 114.252 120.147  1.00  0.00     0.224 C 
ATOM     10  O   UNL     1     118.493 114.628 121.249  1.00  0.00    -0.303 OA
ENDBRANCH   8   9
ENDBRANCH   7   8
ENDBRANCH   6   7
ENDBRANCH   1   6
TORSDOF 7
ENDMDL
MODEL 9
REMARK VINA RESULT:    -2.653      2.423      3.848
REMARK INTER + INTRA:          -4.335
REMARK INTER:                  -3.512
REMARK INTRA:                  -0.823
REMARK UNBOUND:                -0.595
REMARK SMILES CCCCCCCCC=O
REMARK SMILES IDX 5 1 4 2 3 3 2 4 1 5 6 6 7 7 8 8 9 9 10 10
REMARK H PARENT
REMARK Flexibility Score: inf
ROOT
ATOM      1  C   UNL     1     119.135 117.047 119.786  1.00  0.00     0.000 C 
ENDROOT
BRANCH   1   2
ATOM      2  C   UNL     1     118.415 115.871 119.115  1.00  0.00    -0.000 C 
BRANCH   2   3
ATOM      3  C   UNL     1     118.007 114.812 120.149  1.00  0.00    -0.000 C 
BRANCH   3   4
ATOM      4  C   UNL     1     116.511 114.470 120.085  1.00  0.00    -0.003 C 
ATOM      5  C   UNL     1     115.870 114.862 118.753  1.00  0.00     0.004 C 
ENDBRANCH   3   4
ENDBRANCH   2   3
ENDBRANCH   1   2
BRANCH   1   6
ATOM      6  C   UNL     1     118.200 117.781 120.760  1.00  0.00     0.000 C 
BRANCH   6   7
ATOM      7  C   UNL     1     117.018 118.466 120.047  1.00  0.00     0.008 C 
BRANCH   7   8
ATOM      8  C   UNL     1     115.653 118.194 120.700  1.00  0.00     0.072 C 
BRANCH   8   9
ATOM      9  C   UNL     1     115.780 117.567 122.059  1.00  0.00     0.224 C 
ATOM     10  O   UNL     1     115.208 118.066 123.013  1.00  0.00    -0.303 OA
ENDBRANCH   8   9
ENDBRANCH   7   8
ENDBRANCH   6   7
ENDBRANCH   1   6
TORSDOF 7
ENDMDL
