MODEL 1
REMARK VINA RESULT:    -4.002      0.000      0.000
REMARK INTER + INTRA:          -6.340
REMARK INTER:                  -6.108
REMARK INTRA:                  -0.232
REMARK UNBOUND:                -0.232
REMARK SMILES CC1=CCC[C@H](C)C(=O)C[C@@H](C(C)C)C(=O)C1
REMARK SMILES IDX 8 1 9 2 6 3 7 4 5 5 4 6 3 7 2 8 1 9 10 11 11 12 15 13 16 14
REMARK SMILES IDX 17 15 12 17 13 18 14 19
REMARK H PARENT
REMARK Flexibility Score: 70.00
ROOT
ATOM      1  C   UNL     1     -15.335  14.390 -31.845  1.00  0.00     0.136 C 
ATOM      2  O   UNL     1     -15.244  14.224 -33.054  1.00  0.00    -0.299 OA
ENDROOT
BRANCH   1   3
ATOM      3  C   UNL     1     -16.435  13.680 -31.079  1.00  0.00     0.053 C 
ATOM      4  C   UNL     1     -17.384  12.964 -32.049  1.00  0.00     0.016 C 
BRANCH   3   5
ATOM      5  C   UNL     1     -15.829  12.683 -30.063  1.00  0.00     0.015 C 
BRANCH   5   6
ATOM      6  C   UNL     1     -15.961  13.196 -28.616  1.00  0.00     0.028 C 
BRANCH   6   7
ATOM      7  C   UNL     1     -14.745  12.912 -27.768  1.00  0.00    -0.028 C 
ATOM      8  C   UNL     1     -13.667  13.727 -27.639  1.00  0.00    -0.070 CG0
ATOM      9  C   UNL     1     -12.565  13.335 -26.686  1.00  0.00     0.039 C 
ATOM     10  G   UNL     1     -13.438  14.967 -28.491  1.00  0.00     0.000 G0
ENDBRANCH   6   7
ENDBRANCH   5   6
ENDBRANCH   3   5
ENDBRANCH   1   3
BRANCH   1  11
ATOM     11  C   UNL     1     -14.361  15.322 -31.160  1.00  0.00     0.087 C 
BRANCH  11  12
ATOM     12  C   UNL     1     -12.943  14.699 -31.046  1.00  0.00     0.066 C 
BRANCH  12  13
ATOM     13  C   UNL     1     -12.451  14.824 -29.611  1.00  0.00     0.140 C 
ATOM     14  O   UNL     1     -11.254  14.748 -29.366  1.00  0.00    -0.299 OA
BRANCH  13  15
ATOM     15  C   UNL     1     -13.439  14.993 -28.483  1.00  0.00     0.106 CG0
ATOM     16  G   UNL     1     -13.668  13.731 -27.664  1.00  0.00     0.000 G0
ENDBRANCH  13  15
ENDBRANCH  12  13
BRANCH  12  17
ATOM     17  C   UNL     1     -11.915  15.316 -32.052  1.00  0.00    -0.006 C 
ATOM     18  C   UNL     1     -12.468  16.563 -32.768  1.00  0.00     0.008 C 
ATOM     19  C   UNL     1     -11.497  14.284 -33.117  1.00  0.00     0.008 C 
ENDBRANCH  12  17
ENDBRANCH  11  12
ENDBRANCH   1  11
TORSDOF 1
ENDMDL
MODEL 2
REMARK VINA RESULT:    -3.497      1.441      1.566
REMARK INTER + INTRA:          -5.569
REMARK INTER:                  -5.572
REMARK INTRA:                   0.002
REMARK UNBOUND:                -0.232
REMARK SMILES CC1=CCC[C@H](C)C(=O)C[C@@H](C(C)C)C(=O)C1
REMARK SMILES IDX 8 1 9 2 6 3 7 4 5 5 4 6 3 7 2 8 1 9 10 11 11 12 15 13 16 14
REMARK SMILES IDX 17 15 12 17 13 18 14 19
REMARK H PARENT
REMARK Flexibility Score: 70.00
ROOT
ATOM      1  C   UNL     1     -15.734  14.846 -29.940  1.00  0.00     0.136 C 
ATOM      2  O   UNL     1     -16.444  15.193 -29.006  1.00  0.00    -0.299 OA
ENDROOT
BRANCH   1   3
ATOM      3  C   UNL     1     -16.139  13.648 -30.777  1.00  0.00     0.053 C 
ATOM      4  C   UNL     1     -15.927  13.944 -32.268  1.00  0.00     0.016 C 
BRANCH   3   5
ATOM      5  C   UNL     1     -15.345  12.393 -30.346  1.00  0.00     0.015 C 
BRANCH   5   6
ATOM      6  C   UNL     1     -15.507  12.108 -28.839  1.00  0.00     0.028 C 
BRANCH   6   7
ATOM      7  C   UNL     1     -14.218  11.709 -28.163  1.00  0.00    -0.028 C 
ATOM      8  C   UNL     1     -13.375  12.553 -27.515  1.00  0.00    -0.070 CG0
ATOM      9  C   UNL     1     -12.164  11.982 -26.820  1.00  0.00     0.039 C 
ATOM     10  G   UNL     1     -13.509  14.068 -27.543  1.00  0.00     0.000 G0
ENDBRANCH   6   7
ENDBRANCH   5   6
ENDBRANCH   3   5
ENDBRANCH   1   3
BRANCH   1  11
ATOM     11  C   UNL     1     -14.458  15.611 -30.211  1.00  0.00     0.087 C 
BRANCH  11  12
ATOM     12  C   UNL     1     -13.199  14.713 -30.069  1.00  0.00     0.066 C 
BRANCH  12  13
ATOM     13  C   UNL     1     -12.709  14.756 -28.628  1.00  0.00     0.140 C 
ATOM     14  O   UNL     1     -11.652  15.311 -28.358  1.00  0.00    -0.299 OA
BRANCH  13  15
ATOM     15  C   UNL     1     -13.500  14.074 -27.538  1.00  0.00     0.106 CG0
ATOM     16  G   UNL     1     -13.363  12.559 -27.528  1.00  0.00     0.000 G0
ENDBRANCH  13  15
ENDBRANCH  12  13
BRANCH  12  17
ATOM     17  C   UNL     1     -12.055  15.091 -31.067  1.00  0.00    -0.006 C 
ATOM     18  C   UNL     1     -12.537  16.031 -32.187  1.00  0.00     0.008 C 
ATOM     19  C   UNL     1     -11.445  13.831 -31.711  1.00  0.00     0.008 C 
ENDBRANCH  12  17
ENDBRANCH  11  12
ENDBRANCH   1  11
TORSDOF 1
ENDMDL
MODEL 3
REMARK VINA RESULT:    -3.474     11.175     12.814
REMARK INTER + INTRA:          -5.535
REMARK INTER:                  -6.274
REMARK INTRA:                   0.740
REMARK UNBOUND:                -0.232
REMARK SMILES CC1=CCC[C@H](C)C(=O)C[C@@H](C(C)C)C(=O)C1
REMARK SMILES IDX 8 1 9 2 6 3 7 4 5 5 4 6 3 7 2 8 1 9 10 11 11 12 15 13 16 14
REMARK SMILES IDX 17 15 12 17 13 18 14 19
REMARK H PARENT
REMARK Flexibility Score: 70.00
ROOT
ATOM      1  C   UNL     1     -25.993  20.443 -33.518  1.00  0.00     0.136 C 
ATOM      2  O   UNL     1     -25.372  20.116 -34.520  1.00  0.00    -0.299 OA
ENDROOT
BRANCH   1   3
ATOM      3  C   UNL     1     -27.497  20.245 -33.478  1.00  0.00     0.053 C 
ATOM      4  C   UNL     1     -28.126  20.681 -34.808  1.00  0.00     0.016 C 
BRANCH   3   5
ATOM      5  C   UNL     1     -27.840  18.771 -33.162  1.00  0.00     0.015 C 
BRANCH   5   6
ATOM      6  C   UNL     1     -27.723  18.471 -31.654  1.00  0.00     0.028 C 
BRANCH   6   7
ATOM      7  C   UNL     1     -26.837  17.288 -31.347  1.00  0.00    -0.028 C 
ATOM      8  C   UNL     1     -25.591  17.355 -30.814  1.00  0.00    -0.070 CG0
ATOM      9  C   UNL     1     -24.866  16.072 -30.490  1.00  0.00     0.039 C 
ATOM     10  G   UNL     1     -24.819  18.653 -30.628  1.00  0.00     0.000 G0
ENDBRANCH   6   7
ENDBRANCH   5   6
ENDBRANCH   3   5
ENDBRANCH   1   3
BRANCH   1  11
ATOM     11  C   UNL     1     -25.240  21.058 -32.359  1.00  0.00     0.087 C 
BRANCH  11  12
ATOM     12  C   UNL     1     -23.807  20.476 -32.222  1.00  0.00     0.066 C 
BRANCH  12  13
ATOM     13  C   UNL     1     -23.894  19.029 -31.755  1.00  0.00     0.140 C 
ATOM     14  O   UNL     1     -23.248  18.162 -32.329  1.00  0.00    -0.299 OA
BRANCH  13  15
ATOM     15  C   UNL     1     -24.810  18.654 -30.617  1.00  0.00     0.106 CG0
ATOM     16  G   UNL     1     -25.582  17.362 -30.842  1.00  0.00     0.000 G0
ENDBRANCH  13  15
ENDBRANCH  12  13
BRANCH  12  17
ATOM     17  C   UNL     1     -22.886  21.319 -31.280  1.00  0.00    -0.006 C 
ATOM     18  C   UNL     1     -22.833  20.755 -29.848  1.00  0.00     0.008 C 
ATOM     19  C   UNL     1     -23.358  22.785 -31.213  1.00  0.00     0.008 C 
ENDBRANCH  12  17
ENDBRANCH  11  12
ENDBRANCH   1  11
TORSDOF 1
ENDMDL
MODEL 4
REMARK VINA RESULT:    -3.451      2.014      5.252
REMARK INTER + INTRA:          -5.499
REMARK INTER:                  -5.461
REMARK INTRA:                  -0.038
REMARK UNBOUND:                -0.232
REMARK SMILES CC1=CCC[C@H](C)C(=O)C[C@@H](C(C)C)C(=O)C1
REMARK SMILES IDX 8 1 9 2 6 3 7 4 5 5 4 6 3 7 2 8 1 9 10 11 11 12 15 13 16 14
REMARK SMILES IDX 17 15 12 17 13 18 14 19
REMARK H PARENT
REMARK Flexibility Score: 70.00
ROOT
ATOM      1  C   UNL     1     -13.264  14.268 -27.337  1.00  0.00     0.136 C 
ATOM      2  O   UNL     1     -13.059  15.451 -27.571  1.00  0.00    -0.299 OA
ENDROOT
BRANCH   1   3
ATOM      3  C   UNL     1     -12.096  13.299 -27.330  1.00  0.00     0.053 C 
ATOM      4  C   UNL     1     -12.591  11.872 -27.061  1.00  0.00     0.016 C 
BRANCH   3   5
ATOM      5  C   UNL     1     -11.325  13.372 -28.669  1.00  0.00     0.015 C 
BRANCH   5   6
ATOM      6  C   UNL     1     -12.249  13.100 -29.872  1.00  0.00     0.028 C 
BRANCH   6   7
ATOM      7  C   UNL     1     -12.509  14.324 -30.716  1.00  0.00    -0.028 C 
ATOM      8  C   UNL     1     -13.734  14.807 -31.045  1.00  0.00    -0.070 CG0
ATOM      9  C   UNL     1     -13.823  16.092 -31.832  1.00  0.00     0.039 C 
ATOM     10  G   UNL     1     -15.036  14.069 -30.772  1.00  0.00     0.000 G0
ENDBRANCH   6   7
ENDBRANCH   5   6
ENDBRANCH   3   5
ENDBRANCH   1   3
BRANCH   1  11
ATOM     11  C   UNL     1     -14.682  13.808 -27.088  1.00  0.00     0.087 C 
BRANCH  11  12
ATOM     12  C   UNL     1     -15.309  13.149 -28.347  1.00  0.00     0.066 C 
BRANCH  12  13
ATOM     13  C   UNL     1     -15.598  14.222 -29.386  1.00  0.00     0.140 C 
ATOM     14  O   UNL     1     -16.294  15.186 -29.093  1.00  0.00    -0.299 OA
BRANCH  13  15
ATOM     15  C   UNL     1     -15.069  14.078 -30.792  1.00  0.00     0.106 CG0
ATOM     16  G   UNL     1     -13.752  14.801 -31.036  1.00  0.00     0.000 G0
ENDBRANCH  13  15
ENDBRANCH  12  13
BRANCH  12  17
ATOM     17  C   UNL     1     -16.591  12.309 -28.030  1.00  0.00    -0.006 C 
ATOM     18  C   UNL     1     -16.454  11.493 -26.730  1.00  0.00     0.008 C 
ATOM     19  C   UNL     1     -16.917  11.341 -29.185  1.00  0.00     0.008 C 
ENDBRANCH  12  17
ENDBRANCH  11  12
ENDBRANCH   1  11
TORSDOF 1
ENDMDL
MODEL 5
REMARK VINA RESULT:    -3.357      2.250      4.441
REMARK INTER + INTRA:          -5.355
REMARK INTER:                  -5.404
REMARK INTRA:                   0.049
REMARK UNBOUND:                -0.232
REMARK SMILES CC1=CCC[C@H](C)C(=O)C[C@@H](C(C)C)C(=O)C1
REMARK SMILES IDX 8 1 9 2 6 3 7 4 5 5 4 6 3 7 2 8 1 9 10 11 11 12 15 13 16 14
REMARK SMILES IDX 17 15 12 17 13 18 14 19
REMARK H PARENT
REMARK Flexibility Score: 70.00
ROOT
ATOM      1  C   UNL     1     -17.080  12.623 -28.729  1.00  0.00     0.136 C 
ATOM      2  O   UNL     1     -17.578  13.199 -27.771  1.00  0.00    -0.299 OA
ENDROOT
BRANCH   1   3
ATOM      3  C   UNL     1     -17.903  12.427 -29.988  1.00  0.00     0.053 C 
ATOM      4  C   UNL     1     -19.395  12.332 -29.640  1.00  0.00     0.016 C 
BRANCH   3   5
ATOM      5  C   UNL     1     -17.642  13.577 -30.989  1.00  0.00     0.015 C 
BRANCH   5   6
ATOM      6  C   UNL     1     -16.526  13.216 -31.990  1.00  0.00     0.028 C 
BRANCH   6   7
ATOM      7  C   UNL     1     -15.578  14.357 -32.266  1.00  0.00    -0.028 C 
ATOM      8  C   UNL     1     -14.367  14.534 -31.680  1.00  0.00    -0.070 CG0
ATOM      9  C   UNL     1     -13.502  15.687 -32.127  1.00  0.00     0.039 C 
ATOM     10  G   UNL     1     -13.867  13.707 -30.506  1.00  0.00     0.000 G0
ENDBRANCH   6   7
ENDBRANCH   5   6
ENDBRANCH   3   5
ENDBRANCH   1   3
BRANCH   1  11
ATOM     11  C   UNL     1     -15.665  12.102 -28.614  1.00  0.00     0.087 C 
BRANCH  11  12
ATOM     12  C   UNL     1     -14.692  13.179 -28.060  1.00  0.00     0.066 C 
BRANCH  12  13
ATOM     13  C   UNL     1     -14.384  14.190 -29.155  1.00  0.00     0.140 C 
ATOM     14  O   UNL     1     -14.600  15.380 -28.967  1.00  0.00    -0.299 OA
BRANCH  13  15
ATOM     15  C   UNL     1     -13.857  13.724 -30.490  1.00  0.00     0.106 CG0
ATOM     16  G   UNL     1     -14.370  14.529 -31.675  1.00  0.00     0.000 G0
ENDBRANCH  13  15
ENDBRANCH  12  13
BRANCH  12  17
ATOM     17  C   UNL     1     -13.378  12.575 -27.462  1.00  0.00    -0.006 C 
ATOM     18  C   UNL     1     -13.655  11.565 -26.332  1.00  0.00     0.008 C 
ATOM     19  C   UNL     1     -12.459  13.684 -26.914  1.00  0.00     0.008 C 
ENDBRANCH  12  17
ENDBRANCH  11  12
ENDBRANCH   1  11
TORSDOF 1
ENDMDL
MODEL 6
REMARK VINA RESULT:    -3.321     11.134     13.637
REMARK INTER + INTRA:          -5.301
REMARK INTER:                  -5.559
REMARK INTRA:                   0.258
REMARK UNBOUND:                -0.232
REMARK SMILES CC1=CCC[C@H](C)C(=O)C[C@@H](C(C)C)C(=O)C1
REMARK SMILES IDX 8 1 9 2 6 3 7 4 5 5 4 6 3 7 2 8 1 9 10 11 11 12 15 13 16 14
REMARK SMILES IDX 17 15 12 17 13 18 14 19
REMARK H PARENT
REMARK Flexibility Score: 70.00
ROOT
ATOM      1  C   UNL     1     -23.724  20.005 -30.852  1.00  0.00     0.136 C 
ATOM      2  O   UNL     1     -22.596  20.066 -30.383  1.00  0.00    -0.299 OA
ENDROOT
BRANCH   1   3
ATOM      3  C   UNL     1     -24.148  21.015 -31.901  1.00  0.00     0.053 C 
ATOM      4  C   UNL     1     -23.645  22.415 -31.526  1.00  0.00     0.016 C 
BRANCH   3   5
ATOM      5  C   UNL     1     -23.627  20.597 -33.296  1.00  0.00     0.015 C 
BRANCH   5   6
ATOM      6  C   UNL     1     -24.760  20.043 -34.183  1.00  0.00     0.028 C 
BRANCH   6   7
ATOM      7  C   UNL     1     -26.094  20.700 -33.929  1.00  0.00    -0.028 C 
ATOM      8  C   UNL     1     -27.164  20.108 -33.341  1.00  0.00    -0.070 CG0
ATOM      9  C   UNL     1     -28.404  20.929 -33.085  1.00  0.00     0.039 C 
ATOM     10  G   UNL     1     -27.240  18.621 -33.024  1.00  0.00     0.000 G0
ENDBRANCH   6   7
ENDBRANCH   5   6
ENDBRANCH   3   5
ENDBRANCH   1   3
BRANCH   1  11
ATOM     11  C   UNL     1     -24.668  18.935 -30.349  1.00  0.00     0.087 C 
BRANCH  11  12
ATOM     12  C   UNL     1     -25.184  18.028 -31.498  1.00  0.00     0.066 C 
BRANCH  12  13
ATOM     13  C   UNL     1     -26.683  18.235 -31.669  1.00  0.00     0.140 C 
ATOM     14  O   UNL     1     -27.437  18.053 -30.722  1.00  0.00    -0.299 OA
BRANCH  13  15
ATOM     15  C   UNL     1     -27.246  18.620 -33.015  1.00  0.00     0.106 CG0
ATOM     16  G   UNL     1     -27.161  20.108 -33.321  1.00  0.00     0.000 G0
ENDBRANCH  13  15
ENDBRANCH  12  13
BRANCH  12  17
ATOM     17  C   UNL     1     -24.843  16.515 -31.291  1.00  0.00    -0.006 C 
ATOM     18  C   UNL     1     -25.469  15.940 -30.007  1.00  0.00     0.008 C 
ATOM     19  C   UNL     1     -23.318  16.295 -31.236  1.00  0.00     0.008 C 
ENDBRANCH  12  17
ENDBRANCH  11  12
ENDBRANCH   1  11
TORSDOF 1
ENDMDL
MODEL 7
REMARK VINA RESULT:    -3.234      2.037      4.990
REMARK INTER + INTRA:          -5.168
REMARK INTER:                  -5.648
REMARK INTRA:                   0.480
REMARK UNBOUND:                -0.232
REMARK SMILES CC1=CCC[C@H](C)C(=O)C[C@@H](C(C)C)C(=O)C1
REMARK SMILES IDX 8 1 9 2 6 3 7 4 5 5 4 6 3 7 2 8 1 9 10 11 11 12 15 13 16 14
REMARK SMILES IDX 17 15 12 17 13 18 14 19
REMARK H PARENT
REMARK Flexibility Score: 70.00
ROOT
ATOM      1  C   UNL     1     -14.566  12.907 -27.105  1.00  0.00     0.136 C 
ATOM      2  O   UNL     1     -15.553  13.066 -26.400  1.00  0.00    -0.299 OA
ENDROOT
BRANCH   1   3
ATOM      3  C   UNL     1     -13.254  13.555 -26.704  1.00  0.00     0.053 C 
ATOM      4  C   UNL     1     -12.117  12.525 -26.746  1.00  0.00     0.016 C 
BRANCH   3   5
ATOM      5  C   UNL     1     -12.942  14.758 -27.624  1.00  0.00     0.015 C 
BRANCH   5   6
ATOM      6  C   UNL     1     -11.833  14.422 -28.642  1.00  0.00     0.028 C 
BRANCH   6   7
ATOM      7  C   UNL     1     -12.114  14.949 -30.028  1.00  0.00    -0.028 C 
ATOM      8  C   UNL     1     -12.918  14.357 -30.947  1.00  0.00    -0.070 CG0
ATOM      9  C   UNL     1     -13.160  15.055 -32.263  1.00  0.00     0.039 C 
ATOM     10  G   UNL     1     -13.505  12.963 -30.785  1.00  0.00     0.000 G0
ENDBRANCH   6   7
ENDBRANCH   5   6
ENDBRANCH   3   5
ENDBRANCH   1   3
BRANCH   1  11
ATOM     11  C   UNL     1     -14.696  12.088 -28.370  1.00  0.00     0.087 C 
BRANCH  11  12
ATOM     12  C   UNL     1     -15.702  12.719 -29.371  1.00  0.00     0.066 C 
BRANCH  12  13
ATOM     13  C   UNL     1     -15.019  12.912 -30.717  1.00  0.00     0.140 C 
ATOM     14  O   UNL     1     -15.691  12.996 -31.737  1.00  0.00    -0.299 OA
BRANCH  13  15
ATOM     15  C   UNL     1     -13.513  12.955 -30.804  1.00  0.00     0.106 CG0
ATOM     16  G   UNL     1     -12.939  14.358 -30.934  1.00  0.00     0.000 G0
ENDBRANCH  13  15
ENDBRANCH  12  13
BRANCH  12  17
ATOM     17  C   UNL     1     -16.326  14.058 -28.856  1.00  0.00    -0.006 C 
ATOM     18  C   UNL     1     -17.866  14.015 -28.820  1.00  0.00     0.008 C 
ATOM     19  C   UNL     1     -15.889  15.246 -29.735  1.00  0.00     0.008 C 
ENDBRANCH  12  17
ENDBRANCH  11  12
ENDBRANCH   1  11
TORSDOF 1
ENDMDL
MODEL 8
REMARK VINA RESULT:    -3.204      2.995      5.446
REMARK INTER + INTRA:          -5.123
REMARK INTER:                  -5.555
REMARK INTRA:                   0.433
REMARK UNBOUND:                -0.232
REMARK SMILES CC1=CCC[C@H](C)C(=O)C[C@@H](C(C)C)C(=O)C1
REMARK SMILES IDX 8 1 9 2 6 3 7 4 5 5 4 6 3 7 2 8 1 9 10 11 11 12 15 13 16 14
REMARK SMILES IDX 17 15 12 17 13 18 14 19
REMARK H PARENT
REMARK Flexibility Score: 70.00
ROOT
ATOM      1  C   UNL     1     -15.298  14.623 -29.517  1.00  0.00     0.136 C 
ATOM      2  O   UNL     1     -16.017  15.603 -29.378  1.00  0.00    -0.299 OA
ENDROOT
BRANCH   1   3
ATOM      3  C   UNL     1     -14.733  14.305 -30.888  1.00  0.00     0.053 C 
ATOM      4  C   UNL     1     -13.836  13.061 -30.819  1.00  0.00     0.016 C 
BRANCH   3   5
ATOM      5  C   UNL     1     -15.876  14.105 -31.911  1.00  0.00     0.015 C 
BRANCH   5   6
ATOM      6  C   UNL     1     -16.765  12.901 -31.541  1.00  0.00     0.028 C 
BRANCH   6   7
ATOM      7  C   UNL     1     -18.190  13.285 -31.224  1.00  0.00    -0.028 C 
ATOM      8  C   UNL     1     -18.850  12.983 -30.078  1.00  0.00    -0.070 CG0
ATOM      9  C   UNL     1     -20.250  13.510 -29.882  1.00  0.00     0.039 C 
ATOM     10  G   UNL     1     -18.310  12.037 -29.015  1.00  0.00     0.000 G0
ENDBRANCH   6   7
ENDBRANCH   5   6
ENDBRANCH   3   5
ENDBRANCH   1   3
BRANCH   1  11
ATOM     11  C   UNL     1     -15.017  13.746 -28.317  1.00  0.00     0.087 C 
BRANCH  11  12
ATOM     12  C   UNL     1     -15.792  12.402 -28.386  1.00  0.00     0.066 C 
BRANCH  12  13
ATOM     13  C   UNL     1     -17.267  12.655 -28.107  1.00  0.00     0.140 C 
ATOM     14  O   UNL     1     -17.599  13.328 -27.140  1.00  0.00    -0.299 OA
BRANCH  13  15
ATOM     15  C   UNL     1     -18.322  12.040 -28.993  1.00  0.00     0.106 CG0
ATOM     16  G   UNL     1     -18.849  12.975 -30.071  1.00  0.00     0.000 G0
ENDBRANCH  13  15
ENDBRANCH  12  13
BRANCH  12  17
ATOM     17  C   UNL     1     -15.215  11.307 -27.428  1.00  0.00    -0.006 C 
ATOM     18  C   UNL     1     -15.652  11.516 -25.965  1.00  0.00     0.008 C 
ATOM     19  C   UNL     1     -13.675  11.281 -27.482  1.00  0.00     0.008 C 
ENDBRANCH  12  17
ENDBRANCH  11  12
ENDBRANCH   1  11
TORSDOF 1
ENDMDL
MODEL 9
REMARK VINA RESULT:    -3.129      1.863      4.065
REMARK INTER + INTRA:          -5.008
REMARK INTER:                  -5.857
REMARK INTRA:                   0.849
REMARK UNBOUND:                -0.232
REMARK SMILES CC1=CCC[C@H](C)C(=O)C[C@@H](C(C)C)C(=O)C1
REMARK SMILES IDX 8 1 9 2 6 3 7 4 5 5 4 6 3 7 2 8 1 9 10 11 11 12 15 13 16 14
REMARK SMILES IDX 17 15 12 17 13 18 14 19
REMARK H PARENT
REMARK Flexibility Score: 70.00
ROOT
ATOM      1  C   UNL     1     -14.187  14.811 -28.720  1.00  0.00     0.136 C 
ATOM      2  O   UNL     1     -13.438  15.692 -28.321  1.00  0.00    -0.299 OA
ENDROOT
BRANCH   1   3
ATOM      3  C   UNL     1     -13.869  13.363 -28.399  1.00  0.00     0.053 C 
ATOM      4  C   UNL     1     -12.591  13.273 -27.554  1.00  0.00     0.016 C 
BRANCH   3   5
ATOM      5  C   UNL     1     -15.060  12.696 -27.672  1.00  0.00     0.015 C 
BRANCH   5   6
ATOM      6  C   UNL     1     -15.686  11.572 -28.521  1.00  0.00     0.028 C 
BRANCH   6   7
ATOM      7  C   UNL     1     -16.941  11.998 -29.245  1.00  0.00    -0.028 C 
ATOM      8  C   UNL     1     -16.993  12.485 -30.510  1.00  0.00    -0.070 CG0
ATOM      9  C   UNL     1     -18.339  12.790 -31.120  1.00  0.00     0.039 C 
ATOM     10  G   UNL     1     -15.763  12.860 -31.324  1.00  0.00     0.000 G0
ENDBRANCH   6   7
ENDBRANCH   5   6
ENDBRANCH   3   5
ENDBRANCH   1   3
BRANCH   1  11
ATOM     11  C   UNL     1     -15.395  15.197 -29.544  1.00  0.00     0.087 C 
BRANCH  11  12
ATOM     12  C   UNL     1     -15.044  15.366 -31.047  1.00  0.00     0.066 C 
BRANCH  12  13
ATOM     13  C   UNL     1     -15.735  14.273 -31.851  1.00  0.00     0.140 C 
ATOM     14  O   UNL     1     -16.311  14.552 -32.895  1.00  0.00    -0.299 OA
BRANCH  13  15
ATOM     15  C   UNL     1     -15.752  12.853 -31.341  1.00  0.00     0.106 CG0
ATOM     16  G   UNL     1     -16.979  12.507 -30.510  1.00  0.00     0.000 G0
ENDBRANCH  13  15
ENDBRANCH  12  13
BRANCH  12  17
ATOM     17  C   UNL     1     -13.504  15.383 -31.323  1.00  0.00    -0.006 C 
ATOM     18  C   UNL     1     -13.085  16.541 -32.249  1.00  0.00     0.008 C 
ATOM     19  C   UNL     1     -13.041  14.056 -31.956  1.00  0.00     0.008 C 
ENDBRANCH  12  17
ENDBRANCH  11  12
ENDBRANCH   1  11
TORSDOF 1
ENDMDL
