MODEL 1
REMARK VINA RESULT:    -5.922      0.000      0.000
REMARK INTER + INTRA:         -14.038
REMARK INTER:                 -12.846
REMARK INTRA:                  -1.192
REMARK UNBOUND:                -1.192
REMARK SMILES CCCCCCCCCCCCCCCCCCCCCC(=O)[O-]
REMARK SMILES IDX 12 1 11 2 10 3 9 4 8 5 7 6 6 7 5 8 4 9 3 10 2 11 1 12 13 13
REMARK SMILES IDX 14 14 15 15 16 16 17 17 18 18 19 19 20 20 21 21 22 22 23 23
REMARK SMILES IDX 24 24
REMARK H PARENT
REMARK Flexibility Score: inf
ROOT
ATOM      1  C   UNL     1     -18.383  23.697  -0.638  1.00  0.00     0.000 C 
ENDROOT
BRANCH   1   2
ATOM      2  C   UNL     1     -19.176  24.472   0.424  1.00  0.00     0.000 C 
BRANCH   2   3
ATOM      3  C   UNL     1     -18.256  25.401   1.231  1.00  0.00     0.000 C 
BRANCH   3   4
ATOM      4  C   UNL     1     -17.079  25.948   0.402  1.00  0.00    -0.000 C 
BRANCH   4   5
ATOM      5  C   UNL     1     -16.066  26.797   1.191  1.00  0.00    -0.000 C 
BRANCH   5   6
ATOM      6  C   UNL     1     -16.298  28.309   1.028  1.00  0.00    -0.000 C 
BRANCH   6   7
ATOM      7  C   UNL     1     -16.148  29.079   2.349  1.00  0.00    -0.000 C 
BRANCH   7   8
ATOM      8  C   UNL     1     -15.723  30.541   2.144  1.00  0.00    -0.000 C 
BRANCH   8   9
ATOM      9  C   UNL     1     -16.388  31.135   0.895  1.00  0.00    -0.000 C 
BRANCH   9  10
ATOM     10  C   UNL     1     -16.402  32.674   0.896  1.00  0.00    -0.000 C 
BRANCH  10  11
ATOM     11  C   UNL     1     -16.918  33.288  -0.423  1.00  0.00    -0.003 C 
ATOM     12  C   UNL     1     -18.065  32.481  -1.031  1.00  0.00     0.004 C 
ENDBRANCH  10  11
ENDBRANCH   9  10
ENDBRANCH   8   9
ENDBRANCH   7   8
ENDBRANCH   6   7
ENDBRANCH   5   6
ENDBRANCH   4   5
ENDBRANCH   3   4
ENDBRANCH   2   3
ENDBRANCH   1   2
BRANCH   1  13
ATOM     13  C   UNL     1     -19.285  22.987  -1.665  1.00  0.00     0.000 C 
BRANCH  13  14
ATOM     14  C   UNL     1     -19.425  21.466  -1.469  1.00  0.00     0.000 C 
BRANCH  14  15
ATOM     15  C   UNL     1     -20.842  21.042  -1.058  1.00  0.00     0.000 C 
BRANCH  15  16
ATOM     16  C   UNL     1     -21.197  21.583   0.335  1.00  0.00     0.000 C 
BRANCH  16  17
ATOM     17  C   UNL     1     -22.689  21.922   0.475  1.00  0.00     0.000 C 
BRANCH  17  18
ATOM     18  C   UNL     1     -23.110  23.120  -0.396  1.00  0.00     0.000 C 
BRANCH  18  19
ATOM     19  C   UNL     1     -24.635  23.217  -0.582  1.00  0.00     0.000 C 
BRANCH  19  20
ATOM     20  C   UNL     1     -25.108  24.370  -1.491  1.00  0.00     0.006 C 
BRANCH  20  21
ATOM     21  C   UNL     1     -25.996  23.933  -2.667  1.00  0.00     0.053 C 
BRANCH  21  22
ATOM     22  C   UNL     1     -25.470  24.425  -3.980  1.00  0.00     0.041 C 
ATOM     23  O   UNL     1     -25.287  23.622  -4.933  1.00  0.00    -0.550 OA
ATOM     24  O   UNL     1     -25.202  25.776  -4.159  1.00  0.00    -0.550 OA
ENDBRANCH  21  22
ENDBRANCH  20  21
ENDBRANCH  19  20
ENDBRANCH  18  19
ENDBRANCH  17  18
ENDBRANCH  16  17
ENDBRANCH  15  16
ENDBRANCH  14  15
ENDBRANCH  13  14
ENDBRANCH   1  13
TORSDOF 20
ENDMDL
MODEL 2
REMARK VINA RESULT:    -5.869      2.301      5.576
REMARK INTER + INTRA:         -13.924
REMARK INTER:                 -12.251
REMARK INTRA:                  -1.672
REMARK UNBOUND:                -1.192
REMARK SMILES CCCCCCCCCCCCCCCCCCCCCC(=O)[O-]
REMARK SMILES IDX 12 1 11 2 10 3 9 4 8 5 7 6 6 7 5 8 4 9 3 10 2 11 1 12 13 13
REMARK SMILES IDX 14 14 15 15 16 16 17 17 18 18 19 19 20 20 21 21 22 22 23 23
REMARK SMILES IDX 24 24
REMARK H PARENT
REMARK Flexibility Score: inf
ROOT
ATOM      1  C   UNL     1     -18.806  28.880  -1.379  1.00  0.00     0.000 C 
ENDROOT
BRANCH   1   2
ATOM      2  C   UNL     1     -19.209  30.286  -1.846  1.00  0.00     0.000 C 
BRANCH   2   3
ATOM      3  C   UNL     1     -18.006  31.241  -1.825  1.00  0.00     0.000 C 
BRANCH   3   4
ATOM      4  C   UNL     1     -18.197  32.426  -0.859  1.00  0.00    -0.000 C 
BRANCH   4   5
ATOM      5  C   UNL     1     -16.968  33.339  -0.697  1.00  0.00    -0.000 C 
BRANCH   5   6
ATOM      6  C   UNL     1     -16.320  33.226   0.694  1.00  0.00    -0.000 C 
BRANCH   6   7
ATOM      7  C   UNL     1     -16.730  31.946   1.438  1.00  0.00    -0.000 C 
BRANCH   7   8
ATOM      8  C   UNL     1     -15.693  30.820   1.304  1.00  0.00    -0.000 C 
BRANCH   8   9
ATOM      9  C   UNL     1     -15.208  30.355   2.684  1.00  0.00    -0.000 C 
BRANCH   9  10
ATOM     10  C   UNL     1     -16.188  29.388   3.371  1.00  0.00    -0.000 C 
BRANCH  10  11
ATOM     11  C   UNL     1     -16.287  29.590   4.898  1.00  0.00    -0.003 C 
ATOM     12  C   UNL     1     -17.566  30.320   5.306  1.00  0.00     0.004 C 
ENDBRANCH  10  11
ENDBRANCH   9  10
ENDBRANCH   8   9
ENDBRANCH   7   8
ENDBRANCH   6   7
ENDBRANCH   5   6
ENDBRANCH   4   5
ENDBRANCH   3   4
ENDBRANCH   2   3
ENDBRANCH   1   2
BRANCH   1  13
ATOM     13  C   UNL     1     -17.524  28.873  -0.524  1.00  0.00     0.000 C 
BRANCH  13  14
ATOM     14  C   UNL     1     -16.849  27.498  -0.372  1.00  0.00     0.000 C 
BRANCH  14  15
ATOM     15  C   UNL     1     -17.143  26.831   0.980  1.00  0.00     0.000 C 
BRANCH  15  16
ATOM     16  C   UNL     1     -18.069  25.618   0.805  1.00  0.00     0.000 C 
BRANCH  16  17
ATOM     17  C   UNL     1     -17.792  24.845  -0.494  1.00  0.00     0.000 C 
BRANCH  17  18
ATOM     18  C   UNL     1     -18.450  23.454  -0.510  1.00  0.00     0.000 C 
BRANCH  18  19
ATOM     19  C   UNL     1     -19.200  23.162  -1.821  1.00  0.00     0.000 C 
BRANCH  19  20
ATOM     20  C   UNL     1     -20.160  21.956  -1.768  1.00  0.00     0.006 C 
BRANCH  20  21
ATOM     21  C   UNL     1     -21.046  21.899  -0.513  1.00  0.00     0.053 C 
BRANCH  21  22
ATOM     22  C   UNL     1     -21.933  23.101  -0.398  1.00  0.00     0.041 C 
ATOM     23  O   UNL     1     -21.621  24.049   0.370  1.00  0.00    -0.550 OA
ATOM     24  O   UNL     1     -23.093  23.183  -1.156  1.00  0.00    -0.550 OA
ENDBRANCH  21  22
ENDBRANCH  20  21
ENDBRANCH  19  20
ENDBRANCH  18  19
ENDBRANCH  17  18
ENDBRANCH  16  17
ENDBRANCH  15  16
ENDBRANCH  14  15
ENDBRANCH  13  14
ENDBRANCH   1  13
TORSDOF 20
ENDMDL
MODEL 3
REMARK VINA RESULT:    -5.853      4.130     10.113
REMARK INTER + INTRA:         -13.887
REMARK INTER:                 -11.962
REMARK INTRA:                  -1.926
REMARK UNBOUND:                -1.192
REMARK SMILES CCCCCCCCCCCCCCCCCCCCCC(=O)[O-]
REMARK SMILES IDX 12 1 11 2 10 3 9 4 8 5 7 6 6 7 5 8 4 9 3 10 2 11 1 12 13 13
REMARK SMILES IDX 14 14 15 15 16 16 17 17 18 18 19 19 20 20 21 21 22 22 23 23
REMARK SMILES IDX 24 24
REMARK H PARENT
REMARK Flexibility Score: inf
ROOT
ATOM      1  C   UNL     1     -17.717  27.793  -0.629  1.00  0.00     0.000 C 
ENDROOT
BRANCH   1   2
ATOM      2  C   UNL     1     -16.411  27.172  -0.113  1.00  0.00     0.000 C 
BRANCH   2   3
ATOM      3  C   UNL     1     -16.658  25.777   0.479  1.00  0.00     0.000 C 
BRANCH   3   4
ATOM      4  C   UNL     1     -18.077  25.614   1.058  1.00  0.00    -0.000 C 
BRANCH   4   5
ATOM      5  C   UNL     1     -18.943  24.546   0.366  1.00  0.00    -0.000 C 
BRANCH   5   6
ATOM      6  C   UNL     1     -18.352  24.072  -0.973  1.00  0.00    -0.000 C 
BRANCH   6   7
ATOM      7  C   UNL     1     -18.766  22.636  -1.330  1.00  0.00    -0.000 C 
BRANCH   7   8
ATOM      8  C   UNL     1     -20.279  22.490  -1.558  1.00  0.00    -0.000 C 
BRANCH   8   9
ATOM      9  C   UNL     1     -20.752  21.073  -1.208  1.00  0.00    -0.000 C 
BRANCH   9  10
ATOM     10  C   UNL     1     -21.895  21.060  -0.178  1.00  0.00    -0.000 C 
BRANCH  10  11
ATOM     11  C   UNL     1     -21.867  22.260   0.792  1.00  0.00    -0.003 C 
ATOM     12  C   UNL     1     -21.069  21.964   2.061  1.00  0.00     0.004 C 
ENDBRANCH  10  11
ENDBRANCH   9  10
ENDBRANCH   8   9
ENDBRANCH   7   8
ENDBRANCH   6   7
ENDBRANCH   5   6
ENDBRANCH   4   5
ENDBRANCH   3   4
ENDBRANCH   2   3
ENDBRANCH   1   2
BRANCH   1  13
ATOM     13  C   UNL     1     -17.674  29.332  -0.681  1.00  0.00     0.000 C 
BRANCH  13  14
ATOM     14  C   UNL     1     -18.589  29.974  -1.739  1.00  0.00     0.000 C 
BRANCH  14  15
ATOM     15  C   UNL     1     -18.222  31.434  -2.043  1.00  0.00     0.000 C 
BRANCH  15  16
ATOM     16  C   UNL     1     -18.200  32.275  -0.758  1.00  0.00     0.000 C 
BRANCH  16  17
ATOM     17  C   UNL     1     -17.067  33.313  -0.750  1.00  0.00     0.000 C 
BRANCH  17  18
ATOM     18  C   UNL     1     -16.162  33.196   0.489  1.00  0.00     0.000 C 
BRANCH  18  19
ATOM     19  C   UNL     1     -16.592  32.064   1.439  1.00  0.00     0.000 C 
BRANCH  19  20
ATOM     20  C   UNL     1     -15.690  30.813   1.411  1.00  0.00     0.006 C 
BRANCH  20  21
ATOM     21  C   UNL     1     -15.183  30.359   2.789  1.00  0.00     0.053 C 
BRANCH  21  22
ATOM     22  C   UNL     1     -16.198  29.527   3.513  1.00  0.00     0.041 C 
ATOM     23  O   UNL     1     -16.751  29.966   4.556  1.00  0.00    -0.550 OA
ATOM     24  O   UNL     1     -16.548  28.276   3.023  1.00  0.00    -0.550 OA
ENDBRANCH  21  22
ENDBRANCH  20  21
ENDBRANCH  19  20
ENDBRANCH  18  19
ENDBRANCH  17  18
ENDBRANCH  16  17
ENDBRANCH  15  16
ENDBRANCH  14  15
ENDBRANCH  13  14
ENDBRANCH   1  13
TORSDOF 20
ENDMDL
MODEL 4
REMARK VINA RESULT:    -5.809      4.861     10.370
REMARK INTER + INTRA:         -13.792
REMARK INTER:                 -12.122
REMARK INTRA:                  -1.670
REMARK UNBOUND:                -1.192
REMARK SMILES CCCCCCCCCCCCCCCCCCCCCC(=O)[O-]
REMARK SMILES IDX 12 1 11 2 10 3 9 4 8 5 7 6 6 7 5 8 4 9 3 10 2 11 1 12 13 13
REMARK SMILES IDX 14 14 15 15 16 16 17 17 18 18 19 19 20 20 21 21 22 22 23 23
REMARK SMILES IDX 24 24
REMARK H PARENT
REMARK Flexibility Score: inf
ROOT
ATOM      1  C   UNL     1     -18.402  31.470  -1.963  1.00  0.00     0.000 C 
ENDROOT
BRANCH   1   2
ATOM      2  C   UNL     1     -18.537  29.951  -1.775  1.00  0.00     0.000 C 
BRANCH   2   3
ATOM      3  C   UNL     1     -17.536  29.433  -0.731  1.00  0.00     0.000 C 
BRANCH   3   4
ATOM      4  C   UNL     1     -17.687  27.926  -0.451  1.00  0.00    -0.000 C 
BRANCH   4   5
ATOM      5  C   UNL     1     -16.367  27.175  -0.201  1.00  0.00    -0.000 C 
BRANCH   5   6
ATOM      6  C   UNL     1     -16.569  25.848   0.551  1.00  0.00    -0.000 C 
BRANCH   6   7
ATOM      7  C   UNL     1     -17.941  25.755   1.235  1.00  0.00    -0.000 C 
BRANCH   7   8
ATOM      8  C   UNL     1     -18.793  24.588   0.712  1.00  0.00    -0.000 C 
BRANCH   8   9
ATOM      9  C   UNL     1     -18.503  24.320  -0.771  1.00  0.00    -0.000 C 
BRANCH   9  10
ATOM     10  C   UNL     1     -18.461  22.820  -1.112  1.00  0.00    -0.000 C 
BRANCH  10  11
ATOM     11  C   UNL     1     -19.674  22.339  -1.935  1.00  0.00    -0.003 C 
ATOM     12  C   UNL     1     -20.927  22.163  -1.077  1.00  0.00     0.004 C 
ENDBRANCH  10  11
ENDBRANCH   9  10
ENDBRANCH   8   9
ENDBRANCH   7   8
ENDBRANCH   6   7
ENDBRANCH   5   6
ENDBRANCH   4   5
ENDBRANCH   3   4
ENDBRANCH   2   3
ENDBRANCH   1   2
BRANCH   1  13
ATOM     13  C   UNL     1     -18.172  32.222  -0.638  1.00  0.00     0.000 C 
BRANCH  13  14
ATOM     14  C   UNL     1     -17.066  33.293  -0.681  1.00  0.00     0.000 C 
BRANCH  14  15
ATOM     15  C   UNL     1     -16.178  33.288   0.572  1.00  0.00     0.000 C 
BRANCH  15  16
ATOM     16  C   UNL     1     -16.537  32.114   1.496  1.00  0.00     0.000 C 
BRANCH  16  17
ATOM     17  C   UNL     1     -15.646  30.884   1.260  1.00  0.00     0.000 C 
BRANCH  17  18
ATOM     18  C   UNL     1     -15.166  30.238   2.573  1.00  0.00     0.000 C 
BRANCH  18  19
ATOM     19  C   UNL     1     -16.297  29.534   3.342  1.00  0.00     0.000 C 
BRANCH  19  20
ATOM     20  C   UNL     1     -15.993  29.244   4.826  1.00  0.00     0.006 C 
BRANCH  20  21
ATOM     21  C   UNL     1     -15.397  30.430   5.601  1.00  0.00     0.053 C 
BRANCH  21  22
ATOM     22  C   UNL     1     -16.297  31.627   5.571  1.00  0.00     0.041 C 
ATOM     23  O   UNL     1     -17.486  31.538   5.975  1.00  0.00    -0.550 OA
ATOM     24  O   UNL     1     -15.815  32.848   5.118  1.00  0.00    -0.550 OA
ENDBRANCH  21  22
ENDBRANCH  20  21
ENDBRANCH  19  20
ENDBRANCH  18  19
ENDBRANCH  17  18
ENDBRANCH  16  17
ENDBRANCH  15  16
ENDBRANCH  14  15
ENDBRANCH  13  14
ENDBRANCH   1  13
TORSDOF 20
ENDMDL
MODEL 5
REMARK VINA RESULT:    -5.805      2.616      6.055
REMARK INTER + INTRA:         -13.783
REMARK INTER:                 -11.853
REMARK INTRA:                  -1.930
REMARK UNBOUND:                -1.192
REMARK SMILES CCCCCCCCCCCCCCCCCCCCCC(=O)[O-]
REMARK SMILES IDX 12 1 11 2 10 3 9 4 8 5 7 6 6 7 5 8 4 9 3 10 2 11 1 12 13 13
REMARK SMILES IDX 14 14 15 15 16 16 17 17 18 18 19 19 20 20 21 21 22 22 23 23
REMARK SMILES IDX 24 24
REMARK H PARENT
REMARK Flexibility Score: inf
ROOT
ATOM      1  C   UNL     1     -18.534  30.122  -1.907  1.00  0.00     0.000 C 
ENDROOT
BRANCH   1   2
ATOM      2  C   UNL     1     -18.267  31.620  -2.114  1.00  0.00     0.000 C 
BRANCH   2   3
ATOM      3  C   UNL     1     -18.200  32.360  -0.769  1.00  0.00     0.000 C 
BRANCH   3   4
ATOM      4  C   UNL     1     -16.987  33.304  -0.664  1.00  0.00    -0.000 C 
BRANCH   4   5
ATOM      5  C   UNL     1     -16.311  33.343   0.718  1.00  0.00    -0.000 C 
BRANCH   5   6
ATOM      6  C   UNL     1     -16.599  32.088   1.560  1.00  0.00    -0.000 C 
BRANCH   6   7
ATOM      7  C   UNL     1     -15.623  30.939   1.267  1.00  0.00    -0.000 C 
BRANCH   7   8
ATOM      8  C   UNL     1     -15.117  30.244   2.540  1.00  0.00    -0.000 C 
BRANCH   8   9
ATOM      9  C   UNL     1     -16.203  29.339   3.139  1.00  0.00    -0.000 C 
BRANCH   9  10
ATOM     10  C   UNL     1     -16.187  29.321   4.678  1.00  0.00    -0.000 C 
BRANCH  10  11
ATOM     11  C   UNL     1     -16.843  30.563   5.317  1.00  0.00    -0.003 C 
ATOM     12  C   UNL     1     -18.239  30.268   5.864  1.00  0.00     0.004 C 
ENDBRANCH  10  11
ENDBRANCH   9  10
ENDBRANCH   8   9
ENDBRANCH   7   8
ENDBRANCH   6   7
ENDBRANCH   5   6
ENDBRANCH   4   5
ENDBRANCH   3   4
ENDBRANCH   2   3
ENDBRANCH   1   2
BRANCH   1  13
ATOM     13  C   UNL     1     -17.718  29.519  -0.748  1.00  0.00     0.000 C 
BRANCH  13  14
ATOM     14  C   UNL     1     -17.736  27.982  -0.669  1.00  0.00     0.000 C 
BRANCH  14  15
ATOM     15  C   UNL     1     -16.460  27.398  -0.045  1.00  0.00     0.000 C 
BRANCH  15  16
ATOM     16  C   UNL     1     -16.795  26.253   0.923  1.00  0.00     0.000 C 
BRANCH  16  17
ATOM     17  C   UNL     1     -18.195  25.667   0.682  1.00  0.00     0.000 C 
BRANCH  17  18
ATOM     18  C   UNL     1     -18.151  24.240   0.107  1.00  0.00     0.000 C 
BRANCH  18  19
ATOM     19  C   UNL     1     -18.545  24.181  -1.379  1.00  0.00     0.000 C 
BRANCH  19  20
ATOM     20  C   UNL     1     -19.475  23.011  -1.760  1.00  0.00     0.006 C 
BRANCH  20  21
ATOM     21  C   UNL     1     -19.960  22.166  -0.571  1.00  0.00     0.053 C 
BRANCH  21  22
ATOM     22  C   UNL     1     -21.409  22.402  -0.271  1.00  0.00     0.041 C 
ATOM     23  O   UNL     1     -22.146  22.981  -1.112  1.00  0.00    -0.550 OA
ATOM     24  O   UNL     1     -21.950  21.962   0.930  1.00  0.00    -0.550 OA
ENDBRANCH  21  22
ENDBRANCH  20  21
ENDBRANCH  19  20
ENDBRANCH  18  19
ENDBRANCH  17  18
ENDBRANCH  16  17
ENDBRANCH  15  16
ENDBRANCH  14  15
ENDBRANCH  13  14
ENDBRANCH   1  13
TORSDOF 20
ENDMDL
MODEL 6
REMARK VINA RESULT:    -5.737      0.982      1.812
REMARK INTER + INTRA:         -13.636
REMARK INTER:                 -12.447
REMARK INTRA:                  -1.189
REMARK UNBOUND:                -1.192
REMARK SMILES CCCCCCCCCCCCCCCCCCCCCC(=O)[O-]
REMARK SMILES IDX 12 1 11 2 10 3 9 4 8 5 7 6 6 7 5 8 4 9 3 10 2 11 1 12 13 13
REMARK SMILES IDX 14 14 15 15 16 16 17 17 18 18 19 19 20 20 21 21 22 22 23 23
REMARK SMILES IDX 24 24
REMARK H PARENT
REMARK Flexibility Score: inf
ROOT
ATOM      1  C   UNL     1     -18.784  25.139   0.879  1.00  0.00     0.000 C 
ENDROOT
BRANCH   1   2
ATOM      2  C   UNL     1     -17.427  25.743   0.491  1.00  0.00     0.000 C 
BRANCH   2   3
ATOM      3  C   UNL     1     -17.610  27.004  -0.368  1.00  0.00     0.000 C 
BRANCH   3   4
ATOM      4  C   UNL     1     -16.742  28.185   0.108  1.00  0.00    -0.000 C 
BRANCH   4   5
ATOM      5  C   UNL     1     -16.280  28.104   1.575  1.00  0.00    -0.000 C 
BRANCH   5   6
ATOM      6  C   UNL     1     -16.102  29.488   2.222  1.00  0.00    -0.000 C 
BRANCH   6   7
ATOM      7  C   UNL     1     -15.811  30.592   1.193  1.00  0.00    -0.000 C 
BRANCH   7   8
ATOM      8  C   UNL     1     -16.631  31.868   1.437  1.00  0.00    -0.000 C 
BRANCH   8   9
ATOM      9  C   UNL     1     -16.131  33.019   0.554  1.00  0.00    -0.000 C 
BRANCH   9  10
ATOM     10  C   UNL     1     -17.022  33.261  -0.677  1.00  0.00    -0.000 C 
BRANCH  10  11
ATOM     11  C   UNL     1     -18.247  32.323  -0.748  1.00  0.00    -0.003 C 
ATOM     12  C   UNL     1     -18.234  31.442  -1.997  1.00  0.00     0.004 C 
ENDBRANCH  10  11
ENDBRANCH   9  10
ENDBRANCH   8   9
ENDBRANCH   7   8
ENDBRANCH   6   7
ENDBRANCH   5   6
ENDBRANCH   4   5
ENDBRANCH   3   4
ENDBRANCH   2   3
ENDBRANCH   1   2
BRANCH   1  13
ATOM     13  C   UNL     1     -18.948  23.678   0.417  1.00  0.00     0.000 C 
BRANCH  13  14
ATOM     14  C   UNL     1     -19.453  23.504  -1.027  1.00  0.00     0.000 C 
BRANCH  14  15
ATOM     15  C   UNL     1     -20.753  22.691  -1.114  1.00  0.00     0.000 C 
BRANCH  15  16
ATOM     16  C   UNL     1     -21.932  23.473  -0.516  1.00  0.00     0.000 C 
BRANCH  16  17
ATOM     17  C   UNL     1     -23.195  22.611  -0.363  1.00  0.00     0.000 C 
BRANCH  17  18
ATOM     18  C   UNL     1     -24.489  23.445  -0.375  1.00  0.00     0.000 C 
BRANCH  18  19
ATOM     19  C   UNL     1     -25.567  22.863  -1.307  1.00  0.00     0.000 C 
BRANCH  19  20
ATOM     20  C   UNL     1     -26.358  23.908  -2.120  1.00  0.00     0.006 C 
BRANCH  20  21
ATOM     21  C   UNL     1     -26.405  23.641  -3.633  1.00  0.00     0.053 C 
BRANCH  21  22
ATOM     22  C   UNL     1     -25.393  24.458  -4.377  1.00  0.00     0.041 C 
ATOM     23  O   UNL     1     -25.431  25.716  -4.327  1.00  0.00    -0.550 OA
ATOM     24  O   UNL     1     -24.394  23.829  -5.108  1.00  0.00    -0.550 OA
ENDBRANCH  21  22
ENDBRANCH  20  21
ENDBRANCH  19  20
ENDBRANCH  18  19
ENDBRANCH  17  18
ENDBRANCH  16  17
ENDBRANCH  15  16
ENDBRANCH  14  15
ENDBRANCH  13  14
ENDBRANCH   1  13
TORSDOF 20
ENDMDL
MODEL 7
REMARK VINA RESULT:    -5.721      2.753      9.339
REMARK INTER + INTRA:         -13.602
REMARK INTER:                 -12.331
REMARK INTRA:                  -1.271
REMARK UNBOUND:                -1.192
REMARK SMILES CCCCCCCCCCCCCCCCCCCCCC(=O)[O-]
REMARK SMILES IDX 12 1 11 2 10 3 9 4 8 5 7 6 6 7 5 8 4 9 3 10 2 11 1 12 13 13
REMARK SMILES IDX 14 14 15 15 16 16 17 17 18 18 19 19 20 20 21 21 22 22 23 23
REMARK SMILES IDX 24 24
REMARK H PARENT
REMARK Flexibility Score: inf
ROOT
ATOM      1  C   UNL     1     -18.448  25.744   0.533  1.00  0.00     0.000 C 
ENDROOT
BRANCH   1   2
ATOM      2  C   UNL     1     -18.745  24.255   0.306  1.00  0.00     0.000 C 
BRANCH   2   3
ATOM      3  C   UNL     1     -18.565  23.875  -1.172  1.00  0.00     0.000 C 
BRANCH   3   4
ATOM      4  C   UNL     1     -19.135  22.484  -1.507  1.00  0.00    -0.000 C 
BRANCH   4   5
ATOM      5  C   UNL     1     -20.671  22.380  -1.456  1.00  0.00    -0.000 C 
BRANCH   5   6
ATOM      6  C   UNL     1     -21.176  21.598  -0.232  1.00  0.00    -0.000 C 
BRANCH   6   7
ATOM      7  C   UNL     1     -22.674  21.814   0.034  1.00  0.00    -0.000 C 
BRANCH   7   8
ATOM      8  C   UNL     1     -23.155  23.218  -0.363  1.00  0.00    -0.000 C 
BRANCH   8   9
ATOM      9  C   UNL     1     -24.658  23.216  -0.674  1.00  0.00    -0.000 C 
BRANCH   9  10
ATOM     10  C   UNL     1     -25.091  24.406  -1.548  1.00  0.00    -0.000 C 
BRANCH  10  11
ATOM     11  C   UNL     1     -25.871  23.991  -2.814  1.00  0.00    -0.003 C 
ATOM     12  C   UNL     1     -25.412  24.753  -4.057  1.00  0.00     0.004 C 
ENDBRANCH  10  11
ENDBRANCH   9  10
ENDBRANCH   8   9
ENDBRANCH   7   8
ENDBRANCH   6   7
ENDBRANCH   5   6
ENDBRANCH   4   5
ENDBRANCH   3   4
ENDBRANCH   2   3
ENDBRANCH   1   2
BRANCH   1  13
ATOM     13  C   UNL     1     -16.945  26.077   0.463  1.00  0.00     0.000 C 
BRANCH  13  14
ATOM     14  C   UNL     1     -16.567  27.175  -0.548  1.00  0.00     0.000 C 
BRANCH  14  15
ATOM     15  C   UNL     1     -15.991  28.432   0.121  1.00  0.00     0.000 C 
BRANCH  15  16
ATOM     16  C   UNL     1     -16.294  28.442   1.627  1.00  0.00     0.000 C 
BRANCH  16  17
ATOM     17  C   UNL     1     -15.934  29.780   2.292  1.00  0.00     0.000 C 
BRANCH  17  18
ATOM     18  C   UNL     1     -15.616  30.886   1.269  1.00  0.00     0.000 C 
BRANCH  18  19
ATOM     19  C   UNL     1     -16.748  31.921   1.136  1.00  0.00     0.000 C 
BRANCH  19  20
ATOM     20  C   UNL     1     -16.838  32.614  -0.239  1.00  0.00     0.006 C 
BRANCH  20  21
ATOM     21  C   UNL     1     -18.204  32.484  -0.932  1.00  0.00     0.053 C 
BRANCH  21  22
ATOM     22  C   UNL     1     -18.300  31.235  -1.754  1.00  0.00     0.041 C 
ATOM     23  O   UNL     1     -18.128  31.281  -3.001  1.00  0.00    -0.550 OA
ATOM     24  O   UNL     1     -18.556  30.017  -1.139  1.00  0.00    -0.550 OA
ENDBRANCH  21  22
ENDBRANCH  20  21
ENDBRANCH  19  20
ENDBRANCH  18  19
ENDBRANCH  17  18
ENDBRANCH  16  17
ENDBRANCH  15  16
ENDBRANCH  14  15
ENDBRANCH  13  14
ENDBRANCH   1  13
TORSDOF 20
ENDMDL
MODEL 8
REMARK VINA RESULT:    -5.706      3.335      9.872
REMARK INTER + INTRA:         -13.569
REMARK INTER:                 -12.297
REMARK INTRA:                  -1.272
REMARK UNBOUND:                -1.192
REMARK SMILES CCCCCCCCCCCCCCCCCCCCCC(=O)[O-]
REMARK SMILES IDX 12 1 11 2 10 3 9 4 8 5 7 6 6 7 5 8 4 9 3 10 2 11 1 12 13 13
REMARK SMILES IDX 14 14 15 15 16 16 17 17 18 18 19 19 20 20 21 21 22 22 23 23
REMARK SMILES IDX 24 24
REMARK H PARENT
REMARK Flexibility Score: inf
ROOT
ATOM      1  C   UNL     1     -18.915  23.540  -1.658  1.00  0.00     0.000 C 
ENDROOT
BRANCH   1   2
ATOM      2  C   UNL     1     -19.978  22.435  -1.578  1.00  0.00     0.000 C 
BRANCH   2   3
ATOM      3  C   UNL     1     -20.198  21.985  -0.126  1.00  0.00     0.000 C 
BRANCH   3   4
ATOM      4  C   UNL     1     -21.458  22.603   0.509  1.00  0.00    -0.000 C 
BRANCH   4   5
ATOM      5  C   UNL     1     -22.437  23.253  -0.485  1.00  0.00    -0.000 C 
BRANCH   5   6
ATOM      6  C   UNL     1     -23.908  22.927  -0.175  1.00  0.00    -0.000 C 
BRANCH   6   7
ATOM      7  C   UNL     1     -24.891  23.782  -0.991  1.00  0.00    -0.000 C 
BRANCH   7   8
ATOM      8  C   UNL     1     -25.986  22.946  -1.672  1.00  0.00    -0.000 C 
BRANCH   8   9
ATOM      9  C   UNL     1     -26.752  23.784  -2.704  1.00  0.00    -0.000 C 
BRANCH   9  10
ATOM     10  C   UNL     1     -26.751  23.153  -4.108  1.00  0.00    -0.000 C 
BRANCH  10  11
ATOM     11  C   UNL     1     -25.705  23.769  -5.061  1.00  0.00    -0.003 C 
ATOM     12  C   UNL     1     -25.231  25.145  -4.595  1.00  0.00     0.004 C 
ENDBRANCH  10  11
ENDBRANCH   9  10
ENDBRANCH   8   9
ENDBRANCH   7   8
ENDBRANCH   6   7
ENDBRANCH   5   6
ENDBRANCH   4   5
ENDBRANCH   3   4
ENDBRANCH   2   3
ENDBRANCH   1   2
BRANCH   1  13
ATOM     13  C   UNL     1     -18.323  23.907  -0.284  1.00  0.00     0.000 C 
BRANCH  13  14
ATOM     14  C   UNL     1     -18.708  25.303   0.240  1.00  0.00     0.000 C 
BRANCH  14  15
ATOM     15  C   UNL     1     -17.512  26.085   0.799  1.00  0.00     0.000 C 
BRANCH  15  16
ATOM     16  C   UNL     1     -16.947  27.053  -0.252  1.00  0.00     0.000 C 
BRANCH  16  17
ATOM     17  C   UNL     1     -16.679  28.454   0.319  1.00  0.00     0.000 C 
BRANCH  17  18
ATOM     18  C   UNL     1     -16.223  28.420   1.789  1.00  0.00     0.000 C 
BRANCH  18  19
ATOM     19  C   UNL     1     -15.840  29.809   2.330  1.00  0.00     0.000 C 
BRANCH  19  20
ATOM     20  C   UNL     1     -15.704  30.910   1.258  1.00  0.00     0.006 C 
BRANCH  20  21
ATOM     21  C   UNL     1     -16.706  32.067   1.399  1.00  0.00     0.053 C 
BRANCH  21  22
ATOM     22  C   UNL     1     -17.258  32.495   0.074  1.00  0.00     0.041 C 
ATOM     23  O   UNL     1     -18.206  31.858  -0.455  1.00  0.00    -0.550 OA
ATOM     24  O   UNL     1     -16.739  33.613  -0.566  1.00  0.00    -0.550 OA
ENDBRANCH  21  22
ENDBRANCH  20  21
ENDBRANCH  19  20
ENDBRANCH  18  19
ENDBRANCH  17  18
ENDBRANCH  16  17
ENDBRANCH  15  16
ENDBRANCH  14  15
ENDBRANCH  13  14
ENDBRANCH   1  13
TORSDOF 20
ENDMDL
MODEL 9
REMARK VINA RESULT:    -5.695      3.109      9.442
REMARK INTER + INTRA:         -13.546
REMARK INTER:                 -11.513
REMARK INTRA:                  -2.033
REMARK UNBOUND:                -1.192
REMARK SMILES CCCCCCCCCCCCCCCCCCCCCC(=O)[O-]
REMARK SMILES IDX 12 1 11 2 10 3 9 4 8 5 7 6 6 7 5 8 4 9 3 10 2 11 1 12 13 13
REMARK SMILES IDX 14 14 15 15 16 16 17 17 18 18 19 19 20 20 21 21 22 22 23 23
REMARK SMILES IDX 24 24
REMARK H PARENT
REMARK Flexibility Score: inf
ROOT
ATOM      1  C   UNL     1     -17.223  26.825  -0.186  1.00  0.00     0.000 C 
ENDROOT
BRANCH   1   2
ATOM      2  C   UNL     1     -17.407  26.108   1.159  1.00  0.00     0.000 C 
BRANCH   2   3
ATOM      3  C   UNL     1     -18.396  24.940   1.031  1.00  0.00     0.000 C 
BRANCH   3   4
ATOM      4  C   UNL     1     -18.869  24.710  -0.416  1.00  0.00    -0.000 C 
BRANCH   4   5
ATOM      5  C   UNL     1     -18.473  23.352  -1.023  1.00  0.00    -0.000 C 
BRANCH   5   6
ATOM      6  C   UNL     1     -19.625  22.681  -1.791  1.00  0.00    -0.000 C 
BRANCH   6   7
ATOM      7  C   UNL     1     -19.837  21.215  -1.384  1.00  0.00    -0.000 C 
BRANCH   7   8
ATOM      8  C   UNL     1     -21.271  20.927  -0.915  1.00  0.00    -0.000 C 
BRANCH   8   9
ATOM      9  C   UNL     1     -21.841  22.117  -0.132  1.00  0.00    -0.000 C 
BRANCH   9  10
ATOM     10  C   UNL     1     -21.950  21.844   1.379  1.00  0.00    -0.000 C 
BRANCH  10  11
ATOM     11  C   UNL     1     -20.691  22.253   2.173  1.00  0.00    -0.003 C 
ATOM     12  C   UNL     1     -19.648  21.137   2.223  1.00  0.00     0.004 C 
ENDBRANCH  10  11
ENDBRANCH   9  10
ENDBRANCH   8   9
ENDBRANCH   7   8
ENDBRANCH   6   7
ENDBRANCH   5   6
ENDBRANCH   4   5
ENDBRANCH   3   4
ENDBRANCH   2   3
ENDBRANCH   1   2
BRANCH   1  13
ATOM     13  C   UNL     1     -16.488  28.173  -0.055  1.00  0.00     0.000 C 
BRANCH  13  14
ATOM     14  C   UNL     1     -16.289  28.670   1.388  1.00  0.00     0.000 C 
BRANCH  14  15
ATOM     15  C   UNL     1     -15.448  29.951   1.472  1.00  0.00     0.000 C 
BRANCH  15  16
ATOM     16  C   UNL     1     -15.988  30.894   2.558  1.00  0.00     0.000 C 
BRANCH  16  17
ATOM     17  C   UNL     1     -16.615  32.170   1.974  1.00  0.00     0.000 C 
BRANCH  17  18
ATOM     18  C   UNL     1     -15.965  32.597   0.645  1.00  0.00     0.000 C 
BRANCH  18  19
ATOM     19  C   UNL     1     -16.887  33.478  -0.216  1.00  0.00     0.000 C 
BRANCH  19  20
ATOM     20  C   UNL     1     -18.031  32.725  -0.924  1.00  0.00     0.006 C 
BRANCH  20  21
ATOM     21  C   UNL     1     -17.789  31.218  -1.105  1.00  0.00     0.053 C 
BRANCH  21  22
ATOM     22  C   UNL     1     -18.690  30.627  -2.146  1.00  0.00     0.041 C 
ATOM     23  O   UNL     1     -18.509  30.888  -3.365  1.00  0.00    -0.550 OA
ATOM     24  O   UNL     1     -19.715  29.769  -1.772  1.00  0.00    -0.550 OA
ENDBRANCH  21  22
ENDBRANCH  20  21
ENDBRANCH  19  20
ENDBRANCH  18  19
ENDBRANCH  17  18
ENDBRANCH  16  17
ENDBRANCH  15  16
ENDBRANCH  14  15
ENDBRANCH  13  14
ENDBRANCH   1  13
TORSDOF 20
ENDMDL
