MODEL 1
REMARK VINA RESULT:    -7.302      0.000      0.000
REMARK INTER + INTRA:          -8.209
REMARK INTER:                  -8.156
REMARK INTRA:                  -0.053
REMARK UNBOUND:                -0.053
REMARK SMILES COc1cc2ccc(=O)oc2c(O)c1O
REMARK SMILES IDX 3 1 14 2 12 3 11 4 5 5 4 6 6 7 7 8 8 9 9 10 10 11 2 12 1 13
REMARK SMILES IDX 15 14 13 16
REMARK H PARENT 15 15 13 17
REMARK Flexibility Score: inf
ROOT
ATOM      1  C   UNL     1      34.041  26.757  20.575  1.00  0.00     0.165 A 
ATOM      2  C   UNL     1      33.569  28.027  20.203  1.00  0.00     0.204 A 
ATOM      3  C   UNL     1      33.203  28.282  18.858  1.00  0.00     0.205 A 
ATOM      4  C   UNL     1      33.316  27.261  17.905  1.00  0.00     0.184 A 
ATOM      5  C   UNL     1      33.791  25.988  18.282  1.00  0.00     0.025 A 
ATOM      6  C   UNL     1      34.151  25.740  19.609  1.00  0.00     0.062 A 
ATOM      7  C   UNL     1      33.890  24.994  17.302  1.00  0.00     0.020 A 
ATOM      8  C   UNL     1      33.521  25.285  15.990  1.00  0.00     0.094 A 
ATOM      9  C   UNL     1      33.059  26.569  15.687  1.00  0.00     0.336 A 
ATOM     10  O   UNL     1      32.719  26.853  14.508  1.00  0.00    -0.246 OA
ATOM     11  O   UNL     1      32.974  27.495  16.639  1.00  0.00    -0.419 OA
ENDROOT
BRANCH   1  12
ATOM     12  O   UNL     1      34.392  26.547  21.918  1.00  0.00    -0.493 OA
ATOM     13  C   UNL     1      35.715  26.655  22.435  1.00  0.00     0.278 C 
ENDBRANCH   1  12
BRANCH   2  14
ATOM     14  O   UNL     1      33.479  29.004  21.198  1.00  0.00    -0.502 OA
ATOM     15  H   UNL     1      34.041  29.015  22.037  1.00  0.00     0.293 HD
ENDBRANCH   2  14
BRANCH   3  16
ATOM     16  O   UNL     1      32.727  29.526  18.431  1.00  0.00    -0.502 OA
ATOM     17  H   UNL     1      33.232  30.393  18.537  1.00  0.00     0.293 HD
ENDBRANCH   3  16
TORSDOF 3
ENDMDL
MODEL 2
REMARK VINA RESULT:    -7.062      1.950      5.034
REMARK INTER + INTRA:          -7.941
REMARK INTER:                  -7.872
REMARK INTRA:                  -0.069
REMARK UNBOUND:                -0.053
REMARK SMILES COc1cc2ccc(=O)oc2c(O)c1O
REMARK SMILES IDX 3 1 14 2 12 3 11 4 5 5 4 6 6 7 7 8 8 9 9 10 10 11 2 12 1 13
REMARK SMILES IDX 15 14 13 16
REMARK H PARENT 15 15 13 17
REMARK Flexibility Score: inf
ROOT
ATOM      1  C   UNL     1      32.794  28.247  16.724  1.00  0.00     0.165 A 
ATOM      2  C   UNL     1      33.112  27.099  15.978  1.00  0.00     0.204 A 
ATOM      3  C   UNL     1      33.648  25.959  16.625  1.00  0.00     0.205 A 
ATOM      4  C   UNL     1      33.858  25.984  18.010  1.00  0.00     0.184 A 
ATOM      5  C   UNL     1      33.539  27.137  18.755  1.00  0.00     0.025 A 
ATOM      6  C   UNL     1      33.010  28.261  18.115  1.00  0.00     0.062 A 
ATOM      7  C   UNL     1      33.764  27.124  20.136  1.00  0.00     0.020 A 
ATOM      8  C   UNL     1      34.293  25.982  20.735  1.00  0.00     0.094 A 
ATOM      9  C   UNL     1      34.587  24.874  19.934  1.00  0.00     0.336 A 
ATOM     10  O   UNL     1      35.065  23.832  20.454  1.00  0.00    -0.246 OA
ATOM     11  O   UNL     1      34.362  24.913  18.623  1.00  0.00    -0.419 OA
ENDROOT
BRANCH   1  12
ATOM     12  O   UNL     1      32.264  29.356  16.044  1.00  0.00    -0.493 OA
ATOM     13  C   UNL     1      30.924  29.821  16.176  1.00  0.00     0.278 C 
ENDBRANCH   1  12
BRANCH   2  14
ATOM     14  O   UNL     1      32.879  27.136  14.600  1.00  0.00    -0.502 OA
ATOM     15  H   UNL     1      33.592  27.309  13.907  1.00  0.00     0.293 HD
ENDBRANCH   2  14
BRANCH   3  16
ATOM     16  O   UNL     1      33.982  24.790  15.933  1.00  0.00    -0.502 OA
ATOM     17  H   UNL     1      34.431  24.774  15.029  1.00  0.00     0.293 HD
ENDBRANCH   3  16
TORSDOF 3
ENDMDL
MODEL 3
REMARK VINA RESULT:    -6.956      1.566      2.266
REMARK INTER + INTRA:          -7.822
REMARK INTER:                  -7.767
REMARK INTRA:                  -0.055
REMARK UNBOUND:                -0.053
REMARK SMILES COc1cc2ccc(=O)oc2c(O)c1O
REMARK SMILES IDX 3 1 14 2 12 3 11 4 5 5 4 6 6 7 7 8 8 9 9 10 10 11 2 12 1 13
REMARK SMILES IDX 15 14 13 16
REMARK H PARENT 15 15 13 17
REMARK Flexibility Score: inf
ROOT
ATOM      1  C   UNL     1      34.544  24.656  19.716  1.00  0.00     0.165 A 
ATOM      2  C   UNL     1      34.300  25.913  20.297  1.00  0.00     0.204 A 
ATOM      3  C   UNL     1      33.803  26.976  19.503  1.00  0.00     0.205 A 
ATOM      4  C   UNL     1      33.557  26.766  18.140  1.00  0.00     0.184 A 
ATOM      5  C   UNL     1      33.803  25.504  17.561  1.00  0.00     0.025 A 
ATOM      6  C   UNL     1      34.294  24.457  18.346  1.00  0.00     0.062 A 
ATOM      7  C   UNL     1      33.546  25.333  16.196  1.00  0.00     0.020 A 
ATOM      8  C   UNL     1      33.058  26.405  15.450  1.00  0.00     0.094 A 
ATOM      9  C   UNL     1      32.837  27.628  16.090  1.00  0.00     0.336 A 
ATOM     10  O   UNL     1      32.396  28.609  15.435  1.00  0.00    -0.246 OA
ATOM     11  O   UNL     1      33.090  27.763  17.390  1.00  0.00    -0.419 OA
ENDROOT
BRANCH   1  12
ATOM     12  O   UNL     1      35.036  23.629  20.538  1.00  0.00    -0.493 OA
ATOM     13  C   UNL     1      34.782  22.242  20.338  1.00  0.00     0.278 C 
ENDBRANCH   1  12
BRANCH   2  14
ATOM     14  O   UNL     1      34.564  26.060  21.661  1.00  0.00    -0.502 OA
ATOM     15  H   UNL     1      35.485  26.206  22.049  1.00  0.00     0.293 HD
ENDBRANCH   2  14
BRANCH   3  16
ATOM     16  O   UNL     1      33.542  28.246  20.027  1.00  0.00    -0.502 OA
ATOM     17  H   UNL     1      33.271  29.044  19.472  1.00  0.00     0.293 HD
ENDBRANCH   3  16
TORSDOF 3
ENDMDL
MODEL 4
REMARK VINA RESULT:    -6.928      1.763      5.452
REMARK INTER + INTRA:          -7.791
REMARK INTER:                  -7.737
REMARK INTRA:                  -0.054
REMARK UNBOUND:                -0.053
REMARK SMILES COc1cc2ccc(=O)oc2c(O)c1O
REMARK SMILES IDX 3 1 14 2 12 3 11 4 5 5 4 6 6 7 7 8 8 9 9 10 10 11 2 12 1 13
REMARK SMILES IDX 15 14 13 16
REMARK H PARENT 15 15 13 17
REMARK Flexibility Score: inf
ROOT
ATOM      1  C   UNL     1      33.259  25.843  17.185  1.00  0.00     0.165 A 
ATOM      2  C   UNL     1      33.811  24.727  17.835  1.00  0.00     0.204 A 
ATOM      3  C   UNL     1      34.220  24.823  19.188  1.00  0.00     0.205 A 
ATOM      4  C   UNL     1      34.069  26.038  19.871  1.00  0.00     0.184 A 
ATOM      5  C   UNL     1      33.515  27.156  19.215  1.00  0.00     0.025 A 
ATOM      6  C   UNL     1      33.113  27.058  17.881  1.00  0.00     0.062 A 
ATOM      7  C   UNL     1      33.381  28.352  19.930  1.00  0.00     0.020 A 
ATOM      8  C   UNL     1      33.795  28.406  21.260  1.00  0.00     0.094 A 
ATOM      9  C   UNL     1      34.336  27.258  21.847  1.00  0.00     0.336 A 
ATOM     10  O   UNL     1      34.717  27.285  23.046  1.00  0.00    -0.246 OA
ATOM     11  O   UNL     1      34.452  26.134  21.143  1.00  0.00    -0.419 OA
ENDROOT
BRANCH   1  12
ATOM     12  O   UNL     1      32.867  25.705  15.843  1.00  0.00    -0.493 OA
ATOM     13  C   UNL     1      32.764  26.780  14.915  1.00  0.00     0.278 C 
ENDBRANCH   1  12
BRANCH   2  14
ATOM     14  O   UNL     1      33.935  23.544  17.100  1.00  0.00    -0.502 OA
ATOM     15  H   UNL     1      33.163  23.060  16.667  1.00  0.00     0.293 HD
ENDBRANCH   2  14
BRANCH   3  16
ATOM     16  O   UNL     1      34.775  23.746  19.884  1.00  0.00    -0.502 OA
ATOM     17  H   UNL     1      35.650  23.784  20.386  1.00  0.00     0.293 HD
ENDBRANCH   3  16
TORSDOF 3
ENDMDL
MODEL 5
REMARK VINA RESULT:    -6.833      1.120      4.790
REMARK INTER + INTRA:          -7.685
REMARK INTER:                  -7.633
REMARK INTRA:                  -0.052
REMARK UNBOUND:                -0.053
REMARK SMILES COc1cc2ccc(=O)oc2c(O)c1O
REMARK SMILES IDX 3 1 14 2 12 3 11 4 5 5 4 6 6 7 7 8 8 9 9 10 10 11 2 12 1 13
REMARK SMILES IDX 15 14 13 16
REMARK H PARENT 15 15 13 17
REMARK Flexibility Score: inf
ROOT
ATOM      1  C   UNL     1      33.275  27.008  17.545  1.00  0.00     0.165 A 
ATOM      2  C   UNL     1      32.783  28.246  17.991  1.00  0.00     0.204 A 
ATOM      3  C   UNL     1      32.912  28.611  19.354  1.00  0.00     0.205 A 
ATOM      4  C   UNL     1      33.533  27.730  20.251  1.00  0.00     0.184 A 
ATOM      5  C   UNL     1      34.025  26.489  19.799  1.00  0.00     0.025 A 
ATOM      6  C   UNL     1      33.897  26.131  18.454  1.00  0.00     0.062 A 
ATOM      7  C   UNL     1      34.638  25.636  20.724  1.00  0.00     0.020 A 
ATOM      8  C   UNL     1      34.745  26.033  22.056  1.00  0.00     0.094 A 
ATOM      9  C   UNL     1      34.234  27.278  22.434  1.00  0.00     0.336 A 
ATOM     10  O   UNL     1      34.320  27.656  23.632  1.00  0.00    -0.246 OA
ATOM     11  O   UNL     1      33.656  28.069  21.533  1.00  0.00    -0.419 OA
ENDROOT
BRANCH   1  12
ATOM     12  O   UNL     1      33.127  26.685  16.186  1.00  0.00    -0.493 OA
ATOM     13  C   UNL     1      33.681  25.529  15.565  1.00  0.00     0.278 C 
ENDBRANCH   1  12
BRANCH   2  14
ATOM     14  O   UNL     1      32.174  29.080  17.050  1.00  0.00    -0.502 OA
ATOM     15  H   UNL     1      32.384  30.062  16.940  1.00  0.00     0.293 HD
ENDBRANCH   2  14
BRANCH   3  16
ATOM     16  O   UNL     1      32.441  29.829  19.854  1.00  0.00    -0.502 OA
ATOM     17  H   UNL     1      32.703  30.732  19.486  1.00  0.00     0.293 HD
ENDBRANCH   3  16
TORSDOF 3
ENDMDL
MODEL 6
REMARK VINA RESULT:    -6.713      1.575      2.803
REMARK INTER + INTRA:          -7.551
REMARK INTER:                  -7.498
REMARK INTRA:                  -0.053
REMARK UNBOUND:                -0.053
REMARK SMILES COc1cc2ccc(=O)oc2c(O)c1O
REMARK SMILES IDX 3 1 14 2 12 3 11 4 5 5 4 6 6 7 7 8 8 9 9 10 10 11 2 12 1 13
REMARK SMILES IDX 15 14 13 16
REMARK H PARENT 15 15 13 17
REMARK Flexibility Score: inf
ROOT
ATOM      1  C   UNL     1      34.146  26.441  20.446  1.00  0.00     0.165 A 
ATOM      2  C   UNL     1      34.362  25.249  19.734  1.00  0.00     0.204 A 
ATOM      3  C   UNL     1      34.066  25.186  18.350  1.00  0.00     0.205 A 
ATOM      4  C   UNL     1      33.559  26.319  17.699  1.00  0.00     0.184 A 
ATOM      5  C   UNL     1      33.343  27.513  18.417  1.00  0.00     0.025 A 
ATOM      6  C   UNL     1      33.636  27.572  19.782  1.00  0.00     0.062 A 
ATOM      7  C   UNL     1      32.835  28.623  17.733  1.00  0.00     0.020 A 
ATOM      8  C   UNL     1      32.556  28.520  16.371  1.00  0.00     0.094 A 
ATOM      9  C   UNL     1      32.794  27.305  15.722  1.00  0.00     0.336 A 
ATOM     10  O   UNL     1      32.550  27.190  14.493  1.00  0.00    -0.246 OA
ATOM     11  O   UNL     1      33.279  26.265  16.398  1.00  0.00    -0.419 OA
ENDROOT
BRANCH   1  12
ATOM     12  O   UNL     1      34.453  26.460  21.817  1.00  0.00    -0.493 OA
ATOM     13  C   UNL     1      34.006  27.456  22.732  1.00  0.00     0.278 C 
ENDBRANCH   1  12
BRANCH   2  14
ATOM     14  O   UNL     1      34.870  24.154  20.439  1.00  0.00    -0.502 OA
ATOM     15  H   UNL     1      35.696  24.185  21.018  1.00  0.00     0.293 HD
ENDBRANCH   2  14
BRANCH   3  16
ATOM     16  O   UNL     1      34.260  24.028  17.591  1.00  0.00    -0.502 OA
ATOM     17  H   UNL     1      33.516  23.500  17.160  1.00  0.00     0.293 HD
ENDBRANCH   3  16
TORSDOF 3
ENDMDL
MODEL 7
REMARK VINA RESULT:    -6.621      1.776      2.955
REMARK INTER + INTRA:          -7.448
REMARK INTER:                  -7.380
REMARK INTRA:                  -0.068
REMARK UNBOUND:                -0.053
REMARK SMILES COc1cc2ccc(=O)oc2c(O)c1O
REMARK SMILES IDX 3 1 14 2 12 3 11 4 5 5 4 6 6 7 7 8 8 9 9 10 10 11 2 12 1 13
REMARK SMILES IDX 15 14 13 16
REMARK H PARENT 15 15 13 17
REMARK Flexibility Score: inf
ROOT
ATOM      1  C   UNL     1      33.997  27.475  21.744  1.00  0.00     0.165 A 
ATOM      2  C   UNL     1      34.578  26.198  21.665  1.00  0.00     0.204 A 
ATOM      3  C   UNL     1      34.624  25.515  20.426  1.00  0.00     0.205 A 
ATOM      4  C   UNL     1      34.086  26.119  19.282  1.00  0.00     0.184 A 
ATOM      5  C   UNL     1      33.503  27.400  19.364  1.00  0.00     0.025 A 
ATOM      6  C   UNL     1      33.459  28.072  20.588  1.00  0.00     0.062 A 
ATOM      7  C   UNL     1      32.975  27.971  18.200  1.00  0.00     0.020 A 
ATOM      8  C   UNL     1      33.039  27.265  17.000  1.00  0.00     0.094 A 
ATOM      9  C   UNL     1      33.632  25.999  16.991  1.00  0.00     0.336 A 
ATOM     10  O   UNL     1      33.701  25.344  15.919  1.00  0.00    -0.246 OA
ATOM     11  O   UNL     1      34.126  25.480  18.113  1.00  0.00    -0.419 OA
ENDROOT
BRANCH   1  12
ATOM     12  O   UNL     1      33.972  28.119  22.992  1.00  0.00    -0.493 OA
ATOM     13  C   UNL     1      34.859  29.164  23.381  1.00  0.00     0.278 C 
ENDBRANCH   1  12
BRANCH   2  14
ATOM     14  O   UNL     1      35.098  25.649  22.841  1.00  0.00    -0.502 OA
ATOM     15  H   UNL     1      36.041  25.299  22.937  1.00  0.00     0.293 HD
ENDBRANCH   2  14
BRANCH   3  16
ATOM     16  O   UNL     1      35.191  24.243  20.289  1.00  0.00    -0.502 OA
ATOM     17  H   UNL     1      36.076  24.062  19.839  1.00  0.00     0.293 HD
ENDBRANCH   3  16
TORSDOF 3
ENDMDL
MODEL 8
REMARK VINA RESULT:    -6.254      1.650      5.341
REMARK INTER + INTRA:          -7.039
REMARK INTER:                  -6.986
REMARK INTRA:                  -0.053
REMARK UNBOUND:                -0.053
REMARK SMILES COc1cc2ccc(=O)oc2c(O)c1O
REMARK SMILES IDX 3 1 14 2 12 3 11 4 5 5 4 6 6 7 7 8 8 9 9 10 10 11 2 12 1 13
REMARK SMILES IDX 15 14 13 16
REMARK H PARENT 15 15 13 17
REMARK Flexibility Score: inf
ROOT
ATOM      1  C   UNL     1      32.964  27.820  17.641  1.00  0.00     0.165 A 
ATOM      2  C   UNL     1      33.288  26.458  17.531  1.00  0.00     0.204 A 
ATOM      3  C   UNL     1      33.772  25.750  18.659  1.00  0.00     0.205 A 
ATOM      4  C   UNL     1      33.924  26.418  19.881  1.00  0.00     0.184 A 
ATOM      5  C   UNL     1      33.599  27.786  19.988  1.00  0.00     0.025 A 
ATOM      6  C   UNL     1      33.122  28.481  18.873  1.00  0.00     0.062 A 
ATOM      7  C   UNL     1      33.765  28.419  21.225  1.00  0.00     0.020 A 
ATOM      8  C   UNL     1      34.244  27.688  22.310  1.00  0.00     0.094 A 
ATOM      9  C   UNL     1      34.547  26.334  22.133  1.00  0.00     0.336 A 
ATOM     10  O   UNL     1      34.981  25.655  23.100  1.00  0.00    -0.246 OA
ATOM     11  O   UNL     1      34.379  25.757  20.945  1.00  0.00    -0.419 OA
ENDROOT
BRANCH   1  12
ATOM     12  O   UNL     1      32.488  28.484  16.498  1.00  0.00    -0.493 OA
ATOM     13  C   UNL     1      31.783  29.722  16.517  1.00  0.00     0.278 C 
ENDBRANCH   1  12
BRANCH   2  14
ATOM     14  O   UNL     1      33.114  25.847  16.285  1.00  0.00    -0.502 OA
ATOM     15  H   UNL     1      33.436  24.918  16.058  1.00  0.00     0.293 HD
ENDBRANCH   2  14
BRANCH   3  16
ATOM     16  O   UNL     1      34.109  24.394  18.608  1.00  0.00    -0.502 OA
ATOM     17  H   UNL     1      34.436  23.861  19.400  1.00  0.00     0.293 HD
ENDBRANCH   3  16
TORSDOF 3
ENDMDL
