MODEL 1
REMARK VINA RESULT:    -5.345      0.000      0.000
REMARK INTER + INTRA:          -6.023
REMARK INTER:                  -5.970
REMARK INTRA:                  -0.053
REMARK UNBOUND:                -0.053
REMARK SMILES COc1cc2ccc(=O)oc2c(O)c1O
REMARK SMILES IDX 3 1 14 2 12 3 11 4 5 5 4 6 6 7 7 8 8 9 9 10 10 11 2 12 1 13
REMARK SMILES IDX 15 14 13 16
REMARK H PARENT 15 15 13 17
REMARK Flexibility Score: inf
ROOT
ATOM      1  C   UNL     1      18.362  -1.306 -15.389  1.00  0.00     0.165 A 
ATOM      2  C   UNL     1      19.229  -0.207 -15.556  1.00  0.00     0.204 A 
ATOM      3  C   UNL     1      19.969  -0.063 -16.745  1.00  0.00     0.205 A 
ATOM      4  C   UNL     1      19.844  -1.012 -17.766  1.00  0.00     0.184 A 
ATOM      5  C   UNL     1      18.979  -2.113 -17.602  1.00  0.00     0.025 A 
ATOM      6  C   UNL     1      18.243  -2.258 -16.421  1.00  0.00     0.062 A 
ATOM      7  C   UNL     1      18.879  -3.044 -18.642  1.00  0.00     0.020 A 
ATOM      8  C   UNL     1      19.630  -2.860 -19.801  1.00  0.00     0.094 A 
ATOM      9  C   UNL     1      20.469  -1.745 -19.894  1.00  0.00     0.336 A 
ATOM     10  O   UNL     1      21.157  -1.560 -20.932  1.00  0.00    -0.246 OA
ATOM     11  O   UNL     1      20.545  -0.875 -18.890  1.00  0.00    -0.419 OA
ENDROOT
BRANCH   1  12
ATOM     12  O   UNL     1      17.639  -1.418 -14.190  1.00  0.00    -0.493 OA
ATOM     13  C   UNL     1      16.297  -1.888 -14.095  1.00  0.00     0.278 C 
ENDBRANCH   1  12
BRANCH   2  14
ATOM     14  O   UNL     1      19.364   0.749 -14.548  1.00  0.00    -0.502 OA
ATOM     15  H   UNL     1      19.777   0.535 -13.649  1.00  0.00     0.293 HD
ENDBRANCH   2  14
BRANCH   3  16
ATOM     16  O   UNL     1      20.831   1.020 -16.925  1.00  0.00    -0.502 OA
ATOM     17  H   UNL     1      20.871   1.539 -17.794  1.00  0.00     0.293 HD
ENDBRANCH   3  16
TORSDOF 3
ENDMDL
MODEL 2
REMARK VINA RESULT:    -5.337     12.881     14.306
REMARK INTER + INTRA:          -6.014
REMARK INTER:                  -5.949
REMARK INTRA:                  -0.065
REMARK UNBOUND:                -0.053
REMARK SMILES COc1cc2ccc(=O)oc2c(O)c1O
REMARK SMILES IDX 3 1 14 2 12 3 11 4 5 5 4 6 6 7 7 8 8 9 9 10 10 11 2 12 1 13
REMARK SMILES IDX 15 14 13 16
REMARK H PARENT 15 15 13 17
REMARK Flexibility Score: inf
ROOT
ATOM      1  C   UNL     1       8.539  -6.114  -6.905  1.00  0.00     0.165 A 
ATOM      2  C   UNL     1       9.883  -5.772  -7.159  1.00  0.00     0.204 A 
ATOM      3  C   UNL     1      10.496  -6.157  -8.365  1.00  0.00     0.205 A 
ATOM      4  C   UNL     1       9.772  -6.881  -9.319  1.00  0.00     0.184 A 
ATOM      5  C   UNL     1       8.427  -7.226  -9.069  1.00  0.00     0.025 A 
ATOM      6  C   UNL     1       7.816  -6.843  -7.869  1.00  0.00     0.062 A 
ATOM      7  C   UNL     1       7.732  -7.951 -10.043  1.00  0.00     0.020 A 
ATOM      8  C   UNL     1       8.380  -8.310 -11.223  1.00  0.00     0.094 A 
ATOM      9  C   UNL     1       9.715  -7.935 -11.403  1.00  0.00     0.336 A 
ATOM     10  O   UNL     1      10.320  -8.250 -12.461  1.00  0.00    -0.246 OA
ATOM     11  O   UNL     1      10.353  -7.245 -10.460  1.00  0.00    -0.419 OA
ENDROOT
BRANCH   1  12
ATOM     12  O   UNL     1       7.959  -5.713  -5.691  1.00  0.00    -0.493 OA
ATOM     13  C   UNL     1       7.894  -6.522  -4.519  1.00  0.00     0.278 C 
ENDBRANCH   1  12
BRANCH   2  14
ATOM     14  O   UNL     1      10.619  -5.049  -6.219  1.00  0.00    -0.502 OA
ATOM     15  H   UNL     1      10.204  -4.329  -5.640  1.00  0.00     0.293 HD
ENDBRANCH   2  14
BRANCH   3  16
ATOM     16  O   UNL     1      11.826  -5.825  -8.630  1.00  0.00    -0.502 OA
ATOM     17  H   UNL     1      12.601  -6.316  -8.200  1.00  0.00     0.293 HD
ENDBRANCH   3  16
TORSDOF 3
ENDMDL
MODEL 3
REMARK VINA RESULT:    -5.028      8.306      9.191
REMARK INTER + INTRA:          -5.669
REMARK INTER:                  -5.620
REMARK INTRA:                  -0.049
REMARK UNBOUND:                -0.053
REMARK SMILES COc1cc2ccc(=O)oc2c(O)c1O
REMARK SMILES IDX 3 1 14 2 12 3 11 4 5 5 4 6 6 7 7 8 8 9 9 10 10 11 2 12 1 13
REMARK SMILES IDX 15 14 13 16
REMARK H PARENT 15 15 13 17
REMARK Flexibility Score: inf
ROOT
ATOM      1  C   UNL     1      14.349   4.798 -17.202  1.00  0.00     0.165 A 
ATOM      2  C   UNL     1      14.118   3.442 -16.895  1.00  0.00     0.204 A 
ATOM      3  C   UNL     1      13.087   2.735 -17.541  1.00  0.00     0.205 A 
ATOM      4  C   UNL     1      12.289   3.377 -18.495  1.00  0.00     0.184 A 
ATOM      5  C   UNL     1      12.516   4.734 -18.805  1.00  0.00     0.025 A 
ATOM      6  C   UNL     1      13.540   5.438 -18.162  1.00  0.00     0.062 A 
ATOM      7  C   UNL     1      11.699   5.345 -19.762  1.00  0.00     0.020 A 
ATOM      8  C   UNL     1      10.692   4.605 -20.377  1.00  0.00     0.094 A 
ATOM      9  C   UNL     1      10.523   3.263 -20.020  1.00  0.00     0.336 A 
ATOM     10  O   UNL     1       9.619   2.576 -20.563  1.00  0.00    -0.246 OA
ATOM     11  O   UNL     1      11.315   2.706 -19.107  1.00  0.00    -0.419 OA
ENDROOT
BRANCH   1  12
ATOM     12  O   UNL     1      15.384   5.474 -16.537  1.00  0.00    -0.493 OA
ATOM     13  C   UNL     1      15.916   6.734 -16.936  1.00  0.00     0.278 C 
ENDBRANCH   1  12
BRANCH   2  14
ATOM     14  O   UNL     1      14.905   2.787 -15.947  1.00  0.00    -0.502 OA
ATOM     15  H   UNL     1      15.854   2.491 -16.140  1.00  0.00     0.293 HD
ENDBRANCH   2  14
BRANCH   3  16
ATOM     16  O   UNL     1      12.847   1.391 -17.247  1.00  0.00    -0.502 OA
ATOM     17  H   UNL     1      12.622   0.714 -17.966  1.00  0.00     0.293 HD
ENDBRANCH   3  16
TORSDOF 3
ENDMDL
MODEL 4
REMARK VINA RESULT:    -5.019      9.286     10.098
REMARK INTER + INTRA:          -5.659
REMARK INTER:                  -5.609
REMARK INTRA:                  -0.051
REMARK UNBOUND:                -0.053
REMARK SMILES COc1cc2ccc(=O)oc2c(O)c1O
REMARK SMILES IDX 3 1 14 2 12 3 11 4 5 5 4 6 6 7 7 8 8 9 9 10 10 11 2 12 1 13
REMARK SMILES IDX 15 14 13 16
REMARK H PARENT 15 15 13 17
REMARK Flexibility Score: inf
ROOT
ATOM      1  C   UNL     1      22.491   7.175 -20.203  1.00  0.00     0.165 A 
ATOM      2  C   UNL     1      22.524   6.252 -21.267  1.00  0.00     0.204 A 
ATOM      3  C   UNL     1      21.383   6.051 -22.067  1.00  0.00     0.205 A 
ATOM      4  C   UNL     1      20.211   6.770 -21.807  1.00  0.00     0.184 A 
ATOM      5  C   UNL     1      20.173   7.694 -20.742  1.00  0.00     0.025 A 
ATOM      6  C   UNL     1      21.307   7.894 -19.946  1.00  0.00     0.062 A 
ATOM      7  C   UNL     1      18.985   8.396 -20.509  1.00  0.00     0.020 A 
ATOM      8  C   UNL     1      17.881   8.165 -21.327  1.00  0.00     0.094 A 
ATOM      9  C   UNL     1      17.991   7.233 -22.364  1.00  0.00     0.336 A 
ATOM     10  O   UNL     1      17.005   7.009 -23.115  1.00  0.00    -0.246 OA
ATOM     11  O   UNL     1      19.132   6.580 -22.564  1.00  0.00    -0.419 OA
ENDROOT
BRANCH   1  12
ATOM     12  O   UNL     1      23.647   7.349 -19.425  1.00  0.00    -0.493 OA
ATOM     13  C   UNL     1      23.961   6.592 -18.260  1.00  0.00     0.278 C 
ENDBRANCH   1  12
BRANCH   2  14
ATOM     14  O   UNL     1      23.685   5.527 -21.540  1.00  0.00    -0.502 OA
ATOM     15  H   UNL     1      24.070   4.853 -20.890  1.00  0.00     0.293 HD
ENDBRANCH   2  14
BRANCH   3  16
ATOM     16  O   UNL     1      21.402   5.140 -23.125  1.00  0.00    -0.502 OA
ATOM     17  H   UNL     1      20.644   5.076 -23.794  1.00  0.00     0.293 HD
ENDBRANCH   3  16
TORSDOF 3
ENDMDL
MODEL 5
REMARK VINA RESULT:    -4.981      9.449     10.113
REMARK INTER + INTRA:          -5.616
REMARK INTER:                  -5.558
REMARK INTRA:                  -0.059
REMARK UNBOUND:                -0.053
REMARK SMILES COc1cc2ccc(=O)oc2c(O)c1O
REMARK SMILES IDX 3 1 14 2 12 3 11 4 5 5 4 6 6 7 7 8 8 9 9 10 10 11 2 12 1 13
REMARK SMILES IDX 15 14 13 16
REMARK H PARENT 15 15 13 17
REMARK Flexibility Score: inf
ROOT
ATOM      1  C   UNL     1      17.889   8.165 -21.084  1.00  0.00     0.165 A 
ATOM      2  C   UNL     1      18.064   7.145 -22.040  1.00  0.00     0.204 A 
ATOM      3  C   UNL     1      19.314   6.514 -22.183  1.00  0.00     0.205 A 
ATOM      4  C   UNL     1      20.388   6.899 -21.372  1.00  0.00     0.184 A 
ATOM      5  C   UNL     1      20.217   7.921 -20.415  1.00  0.00     0.025 A 
ATOM      6  C   UNL     1      18.975   8.548 -20.273  1.00  0.00     0.062 A 
ATOM      7  C   UNL     1      21.312   8.282 -19.622  1.00  0.00     0.020 A 
ATOM      8  C   UNL     1      22.531   7.629 -19.797  1.00  0.00     0.094 A 
ATOM      9  C   UNL     1      22.628   6.626 -20.767  1.00  0.00     0.336 A 
ATOM     10  O   UNL     1      23.720   6.025 -20.942  1.00  0.00    -0.246 OA
ATOM     11  O   UNL     1      21.571   6.302 -21.507  1.00  0.00    -0.419 OA
ENDROOT
BRANCH   1  12
ATOM     12  O   UNL     1      16.628   8.773 -20.970  1.00  0.00    -0.493 OA
ATOM     13  C   UNL     1      15.903   8.908 -19.751  1.00  0.00     0.278 C 
ENDBRANCH   1  12
BRANCH   2  14
ATOM     14  O   UNL     1      17.003   6.748 -22.856  1.00  0.00    -0.502 OA
ATOM     15  H   UNL     1      16.242   7.371 -23.098  1.00  0.00     0.293 HD
ENDBRANCH   2  14
BRANCH   3  16
ATOM     16  O   UNL     1      19.503   5.502 -23.125  1.00  0.00    -0.502 OA
ATOM     17  H   UNL     1      20.087   5.628 -23.943  1.00  0.00     0.293 HD
ENDBRANCH   3  16
TORSDOF 3
ENDMDL
MODEL 6
REMARK VINA RESULT:    -4.895     12.302     14.156
REMARK INTER + INTRA:          -5.521
REMARK INTER:                  -5.464
REMARK INTRA:                  -0.057
REMARK UNBOUND:                -0.053
REMARK SMILES COc1cc2ccc(=O)oc2c(O)c1O
REMARK SMILES IDX 3 1 14 2 12 3 11 4 5 5 4 6 6 7 7 8 8 9 9 10 10 11 2 12 1 13
REMARK SMILES IDX 15 14 13 16
REMARK H PARENT 15 15 13 17
REMARK Flexibility Score: inf
ROOT
ATOM      1  C   UNL     1       8.157  -5.771  -7.322  1.00  0.00     0.165 A 
ATOM      2  C   UNL     1       7.688  -5.129  -8.486  1.00  0.00     0.204 A 
ATOM      3  C   UNL     1       8.236  -5.448  -9.742  1.00  0.00     0.205 A 
ATOM      4  C   UNL     1       9.250  -6.407  -9.839  1.00  0.00     0.184 A 
ATOM      5  C   UNL     1       9.723  -7.052  -8.678  1.00  0.00     0.025 A 
ATOM      6  C   UNL     1       9.179  -6.735  -7.428  1.00  0.00     0.062 A 
ATOM      7  C   UNL     1      10.739  -8.006  -8.810  1.00  0.00     0.020 A 
ATOM      8  C   UNL     1      11.251  -8.290 -10.074  1.00  0.00     0.094 A 
ATOM      9  C   UNL     1      10.735  -7.611 -11.182  1.00  0.00     0.336 A 
ATOM     10  O   UNL     1      11.184  -7.852 -12.334  1.00  0.00    -0.246 OA
ATOM     11  O   UNL     1       9.769  -6.709 -11.028  1.00  0.00    -0.419 OA
ENDROOT
BRANCH   1  12
ATOM     12  O   UNL     1       7.587  -5.428  -6.086  1.00  0.00    -0.493 OA
ATOM     13  C   UNL     1       8.331  -5.116  -4.911  1.00  0.00     0.278 C 
ENDBRANCH   1  12
BRANCH   2  14
ATOM     14  O   UNL     1       6.676  -4.170  -8.406  1.00  0.00    -0.502 OA
ATOM     15  H   UNL     1       6.835  -3.242  -8.033  1.00  0.00     0.293 HD
ENDBRANCH   2  14
BRANCH   3  16
ATOM     16  O   UNL     1       7.781  -4.820 -10.903  1.00  0.00    -0.502 OA
ATOM     17  H   UNL     1       6.795  -4.698 -11.099  1.00  0.00     0.293 HD
ENDBRANCH   3  16
TORSDOF 3
ENDMDL
MODEL 7
REMARK VINA RESULT:    -4.891      9.685     10.649
REMARK INTER + INTRA:          -5.516
REMARK INTER:                  -5.450
REMARK INTRA:                  -0.066
REMARK UNBOUND:                -0.053
REMARK SMILES COc1cc2ccc(=O)oc2c(O)c1O
REMARK SMILES IDX 3 1 14 2 12 3 11 4 5 5 4 6 6 7 7 8 8 9 9 10 10 11 2 12 1 13
REMARK SMILES IDX 15 14 13 16
REMARK H PARENT 15 15 13 17
REMARK Flexibility Score: inf
ROOT
ATOM      1  C   UNL     1      10.732   3.675 -19.794  1.00  0.00     0.165 A 
ATOM      2  C   UNL     1      11.735   3.116 -18.976  1.00  0.00     0.204 A 
ATOM      3  C   UNL     1      12.632   3.951 -18.284  1.00  0.00     0.205 A 
ATOM      4  C   UNL     1      12.529   5.341 -18.405  1.00  0.00     0.184 A 
ATOM      5  C   UNL     1      11.528   5.905 -19.223  1.00  0.00     0.025 A 
ATOM      6  C   UNL     1      10.636   5.075 -19.912  1.00  0.00     0.062 A 
ATOM      7  C   UNL     1      11.453   7.298 -19.323  1.00  0.00     0.020 A 
ATOM      8  C   UNL     1      12.362   8.085 -18.619  1.00  0.00     0.094 A 
ATOM      9  C   UNL     1      13.330   7.458 -17.827  1.00  0.00     0.336 A 
ATOM     10  O   UNL     1      14.161   8.151 -17.183  1.00  0.00    -0.246 OA
ATOM     11  O   UNL     1      13.378   6.131 -17.750  1.00  0.00    -0.419 OA
ENDROOT
BRANCH   1  12
ATOM     12  O   UNL     1       9.855   2.812 -20.470  1.00  0.00    -0.493 OA
ATOM     13  C   UNL     1       8.461   2.701 -20.199  1.00  0.00     0.278 C 
ENDBRANCH   1  12
BRANCH   2  14
ATOM     14  O   UNL     1      11.851   1.731 -18.844  1.00  0.00    -0.502 OA
ATOM     15  H   UNL     1      11.052   1.112 -18.901  1.00  0.00     0.293 HD
ENDBRANCH   2  14
BRANCH   3  16
ATOM     16  O   UNL     1      13.630   3.412 -17.470  1.00  0.00    -0.502 OA
ATOM     17  H   UNL     1      14.024   3.923 -16.690  1.00  0.00     0.293 HD
ENDBRANCH   3  16
TORSDOF 3
ENDMDL
MODEL 8
REMARK VINA RESULT:    -4.811      8.689     11.055
REMARK INTER + INTRA:          -5.426
REMARK INTER:                  -5.376
REMARK INTRA:                  -0.050
REMARK UNBOUND:                -0.053
REMARK SMILES COc1cc2ccc(=O)oc2c(O)c1O
REMARK SMILES IDX 3 1 14 2 12 3 11 4 5 5 4 6 6 7 7 8 8 9 9 10 10 11 2 12 1 13
REMARK SMILES IDX 15 14 13 16
REMARK H PARENT 15 15 13 17
REMARK Flexibility Score: inf
ROOT
ATOM      1  C   UNL     1      19.769  -1.860  -8.506  1.00  0.00     0.165 A 
ATOM      2  C   UNL     1      19.197  -2.245  -7.277  1.00  0.00     0.204 A 
ATOM      3  C   UNL     1      20.003  -2.782  -6.257  1.00  0.00     0.205 A 
ATOM      4  C   UNL     1      21.379  -2.933  -6.460  1.00  0.00     0.184 A 
ATOM      5  C   UNL     1      21.957  -2.550  -7.688  1.00  0.00     0.025 A 
ATOM      6  C   UNL     1      21.155  -2.017  -8.704  1.00  0.00     0.062 A 
ATOM      7  C   UNL     1      23.336  -2.717  -7.859  1.00  0.00     0.020 A 
ATOM      8  C   UNL     1      24.095  -3.252  -6.820  1.00  0.00     0.094 A 
ATOM      9  C   UNL     1      23.455  -3.610  -5.629  1.00  0.00     0.336 A 
ATOM     10  O   UNL     1      24.123  -4.096  -4.679  1.00  0.00    -0.246 OA
ATOM     11  O   UNL     1      22.143  -3.441  -5.494  1.00  0.00    -0.419 OA
ENDROOT
BRANCH   1  12
ATOM     12  O   UNL     1      18.935  -1.328  -9.503  1.00  0.00    -0.493 OA
ATOM     13  C   UNL     1      19.361  -0.424 -10.518  1.00  0.00     0.278 C 
ENDBRANCH   1  12
BRANCH   2  14
ATOM     14  O   UNL     1      17.826  -2.099  -7.058  1.00  0.00    -0.502 OA
ATOM     15  H   UNL     1      17.453  -1.544  -6.298  1.00  0.00     0.293 HD
ENDBRANCH   2  14
BRANCH   3  16
ATOM     16  O   UNL     1      19.450  -3.167  -5.034  1.00  0.00    -0.502 OA
ATOM     17  H   UNL     1      19.426  -4.134  -4.734  1.00  0.00     0.293 HD
ENDBRANCH   3  16
TORSDOF 3
ENDMDL
MODEL 9
REMARK VINA RESULT:    -4.795     10.346     13.784
REMARK INTER + INTRA:          -5.408
REMARK INTER:                  -5.359
REMARK INTRA:                  -0.050
REMARK UNBOUND:                -0.053
REMARK SMILES COc1cc2ccc(=O)oc2c(O)c1O
REMARK SMILES IDX 3 1 14 2 12 3 11 4 5 5 4 6 6 7 7 8 8 9 9 10 10 11 2 12 1 13
REMARK SMILES IDX 15 14 13 16
REMARK H PARENT 15 15 13 17
REMARK Flexibility Score: inf
ROOT
ATOM      1  C   UNL     1      11.442  -6.191  -9.818  1.00  0.00     0.165 A 
ATOM      2  C   UNL     1      10.597  -6.289  -8.694  1.00  0.00     0.204 A 
ATOM      3  C   UNL     1       9.343  -6.920  -8.803  1.00  0.00     0.205 A 
ATOM      4  C   UNL     1       8.933  -7.453 -10.030  1.00  0.00     0.184 A 
ATOM      5  C   UNL     1       9.775  -7.356 -11.157  1.00  0.00     0.025 A 
ATOM      6  C   UNL     1      11.021  -6.729 -11.050  1.00  0.00     0.062 A 
ATOM      7  C   UNL     1       9.333  -7.899 -12.369  1.00  0.00     0.020 A 
ATOM      8  C   UNL     1       8.084  -8.515 -12.429  1.00  0.00     0.094 A 
ATOM      9  C   UNL     1       7.302  -8.574 -11.272  1.00  0.00     0.336 A 
ATOM     10  O   UNL     1       6.170  -9.125 -11.305  1.00  0.00    -0.246 OA
ATOM     11  O   UNL     1       7.747  -8.050 -10.132  1.00  0.00    -0.419 OA
ENDROOT
BRANCH   1  12
ATOM     12  O   UNL     1      12.685  -5.555  -9.673  1.00  0.00    -0.493 OA
ATOM     13  C   UNL     1      13.466  -5.050 -10.753  1.00  0.00     0.278 C 
ENDBRANCH   1  12
BRANCH   2  14
ATOM     14  O   UNL     1      10.992  -5.764  -7.463  1.00  0.00    -0.502 OA
ATOM     15  H   UNL     1      11.739  -6.170  -6.913  1.00  0.00     0.293 HD
ENDBRANCH   2  14
BRANCH   3  16
ATOM     16  O   UNL     1       8.496  -7.025  -7.698  1.00  0.00    -0.502 OA
ATOM     17  H   UNL     1       8.215  -6.217  -7.156  1.00  0.00     0.293 HD
ENDBRANCH   3  16
TORSDOF 3
ENDMDL
