MODEL 1
REMARK VINA RESULT:    -5.786      0.000      0.000
REMARK INTER + INTRA:          -6.663
REMARK INTER:                  -6.463
REMARK INTRA:                  -0.200
REMARK UNBOUND:                -0.200
REMARK SMILES O=C([O-])c1ccccc1C(=O)[O-]
REMARK SMILES IDX 4 1 9 2 5 3 8 4 6 5 7 6 2 7 1 8 3 9 10 10 11 11 12 12
REMARK H PARENT
REMARK Flexibility Score: inf
ROOT
ATOM      1  C   UNL     1     219.051  -8.681  23.385  1.00  0.00     0.006 A 
ATOM      2  C   UNL     1     220.326  -8.064  23.250  1.00  0.00     0.006 A 
ATOM      3  C   UNL     1     218.070  -8.059  24.178  1.00  0.00     0.010 A 
ATOM      4  C   UNL     1     220.593  -6.882  23.965  1.00  0.00     0.010 A 
ATOM      5  C   UNL     1     218.350  -6.874  24.862  1.00  0.00     0.001 A 
ATOM      6  C   UNL     1     219.612  -6.293  24.764  1.00  0.00     0.001 A 
ENDROOT
BRANCH   1   7
ATOM      7  C   UNL     1     218.722  -9.994  22.782  1.00  0.00     0.072 C 
ATOM      8  O   UNL     1     218.283 -10.070  21.604  1.00  0.00    -0.545 OA
ATOM      9  O   UNL     1     218.960 -11.166  23.491  1.00  0.00    -0.545 OA
ENDBRANCH   1   7
BRANCH   2  10
ATOM     10  C   UNL     1     221.367  -8.573  22.328  1.00  0.00     0.072 C 
ATOM     11  O   UNL     1     222.408  -9.117  22.785  1.00  0.00    -0.545 OA
ATOM     12  O   UNL     1     221.245  -8.402  20.954  1.00  0.00    -0.545 OA
ENDBRANCH   2  10
TORSDOF 2
ENDMDL
MODEL 2
REMARK VINA RESULT:    -5.773      0.110      3.001
REMARK INTER + INTRA:          -6.648
REMARK INTER:                  -6.447
REMARK INTRA:                  -0.201
REMARK UNBOUND:                -0.200
REMARK SMILES O=C([O-])c1ccccc1C(=O)[O-]
REMARK SMILES IDX 4 1 9 2 5 3 8 4 6 5 7 6 2 7 1 8 3 9 10 10 11 11 12 12
REMARK H PARENT
REMARK Flexibility Score: inf
ROOT
ATOM      1  C   UNL     1     220.341  -8.031  23.302  1.00  0.00     0.006 A 
ATOM      2  C   UNL     1     219.103  -8.715  23.457  1.00  0.00     0.006 A 
ATOM      3  C   UNL     1     220.557  -6.835  24.010  1.00  0.00     0.010 A 
ATOM      4  C   UNL     1     218.103  -8.141  24.265  1.00  0.00     0.010 A 
ATOM      5  C   UNL     1     219.558  -6.296  24.822  1.00  0.00     0.001 A 
ATOM      6  C   UNL     1     218.330  -6.942  24.940  1.00  0.00     0.001 A 
ENDROOT
BRANCH   1   7
ATOM      7  C   UNL     1     221.400  -8.484  22.369  1.00  0.00     0.072 C 
ATOM      8  O   UNL     1     222.450  -9.030  22.802  1.00  0.00    -0.545 OA
ATOM      9  O   UNL     1     221.215  -8.372  20.996  1.00  0.00    -0.545 OA
ENDBRANCH   1   7
BRANCH   2  10
ATOM     10  C   UNL     1     218.843 -10.046  22.863  1.00  0.00     0.072 C 
ATOM     11  O   UNL     1     219.084 -11.092  23.521  1.00  0.00    -0.545 OA
ATOM     12  O   UNL     1     218.393 -10.162  21.553  1.00  0.00    -0.545 OA
ENDBRANCH   2  10
TORSDOF 2
ENDMDL
MODEL 3
REMARK VINA RESULT:    -5.766      0.184      1.328
REMARK INTER + INTRA:          -6.640
REMARK INTER:                  -6.458
REMARK INTRA:                  -0.182
REMARK UNBOUND:                -0.200
REMARK SMILES O=C([O-])c1ccccc1C(=O)[O-]
REMARK SMILES IDX 4 1 9 2 5 3 8 4 6 5 7 6 2 7 1 8 3 9 10 10 11 11 12 12
REMARK H PARENT
REMARK Flexibility Score: inf
ROOT
ATOM      1  C   UNL     1     219.061  -8.753  23.482  1.00  0.00     0.006 A 
ATOM      2  C   UNL     1     220.253  -8.002  23.285  1.00  0.00     0.006 A 
ATOM      3  C   UNL     1     218.055  -8.233  24.318  1.00  0.00     0.010 A 
ATOM      4  C   UNL     1     220.422  -6.791  23.981  1.00  0.00     0.010 A 
ATOM      5  C   UNL     1     218.235  -7.018  24.982  1.00  0.00     0.001 A 
ATOM      6  C   UNL     1     219.421  -6.305  24.823  1.00  0.00     0.001 A 
ENDROOT
BRANCH   1   7
ATOM      7  C   UNL     1     218.850 -10.100  22.901  1.00  0.00     0.072 C 
ATOM      8  O   UNL     1     219.066 -11.136  23.584  1.00  0.00    -0.545 OA
ATOM      9  O   UNL     1     218.346 -10.233  21.613  1.00  0.00    -0.545 OA
ENDBRANCH   1   7
BRANCH   2  10
ATOM     10  C   UNL     1     221.301  -8.404  22.318  1.00  0.00     0.072 C 
ATOM     11  O   UNL     1     221.099  -8.287  21.080  1.00  0.00    -0.545 OA
ATOM     12  O   UNL     1     222.490  -8.972  22.756  1.00  0.00    -0.545 OA
ENDBRANCH   2  10
TORSDOF 2
ENDMDL
MODEL 4
REMARK VINA RESULT:    -5.587      1.625      2.286
REMARK INTER + INTRA:          -6.441
REMARK INTER:                  -6.221
REMARK INTRA:                  -0.220
REMARK UNBOUND:                -0.200
REMARK SMILES O=C([O-])c1ccccc1C(=O)[O-]
REMARK SMILES IDX 4 1 9 2 5 3 8 4 6 5 7 6 2 7 1 8 3 9 10 10 11 11 12 12
REMARK H PARENT
REMARK Flexibility Score: inf
ROOT
ATOM      1  C   UNL     1     218.835  -8.553  23.143  1.00  0.00     0.006 A 
ATOM      2  C   UNL     1     219.473  -9.151  24.265  1.00  0.00     0.006 A 
ATOM      3  C   UNL     1     217.799  -7.626  23.359  1.00  0.00     0.010 A 
ATOM      4  C   UNL     1     219.008  -8.849  25.558  1.00  0.00     0.010 A 
ATOM      5  C   UNL     1     217.368  -7.324  24.652  1.00  0.00     0.001 A 
ATOM      6  C   UNL     1     217.964  -7.943  25.749  1.00  0.00     0.001 A 
ENDROOT
BRANCH   1   7
ATOM      7  C   UNL     1     219.162  -8.911  21.743  1.00  0.00     0.072 C 
ATOM      8  O   UNL     1     219.962  -8.210  21.068  1.00  0.00    -0.545 OA
ATOM      9  O   UNL     1     218.638 -10.069  21.178  1.00  0.00    -0.545 OA
ENDBRANCH   1   7
BRANCH   2  10
ATOM     10  C   UNL     1     220.660 -10.029  24.136  1.00  0.00     0.072 C 
ATOM     11  O   UNL     1     220.553 -11.270  24.320  1.00  0.00    -0.545 OA
ATOM     12  O   UNL     1     221.915  -9.491  23.877  1.00  0.00    -0.545 OA
ENDBRANCH   2  10
TORSDOF 2
ENDMDL
MODEL 5
REMARK VINA RESULT:    -5.578      1.606      2.548
REMARK INTER + INTRA:          -6.430
REMARK INTER:                  -6.202
REMARK INTRA:                  -0.227
REMARK UNBOUND:                -0.200
REMARK SMILES O=C([O-])c1ccccc1C(=O)[O-]
REMARK SMILES IDX 4 1 9 2 5 3 8 4 6 5 7 6 2 7 1 8 3 9 10 10 11 11 12 12
REMARK H PARENT
REMARK Flexibility Score: inf
ROOT
ATOM      1  C   UNL     1     219.453  -9.129  24.273  1.00  0.00     0.006 A 
ATOM      2  C   UNL     1     218.843  -8.542  23.130  1.00  0.00     0.006 A 
ATOM      3  C   UNL     1     218.967  -8.804  25.552  1.00  0.00     0.010 A 
ATOM      4  C   UNL     1     217.811  -7.602  23.313  1.00  0.00     0.010 A 
ATOM      5  C   UNL     1     217.927  -7.885  25.709  1.00  0.00     0.001 A 
ATOM      6  C   UNL     1     217.359  -7.277  24.592  1.00  0.00     0.001 A 
ENDROOT
BRANCH   1   7
ATOM      7  C   UNL     1     220.633 -10.022  24.188  1.00  0.00     0.072 C 
ATOM      8  O   UNL     1     220.501 -11.272  24.268  1.00  0.00    -0.545 OA
ATOM      9  O   UNL     1     221.895  -9.490  23.950  1.00  0.00    -0.545 OA
ENDBRANCH   1   7
BRANCH   2  10
ATOM     10  C   UNL     1     219.196  -8.930  21.745  1.00  0.00     0.072 C 
ATOM     11  O   UNL     1     218.644  -9.926  21.206  1.00  0.00    -0.545 OA
ATOM     12  O   UNL     1     220.185  -8.247  21.047  1.00  0.00    -0.545 OA
ENDBRANCH   2  10
TORSDOF 2
ENDMDL
MODEL 6
REMARK VINA RESULT:    -5.562      2.310      4.024
REMARK INTER + INTRA:          -6.412
REMARK INTER:                  -6.287
REMARK INTRA:                  -0.125
REMARK UNBOUND:                -0.200
REMARK SMILES O=C([O-])c1ccccc1C(=O)[O-]
REMARK SMILES IDX 4 1 9 2 5 3 8 4 6 5 7 6 2 7 1 8 3 9 10 10 11 11 12 12
REMARK H PARENT
REMARK Flexibility Score: inf
ROOT
ATOM      1  C   UNL     1     220.289  -8.176  23.692  1.00  0.00     0.006 A 
ATOM      2  C   UNL     1     219.309  -8.378  22.680  1.00  0.00     0.006 A 
ATOM      3  C   UNL     1     221.650  -8.168  23.334  1.00  0.00     0.010 A 
ATOM      4  C   UNL     1     219.730  -8.628  21.360  1.00  0.00     0.010 A 
ATOM      5  C   UNL     1     222.043  -8.397  22.014  1.00  0.00     0.001 A 
ATOM      6  C   UNL     1     221.086  -8.638  21.032  1.00  0.00     0.001 A 
ENDROOT
BRANCH   1   7
ATOM      7  C   UNL     1     219.950  -8.041  25.128  1.00  0.00     0.072 C 
ATOM      8  O   UNL     1     219.675  -9.055  25.823  1.00  0.00    -0.545 OA
ATOM      9  O   UNL     1     219.997  -6.794  25.741  1.00  0.00    -0.545 OA
ENDBRANCH   1   7
BRANCH   2  10
ATOM     10  C   UNL     1     217.855  -8.263  22.940  1.00  0.00     0.072 C 
ATOM     11  O   UNL     1     217.090  -9.234  22.697  1.00  0.00    -0.545 OA
ATOM     12  O   UNL     1     217.307  -7.069  23.392  1.00  0.00    -0.545 OA
ENDBRANCH   2  10
TORSDOF 2
ENDMDL
MODEL 7
REMARK VINA RESULT:    -5.538      2.501      3.219
REMARK INTER + INTRA:          -6.385
REMARK INTER:                  -6.160
REMARK INTRA:                  -0.225
REMARK UNBOUND:                -0.200
REMARK SMILES O=C([O-])c1ccccc1C(=O)[O-]
REMARK SMILES IDX 4 1 9 2 5 3 8 4 6 5 7 6 2 7 1 8 3 9 10 10 11 11 12 12
REMARK H PARENT
REMARK Flexibility Score: inf
ROOT
ATOM      1  C   UNL     1     219.592  -9.235  23.008  1.00  0.00     0.006 A 
ATOM      2  C   UNL     1     220.903  -9.317  23.557  1.00  0.00     0.006 A 
ATOM      3  C   UNL     1     219.435  -8.838  21.668  1.00  0.00     0.010 A 
ATOM      4  C   UNL     1     222.001  -8.937  22.763  1.00  0.00     0.010 A 
ATOM      5  C   UNL     1     220.541  -8.486  20.892  1.00  0.00     0.001 A 
ATOM      6  C   UNL     1     221.820  -8.524  21.442  1.00  0.00     0.001 A 
ENDROOT
BRANCH   1   7
ATOM      7  C   UNL     1     218.368  -9.483  23.805  1.00  0.00     0.072 C 
ATOM      8  O   UNL     1     217.787 -10.600  23.764  1.00  0.00    -0.545 OA
ATOM      9  O   UNL     1     217.883  -8.502  24.663  1.00  0.00    -0.545 OA
ENDBRANCH   1   7
BRANCH   2  10
ATOM     10  C   UNL     1     221.172  -9.857  24.909  1.00  0.00     0.072 C 
ATOM     11  O   UNL     1     221.218 -11.101  25.098  1.00  0.00    -0.545 OA
ATOM     12  O   UNL     1     221.313  -9.004  25.998  1.00  0.00    -0.545 OA
ENDBRANCH   2  10
TORSDOF 2
ENDMDL
MODEL 8
REMARK VINA RESULT:    -5.518      2.464      4.021
REMARK INTER + INTRA:          -6.363
REMARK INTER:                  -6.150
REMARK INTRA:                  -0.213
REMARK UNBOUND:                -0.200
REMARK SMILES O=C([O-])c1ccccc1C(=O)[O-]
REMARK SMILES IDX 4 1 9 2 5 3 8 4 6 5 7 6 2 7 1 8 3 9 10 10 11 11 12 12
REMARK H PARENT
REMARK Flexibility Score: inf
ROOT
ATOM      1  C   UNL     1     220.883  -9.205  23.563  1.00  0.00     0.006 A 
ATOM      2  C   UNL     1     219.559  -9.152  23.045  1.00  0.00     0.006 A 
ATOM      3  C   UNL     1     221.959  -8.853  22.729  1.00  0.00     0.010 A 
ATOM      4  C   UNL     1     219.367  -8.811  21.693  1.00  0.00     0.010 A 
ATOM      5  C   UNL     1     221.743  -8.496  21.396  1.00  0.00     0.001 A 
ATOM      6  C   UNL     1     220.451  -8.487  20.877  1.00  0.00     0.001 A 
ENDROOT
BRANCH   1   7
ATOM      7  C   UNL     1     221.194  -9.684  24.931  1.00  0.00     0.072 C 
ATOM      8  O   UNL     1     221.252 -10.916  25.184  1.00  0.00    -0.545 OA
ATOM      9  O   UNL     1     221.494  -8.773  25.937  1.00  0.00    -0.545 OA
ENDBRANCH   1   7
BRANCH   2  10
ATOM     10  C   UNL     1     218.360  -9.370  23.887  1.00  0.00     0.072 C 
ATOM     11  O   UNL     1     217.904  -8.434  24.596  1.00  0.00    -0.545 OA
ATOM     12  O   UNL     1     217.762 -10.623  23.959  1.00  0.00    -0.545 OA
ENDBRANCH   2  10
TORSDOF 2
ENDMDL
MODEL 9
REMARK VINA RESULT:    -5.369      2.462      3.653
REMARK INTER + INTRA:          -6.197
REMARK INTER:                  -6.025
REMARK INTRA:                  -0.172
REMARK UNBOUND:                -0.200
REMARK SMILES O=C([O-])c1ccccc1C(=O)[O-]
REMARK SMILES IDX 4 1 9 2 5 3 8 4 6 5 7 6 2 7 1 8 3 9 10 10 11 11 12 12
REMARK H PARENT
REMARK Flexibility Score: inf
ROOT
ATOM      1  C   UNL     1     219.623  -9.467  24.388  1.00  0.00     0.006 A 
ATOM      2  C   UNL     1     219.071  -8.220  23.982  1.00  0.00     0.006 A 
ATOM      3  C   UNL     1     219.084 -10.656  23.866  1.00  0.00     0.010 A 
ATOM      4  C   UNL     1     217.959  -8.213  23.119  1.00  0.00     0.010 A 
ATOM      5  C   UNL     1     217.994 -10.624  22.994  1.00  0.00     0.001 A 
ATOM      6  C   UNL     1     217.426  -9.406  22.631  1.00  0.00     0.001 A 
ENDROOT
BRANCH   1   7
ATOM      7  C   UNL     1     220.703  -9.580  25.396  1.00  0.00     0.072 C 
ATOM      8  O   UNL     1     220.455  -9.449  26.624  1.00  0.00    -0.545 OA
ATOM      9  O   UNL     1     221.997  -9.902  25.000  1.00  0.00    -0.545 OA
ENDBRANCH   1   7
BRANCH   2  10
ATOM     10  C   UNL     1     219.662  -6.918  24.370  1.00  0.00     0.072 C 
ATOM     11  O   UNL     1     219.028  -6.134  25.126  1.00  0.00    -0.545 OA
ATOM     12  O   UNL     1     220.890  -6.515  23.858  1.00  0.00    -0.545 OA
ENDBRANCH   2  10
TORSDOF 2
ENDMDL
