MODEL 1
REMARK VINA RESULT:    -3.421      0.000      0.000
REMARK INTER + INTRA:          -4.082
REMARK INTER:                  -3.920
REMARK INTRA:                  -0.162
REMARK UNBOUND:                -0.162
REMARK SMILES CC=Cc1ccc(O)c(OC)c1
REMARK SMILES IDX 4 1 12 2 9 3 7 4 6 5 5 6 3 7 1 8 2 9 10 10 11 11 8 12
REMARK H PARENT 8 13
REMARK Flexibility Score: inf
ROOT
ATOM      1  C   UNL     1     121.246 108.032 118.354  1.00  0.00    -0.022 A 
ATOM      2  C   UNL     1     121.958 107.541 117.247  1.00  0.00     0.058 A 
ATOM      3  C   UNL     1     121.545 107.838 115.932  1.00  0.00     0.161 A 
ATOM      4  C   UNL     1     120.400 108.628 115.734  1.00  0.00     0.157 A 
ATOM      5  C   UNL     1     119.681 109.104 116.833  1.00  0.00     0.051 A 
ATOM      6  C   UNL     1     120.093 108.809 118.133  1.00  0.00     0.012 A 
ENDROOT
BRANCH   1   7
ATOM      7  C   UNL     1     121.720 107.681 119.716  1.00  0.00     0.003 C 
ATOM      8  C   UNL     1     121.467 107.028 122.079  1.00  0.00     0.035 C 
ATOM      9  C   UNL     1     120.910 107.355 120.731  1.00  0.00    -0.030 C 
ENDBRANCH   1   7
BRANCH   3  10
ATOM     10  O   UNL     1     122.246 107.367 114.809  1.00  0.00    -0.493 OA
ATOM     11  C   UNL     1     123.662 107.251 114.731  1.00  0.00     0.278 C 
ENDBRANCH   3  10
BRANCH   4  12
ATOM     12  O   UNL     1     119.956 108.946 114.451  1.00  0.00    -0.504 OA
ATOM     13  H   UNL     1     120.002 109.889 114.082  1.00  0.00     0.293 HD
ENDBRANCH   4  12
TORSDOF 3
ENDMDL
MODEL 2
REMARK VINA RESULT:    -3.409      8.247      9.872
REMARK INTER + INTRA:          -4.069
REMARK INTER:                  -3.901
REMARK INTRA:                  -0.168
REMARK UNBOUND:                -0.162
REMARK SMILES CC=Cc1ccc(O)c(OC)c1
REMARK SMILES IDX 4 1 12 2 9 3 7 4 6 5 5 6 3 7 1 8 2 9 10 10 11 11 8 12
REMARK H PARENT 8 13
REMARK Flexibility Score: inf
ROOT
ATOM      1  C   UNL     1     115.935 114.085 113.167  1.00  0.00    -0.022 A 
ATOM      2  C   UNL     1     115.695 114.082 114.551  1.00  0.00     0.058 A 
ATOM      3  C   UNL     1     114.441 113.698 115.068  1.00  0.00     0.161 A 
ATOM      4  C   UNL     1     113.418 113.324 114.180  1.00  0.00     0.157 A 
ATOM      5  C   UNL     1     113.648 113.342 112.802  1.00  0.00     0.051 A 
ATOM      6  C   UNL     1     114.891 113.722 112.294  1.00  0.00     0.012 A 
ENDROOT
BRANCH   1   7
ATOM      7  C   UNL     1     117.271 114.508 112.678  1.00  0.00     0.003 C 
ATOM      8  C   UNL     1     119.735 114.564 112.657  1.00  0.00     0.035 C 
ATOM      9  C   UNL     1     118.428 114.079 113.198  1.00  0.00    -0.030 C 
ENDBRANCH   1   7
BRANCH   3  10
ATOM     10  O   UNL     1     114.181 113.676 116.448  1.00  0.00    -0.493 OA
ATOM     11  C   UNL     1     114.699 112.707 117.353  1.00  0.00     0.278 C 
ENDBRANCH   3  10
BRANCH   4  12
ATOM     12  O   UNL     1     112.163 112.936 114.647  1.00  0.00    -0.504 OA
ATOM     13  H   UNL     1     111.993 112.717 115.622  1.00  0.00     0.293 HD
ENDBRANCH   4  12
TORSDOF 3
ENDMDL
MODEL 3
REMARK VINA RESULT:    -3.404     13.855     14.268
REMARK INTER + INTRA:          -4.064
REMARK INTER:                  -3.898
REMARK INTRA:                  -0.165
REMARK UNBOUND:                -0.162
REMARK SMILES CC=Cc1ccc(O)c(OC)c1
REMARK SMILES IDX 4 1 12 2 9 3 7 4 6 5 5 6 3 7 1 8 2 9 10 10 11 11 8 12
REMARK H PARENT 8 13
REMARK Flexibility Score: inf
ROOT
ATOM      1  C   UNL     1     125.485 121.506 118.689  1.00  0.00    -0.022 A 
ATOM      2  C   UNL     1     125.868 122.152 117.502  1.00  0.00     0.058 A 
ATOM      3  C   UNL     1     125.295 121.792 116.265  1.00  0.00     0.161 A 
ATOM      4  C   UNL     1     124.335 120.766 116.226  1.00  0.00     0.157 A 
ATOM      5  C   UNL     1     123.964 120.111 117.403  1.00  0.00     0.051 A 
ATOM      6  C   UNL     1     124.534 120.470 118.625  1.00  0.00     0.012 A 
ENDROOT
BRANCH   1   7
ATOM      7  C   UNL     1     126.128 121.919 119.962  1.00  0.00     0.003 C 
ATOM      8  C   UNL     1     126.800 121.665 122.319  1.00  0.00     0.035 C 
ATOM      9  C   UNL     1     126.142 121.170 121.071  1.00  0.00    -0.030 C 
ENDBRANCH   1   7
BRANCH   3  10
ATOM     10  O   UNL     1     125.653 122.430 115.066  1.00  0.00    -0.493 OA
ATOM     11  C   UNL     1     126.025 123.800 114.959  1.00  0.00     0.278 C 
ENDBRANCH   3  10
BRANCH   4  12
ATOM     12  O   UNL     1     123.742 120.379 115.025  1.00  0.00    -0.504 OA
ATOM     13  H   UNL     1     123.245 121.034 114.432  1.00  0.00     0.293 HD
ENDBRANCH   4  12
TORSDOF 3
ENDMDL
MODEL 4
REMARK VINA RESULT:    -3.401     13.807     14.378
REMARK INTER + INTRA:          -4.059
REMARK INTER:                  -3.884
REMARK INTRA:                  -0.176
REMARK UNBOUND:                -0.162
REMARK SMILES CC=Cc1ccc(O)c(OC)c1
REMARK SMILES IDX 4 1 12 2 9 3 7 4 6 5 5 6 3 7 1 8 2 9 10 10 11 11 8 12
REMARK H PARENT 8 13
REMARK Flexibility Score: inf
ROOT
ATOM      1  C   UNL     1     124.666 120.781 117.776  1.00  0.00    -0.022 A 
ATOM      2  C   UNL     1     125.437 121.926 118.037  1.00  0.00     0.058 A 
ATOM      3  C   UNL     1     125.987 122.684 116.983  1.00  0.00     0.161 A 
ATOM      4  C   UNL     1     125.764 122.277 115.656  1.00  0.00     0.157 A 
ATOM      5  C   UNL     1     125.011 121.129 115.394  1.00  0.00     0.051 A 
ATOM      6  C   UNL     1     124.468 120.382 116.440  1.00  0.00     0.012 A 
ENDROOT
BRANCH   1   7
ATOM      7  C   UNL     1     124.120 120.015 118.925  1.00  0.00     0.003 C 
ATOM      8  C   UNL     1     122.845 118.207 120.010  1.00  0.00     0.035 C 
ATOM      9  C   UNL     1     123.370 118.913 118.801  1.00  0.00    -0.030 C 
ENDBRANCH   1   7
BRANCH   3  10
ATOM     10  O   UNL     1     126.752 123.838 117.218  1.00  0.00    -0.493 OA
ATOM     11  C   UNL     1     126.304 124.968 117.959  1.00  0.00     0.278 C 
ENDBRANCH   3  10
BRANCH   4  12
ATOM     12  O   UNL     1     126.288 122.997 114.583  1.00  0.00    -0.504 OA
ATOM     13  H   UNL     1     127.089 123.610 114.684  1.00  0.00     0.293 HD
ENDBRANCH   4  12
TORSDOF 3
ENDMDL
MODEL 5
REMARK VINA RESULT:    -3.383      7.978     10.202
REMARK INTER + INTRA:          -4.039
REMARK INTER:                  -3.865
REMARK INTRA:                  -0.173
REMARK UNBOUND:                -0.162
REMARK SMILES CC=Cc1ccc(O)c(OC)c1
REMARK SMILES IDX 4 1 12 2 9 3 7 4 6 5 5 6 3 7 1 8 2 9 10 10 11 11 8 12
REMARK H PARENT 8 13
REMARK Flexibility Score: inf
ROOT
ATOM      1  C   UNL     1     119.130 116.529 112.763  1.00  0.00    -0.022 A 
ATOM      2  C   UNL     1     118.913 116.387 114.144  1.00  0.00     0.058 A 
ATOM      3  C   UNL     1     119.108 115.147 114.784  1.00  0.00     0.161 A 
ATOM      4  C   UNL     1     119.517 114.038 114.023  1.00  0.00     0.157 A 
ATOM      5  C   UNL     1     119.718 114.172 112.646  1.00  0.00     0.051 A 
ATOM      6  C   UNL     1     119.525 115.402 112.017  1.00  0.00     0.012 A 
ENDROOT
BRANCH   1   7
ATOM      7  C   UNL     1     118.900 117.856 112.140  1.00  0.00     0.003 C 
ATOM      8  C   UNL     1     118.529 120.293 112.128  1.00  0.00     0.035 C 
ATOM      9  C   UNL     1     118.774 118.996 112.831  1.00  0.00    -0.030 C 
ENDBRANCH   1   7
BRANCH   3  10
ATOM     10  O   UNL     1     118.907 114.983 116.165  1.00  0.00    -0.493 OA
ATOM     11  C   UNL     1     119.874 115.287 117.164  1.00  0.00     0.278 C 
ENDBRANCH   3  10
BRANCH   4  12
ATOM     12  O   UNL     1     119.723 112.793 114.615  1.00  0.00    -0.504 OA
ATOM     13  H   UNL     1     120.596 112.287 114.519  1.00  0.00     0.293 HD
ENDBRANCH   4  12
TORSDOF 3
ENDMDL
MODEL 6
REMARK VINA RESULT:    -3.329     18.355     20.089
REMARK INTER + INTRA:          -3.977
REMARK INTER:                  -3.796
REMARK INTRA:                  -0.180
REMARK UNBOUND:                -0.162
REMARK SMILES CC=Cc1ccc(O)c(OC)c1
REMARK SMILES IDX 4 1 12 2 9 3 7 4 6 5 5 6 3 7 1 8 2 9 10 10 11 11 8 12
REMARK H PARENT 8 13
REMARK Flexibility Score: inf
ROOT
ATOM      1  C   UNL     1     112.461 124.913 117.695  1.00  0.00    -0.022 A 
ATOM      2  C   UNL     1     111.357 125.737 117.973  1.00  0.00     0.058 A 
ATOM      3  C   UNL     1     110.595 126.303 116.931  1.00  0.00     0.161 A 
ATOM      4  C   UNL     1     110.957 126.043 115.598  1.00  0.00     0.157 A 
ATOM      5  C   UNL     1     112.064 125.238 115.318  1.00  0.00     0.051 A 
ATOM      6  C   UNL     1     112.815 124.679 116.353  1.00  0.00     0.012 A 
ENDROOT
BRANCH   1   7
ATOM      7  C   UNL     1     113.233 124.352 118.832  1.00  0.00     0.003 C 
ATOM      8  C   UNL     1     115.053 123.071 119.890  1.00  0.00     0.035 C 
ATOM      9  C   UNL     1     114.340 123.613 118.693  1.00  0.00    -0.030 C 
ENDBRANCH   1   7
BRANCH   3  10
ATOM     10  O   UNL     1     109.481 127.120 117.184  1.00  0.00    -0.493 OA
ATOM     11  C   UNL     1     108.220 126.648 117.644  1.00  0.00     0.278 C 
ENDBRANCH   3  10
BRANCH   4  12
ATOM     12  O   UNL     1     110.231 126.582 114.536  1.00  0.00    -0.504 OA
ATOM     13  H   UNL     1     109.500 127.269 114.675  1.00  0.00     0.293 HD
ENDBRANCH   4  12
TORSDOF 3
ENDMDL
MODEL 7
REMARK VINA RESULT:    -3.315     13.348     14.003
REMARK INTER + INTRA:          -3.961
REMARK INTER:                  -3.788
REMARK INTRA:                  -0.173
REMARK UNBOUND:                -0.162
REMARK SMILES CC=Cc1ccc(O)c(OC)c1
REMARK SMILES IDX 4 1 12 2 9 3 7 4 6 5 5 6 3 7 1 8 2 9 10 10 11 11 8 12
REMARK H PARENT 8 13
REMARK Flexibility Score: inf
ROOT
ATOM      1  C   UNL     1     107.830 111.788 118.510  1.00  0.00    -0.022 A 
ATOM      2  C   UNL     1     107.315 111.125 117.384  1.00  0.00     0.058 A 
ATOM      3  C   UNL     1     107.738 111.470 116.084  1.00  0.00     0.161 A 
ATOM      4  C   UNL     1     108.680 112.500 115.920  1.00  0.00     0.157 A 
ATOM      5  C   UNL     1     109.182 113.173 117.037  1.00  0.00     0.051 A 
ATOM      6  C   UNL     1     108.761 112.828 118.322  1.00  0.00     0.012 A 
ENDROOT
BRANCH   1   7
ATOM      7  C   UNL     1     107.343 111.390 119.854  1.00  0.00     0.003 C 
ATOM      8  C   UNL     1     106.875 111.705 122.253  1.00  0.00     0.035 C 
ATOM      9  C   UNL     1     107.373 112.188 120.929  1.00  0.00    -0.030 C 
ENDBRANCH   1   7
BRANCH   3  10
ATOM     10  O   UNL     1     107.246 110.814 114.944  1.00  0.00    -0.493 OA
ATOM     11  C   UNL     1     107.303 109.407 114.733  1.00  0.00     0.278 C 
ENDBRANCH   3  10
BRANCH   4  12
ATOM     12  O   UNL     1     109.126 112.874 114.653  1.00  0.00    -0.504 OA
ATOM     13  H   UNL     1     108.768 113.691 114.173  1.00  0.00     0.293 HD
ENDBRANCH   4  12
TORSDOF 3
ENDMDL
MODEL 8
REMARK VINA RESULT:    -3.301     12.370     13.355
REMARK INTER + INTRA:          -3.946
REMARK INTER:                  -3.764
REMARK INTRA:                  -0.182
REMARK UNBOUND:                -0.162
REMARK SMILES CC=Cc1ccc(O)c(OC)c1
REMARK SMILES IDX 4 1 12 2 9 3 7 4 6 5 5 6 3 7 1 8 2 9 10 10 11 11 8 12
REMARK H PARENT 8 13
REMARK Flexibility Score: inf
ROOT
ATOM      1  C   UNL     1     117.003 119.237 113.786  1.00  0.00    -0.022 A 
ATOM      2  C   UNL     1     117.399 119.246 115.134  1.00  0.00     0.058 A 
ATOM      3  C   UNL     1     118.711 119.609 115.500  1.00  0.00     0.161 A 
ATOM      4  C   UNL     1     119.632 119.958 114.498  1.00  0.00     0.157 A 
ATOM      5  C   UNL     1     119.245 119.935 113.155  1.00  0.00     0.051 A 
ATOM      6  C   UNL     1     117.946 119.575 112.796  1.00  0.00     0.012 A 
ENDROOT
BRANCH   1   7
ATOM      7  C   UNL     1     115.612 118.837 113.457  1.00  0.00     0.003 C 
ATOM      8  C   UNL     1     113.549 118.803 112.109  1.00  0.00     0.035 C 
ATOM      9  C   UNL     1     114.956 119.240 112.362  1.00  0.00    -0.030 C 
ENDBRANCH   1   7
BRANCH   3  10
ATOM     10  O   UNL     1     119.128 119.635 116.841  1.00  0.00    -0.493 OA
ATOM     11  C   UNL     1     118.896 120.715 117.739  1.00  0.00     0.278 C 
ENDBRANCH   3  10
BRANCH   4  12
ATOM     12  O   UNL     1     120.939 120.325 114.815  1.00  0.00    -0.504 OA
ATOM     13  H   UNL     1     121.738 119.761 114.550  1.00  0.00     0.293 HD
ENDBRANCH   4  12
TORSDOF 3
ENDMDL
MODEL 9
REMARK VINA RESULT:    -3.238     11.108     13.292
REMARK INTER + INTRA:          -3.872
REMARK INTER:                  -3.705
REMARK INTRA:                  -0.167
REMARK UNBOUND:                -0.162
REMARK SMILES CC=Cc1ccc(O)c(OC)c1
REMARK SMILES IDX 4 1 12 2 9 3 7 4 6 5 5 6 3 7 1 8 2 9 10 10 11 11 8 12
REMARK H PARENT 8 13
REMARK Flexibility Score: inf
ROOT
ATOM      1  C   UNL     1     114.050 116.993 112.963  1.00  0.00    -0.022 A 
ATOM      2  C   UNL     1     114.067 117.072 114.366  1.00  0.00     0.058 A 
ATOM      3  C   UNL     1     113.833 118.296 115.025  1.00  0.00     0.161 A 
ATOM      4  C   UNL     1     113.591 119.451 114.261  1.00  0.00     0.157 A 
ATOM      5  C   UNL     1     113.590 119.379 112.866  1.00  0.00     0.051 A 
ATOM      6  C   UNL     1     113.821 118.165 112.217  1.00  0.00     0.012 A 
ENDROOT
BRANCH   1   7
ATOM      7  C   UNL     1     114.312 115.680 112.323  1.00  0.00     0.003 C 
ATOM      8  C   UNL     1     114.353 113.219 112.190  1.00  0.00     0.035 C 
ATOM      9  C   UNL     1     114.046 114.500 112.897  1.00  0.00    -0.030 C 
ENDBRANCH   1   7
BRANCH   3  10
ATOM     10  O   UNL     1     113.834 118.398 116.425  1.00  0.00    -0.493 OA
ATOM     11  C   UNL     1     112.700 118.166 117.254  1.00  0.00     0.278 C 
ENDBRANCH   3  10
BRANCH   4  12
ATOM     12  O   UNL     1     113.354 120.682 114.871  1.00  0.00    -0.504 OA
ATOM     13  H   UNL     1     113.379 120.801 115.877  1.00  0.00     0.293 HD
ENDBRANCH   4  12
TORSDOF 3
ENDMDL
