MODEL 1
REMARK VINA RESULT:    -7.398      0.000      0.000
REMARK INTER + INTRA:         -11.086
REMARK INTER:                  -9.777
REMARK INTRA:                  -1.309
REMARK UNBOUND:                -1.309
REMARK SMILES CC[C@@H](C=C[C@H](C)[C@H]1CC[C@@H]2[C@@H]3CC=C4C[C@@H](O)CC[C@@]4(C)[C@H]3CC[C@@]21C)C(C)C
REMARK SMILES IDX 6 1 7 2 5 3 4 4 3 5 2 6 1 7 28 8 29 9 30 10 8 11 9 12 26 13
REMARK SMILES IDX 10 14 11 15 25 16 27 17 12 18 24 19 23 20 13 21 21 22 14 23
REMARK SMILES IDX 15 24 20 25 22 26 16 27 19 28 17 29 18 30
REMARK H PARENT 18 31
REMARK Flexibility Score: inf
ROOT
ATOM      1  C   UNL     1      -1.034  21.428  46.757  1.00  0.00     0.012 C 
ATOM      2  C   UNL     1       0.383  21.749  46.242  1.00  0.00     0.012 C 
ENDROOT
BRANCH   1   3
ATOM      3  C   UNL     1      -1.115  19.948  47.066  1.00  0.00    -0.028 C 
ATOM      4  C   UNL     1      -2.215  19.231  46.785  1.00  0.00    -0.027 C 
BRANCH   4   5
ATOM      5  C   UNL     1      -2.346  17.785  47.216  1.00  0.00     0.014 C 
BRANCH   5   6
ATOM      6  C   UNL     1      -2.774  16.902  46.017  1.00  0.00     0.004 C 
ATOM      7  C   UNL     1      -1.730  16.911  44.899  1.00  0.00     0.004 C 
ENDBRANCH   5   6
BRANCH   5   8
ATOM      8  C   UNL     1      -3.310  17.686  48.437  1.00  0.00    -0.011 C 
ATOM      9  C   UNL     1      -4.318  18.844  48.472  1.00  0.00     0.008 C 
ATOM     10  C   UNL     1      -2.578  17.573  49.785  1.00  0.00     0.008 C 
ENDBRANCH   5   8
ENDBRANCH   4   5
ENDBRANCH   1   3
BRANCH   1  11
ATOM     11  C   UNL     1      -1.509  22.248  48.009  1.00  0.00     0.002 C 
ATOM     12  C   UNL     1      -0.506  23.343  48.425  1.00  0.00     0.005 C 
ATOM     13  C   UNL     1      -2.892  22.980  47.934  1.00  0.00    -0.026 C 
ATOM     14  C   UNL     1      -1.160  24.695  48.133  1.00  0.00     0.005 C 
ATOM     15  C   UNL     1      -2.522  24.406  47.480  1.00  0.00    -0.001 C 
ATOM     16  C   UNL     1      -3.498  23.018  49.376  1.00  0.00     0.007 C 
ATOM     17  C   UNL     1      -3.902  22.305  46.970  1.00  0.00     0.012 C 
ATOM     18  C   UNL     1      -3.631  25.478  47.726  1.00  0.00     0.000 C 
ATOM     19  C   UNL     1      -4.645  24.020  49.533  1.00  0.00     0.005 C 
ATOM     20  C   UNL     1      -4.208  25.457  49.158  1.00  0.00     0.003 C 
ATOM     21  C   UNL     1      -3.102  26.885  47.411  1.00  0.00     0.031 C 
ATOM     22  C   UNL     1      -5.351  26.543  49.375  1.00  0.00    -0.008 C 
ATOM     23  C   UNL     1      -4.164  27.919  47.598  1.00  0.00    -0.027 C 
ATOM     24  C   UNL     1      -5.137  27.809  48.524  1.00  0.00    -0.065 C 
ATOM     25  C   UNL     1      -6.764  25.983  49.002  1.00  0.00     0.014 C 
ATOM     26  C   UNL     1      -5.333  26.944  50.873  1.00  0.00     0.016 C 
ATOM     27  C   UNL     1      -6.217  28.873  48.555  1.00  0.00     0.063 C 
ATOM     28  C   UNL     1      -7.890  27.038  49.005  1.00  0.00     0.033 C 
ATOM     29  C   UNL     1      -7.557  28.256  48.132  1.00  0.00     0.118 C 
BRANCH  29  30
ATOM     30  O   UNL     1      -7.510  27.869  46.782  1.00  0.00    -0.393 OA
ATOM     31  H   UNL     1      -8.050  27.039  46.699  1.00  0.00     0.210 HD
ENDBRANCH  29  30
ENDBRANCH   1  11
TORSDOF 6
ENDMDL
MODEL 2
REMARK VINA RESULT:    -7.320      1.276      2.060
REMARK INTER + INTRA:         -10.983
REMARK INTER:                  -9.786
REMARK INTRA:                  -1.197
REMARK UNBOUND:                -1.309
REMARK SMILES CC[C@@H](C=C[C@H](C)[C@H]1CC[C@@H]2[C@@H]3CC=C4C[C@@H](O)CC[C@@]4(C)[C@H]3CC[C@@]21C)C(C)C
REMARK SMILES IDX 6 1 7 2 5 3 4 4 3 5 2 6 1 7 28 8 29 9 30 10 8 11 9 12 26 13
REMARK SMILES IDX 10 14 11 15 25 16 27 17 12 18 24 19 23 20 13 21 21 22 14 23
REMARK SMILES IDX 15 24 20 25 22 26 16 27 19 28 17 29 18 30
REMARK H PARENT 18 31
REMARK Flexibility Score: inf
ROOT
ATOM      1  C   UNL     1      -1.352  21.852  47.475  1.00  0.00     0.012 C 
ATOM      2  C   UNL     1       0.101  22.020  47.960  1.00  0.00     0.012 C 
ENDROOT
BRANCH   1   3
ATOM      3  C   UNL     1      -1.611  20.383  47.212  1.00  0.00    -0.028 C 
ATOM      4  C   UNL     1      -2.857  19.883  47.182  1.00  0.00    -0.027 C 
BRANCH   4   5
ATOM      5  C   UNL     1      -3.107  18.395  47.054  1.00  0.00     0.014 C 
BRANCH   5   6
ATOM      6  C   UNL     1      -2.507  17.642  48.267  1.00  0.00     0.004 C 
ATOM      7  C   UNL     1      -2.959  18.245  49.597  1.00  0.00     0.004 C 
ENDBRANCH   5   6
BRANCH   5   8
ATOM      8  C   UNL     1      -2.573  17.889  45.680  1.00  0.00    -0.011 C 
ATOM      9  C   UNL     1      -3.563  16.938  44.991  1.00  0.00     0.008 C 
ATOM     10  C   UNL     1      -1.181  17.240  45.768  1.00  0.00     0.008 C 
ENDBRANCH   5   8
ENDBRANCH   4   5
ENDBRANCH   1   3
BRANCH   1  11
ATOM     11  C   UNL     1      -2.462  22.412  48.434  1.00  0.00     0.002 C 
ATOM     12  C   UNL     1      -1.891  22.972  49.752  1.00  0.00     0.005 C 
ATOM     13  C   UNL     1      -3.406  23.541  47.896  1.00  0.00    -0.026 C 
ATOM     14  C   UNL     1      -2.093  24.488  49.730  1.00  0.00     0.005 C 
ATOM     15  C   UNL     1      -2.723  24.840  48.371  1.00  0.00    -0.001 C 
ATOM     16  C   UNL     1      -4.798  23.384  48.593  1.00  0.00     0.007 C 
ATOM     17  C   UNL     1      -3.596  23.512  46.357  1.00  0.00     0.012 C 
ATOM     18  C   UNL     1      -3.640  26.104  48.357  1.00  0.00     0.000 C 
ATOM     19  C   UNL     1      -5.691  24.619  48.465  1.00  0.00     0.005 C 
ATOM     20  C   UNL     1      -5.009  25.884  49.039  1.00  0.00     0.003 C 
ATOM     21  C   UNL     1      -2.930  27.295  49.014  1.00  0.00     0.031 C 
ATOM     22  C   UNL     1      -5.932  27.179  48.991  1.00  0.00    -0.008 C 
ATOM     23  C   UNL     1      -3.776  28.525  48.969  1.00  0.00    -0.027 C 
ATOM     24  C   UNL     1      -5.122  28.490  49.029  1.00  0.00    -0.065 C 
ATOM     25  C   UNL     1      -6.802  27.225  47.691  1.00  0.00     0.014 C 
ATOM     26  C   UNL     1      -6.860  27.135  50.233  1.00  0.00     0.016 C 
ATOM     27  C   UNL     1      -5.879  29.794  48.876  1.00  0.00     0.063 C 
ATOM     28  C   UNL     1      -7.577  28.545  47.488  1.00  0.00     0.033 C 
ATOM     29  C   UNL     1      -6.666  29.778  47.559  1.00  0.00     0.118 C 
BRANCH  29  30
ATOM     30  O   UNL     1      -5.784  29.775  46.465  1.00  0.00    -0.393 OA
ATOM     31  H   UNL     1      -6.035  30.542  45.886  1.00  0.00     0.210 HD
ENDBRANCH  29  30
ENDBRANCH   1  11
TORSDOF 6
ENDMDL
MODEL 3
REMARK VINA RESULT:    -7.309      1.863      3.479
REMARK INTER + INTRA:         -10.968
REMARK INTER:                  -9.826
REMARK INTRA:                  -1.143
REMARK UNBOUND:                -1.309
REMARK SMILES CC[C@@H](C=C[C@H](C)[C@H]1CC[C@@H]2[C@@H]3CC=C4C[C@@H](O)CC[C@@]4(C)[C@H]3CC[C@@]21C)C(C)C
REMARK SMILES IDX 6 1 7 2 5 3 4 4 3 5 2 6 1 7 28 8 29 9 30 10 8 11 9 12 26 13
REMARK SMILES IDX 10 14 11 15 25 16 27 17 12 18 24 19 23 20 13 21 21 22 14 23
REMARK SMILES IDX 15 24 20 25 22 26 16 27 19 28 17 29 18 30
REMARK H PARENT 18 31
REMARK Flexibility Score: inf
ROOT
ATOM      1  C   UNL     1      -3.046  22.077  47.419  1.00  0.00     0.012 C 
ATOM      2  C   UNL     1      -2.537  22.062  48.873  1.00  0.00     0.012 C 
ENDROOT
BRANCH   1   3
ATOM      3  C   UNL     1      -3.253  20.649  46.961  1.00  0.00    -0.028 C 
ATOM      4  C   UNL     1      -3.357  19.638  47.838  1.00  0.00    -0.027 C 
BRANCH   4   5
ATOM      5  C   UNL     1      -3.429  18.197  47.377  1.00  0.00     0.014 C 
BRANCH   5   6
ATOM      6  C   UNL     1      -2.838  17.256  48.456  1.00  0.00     0.004 C 
ATOM      7  C   UNL     1      -2.689  17.957  49.807  1.00  0.00     0.004 C 
ENDBRANCH   5   6
BRANCH   5   8
ATOM      8  C   UNL     1      -2.744  18.056  45.985  1.00  0.00    -0.011 C 
ATOM      9  C   UNL     1      -3.476  17.054  45.080  1.00  0.00     0.008 C 
ATOM     10  C   UNL     1      -1.250  17.703  46.073  1.00  0.00     0.008 C 
ENDBRANCH   5   8
ENDBRANCH   4   5
ENDBRANCH   1   3
BRANCH   1  11
ATOM     11  C   UNL     1      -4.357  22.902  47.161  1.00  0.00     0.002 C 
ATOM     12  C   UNL     1      -5.378  22.780  48.309  1.00  0.00     0.005 C 
ATOM     13  C   UNL     1      -4.225  24.442  46.906  1.00  0.00    -0.026 C 
ATOM     14  C   UNL     1      -5.459  24.144  48.996  1.00  0.00     0.005 C 
ATOM     15  C   UNL     1      -4.435  25.060  48.303  1.00  0.00    -0.001 C 
ATOM     16  C   UNL     1      -5.385  24.876  45.949  1.00  0.00     0.007 C 
ATOM     17  C   UNL     1      -2.866  24.856  46.284  1.00  0.00     0.012 C 
ATOM     18  C   UNL     1      -4.783  26.582  48.299  1.00  0.00     0.000 C 
ATOM     19  C   UNL     1      -5.618  26.388  45.914  1.00  0.00     0.005 C 
ATOM     20  C   UNL     1      -5.920  26.957  47.322  1.00  0.00     0.003 C 
ATOM     21  C   UNL     1      -5.150  27.057  49.712  1.00  0.00     0.031 C 
ATOM     22  C   UNL     1      -6.239  28.516  47.321  1.00  0.00    -0.008 C 
ATOM     23  C   UNL     1      -5.442  28.522  49.734  1.00  0.00    -0.027 C 
ATOM     24  C   UNL     1      -5.996  29.174  48.693  1.00  0.00    -0.065 C 
ATOM     25  C   UNL     1      -5.354  29.289  46.287  1.00  0.00     0.014 C 
ATOM     26  C   UNL     1      -7.735  28.684  46.949  1.00  0.00     0.016 C 
ATOM     27  C   UNL     1      -6.156  30.678  48.794  1.00  0.00     0.063 C 
ATOM     28  C   UNL     1      -5.474  30.826  46.369  1.00  0.00     0.033 C 
ATOM     29  C   UNL     1      -5.223  31.361  47.786  1.00  0.00     0.118 C 
BRANCH  29  30
ATOM     30  O   UNL     1      -3.881  31.145  48.139  1.00  0.00    -0.393 OA
ATOM     31  H   UNL     1      -3.639  30.236  47.819  1.00  0.00     0.210 HD
ENDBRANCH  29  30
ENDBRANCH   1  11
TORSDOF 6
ENDMDL
MODEL 4
REMARK VINA RESULT:    -7.244      2.796      9.464
REMARK INTER + INTRA:         -10.882
REMARK INTER:                  -9.649
REMARK INTRA:                  -1.233
REMARK UNBOUND:                -1.309
REMARK SMILES CC[C@@H](C=C[C@H](C)[C@H]1CC[C@@H]2[C@@H]3CC=C4C[C@@H](O)CC[C@@]4(C)[C@H]3CC[C@@]21C)C(C)C
REMARK SMILES IDX 6 1 7 2 5 3 4 4 3 5 2 6 1 7 28 8 29 9 30 10 8 11 9 12 26 13
REMARK SMILES IDX 10 14 11 15 25 16 27 17 12 18 24 19 23 20 13 21 21 22 14 23
REMARK SMILES IDX 15 24 20 25 22 26 16 27 19 28 17 29 18 30
REMARK H PARENT 18 31
REMARK Flexibility Score: inf
ROOT
ATOM      1  C   UNL     1      -6.747  28.831  47.499  1.00  0.00     0.012 C 
ATOM      2  C   UNL     1      -8.216  28.366  47.480  1.00  0.00     0.012 C 
ENDROOT
BRANCH   1   3
ATOM      3  C   UNL     1      -6.697  30.270  47.969  1.00  0.00    -0.028 C 
ATOM      4  C   UNL     1      -5.672  30.735  48.701  1.00  0.00    -0.027 C 
BRANCH   4   5
ATOM      5  C   UNL     1      -5.689  32.133  49.283  1.00  0.00     0.014 C 
BRANCH   5   6
ATOM      6  C   UNL     1      -6.024  33.170  48.183  1.00  0.00     0.004 C 
ATOM      7  C   UNL     1      -7.292  33.961  48.508  1.00  0.00     0.004 C 
ENDBRANCH   5   6
BRANCH   5   8
ATOM      8  C   UNL     1      -4.342  32.415  50.014  1.00  0.00    -0.011 C 
ATOM      9  C   UNL     1      -3.438  31.174  50.056  1.00  0.00     0.008 C 
ATOM     10  C   UNL     1      -4.523  32.992  51.428  1.00  0.00     0.008 C 
ENDBRANCH   5   8
ENDBRANCH   4   5
ENDBRANCH   1   3
BRANCH   1  11
ATOM     11  C   UNL     1      -5.766  27.965  48.368  1.00  0.00     0.002 C 
ATOM     12  C   UNL     1      -6.468  27.273  49.554  1.00  0.00     0.005 C 
ATOM     13  C   UNL     1      -4.958  26.825  47.661  1.00  0.00    -0.026 C 
ATOM     14  C   UNL     1      -6.468  25.770  49.270  1.00  0.00     0.005 C 
ATOM     15  C   UNL     1      -5.829  25.572  47.884  1.00  0.00    -0.001 C 
ATOM     16  C   UNL     1      -3.591  26.666  48.405  1.00  0.00     0.007 C 
ATOM     17  C   UNL     1      -4.696  27.091  46.155  1.00  0.00     0.012 C 
ATOM     18  C   UNL     1      -5.088  24.214  47.668  1.00  0.00     0.000 C 
ATOM     19  C   UNL     1      -2.865  25.358  48.081  1.00  0.00     0.005 C 
ATOM     20  C   UNL     1      -3.735  24.121  48.408  1.00  0.00     0.003 C 
ATOM     21  C   UNL     1      -5.981  23.039  48.088  1.00  0.00     0.031 C 
ATOM     22  C   UNL     1      -2.991  22.738  48.152  1.00  0.00    -0.008 C 
ATOM     23  C   UNL     1      -5.304  21.729  47.846  1.00  0.00    -0.027 C 
ATOM     24  C   UNL     1      -3.970  21.566  47.941  1.00  0.00    -0.065 C 
ATOM     25  C   UNL     1      -2.077  22.795  46.884  1.00  0.00     0.014 C 
ATOM     26  C   UNL     1      -2.124  22.439  49.403  1.00  0.00     0.016 C 
ATOM     27  C   UNL     1      -3.387  20.215  47.577  1.00  0.00     0.063 C 
ATOM     28  C   UNL     1      -1.476  21.435  46.468  1.00  0.00     0.033 C 
ATOM     29  C   UNL     1      -2.546  20.347  46.301  1.00  0.00     0.118 C 
BRANCH  29  30
ATOM     30  O   UNL     1      -3.368  20.660  45.206  1.00  0.00    -0.393 OA
ATOM     31  H   UNL     1      -4.205  21.050  45.572  1.00  0.00     0.210 HD
ENDBRANCH  29  30
ENDBRANCH   1  11
TORSDOF 6
ENDMDL
MODEL 5
REMARK VINA RESULT:    -7.087      2.745      9.522
REMARK INTER + INTRA:         -10.675
REMARK INTER:                  -9.312
REMARK INTRA:                  -1.363
REMARK UNBOUND:                -1.309
REMARK SMILES CC[C@@H](C=C[C@H](C)[C@H]1CC[C@@H]2[C@@H]3CC=C4C[C@@H](O)CC[C@@]4(C)[C@H]3CC[C@@]21C)C(C)C
REMARK SMILES IDX 6 1 7 2 5 3 4 4 3 5 2 6 1 7 28 8 29 9 30 10 8 11 9 12 26 13
REMARK SMILES IDX 10 14 11 15 25 16 27 17 12 18 24 19 23 20 13 21 21 22 14 23
REMARK SMILES IDX 15 24 20 25 22 26 16 27 19 28 17 29 18 30
REMARK H PARENT 18 31
REMARK Flexibility Score: inf
ROOT
ATOM      1  C   UNL     1      -7.372  28.513  47.381  1.00  0.00     0.012 C 
ATOM      2  C   UNL     1      -8.868  28.174  47.526  1.00  0.00     0.012 C 
ENDROOT
BRANCH   1   3
ATOM      3  C   UNL     1      -7.203  30.016  47.464  1.00  0.00    -0.028 C 
ATOM      4  C   UNL     1      -6.016  30.576  47.749  1.00  0.00    -0.027 C 
BRANCH   4   5
ATOM      5  C   UNL     1      -5.878  32.068  47.963  1.00  0.00     0.014 C 
BRANCH   5   6
ATOM      6  C   UNL     1      -5.507  32.368  49.437  1.00  0.00     0.004 C 
ATOM      7  C   UNL     1      -4.365  31.481  49.932  1.00  0.00     0.004 C 
ENDBRANCH   5   6
BRANCH   5   8
ATOM      8  C   UNL     1      -7.176  32.789  47.489  1.00  0.00    -0.011 C 
ATOM      9  C   UNL     1      -7.031  33.367  46.073  1.00  0.00     0.008 C 
ATOM     10  C   UNL     1      -7.660  33.877  48.462  1.00  0.00     0.008 C 
ENDBRANCH   5   8
ENDBRANCH   4   5
ENDBRANCH   1   3
BRANCH   1  11
ATOM     11  C   UNL     1      -6.411  27.824  48.415  1.00  0.00     0.002 C 
ATOM     12  C   UNL     1      -7.166  27.021  49.492  1.00  0.00     0.005 C 
ATOM     13  C   UNL     1      -5.321  26.839  47.872  1.00  0.00    -0.026 C 
ATOM     14  C   UNL     1      -6.869  25.540  49.249  1.00  0.00     0.005 C 
ATOM     15  C   UNL     1      -5.994  25.456  47.986  1.00  0.00    -0.001 C 
ATOM     16  C   UNL     1      -4.083  26.912  48.825  1.00  0.00     0.007 C 
ATOM     17  C   UNL     1      -4.871  27.149  46.420  1.00  0.00     0.012 C 
ATOM     18  C   UNL     1      -5.012  24.244  47.923  1.00  0.00     0.000 C 
ATOM     19  C   UNL     1      -3.106  25.747  48.652  1.00  0.00     0.005 C 
ATOM     20  C   UNL     1      -3.797  24.379  48.869  1.00  0.00     0.003 C 
ATOM     21  C   UNL     1      -5.750  22.933  48.227  1.00  0.00     0.031 C 
ATOM     22  C   UNL     1      -2.801  23.142  48.767  1.00  0.00    -0.008 C 
ATOM     23  C   UNL     1      -4.834  21.757  48.126  1.00  0.00    -0.027 C 
ATOM     24  C   UNL     1      -3.523  21.822  48.434  1.00  0.00    -0.065 C 
ATOM     25  C   UNL     1      -1.719  23.356  47.658  1.00  0.00     0.014 C 
ATOM     26  C   UNL     1      -2.106  22.992  50.146  1.00  0.00     0.016 C 
ATOM     27  C   UNL     1      -2.673  20.590  48.199  1.00  0.00     0.063 C 
ATOM     28  C   UNL     1      -0.841  22.119  47.375  1.00  0.00     0.033 C 
ATOM     29  C   UNL     1      -1.673  20.865  47.069  1.00  0.00     0.118 C 
BRANCH  29  30
ATOM     30  O   UNL     1      -2.351  21.038  45.850  1.00  0.00    -0.393 OA
ATOM     31  H   UNL     1      -1.769  21.594  45.269  1.00  0.00     0.210 HD
ENDBRANCH  29  30
ENDBRANCH   1  11
TORSDOF 6
ENDMDL
MODEL 6
REMARK VINA RESULT:    -6.996      1.833      3.411
REMARK INTER + INTRA:         -10.555
REMARK INTER:                  -9.389
REMARK INTRA:                  -1.166
REMARK UNBOUND:                -1.309
REMARK SMILES CC[C@@H](C=C[C@H](C)[C@H]1CC[C@@H]2[C@@H]3CC=C4C[C@@H](O)CC[C@@]4(C)[C@H]3CC[C@@]21C)C(C)C
REMARK SMILES IDX 6 1 7 2 5 3 4 4 3 5 2 6 1 7 28 8 29 9 30 10 8 11 9 12 26 13
REMARK SMILES IDX 10 14 11 15 25 16 27 17 12 18 24 19 23 20 13 21 21 22 14 23
REMARK SMILES IDX 15 24 20 25 22 26 16 27 19 28 17 29 18 30
REMARK H PARENT 18 31
REMARK Flexibility Score: inf
ROOT
ATOM      1  C   UNL     1      -2.424  23.237  49.334  1.00  0.00     0.012 C 
ATOM      2  C   UNL     1      -1.859  23.604  50.720  1.00  0.00     0.012 C 
ENDROOT
BRANCH   1   3
ATOM      3  C   UNL     1      -2.376  21.732  49.171  1.00  0.00    -0.028 C 
ATOM      4  C   UNL     1      -2.147  21.161  47.977  1.00  0.00    -0.027 C 
BRANCH   4   5
ATOM      5  C   UNL     1      -2.233  19.661  47.791  1.00  0.00     0.014 C 
BRANCH   5   6
ATOM      6  C   UNL     1      -2.630  19.322  46.332  1.00  0.00     0.004 C 
ATOM      7  C   UNL     1      -1.979  18.026  45.848  1.00  0.00     0.004 C 
ENDBRANCH   5   6
BRANCH   5   8
ATOM      8  C   UNL     1      -3.196  19.053  48.855  1.00  0.00    -0.011 C 
ATOM      9  C   UNL     1      -2.640  17.757  49.462  1.00  0.00     0.008 C 
ATOM     10  C   UNL     1      -4.624  18.828  48.329  1.00  0.00     0.008 C 
ENDBRANCH   5   8
ENDBRANCH   4   5
ENDBRANCH   1   3
BRANCH   1  11
ATOM     11  C   UNL     1      -3.878  23.747  49.031  1.00  0.00     0.002 C 
ATOM     12  C   UNL     1      -4.695  24.026  50.308  1.00  0.00     0.005 C 
ATOM     13  C   UNL     1      -4.044  25.040  48.161  1.00  0.00    -0.026 C 
ATOM     14  C   UNL     1      -4.907  25.538  50.395  1.00  0.00     0.005 C 
ATOM     15  C   UNL     1      -4.158  26.167  49.207  1.00  0.00    -0.001 C 
ATOM     16  C   UNL     1      -5.381  24.916  47.359  1.00  0.00     0.007 C 
ATOM     17  C   UNL     1      -2.873  25.278  47.173  1.00  0.00     0.012 C 
ATOM     18  C   UNL     1      -4.754  27.505  48.663  1.00  0.00     0.000 C 
ATOM     19  C   UNL     1      -5.868  26.242  46.769  1.00  0.00     0.005 C 
ATOM     20  C   UNL     1      -6.062  27.321  47.862  1.00  0.00     0.003 C 
ATOM     21  C   UNL     1      -4.995  28.495  49.811  1.00  0.00     0.031 C 
ATOM     22  C   UNL     1      -6.635  28.695  47.300  1.00  0.00    -0.008 C 
ATOM     23  C   UNL     1      -5.524  29.797  49.303  1.00  0.00    -0.027 C 
ATOM     24  C   UNL     1      -6.318  29.891  48.219  1.00  0.00    -0.065 C 
ATOM     25  C   UNL     1      -6.045  29.039  45.893  1.00  0.00     0.014 C 
ATOM     26  C   UNL     1      -8.176  28.547  47.194  1.00  0.00     0.016 C 
ATOM     27  C   UNL     1      -6.713  31.274  47.740  1.00  0.00     0.063 C 
ATOM     28  C   UNL     1      -6.409  30.447  45.375  1.00  0.00     0.033 C 
ATOM     29  C   UNL     1      -6.058  31.552  46.381  1.00  0.00     0.118 C 
BRANCH  29  30
ATOM     30  O   UNL     1      -4.662  31.634  46.520  1.00  0.00    -0.393 OA
ATOM     31  H   UNL     1      -4.340  32.284  45.842  1.00  0.00     0.210 HD
ENDBRANCH  29  30
ENDBRANCH   1  11
TORSDOF 6
ENDMDL
MODEL 7
REMARK VINA RESULT:    -6.882      2.866      4.158
REMARK INTER + INTRA:         -10.404
REMARK INTER:                  -9.303
REMARK INTRA:                  -1.101
REMARK UNBOUND:                -1.309
REMARK SMILES CC[C@@H](C=C[C@H](C)[C@H]1CC[C@@H]2[C@@H]3CC=C4C[C@@H](O)CC[C@@]4(C)[C@H]3CC[C@@]21C)C(C)C
REMARK SMILES IDX 6 1 7 2 5 3 4 4 3 5 2 6 1 7 28 8 29 9 30 10 8 11 9 12 26 13
REMARK SMILES IDX 10 14 11 15 25 16 27 17 12 18 24 19 23 20 13 21 21 22 14 23
REMARK SMILES IDX 15 24 20 25 22 26 16 27 19 28 17 29 18 30
REMARK H PARENT 18 31
REMARK Flexibility Score: inf
ROOT
ATOM      1  C   UNL     1      -4.647  21.933  48.498  1.00  0.00     0.012 C 
ATOM      2  C   UNL     1      -5.474  22.852  47.578  1.00  0.00     0.012 C 
ENDROOT
BRANCH   1   3
ATOM      3  C   UNL     1      -4.358  20.641  47.763  1.00  0.00    -0.028 C 
ATOM      4  C   UNL     1      -3.706  19.626  48.354  1.00  0.00    -0.027 C 
BRANCH   4   5
ATOM      5  C   UNL     1      -3.300  18.391  47.578  1.00  0.00     0.014 C 
BRANCH   5   6
ATOM      6  C   UNL     1      -2.730  17.317  48.537  1.00  0.00     0.004 C 
ATOM      7  C   UNL     1      -2.653  17.819  49.979  1.00  0.00     0.004 C 
ENDBRANCH   5   6
BRANCH   5   8
ATOM      8  C   UNL     1      -2.319  18.787  46.434  1.00  0.00    -0.011 C 
ATOM      9  C   UNL     1      -1.988  17.598  45.520  1.00  0.00     0.008 C 
ATOM     10  C   UNL     1      -1.026  19.449  46.940  1.00  0.00     0.008 C 
ENDBRANCH   5   8
ENDBRANCH   4   5
ENDBRANCH   1   3
BRANCH   1  11
ATOM     11  C   UNL     1      -3.302  22.536  49.038  1.00  0.00     0.002 C 
ATOM     12  C   UNL     1      -2.330  22.940  47.911  1.00  0.00     0.005 C 
ATOM     13  C   UNL     1      -3.374  23.793  49.971  1.00  0.00    -0.026 C 
ATOM     14  C   UNL     1      -2.234  24.467  47.916  1.00  0.00     0.005 C 
ATOM     15  C   UNL     1      -3.200  24.977  48.999  1.00  0.00    -0.001 C 
ATOM     16  C   UNL     1      -2.165  23.732  50.962  1.00  0.00     0.007 C 
ATOM     17  C   UNL     1      -4.695  23.892  50.778  1.00  0.00     0.012 C 
ATOM     18  C   UNL     1      -2.804  26.327  49.677  1.00  0.00     0.000 C 
ATOM     19  C   UNL     1      -1.884  25.060  51.669  1.00  0.00     0.005 C 
ATOM     20  C   UNL     1      -1.619  26.203  50.660  1.00  0.00     0.003 C 
ATOM     21  C   UNL     1      -2.479  27.388  48.618  1.00  0.00     0.031 C 
ATOM     22  C   UNL     1      -1.252  27.588  51.354  1.00  0.00    -0.008 C 
ATOM     23  C   UNL     1      -2.141  28.700  49.249  1.00  0.00    -0.027 C 
ATOM     24  C   UNL     1      -1.527  28.801  50.444  1.00  0.00    -0.065 C 
ATOM     25  C   UNL     1      -2.071  27.815  52.668  1.00  0.00     0.014 C 
ATOM     26  C   UNL     1       0.263  27.553  51.688  1.00  0.00     0.016 C 
ATOM     27  C   UNL     1      -1.325  30.184  51.029  1.00  0.00     0.063 C 
ATOM     28  C   UNL     1      -1.906  29.219  53.288  1.00  0.00     0.033 C 
ATOM     29  C   UNL     1      -2.195  30.343  52.283  1.00  0.00     0.118 C 
BRANCH  29  30
ATOM     30  O   UNL     1      -3.556  30.325  51.936  1.00  0.00    -0.393 OA
ATOM     31  H   UNL     1      -4.070  30.207  52.778  1.00  0.00     0.210 HD
ENDBRANCH  29  30
ENDBRANCH   1  11
TORSDOF 6
ENDMDL
MODEL 8
REMARK VINA RESULT:    -6.715      2.452      5.002
REMARK INTER + INTRA:         -10.184
REMARK INTER:                  -9.019
REMARK INTRA:                  -1.165
REMARK UNBOUND:                -1.309
REMARK SMILES CC[C@@H](C=C[C@H](C)[C@H]1CC[C@@H]2[C@@H]3CC=C4C[C@@H](O)CC[C@@]4(C)[C@H]3CC[C@@]21C)C(C)C
REMARK SMILES IDX 6 1 7 2 5 3 4 4 3 5 2 6 1 7 28 8 29 9 30 10 8 11 9 12 26 13
REMARK SMILES IDX 10 14 11 15 25 16 27 17 12 18 24 19 23 20 13 21 21 22 14 23
REMARK SMILES IDX 15 24 20 25 22 26 16 27 19 28 17 29 18 30
REMARK H PARENT 18 31
REMARK Flexibility Score: inf
ROOT
ATOM      1  C   UNL     1      -4.368  24.129  49.694  1.00  0.00     0.012 C 
ATOM      2  C   UNL     1      -4.395  24.088  51.234  1.00  0.00     0.012 C 
ENDROOT
BRANCH   1   3
ATOM      3  C   UNL     1      -4.355  22.708  49.170  1.00  0.00    -0.028 C 
ATOM      4  C   UNL     1      -3.589  22.350  48.126  1.00  0.00    -0.027 C 
BRANCH   4   5
ATOM      5  C   UNL     1      -3.678  20.966  47.520  1.00  0.00     0.014 C 
BRANCH   5   6
ATOM      6  C   UNL     1      -3.457  19.886  48.609  1.00  0.00     0.004 C 
ATOM      7  C   UNL     1      -4.488  18.761  48.517  1.00  0.00     0.004 C 
ENDBRANCH   5   6
BRANCH   5   8
ATOM      8  C   UNL     1      -2.689  20.852  46.321  1.00  0.00    -0.011 C 
ATOM      9  C   UNL     1      -1.528  19.892  46.620  1.00  0.00     0.008 C 
ATOM     10  C   UNL     1      -2.149  22.211  45.844  1.00  0.00     0.008 C 
ENDBRANCH   5   8
ENDBRANCH   4   5
ENDBRANCH   1   3
BRANCH   1  11
ATOM     11  C   UNL     1      -5.536  24.924  49.010  1.00  0.00     0.002 C 
ATOM     12  C   UNL     1      -6.561  25.473  50.021  1.00  0.00     0.005 C 
ATOM     13  C   UNL     1      -5.168  26.151  48.108  1.00  0.00    -0.026 C 
ATOM     14  C   UNL     1      -6.428  26.997  50.026  1.00  0.00     0.005 C 
ATOM     15  C   UNL     1      -5.277  27.353  49.069  1.00  0.00    -0.001 C 
ATOM     16  C   UNL     1      -6.249  26.268  46.983  1.00  0.00     0.007 C 
ATOM     17  C   UNL     1      -3.762  26.048  47.461  1.00  0.00     0.012 C 
ATOM     18  C   UNL     1      -5.385  28.743  48.368  1.00  0.00     0.000 C 
ATOM     19  C   UNL     1      -6.245  27.620  46.265  1.00  0.00     0.005 C 
ATOM     20  C   UNL     1      -6.452  28.794  47.252  1.00  0.00     0.003 C 
ATOM     21  C   UNL     1      -5.670  29.847  49.396  1.00  0.00     0.031 C 
ATOM     22  C   UNL     1      -6.525  30.215  46.538  1.00  0.00    -0.008 C 
ATOM     23  C   UNL     1      -5.732  31.191  48.747  1.00  0.00    -0.027 C 
ATOM     24  C   UNL     1      -6.180  31.377  47.490  1.00  0.00    -0.065 C 
ATOM     25  C   UNL     1      -5.534  30.311  45.332  1.00  0.00     0.014 C 
ATOM     26  C   UNL     1      -7.978  30.405  46.030  1.00  0.00     0.016 C 
ATOM     27  C   UNL     1      -6.105  32.773  46.903  1.00  0.00     0.063 C 
ATOM     28  C   UNL     1      -5.414  31.721  44.715  1.00  0.00     0.033 C 
ATOM     29  C   UNL     1      -5.080  32.794  45.762  1.00  0.00     0.118 C 
BRANCH  29  30
ATOM     30  O   UNL     1      -3.787  32.574  46.264  1.00  0.00    -0.393 OA
ATOM     31  H   UNL     1      -3.882  32.009  47.075  1.00  0.00     0.210 HD
ENDBRANCH  29  30
ENDBRANCH   1  11
TORSDOF 6
ENDMDL
MODEL 9
REMARK VINA RESULT:    -6.423      2.392      4.445
REMARK INTER + INTRA:          -9.797
REMARK INTER:                  -8.784
REMARK INTRA:                  -1.013
REMARK UNBOUND:                -1.309
REMARK SMILES CC[C@@H](C=C[C@H](C)[C@H]1CC[C@@H]2[C@@H]3CC=C4C[C@@H](O)CC[C@@]4(C)[C@H]3CC[C@@]21C)C(C)C
REMARK SMILES IDX 6 1 7 2 5 3 4 4 3 5 2 6 1 7 28 8 29 9 30 10 8 11 9 12 26 13
REMARK SMILES IDX 10 14 11 15 25 16 27 17 12 18 24 19 23 20 13 21 21 22 14 23
REMARK SMILES IDX 15 24 20 25 22 26 16 27 19 28 17 29 18 30
REMARK H PARENT 18 31
REMARK Flexibility Score: inf
ROOT
ATOM      1  C   UNL     1      -4.452  23.537  48.484  1.00  0.00     0.012 C 
ATOM      2  C   UNL     1      -5.800  22.870  48.149  1.00  0.00     0.012 C 
ENDROOT
BRANCH   1   3
ATOM      3  C   UNL     1      -3.367  22.480  48.463  1.00  0.00    -0.028 C 
ATOM      4  C   UNL     1      -3.658  21.178  48.313  1.00  0.00    -0.027 C 
BRANCH   4   5
ATOM      5  C   UNL     1      -2.588  20.112  48.428  1.00  0.00     0.014 C 
BRANCH   5   6
ATOM      6  C   UNL     1      -1.723  20.078  47.143  1.00  0.00     0.004 C 
ATOM      7  C   UNL     1      -2.541  20.408  45.894  1.00  0.00     0.004 C 
ENDBRANCH   5   6
BRANCH   5   8
ATOM      8  C   UNL     1      -3.245  18.742  48.773  1.00  0.00    -0.011 C 
ATOM      9  C   UNL     1      -2.448  17.560  48.203  1.00  0.00     0.008 C 
ATOM     10  C   UNL     1      -4.720  18.647  48.346  1.00  0.00     0.008 C 
ENDBRANCH   5   8
ENDBRANCH   4   5
ENDBRANCH   1   3
BRANCH   1  11
ATOM     11  C   UNL     1      -4.031  24.733  47.557  1.00  0.00     0.002 C 
ATOM     12  C   UNL     1      -4.970  24.914  46.348  1.00  0.00     0.005 C 
ATOM     13  C   UNL     1      -3.918  26.160  48.193  1.00  0.00    -0.026 C 
ATOM     14  C   UNL     1      -5.733  26.225  46.555  1.00  0.00     0.005 C 
ATOM     15  C   UNL     1      -5.299  26.789  47.919  1.00  0.00    -0.001 C 
ATOM     16  C   UNL     1      -2.809  26.948  47.422  1.00  0.00     0.007 C 
ATOM     17  C   UNL     1      -3.576  26.141  49.706  1.00  0.00     0.012 C 
ATOM     18  C   UNL     1      -5.347  28.344  48.055  1.00  0.00     0.000 C 
ATOM     19  C   UNL     1      -2.846  28.458  47.667  1.00  0.00     0.005 C 
ATOM     20  C   UNL     1      -4.217  29.069  47.291  1.00  0.00     0.003 C 
ATOM     21  C   UNL     1      -6.706  28.885  47.588  1.00  0.00     0.031 C 
ATOM     22  C   UNL     1      -4.276  30.649  47.464  1.00  0.00    -0.008 C 
ATOM     23  C   UNL     1      -6.786  30.368  47.753  1.00  0.00    -0.027 C 
ATOM     24  C   UNL     1      -5.715  31.177  47.630  1.00  0.00    -0.065 C 
ATOM     25  C   UNL     1      -3.474  31.127  48.720  1.00  0.00     0.014 C 
ATOM     26  C   UNL     1      -3.662  31.280  46.187  1.00  0.00     0.016 C 
ATOM     27  C   UNL     1      -5.898  32.654  47.916  1.00  0.00     0.063 C 
ATOM     28  C   UNL     1      -3.647  32.623  49.057  1.00  0.00     0.033 C 
ATOM     29  C   UNL     1      -5.122  33.030  49.184  1.00  0.00     0.118 C 
BRANCH  29  30
ATOM     30  O   UNL     1      -5.688  32.402  50.306  1.00  0.00    -0.393 OA
ATOM     31  H   UNL     1      -6.063  31.536  49.996  1.00  0.00     0.210 HD
ENDBRANCH  29  30
ENDBRANCH   1  11
TORSDOF 6
ENDMDL
