MODEL 1
REMARK VINA RESULT:    -8.232      0.000      0.000
REMARK INTER + INTRA:         -11.757
REMARK INTER:                 -12.081
REMARK INTRA:                   0.325
REMARK UNBOUND:                 0.325
REMARK SMILES O=c1c(O[C@@H]2O[C@@H](CO)[C@@H](O)[C@H](O)[C@@H]2O)c(-c2ccc(O)c(O)c2)oc2cc(O)cc(O)c12
REMARK SMILES IDX 4 1 3 2 16 3 25 4 2 5 26 6 1 7 33 8 27 9 31 10 28 11 30 12
REMARK SMILES IDX 17 13 18 14 19 15 20 16 24 17 22 18 21 19 23 21 32 23 29 25
REMARK SMILES IDX 5 27 14 28 6 29 12 30 7 31 10 32 15 33 13 35 8 37 9 38 11 40
REMARK H PARENT 21 20 23 22 32 24 29 26 15 34 13 36 9 39 11 41
REMARK Flexibility Score: inf
ROOT
ATOM      1  O   UNL     1       0.023  -5.678  -9.001  1.00  0.00    -0.454 OA
ENDROOT
BRANCH   1   2
ATOM      2  C   UNL     1      -0.005  -6.634  -7.977  1.00  0.00     0.214 A 
ATOM      3  C   UNL     1       1.162  -7.336  -7.639  1.00  0.00     0.180 A 
ATOM      4  O   UNL     1       1.112  -8.308  -6.737  1.00  0.00    -0.452 OA
ATOM      5  C   UNL     1      -1.187  -6.905  -7.266  1.00  0.00     0.239 A 
ATOM      6  C   UNL     1       0.009  -8.630  -6.071  1.00  0.00     0.146 A 
ATOM      7  O   UNL     1      -2.213  -6.230  -7.531  1.00  0.00    -0.285 OA
ATOM      8  C   UNL     1      -1.200  -7.913  -6.272  1.00  0.00     0.111 A 
ATOM      9  C   UNL     1       0.067  -9.689  -5.161  1.00  0.00     0.094 A 
ATOM     10  C   UNL     1      -2.339  -8.273  -5.488  1.00  0.00     0.134 A 
ATOM     11  C   UNL     1      -1.061 -10.059  -4.435  1.00  0.00     0.123 A 
ATOM     12  C   UNL     1      -2.253  -9.354  -4.601  1.00  0.00     0.093 A 
BRANCH   3  13
ATOM     13  C   UNL     1       2.459  -7.036  -8.277  1.00  0.00     0.025 A 
ATOM     14  C   UNL     1       2.627  -7.269  -9.649  1.00  0.00     0.016 A 
ATOM     15  C   UNL     1       3.855  -7.009 -10.261  1.00  0.00     0.051 A 
ATOM     16  C   UNL     1       4.935  -6.531  -9.505  1.00  0.00     0.157 A 
ATOM     17  C   UNL     1       3.546  -6.573  -7.515  1.00  0.00     0.062 A 
ATOM     18  C   UNL     1       4.780  -6.319  -8.125  1.00  0.00     0.158 A 
BRANCH  16  19
ATOM     19  O   UNL     1       6.160  -6.276 -10.120  1.00  0.00    -0.504 OA
ATOM     20  H   UNL     1       6.684  -7.011 -10.580  1.00  0.00     0.293 HD
ENDBRANCH  16  19
BRANCH  18  21
ATOM     21  O   UNL     1       5.839  -5.859  -7.342  1.00  0.00    -0.504 OA
ATOM     22  H   UNL     1       6.470  -5.132  -7.659  1.00  0.00     0.293 HD
ENDBRANCH  18  21
ENDBRANCH   3  13
BRANCH  10  23
ATOM     23  O   UNL     1      -3.567  -7.605  -5.528  1.00  0.00    -0.507 OA
ATOM     24  H   UNL     1      -4.409  -7.915  -5.076  1.00  0.00     0.293 HD
ENDBRANCH  10  23
BRANCH  11  25
ATOM     25  O   UNL     1      -0.986 -11.125  -3.542  1.00  0.00    -0.508 OA
ATOM     26  H   UNL     1      -0.893 -10.978  -2.546  1.00  0.00     0.293 HD
ENDBRANCH  11  25
ENDBRANCH   1   2
BRANCH   1  27
ATOM     27  C   UNL     1       0.439  -4.321  -8.798  1.00  0.00     0.339 C 
ATOM     28  C   UNL     1      -0.347  -3.359  -9.707  1.00  0.00     0.214 C 
ATOM     29  O   UNL     1       0.329  -3.955  -7.431  1.00  0.00    -0.332 OA
ATOM     30  C   UNL     1      -1.817  -3.247  -9.256  1.00  0.00     0.180 C 
ATOM     31  C   UNL     1      -1.017  -3.977  -6.985  1.00  0.00     0.179 C 
ATOM     32  C   UNL     1      -1.872  -2.942  -7.747  1.00  0.00     0.177 C 
BRANCH  28  33
ATOM     33  O   UNL     1      -0.265  -3.796 -11.041  1.00  0.00    -0.384 OA
ATOM     34  H   UNL     1       0.613  -3.489 -11.387  1.00  0.00     0.211 HD
ENDBRANCH  28  33
BRANCH  30  35
ATOM     35  O   UNL     1      -2.510  -4.443  -9.516  1.00  0.00    -0.387 OA
ATOM     36  H   UNL     1      -2.954  -4.716  -8.672  1.00  0.00     0.211 HD
ENDBRANCH  30  35
BRANCH  31  37
ATOM     37  C   UNL     1      -1.035  -3.718  -5.470  1.00  0.00     0.191 C 
BRANCH  37  38
ATOM     38  O   UNL     1      -1.898  -4.606  -4.810  1.00  0.00    -0.394 OA
ATOM     39  H   UNL     1      -2.762  -4.578  -5.298  1.00  0.00     0.210 HD
ENDBRANCH  37  38
ENDBRANCH  31  37
BRANCH  32  40
ATOM     40  O   UNL     1      -1.389  -1.648  -7.495  1.00  0.00    -0.387 OA
ATOM     41  H   UNL     1      -1.210  -1.591  -6.524  1.00  0.00     0.211 HD
ENDBRANCH  32  40
ENDBRANCH   1  27
TORSDOF 12
ENDMDL
MODEL 2
REMARK VINA RESULT:    -5.635      1.779      5.651
REMARK INTER + INTRA:          -7.945
REMARK INTER:                  -8.392
REMARK INTRA:                   0.447
REMARK UNBOUND:                 0.325
REMARK SMILES O=c1c(O[C@@H]2O[C@@H](CO)[C@@H](O)[C@H](O)[C@@H]2O)c(-c2ccc(O)c(O)c2)oc2cc(O)cc(O)c12
REMARK SMILES IDX 4 1 3 2 16 3 25 4 2 5 26 6 1 7 33 8 27 9 31 10 28 11 30 12
REMARK SMILES IDX 17 13 18 14 19 15 20 16 24 17 22 18 21 19 23 21 32 23 29 25
REMARK SMILES IDX 5 27 14 28 6 29 12 30 7 31 10 32 15 33 13 35 8 37 9 38 11 40
REMARK H PARENT 21 20 23 22 32 24 29 26 15 34 13 36 9 39 11 41
REMARK Flexibility Score: inf
ROOT
ATOM      1  O   UNL     1      -0.859  -5.367  -7.698  1.00  0.00    -0.454 OA
ENDROOT
BRANCH   1   2
ATOM      2  C   UNL     1       0.485  -5.759  -7.778  1.00  0.00     0.214 A 
ATOM      3  C   UNL     1       0.862  -7.055  -7.396  1.00  0.00     0.180 A 
ATOM      4  O   UNL     1       2.145  -7.393  -7.380  1.00  0.00    -0.452 OA
ATOM      5  C   UNL     1       1.474  -4.876  -8.243  1.00  0.00     0.239 A 
ATOM      6  C   UNL     1       3.120  -6.580  -7.769  1.00  0.00     0.146 A 
ATOM      7  O   UNL     1       1.121  -3.737  -8.641  1.00  0.00    -0.285 OA
ATOM      8  C   UNL     1       2.831  -5.281  -8.263  1.00  0.00     0.111 A 
ATOM      9  C   UNL     1       4.438  -7.034  -7.686  1.00  0.00     0.094 A 
ATOM     10  C   UNL     1       3.918  -4.471  -8.715  1.00  0.00     0.134 A 
ATOM     11  C   UNL     1       5.493  -6.220  -8.087  1.00  0.00     0.123 A 
ATOM     12  C   UNL     1       5.230  -4.948  -8.596  1.00  0.00     0.093 A 
BRANCH   3  13
ATOM     13  C   UNL     1      -0.135  -8.065  -6.989  1.00  0.00     0.025 A 
ATOM     14  C   UNL     1       0.056  -9.409  -7.337  1.00  0.00     0.016 A 
ATOM     15  C   UNL     1      -0.890 -10.370  -6.975  1.00  0.00     0.051 A 
ATOM     16  C   UNL     1      -2.048  -9.997  -6.278  1.00  0.00     0.157 A 
ATOM     17  C   UNL     1      -1.304  -7.687  -6.305  1.00  0.00     0.062 A 
ATOM     18  C   UNL     1      -2.257  -8.648  -5.947  1.00  0.00     0.158 A 
BRANCH  16  19
ATOM     19  O   UNL     1      -2.990 -10.960  -5.923  1.00  0.00    -0.504 OA
ATOM     20  H   UNL     1      -3.406 -10.979  -4.999  1.00  0.00     0.293 HD
ENDBRANCH  16  19
BRANCH  18  21
ATOM     21  O   UNL     1      -3.405  -8.241  -5.268  1.00  0.00    -0.504 OA
ATOM     22  H   UNL     1      -3.958  -8.881  -4.709  1.00  0.00     0.293 HD
ENDBRANCH  18  21
ENDBRANCH   3  13
BRANCH  10  23
ATOM     23  O   UNL     1       3.772  -3.206  -9.294  1.00  0.00    -0.507 OA
ATOM     24  H   UNL     1       3.718  -2.340  -8.787  1.00  0.00     0.293 HD
ENDBRANCH  10  23
BRANCH  11  25
ATOM     25  O   UNL     1       6.801  -6.686  -7.984  1.00  0.00    -0.508 OA
ATOM     26  H   UNL     1       7.594  -6.070  -8.100  1.00  0.00     0.293 HD
ENDBRANCH  11  25
ENDBRANCH   1   2
BRANCH   1  27
ATOM     27  C   UNL     1      -1.421  -4.322  -8.503  1.00  0.00     0.339 C 
ATOM     28  C   UNL     1      -2.854  -4.674  -8.944  1.00  0.00     0.214 C 
ATOM     29  O   UNL     1      -1.374  -3.077  -7.825  1.00  0.00    -0.332 OA
ATOM     30  C   UNL     1      -3.828  -4.629  -7.750  1.00  0.00     0.180 C 
ATOM     31  C   UNL     1      -2.174  -3.082  -6.654  1.00  0.00     0.179 C 
ATOM     32  C   UNL     1      -3.663  -3.294  -6.999  1.00  0.00     0.177 C 
BRANCH  28  33
ATOM     33  O   UNL     1      -2.864  -5.942  -9.551  1.00  0.00    -0.384 OA
ATOM     34  H   UNL     1      -2.532  -6.585  -8.873  1.00  0.00     0.211 HD
ENDBRANCH  28  33
BRANCH  30  35
ATOM     35  O   UNL     1      -3.580  -5.695  -6.866  1.00  0.00    -0.387 OA
ATOM     36  H   UNL     1      -4.422  -6.214  -6.787  1.00  0.00     0.211 HD
ENDBRANCH  30  35
BRANCH  31  37
ATOM     37  C   UNL     1      -1.952  -1.758  -5.903  1.00  0.00     0.191 C 
BRANCH  37  38
ATOM     38  O   UNL     1      -3.168  -1.201  -5.481  1.00  0.00    -0.394 OA
ATOM     39  H   UNL     1      -3.607  -1.879  -4.904  1.00  0.00     0.210 HD
ENDBRANCH  37  38
ENDBRANCH  31  37
BRANCH  32  40
ATOM     40  O   UNL     1      -4.124  -2.231  -7.793  1.00  0.00    -0.387 OA
ATOM     41  H   UNL     1      -3.369  -1.599  -7.895  1.00  0.00     0.211 HD
ENDBRANCH  32  40
ENDBRANCH   1  27
TORSDOF 12
ENDMDL
