MODEL 1
REMARK VINA RESULT:    -4.924      0.000      0.000
REMARK INTER + INTRA:          -5.558
REMARK INTER:                  -5.499
REMARK INTRA:                  -0.058
REMARK UNBOUND:                -0.058
REMARK SMILES COc1ccc(C(=O)[O-])cc1
REMARK SMILES IDX 6 1 5 2 10 3 4 4 11 5 3 6 7 7 8 8 9 9 2 10 1 11
REMARK H PARENT
REMARK Flexibility Score: inf
ROOT
ATOM      1  C   UNL     1      13.341  16.170  27.066  1.00  0.00    -0.003 A 
ATOM      2  C   UNL     1      12.628  17.367  27.251  1.00  0.00     0.014 A 
ATOM      3  C   UNL     1      13.343  15.567  25.796  1.00  0.00     0.014 A 
ATOM      4  C   UNL     1      11.933  17.949  26.187  1.00  0.00     0.047 A 
ATOM      5  C   UNL     1      12.647  16.151  24.734  1.00  0.00     0.047 A 
ATOM      6  C   UNL     1      11.937  17.343  24.917  1.00  0.00     0.118 A 
ENDROOT
BRANCH   1   7
ATOM      7  C   UNL     1      14.077  15.557  28.195  1.00  0.00     0.071 C 
ATOM      8  O   UNL     1      15.329  15.425  28.146  1.00  0.00    -0.545 OA
ATOM      9  O   UNL     1      13.397  15.118  29.325  1.00  0.00    -0.545 OA
ENDBRANCH   1   7
BRANCH   6  10
ATOM     10  O   UNL     1      11.255  17.888  23.819  1.00  0.00    -0.497 OA
ATOM     11  C   UNL     1      11.808  18.011  22.513  1.00  0.00     0.278 C 
ENDBRANCH   6  10
TORSDOF 2
ENDMDL
MODEL 2
REMARK VINA RESULT:    -4.849      2.275      3.513
REMARK INTER + INTRA:          -5.474
REMARK INTER:                  -5.412
REMARK INTRA:                  -0.063
REMARK UNBOUND:                -0.058
REMARK SMILES COc1ccc(C(=O)[O-])cc1
REMARK SMILES IDX 6 1 5 2 10 3 4 4 11 5 3 6 7 7 8 8 9 9 2 10 1 11
REMARK H PARENT
REMARK Flexibility Score: inf
ROOT
ATOM      1  C   UNL     1      14.563  14.895  29.559  1.00  0.00    -0.003 A 
ATOM      2  C   UNL     1      15.644  15.508  28.902  1.00  0.00     0.014 A 
ATOM      3  C   UNL     1      13.257  15.149  29.105  1.00  0.00     0.014 A 
ATOM      4  C   UNL     1      15.422  16.357  27.812  1.00  0.00     0.047 A 
ATOM      5  C   UNL     1      13.039  15.997  28.017  1.00  0.00     0.047 A 
ATOM      6  C   UNL     1      14.114  16.608  27.361  1.00  0.00     0.118 A 
ENDROOT
BRANCH   1   7
ATOM      7  C   UNL     1      14.802  13.997  30.711  1.00  0.00     0.071 C 
ATOM      8  O   UNL     1      14.499  14.360  31.879  1.00  0.00    -0.545 OA
ATOM      9  O   UNL     1      15.365  12.740  30.521  1.00  0.00    -0.545 OA
ENDBRANCH   1   7
BRANCH   6  10
ATOM     10  O   UNL     1      13.840  17.451  26.274  1.00  0.00    -0.497 OA
ATOM     11  C   UNL     1      12.530  17.789  25.831  1.00  0.00     0.278 C 
ENDBRANCH   6  10
TORSDOF 2
ENDMDL
MODEL 3
REMARK VINA RESULT:    -4.808      2.025      4.867
REMARK INTER + INTRA:          -5.429
REMARK INTER:                  -5.366
REMARK INTRA:                  -0.063
REMARK UNBOUND:                -0.058
REMARK SMILES COc1ccc(C(=O)[O-])cc1
REMARK SMILES IDX 6 1 5 2 10 3 4 4 11 5 3 6 7 7 8 8 9 9 2 10 1 11
REMARK H PARENT
REMARK Flexibility Score: inf
ROOT
ATOM      1  C   UNL     1      14.194  17.030  25.960  1.00  0.00    -0.003 A 
ATOM      2  C   UNL     1      15.212  17.019  26.928  1.00  0.00     0.014 A 
ATOM      3  C   UNL     1      12.999  16.337  26.220  1.00  0.00     0.014 A 
ATOM      4  C   UNL     1      15.038  16.328  28.132  1.00  0.00     0.047 A 
ATOM      5  C   UNL     1      12.828  15.647  27.422  1.00  0.00     0.047 A 
ATOM      6  C   UNL     1      13.841  15.635  28.388  1.00  0.00     0.118 A 
ENDROOT
BRANCH   1   7
ATOM      7  C   UNL     1      14.381  17.764  24.688  1.00  0.00     0.071 C 
ATOM      8  O   UNL     1      15.537  18.070  24.291  1.00  0.00    -0.545 OA
ATOM      9  O   UNL     1      13.284  18.124  23.914  1.00  0.00    -0.545 OA
ENDBRANCH   1   7
BRANCH   6  10
ATOM     10  O   UNL     1      13.619  14.927  29.579  1.00  0.00    -0.497 OA
ATOM     11  C   UNL     1      14.630  14.231  30.299  1.00  0.00     0.278 C 
ENDBRANCH   6  10
TORSDOF 2
ENDMDL
MODEL 4
REMARK VINA RESULT:    -4.806      2.113      2.950
REMARK INTER + INTRA:          -5.426
REMARK INTER:                  -5.370
REMARK INTRA:                  -0.056
REMARK UNBOUND:                -0.058
REMARK SMILES COc1ccc(C(=O)[O-])cc1
REMARK SMILES IDX 6 1 5 2 10 3 4 4 11 5 3 6 7 7 8 8 9 9 2 10 1 11
REMARK H PARENT
REMARK Flexibility Score: inf
ROOT
ATOM      1  C   UNL     1      14.370  15.247  28.881  1.00  0.00    -0.003 A 
ATOM      2  C   UNL     1      13.191  15.504  28.161  1.00  0.00     0.014 A 
ATOM      3  C   UNL     1      15.570  15.845  28.459  1.00  0.00     0.014 A 
ATOM      4  C   UNL     1      13.212  16.342  27.041  1.00  0.00     0.047 A 
ATOM      5  C   UNL     1      15.589  16.681  27.339  1.00  0.00     0.047 A 
ATOM      6  C   UNL     1      14.415  16.937  26.621  1.00  0.00     0.118 A 
ENDROOT
BRANCH   1   7
ATOM      7  C   UNL     1      14.343  14.360  30.066  1.00  0.00     0.071 C 
ATOM      8  O   UNL     1      13.804  14.743  31.139  1.00  0.00    -0.545 OA
ATOM      9  O   UNL     1      14.912  13.094  30.012  1.00  0.00    -0.545 OA
ENDBRANCH   1   7
BRANCH   6  10
ATOM     10  O   UNL     1      14.489  17.785  25.506  1.00  0.00    -0.497 OA
ATOM     11  C   UNL     1      13.668  17.661  24.349  1.00  0.00     0.278 C 
ENDBRANCH   6  10
TORSDOF 2
ENDMDL
MODEL 5
REMARK VINA RESULT:    -4.706      1.773      5.058
REMARK INTER + INTRA:          -5.315
REMARK INTER:                  -5.251
REMARK INTRA:                  -0.064
REMARK UNBOUND:                -0.058
REMARK SMILES COc1ccc(C(=O)[O-])cc1
REMARK SMILES IDX 6 1 5 2 10 3 4 4 11 5 3 6 7 7 8 8 9 9 2 10 1 11
REMARK H PARENT
REMARK Flexibility Score: inf
ROOT
ATOM      1  C   UNL     1      13.846  16.914  26.381  1.00  0.00    -0.003 A 
ATOM      2  C   UNL     1      12.943  16.192  27.179  1.00  0.00     0.014 A 
ATOM      3  C   UNL     1      15.206  16.934  26.738  1.00  0.00     0.014 A 
ATOM      4  C   UNL     1      13.390  15.504  28.312  1.00  0.00     0.047 A 
ATOM      5  C   UNL     1      15.650  16.246  27.871  1.00  0.00     0.047 A 
ATOM      6  C   UNL     1      14.751  15.527  28.667  1.00  0.00     0.118 A 
ENDROOT
BRANCH   1   7
ATOM      7  C   UNL     1      13.369  17.639  25.182  1.00  0.00     0.071 C 
ATOM      8  O   UNL     1      14.136  17.827  24.200  1.00  0.00    -0.545 OA
ATOM      9  O   UNL     1      12.068  18.125  25.124  1.00  0.00    -0.545 OA
ENDBRANCH   1   7
BRANCH   6  10
ATOM     10  O   UNL     1      15.249  14.854  29.792  1.00  0.00    -0.497 OA
ATOM     11  C   UNL     1      14.435  14.304  30.823  1.00  0.00     0.278 C 
ENDBRANCH   6  10
TORSDOF 2
ENDMDL
MODEL 6
REMARK VINA RESULT:    -4.697      1.489      4.991
REMARK INTER + INTRA:          -5.304
REMARK INTER:                  -5.237
REMARK INTRA:                  -0.067
REMARK UNBOUND:                -0.058
REMARK SMILES COc1ccc(C(=O)[O-])cc1
REMARK SMILES IDX 6 1 5 2 10 3 4 4 11 5 3 6 7 7 8 8 9 9 2 10 1 11
REMARK H PARENT
REMARK Flexibility Score: inf
ROOT
ATOM      1  C   UNL     1      13.329  16.541  25.644  1.00  0.00    -0.003 A 
ATOM      2  C   UNL     1      14.660  16.930  25.875  1.00  0.00     0.014 A 
ATOM      3  C   UNL     1      12.642  15.836  26.648  1.00  0.00     0.014 A 
ATOM      4  C   UNL     1      15.290  16.619  27.084  1.00  0.00     0.047 A 
ATOM      5  C   UNL     1      13.274  15.526  27.855  1.00  0.00     0.047 A 
ATOM      6  C   UNL     1      14.599  15.912  28.085  1.00  0.00     0.118 A 
ENDROOT
BRANCH   1   7
ATOM      7  C   UNL     1      12.666  16.873  24.364  1.00  0.00     0.071 C 
ATOM      8  O   UNL     1      11.714  16.167  23.934  1.00  0.00    -0.545 OA
ATOM      9  O   UNL     1      13.083  17.968  23.616  1.00  0.00    -0.545 OA
ENDBRANCH   1   7
BRANCH   6  10
ATOM     10  O   UNL     1      15.186  15.577  29.314  1.00  0.00    -0.497 OA
ATOM     11  C   UNL     1      14.800  14.462  30.111  1.00  0.00     0.278 C 
ENDBRANCH   6  10
TORSDOF 2
ENDMDL
MODEL 7
REMARK VINA RESULT:    -4.621      2.022      4.673
REMARK INTER + INTRA:          -5.219
REMARK INTER:                  -5.151
REMARK INTRA:                  -0.069
REMARK UNBOUND:                -0.058
REMARK SMILES COc1ccc(C(=O)[O-])cc1
REMARK SMILES IDX 6 1 5 2 10 3 4 4 11 5 3 6 7 7 8 8 9 9 2 10 1 11
REMARK H PARENT
REMARK Flexibility Score: inf
ROOT
ATOM      1  C   UNL     1      12.815  17.498  25.623  1.00  0.00    -0.003 A 
ATOM      2  C   UNL     1      12.893  16.988  26.931  1.00  0.00     0.014 A 
ATOM      3  C   UNL     1      14.004  17.710  24.903  1.00  0.00     0.014 A 
ATOM      4  C   UNL     1      14.134  16.696  27.506  1.00  0.00     0.047 A 
ATOM      5  C   UNL     1      15.243  17.419  25.480  1.00  0.00     0.047 A 
ATOM      6  C   UNL     1      15.321  16.911  26.783  1.00  0.00     0.118 A 
ENDROOT
BRANCH   1   7
ATOM      7  C   UNL     1      11.500  17.804  25.018  1.00  0.00     0.071 C 
ATOM      8  O   UNL     1      10.521  18.125  25.744  1.00  0.00    -0.545 OA
ATOM      9  O   UNL     1      11.325  17.740  23.641  1.00  0.00    -0.545 OA
ENDBRANCH   1   7
BRANCH   6  10
ATOM     10  O   UNL     1      16.590  16.635  27.314  1.00  0.00    -0.497 OA
ATOM     11  C   UNL     1      17.799  16.670  26.564  1.00  0.00     0.278 C 
ENDBRANCH   6  10
TORSDOF 2
ENDMDL
MODEL 8
REMARK VINA RESULT:    -4.462      3.193      4.247
REMARK INTER + INTRA:          -5.042
REMARK INTER:                  -4.981
REMARK INTRA:                  -0.062
REMARK UNBOUND:                -0.058
REMARK SMILES COc1ccc(C(=O)[O-])cc1
REMARK SMILES IDX 6 1 5 2 10 3 4 4 11 5 3 6 7 7 8 8 9 9 2 10 1 11
REMARK H PARENT
REMARK Flexibility Score: inf
ROOT
ATOM      1  C   UNL     1      14.349  16.430  26.894  1.00  0.00    -0.003 A 
ATOM      2  C   UNL     1      15.579  16.239  27.547  1.00  0.00     0.014 A 
ATOM      3  C   UNL     1      14.319  17.175  25.702  1.00  0.00     0.014 A 
ATOM      4  C   UNL     1      16.755  16.781  27.016  1.00  0.00     0.047 A 
ATOM      5  C   UNL     1      15.494  17.715  25.175  1.00  0.00     0.047 A 
ATOM      6  C   UNL     1      16.720  17.526  25.823  1.00  0.00     0.118 A 
ENDROOT
BRANCH   1   7
ATOM      7  C   UNL     1      13.108  15.855  27.458  1.00  0.00     0.071 C 
ATOM      8  O   UNL     1      12.996  15.666  28.699  1.00  0.00    -0.545 OA
ATOM      9  O   UNL     1      12.048  15.513  26.626  1.00  0.00    -0.545 OA
ENDBRANCH   1   7
BRANCH   6  10
ATOM     10  O   UNL     1      17.871  18.089  25.252  1.00  0.00    -0.497 OA
ATOM     11  C   UNL     1      19.141  17.447  25.208  1.00  0.00     0.278 C 
ENDBRANCH   6  10
TORSDOF 2
ENDMDL
MODEL 9
REMARK VINA RESULT:    -4.380      1.619      2.049
REMARK INTER + INTRA:          -4.951
REMARK INTER:                  -4.890
REMARK INTRA:                  -0.061
REMARK UNBOUND:                -0.058
REMARK SMILES COc1ccc(C(=O)[O-])cc1
REMARK SMILES IDX 6 1 5 2 10 3 4 4 11 5 3 6 7 7 8 8 9 9 2 10 1 11
REMARK H PARENT
REMARK Flexibility Score: inf
ROOT
ATOM      1  C   UNL     1      13.759  16.765  25.593  1.00  0.00    -0.003 A 
ATOM      2  C   UNL     1      14.407  17.695  24.761  1.00  0.00     0.014 A 
ATOM      3  C   UNL     1      12.499  16.272  25.211  1.00  0.00     0.014 A 
ATOM      4  C   UNL     1      13.806  18.122  23.573  1.00  0.00     0.047 A 
ATOM      5  C   UNL     1      11.901  16.701  24.023  1.00  0.00     0.047 A 
ATOM      6  C   UNL     1      12.545  17.627  23.195  1.00  0.00     0.118 A 
ENDROOT
BRANCH   1   7
ATOM      7  C   UNL     1      14.398  16.314  26.849  1.00  0.00     0.071 C 
ATOM      8  O   UNL     1      15.219  17.057  27.451  1.00  0.00    -0.545 OA
ATOM      9  O   UNL     1      14.103  15.065  27.382  1.00  0.00    -0.545 OA
ENDBRANCH   1   7
BRANCH   6  10
ATOM     10  O   UNL     1      11.902  18.024  22.013  1.00  0.00    -0.497 OA
ATOM     11  C   UNL     1      12.542  18.124  20.746  1.00  0.00     0.278 C 
ENDBRANCH   6  10
TORSDOF 2
ENDMDL
