MODEL 1
REMARK VINA RESULT:    -8.578      0.000      0.000
REMARK INTER + INTRA:         -10.686
REMARK INTER:                 -10.334
REMARK INTRA:                  -0.353
REMARK UNBOUND:                -0.353
REMARK SMILES Oc1cc(O)c2cc(O)c(-c3ccc(O)c(O)c3)[o+]c2c1.[Cl-]
REMARK SMILES IDX 10 1 19 2 20 3 21 4 2 5 3 6 4 7 6 8 7 9 8 10 11 11 12 12
REMARK SMILES IDX 13 13 14 14 18 15 16 16 15 17 17 19 9 21 1 23 5 25
REMARK H PARENT 15 18 17 20 9 22 1 24 5 26
REMARK Flexibility Score: inf
ROOT
ATOM      1  C   UNL     1      -2.729   0.012  10.268  1.00  0.00     0.402 A 
ATOM      2  O   UNL     1      -3.999  -0.300  10.026  1.00  0.00    -0.202 OA
ATOM      3  C   UNL     1      -4.706  -1.126  10.792  1.00  0.00     0.368 A 
ATOM      4  C   UNL     1      -6.036  -1.391  10.458  1.00  0.00     0.162 A 
ATOM      5  C   UNL     1      -6.803  -2.252  11.245  1.00  0.00     0.128 A 
ATOM      6  C   UNL     1      -6.236  -2.853  12.374  1.00  0.00     0.093 A 
ATOM      7  C   UNL     1      -4.905  -2.603  12.729  1.00  0.00     0.136 A 
ATOM      8  C   UNL     1      -4.121  -1.731  11.931  1.00  0.00     0.125 A 
ATOM      9  C   UNL     1      -2.776  -1.434  12.203  1.00  0.00     0.078 A 
ATOM     10  C   UNL     1      -2.067  -0.567  11.366  1.00  0.00     0.223 A 
ENDROOT
BRANCH   1  11
ATOM     11  C   UNL     1      -2.052   0.954   9.347  1.00  0.00     0.087 A 
ATOM     12  C   UNL     1      -1.515   0.476   8.142  1.00  0.00     0.022 A 
ATOM     13  C   UNL     1      -0.889   1.349   7.248  1.00  0.00     0.051 A 
ATOM     14  C   UNL     1      -0.806   2.717   7.540  1.00  0.00     0.157 A 
ATOM     15  C   UNL     1      -1.984   2.331   9.626  1.00  0.00     0.068 A 
ATOM     16  C   UNL     1      -1.360   3.210   8.732  1.00  0.00     0.158 A 
BRANCH  14  17
ATOM     17  O   UNL     1      -0.180   3.585   6.648  1.00  0.00    -0.504 OA
ATOM     18  H   UNL     1      -0.695   4.311   6.163  1.00  0.00     0.293 HD
ENDBRANCH  14  17
BRANCH  16  19
ATOM     19  O   UNL     1      -1.306   4.568   9.044  1.00  0.00    -0.504 OA
ATOM     20  H   UNL     1      -2.035   5.027   9.576  1.00  0.00     0.293 HD
ENDBRANCH  16  19
ENDBRANCH   1  11
BRANCH  10  21
ATOM     21  O   UNL     1      -0.717  -0.310  11.607  1.00  0.00    -0.500 OA
ATOM     22  H   UNL     1      -0.244  -0.672  12.428  1.00  0.00     0.294 HD
ENDBRANCH  10  21
BRANCH   5  23
ATOM     23  O   UNL     1      -8.128  -2.503  10.895  1.00  0.00    -0.507 OA
ATOM     24  H   UNL     1      -8.470  -2.330   9.957  1.00  0.00     0.293 HD
ENDBRANCH   5  23
BRANCH   7  25
ATOM     25  O   UNL     1      -4.414  -3.241  13.874  1.00  0.00    -0.507 OA
ATOM     26  H   UNL     1      -3.459  -3.181  14.195  1.00  0.00     0.293 HD
ENDBRANCH   7  25
TORSDOF 6
ENDMDL
MODEL 2
REMARK VINA RESULT:    -8.520      1.831      2.945
REMARK INTER + INTRA:         -10.616
REMARK INTER:                 -10.280
REMARK INTRA:                  -0.336
REMARK UNBOUND:                -0.353
REMARK SMILES Oc1cc(O)c2cc(O)c(-c3ccc(O)c(O)c3)[o+]c2c1.[Cl-]
REMARK SMILES IDX 10 1 19 2 20 3 21 4 2 5 3 6 4 7 6 8 7 9 8 10 11 11 12 12
REMARK SMILES IDX 13 13 14 14 18 15 16 16 15 17 17 19 9 21 1 23 5 25
REMARK H PARENT 15 18 17 20 9 22 1 24 5 26
REMARK Flexibility Score: inf
ROOT
ATOM      1  C   UNL     1      -3.506   0.309  10.076  1.00  0.00     0.402 A 
ATOM      2  O   UNL     1      -2.846  -0.837  10.228  1.00  0.00    -0.202 OA
ATOM      3  C   UNL     1      -3.241  -1.802  11.053  1.00  0.00     0.368 A 
ATOM      4  C   UNL     1      -2.482  -2.972  11.142  1.00  0.00     0.162 A 
ATOM      5  C   UNL     1      -2.873  -4.002  11.998  1.00  0.00     0.128 A 
ATOM      6  C   UNL     1      -4.030  -3.864  12.771  1.00  0.00     0.093 A 
ATOM      7  C   UNL     1      -4.808  -2.701  12.700  1.00  0.00     0.136 A 
ATOM      8  C   UNL     1      -4.413  -1.650  11.833  1.00  0.00     0.125 A 
ATOM      9  C   UNL     1      -5.122  -0.444  11.707  1.00  0.00     0.078 A 
ATOM     10  C   UNL     1      -4.667   0.548  10.834  1.00  0.00     0.223 A 
ENDROOT
BRANCH   1  11
ATOM     11  C   UNL     1      -2.972   1.302   9.117  1.00  0.00     0.087 A 
ATOM     12  C   UNL     1      -1.860   2.080   9.476  1.00  0.00     0.022 A 
ATOM     13  C   UNL     1      -1.327   3.010   8.580  1.00  0.00     0.051 A 
ATOM     14  C   UNL     1      -1.887   3.164   7.305  1.00  0.00     0.157 A 
ATOM     15  C   UNL     1      -3.519   1.445   7.829  1.00  0.00     0.068 A 
ATOM     16  C   UNL     1      -2.985   2.374   6.927  1.00  0.00     0.158 A 
BRANCH  14  17
ATOM     17  O   UNL     1      -1.354   4.093   6.414  1.00  0.00    -0.504 OA
ATOM     18  H   UNL     1      -0.821   3.805   5.602  1.00  0.00     0.293 HD
ENDBRANCH  14  17
BRANCH  16  19
ATOM     19  O   UNL     1      -3.556   2.493   5.660  1.00  0.00    -0.504 OA
ATOM     20  H   UNL     1      -3.020   2.790   4.854  1.00  0.00     0.293 HD
ENDBRANCH  16  19
ENDBRANCH   1  11
BRANCH  10  21
ATOM     21  O   UNL     1      -5.343   1.766  10.745  1.00  0.00    -0.500 OA
ATOM     22  H   UNL     1      -4.848   2.649  10.703  1.00  0.00     0.294 HD
ENDBRANCH  10  21
BRANCH   5  23
ATOM     23  O   UNL     1      -2.103  -5.161  12.073  1.00  0.00    -0.507 OA
ATOM     24  H   UNL     1      -1.090  -5.125  12.062  1.00  0.00     0.293 HD
ENDBRANCH   5  23
BRANCH   7  25
ATOM     25  O   UNL     1      -5.952  -2.642  13.502  1.00  0.00    -0.507 OA
ATOM     26  H   UNL     1      -6.882  -2.458  13.156  1.00  0.00     0.293 HD
ENDBRANCH   7  25
TORSDOF 6
ENDMDL
MODEL 3
REMARK VINA RESULT:    -8.423      1.870      2.730
REMARK INTER + INTRA:         -10.499
REMARK INTER:                 -10.151
REMARK INTRA:                  -0.348
REMARK UNBOUND:                -0.353
REMARK SMILES Oc1cc(O)c2cc(O)c(-c3ccc(O)c(O)c3)[o+]c2c1.[Cl-]
REMARK SMILES IDX 10 1 19 2 20 3 21 4 2 5 3 6 4 7 6 8 7 9 8 10 11 11 12 12
REMARK SMILES IDX 13 13 14 14 18 15 16 16 15 17 17 19 9 21 1 23 5 25
REMARK H PARENT 15 18 17 20 9 22 1 24 5 26
REMARK Flexibility Score: inf
ROOT
ATOM      1  C   UNL     1      -2.833  -0.021   9.565  1.00  0.00     0.402 A 
ATOM      2  O   UNL     1      -3.000   0.386  10.821  1.00  0.00    -0.202 OA
ATOM      3  C   UNL     1      -3.475  -0.397  11.785  1.00  0.00     0.368 A 
ATOM      4  C   UNL     1      -3.612   0.121  13.075  1.00  0.00     0.162 A 
ATOM      5  C   UNL     1      -4.105  -0.678  14.107  1.00  0.00     0.128 A 
ATOM      6  C   UNL     1      -4.465  -2.005  13.849  1.00  0.00     0.093 A 
ATOM      7  C   UNL     1      -4.336  -2.548  12.564  1.00  0.00     0.136 A 
ATOM      8  C   UNL     1      -3.837  -1.738  11.512  1.00  0.00     0.125 A 
ATOM      9  C   UNL     1      -3.689  -2.192  10.191  1.00  0.00     0.078 A 
ATOM     10  C   UNL     1      -3.194  -1.332   9.206  1.00  0.00     0.223 A 
ENDROOT
BRANCH   1  11
ATOM     11  C   UNL     1      -2.285   0.943   8.584  1.00  0.00     0.087 A 
ATOM     12  C   UNL     1      -3.163   1.759   7.854  1.00  0.00     0.022 A 
ATOM     13  C   UNL     1      -2.667   2.689   6.936  1.00  0.00     0.051 A 
ATOM     14  C   UNL     1      -1.286   2.829   6.747  1.00  0.00     0.157 A 
ATOM     15  C   UNL     1      -0.898   1.100   8.407  1.00  0.00     0.068 A 
ATOM     16  C   UNL     1      -0.399   2.033   7.490  1.00  0.00     0.158 A 
BRANCH  14  17
ATOM     17  O   UNL     1      -0.795   3.756   5.831  1.00  0.00    -0.504 OA
ATOM     18  H   UNL     1      -1.160   4.700   5.783  1.00  0.00     0.293 HD
ENDBRANCH  14  17
BRANCH  16  19
ATOM     19  O   UNL     1       0.982   2.158   7.336  1.00  0.00    -0.504 OA
ATOM     20  H   UNL     1       1.434   2.062   6.435  1.00  0.00     0.293 HD
ENDBRANCH  16  19
ENDBRANCH   1  11
BRANCH  10  21
ATOM     21  O   UNL     1      -3.093  -1.768   7.884  1.00  0.00    -0.500 OA
ATOM     22  H   UNL     1      -2.244  -1.642   7.345  1.00  0.00     0.294 HD
ENDBRANCH  10  21
BRANCH   5  23
ATOM     23  O   UNL     1      -4.234  -0.143  15.387  1.00  0.00    -0.507 OA
ATOM     24  H   UNL     1      -4.053   0.837  15.572  1.00  0.00     0.293 HD
ENDBRANCH   5  23
BRANCH   7  25
ATOM     25  O   UNL     1      -4.714  -3.883  12.389  1.00  0.00    -0.507 OA
ATOM     26  H   UNL     1      -4.089  -4.670  12.489  1.00  0.00     0.293 HD
ENDBRANCH   7  25
TORSDOF 6
ENDMDL
MODEL 4
REMARK VINA RESULT:    -8.394      1.964      2.579
REMARK INTER + INTRA:         -10.465
REMARK INTER:                 -10.268
REMARK INTRA:                  -0.197
REMARK UNBOUND:                -0.353
REMARK SMILES Oc1cc(O)c2cc(O)c(-c3ccc(O)c(O)c3)[o+]c2c1.[Cl-]
REMARK SMILES IDX 10 1 19 2 20 3 21 4 2 5 3 6 4 7 6 8 7 9 8 10 11 11 12 12
REMARK SMILES IDX 13 13 14 14 18 15 16 16 15 17 17 19 9 21 1 23 5 25
REMARK H PARENT 15 18 17 20 9 22 1 24 5 26
REMARK Flexibility Score: inf
ROOT
ATOM      1  C   UNL     1      -2.864   1.127  10.536  1.00  0.00     0.402 A 
ATOM      2  O   UNL     1      -3.166  -0.168  10.582  1.00  0.00    -0.202 OA
ATOM      3  C   UNL     1      -3.577  -0.783  11.687  1.00  0.00     0.368 A 
ATOM      4  C   UNL     1      -3.873  -2.147  11.635  1.00  0.00     0.162 A 
ATOM      5  C   UNL     1      -4.309  -2.818  12.778  1.00  0.00     0.128 A 
ATOM      6  C   UNL     1      -4.451  -2.121  13.983  1.00  0.00     0.093 A 
ATOM      7  C   UNL     1      -4.161  -0.753  14.061  1.00  0.00     0.136 A 
ATOM      8  C   UNL     1      -3.715  -0.068  12.901  1.00  0.00     0.125 A 
ATOM      9  C   UNL     1      -3.388   1.298  12.889  1.00  0.00     0.078 A 
ATOM     10  C   UNL     1      -2.950   1.903  11.707  1.00  0.00     0.223 A 
ENDROOT
BRANCH   1  11
ATOM     11  C   UNL     1      -2.428   1.699   9.242  1.00  0.00     0.087 A 
ATOM     12  C   UNL     1      -1.106   2.147   9.096  1.00  0.00     0.022 A 
ATOM     13  C   UNL     1      -0.666   2.673   7.879  1.00  0.00     0.051 A 
ATOM     14  C   UNL     1      -1.537   2.742   6.784  1.00  0.00     0.157 A 
ATOM     15  C   UNL     1      -3.293   1.751   8.135  1.00  0.00     0.068 A 
ATOM     16  C   UNL     1      -2.855   2.274   6.912  1.00  0.00     0.158 A 
BRANCH  14  17
ATOM     17  O   UNL     1      -1.097   3.268   5.571  1.00  0.00    -0.504 OA
ATOM     18  H   UNL     1      -0.476   4.068   5.532  1.00  0.00     0.293 HD
ENDBRANCH  14  17
BRANCH  16  19
ATOM     19  O   UNL     1      -3.742   2.316   5.837  1.00  0.00    -0.504 OA
ATOM     20  H   UNL     1      -4.216   1.488   5.497  1.00  0.00     0.293 HD
ENDBRANCH  16  19
ENDBRANCH   1  11
BRANCH  10  21
ATOM     21  O   UNL     1      -2.578   3.247  11.706  1.00  0.00    -0.500 OA
ATOM     22  H   UNL     1      -1.865   3.604  12.332  1.00  0.00     0.294 HD
ENDBRANCH  10  21
BRANCH   5  23
ATOM     23  O   UNL     1      -4.599  -4.179  12.706  1.00  0.00    -0.507 OA
ATOM     24  H   UNL     1      -5.191  -4.556  11.975  1.00  0.00     0.293 HD
ENDBRANCH   5  23
BRANCH   7  25
ATOM     25  O   UNL     1      -4.331  -0.129  15.301  1.00  0.00    -0.507 OA
ATOM     26  H   UNL     1      -5.221   0.176  15.668  1.00  0.00     0.293 HD
ENDBRANCH   7  25
TORSDOF 6
ENDMDL
MODEL 5
REMARK VINA RESULT:    -8.307      1.467      1.570
REMARK INTER + INTRA:         -10.359
REMARK INTER:                 -10.145
REMARK INTRA:                  -0.214
REMARK UNBOUND:                -0.353
REMARK SMILES Oc1cc(O)c2cc(O)c(-c3ccc(O)c(O)c3)[o+]c2c1.[Cl-]
REMARK SMILES IDX 10 1 19 2 20 3 21 4 2 5 3 6 4 7 6 8 7 9 8 10 11 11 12 12
REMARK SMILES IDX 13 13 14 14 18 15 16 16 15 17 17 19 9 21 1 23 5 25
REMARK H PARENT 15 18 17 20 9 22 1 24 5 26
REMARK Flexibility Score: inf
ROOT
ATOM      1  C   UNL     1      -2.207  -0.236   9.511  1.00  0.00     0.402 A 
ATOM      2  O   UNL     1      -3.403  -0.302  10.091  1.00  0.00    -0.202 OA
ATOM      3  C   UNL     1      -3.793  -1.326  10.844  1.00  0.00     0.368 A 
ATOM      4  C   UNL     1      -5.069  -1.303  11.413  1.00  0.00     0.162 A 
ATOM      5  C   UNL     1      -5.505  -2.363  12.210  1.00  0.00     0.128 A 
ATOM      6  C   UNL     1      -4.661  -3.454  12.439  1.00  0.00     0.093 A 
ATOM      7  C   UNL     1      -3.378  -3.501  11.880  1.00  0.00     0.136 A 
ATOM      8  C   UNL     1      -2.932  -2.427  11.068  1.00  0.00     0.125 A 
ATOM      9  C   UNL     1      -1.669  -2.394  10.455  1.00  0.00     0.078 A 
ATOM     10  C   UNL     1      -1.302  -1.302   9.663  1.00  0.00     0.223 A 
ENDROOT
BRANCH   1  11
ATOM     11  C   UNL     1      -1.885   0.963   8.705  1.00  0.00     0.087 A 
ATOM     12  C   UNL     1      -1.765   0.847   7.312  1.00  0.00     0.022 A 
ATOM     13  C   UNL     1      -1.480   1.969   6.529  1.00  0.00     0.051 A 
ATOM     14  C   UNL     1      -1.328   3.227   7.126  1.00  0.00     0.157 A 
ATOM     15  C   UNL     1      -1.752   2.231   9.299  1.00  0.00     0.068 A 
ATOM     16  C   UNL     1      -1.470   3.358   8.517  1.00  0.00     0.158 A 
BRANCH  14  17
ATOM     17  O   UNL     1      -1.043   4.344   6.343  1.00  0.00    -0.504 OA
ATOM     18  H   UNL     1      -1.457   4.470   5.427  1.00  0.00     0.293 HD
ENDBRANCH  14  17
BRANCH  16  19
ATOM     19  O   UNL     1      -1.339   4.599   9.140  1.00  0.00    -0.504 OA
ATOM     20  H   UNL     1      -1.843   4.832   9.988  1.00  0.00     0.293 HD
ENDBRANCH  16  19
ENDBRANCH   1  11
BRANCH  10  21
ATOM     21  O   UNL     1      -0.066  -1.292   9.014  1.00  0.00    -0.500 OA
ATOM     22  H   UNL     1       0.804  -1.211   9.527  1.00  0.00     0.294 HD
ENDBRANCH  10  21
BRANCH   5  23
ATOM     23  O   UNL     1      -6.781  -2.321  12.769  1.00  0.00    -0.507 OA
ATOM     24  H   UNL     1      -7.610  -2.472  12.207  1.00  0.00     0.293 HD
ENDBRANCH   5  23
BRANCH   7  25
ATOM     25  O   UNL     1      -2.595  -4.625  12.160  1.00  0.00    -0.507 OA
ATOM     26  H   UNL     1      -1.589  -4.613  12.243  1.00  0.00     0.293 HD
ENDBRANCH   7  25
TORSDOF 6
ENDMDL
MODEL 6
REMARK VINA RESULT:    -8.148      1.917      6.840
REMARK INTER + INTRA:         -10.168
REMARK INTER:                 -10.040
REMARK INTRA:                  -0.127
REMARK UNBOUND:                -0.353
REMARK SMILES Oc1cc(O)c2cc(O)c(-c3ccc(O)c(O)c3)[o+]c2c1.[Cl-]
REMARK SMILES IDX 10 1 19 2 20 3 21 4 2 5 3 6 4 7 6 8 7 9 8 10 11 11 12 12
REMARK SMILES IDX 13 13 14 14 18 15 16 16 15 17 17 19 9 21 1 23 5 25
REMARK H PARENT 15 18 17 20 9 22 1 24 5 26
REMARK Flexibility Score: inf
ROOT
ATOM      1  C   UNL     1      -2.801   0.068  10.949  1.00  0.00     0.402 A 
ATOM      2  O   UNL     1      -2.857   0.085   9.620  1.00  0.00    -0.202 OA
ATOM      3  C   UNL     1      -2.506   1.139   8.889  1.00  0.00     0.368 A 
ATOM      4  C   UNL     1      -2.597   1.060   7.496  1.00  0.00     0.162 A 
ATOM      5  C   UNL     1      -2.234   2.149   6.703  1.00  0.00     0.128 A 
ATOM      6  C   UNL     1      -1.776   3.327   7.304  1.00  0.00     0.093 A 
ATOM      7  C   UNL     1      -1.676   3.430   8.698  1.00  0.00     0.136 A 
ATOM      8  C   UNL     1      -2.047   2.326   9.508  1.00  0.00     0.125 A 
ATOM      9  C   UNL     1      -1.992   2.345  10.911  1.00  0.00     0.078 A 
ATOM     10  C   UNL     1      -2.379   1.218  11.642  1.00  0.00     0.223 A 
ENDROOT
BRANCH   1  11
ATOM     11  C   UNL     1      -3.208  -1.170  11.651  1.00  0.00     0.087 A 
ATOM     12  C   UNL     1      -4.294  -1.136  12.539  1.00  0.00     0.022 A 
ATOM     13  C   UNL     1      -4.709  -2.296  13.198  1.00  0.00     0.051 A 
ATOM     14  C   UNL     1      -4.053  -3.512  12.966  1.00  0.00     0.157 A 
ATOM     15  C   UNL     1      -2.565  -2.397  11.405  1.00  0.00     0.068 A 
ATOM     16  C   UNL     1      -2.979  -3.563  12.062  1.00  0.00     0.158 A 
BRANCH  14  17
ATOM     17  O   UNL     1      -4.467  -4.668  13.625  1.00  0.00    -0.504 OA
ATOM     18  H   UNL     1      -4.505  -4.717  14.636  1.00  0.00     0.293 HD
ENDBRANCH  14  17
BRANCH  16  19
ATOM     19  O   UNL     1      -2.315  -4.760  11.798  1.00  0.00    -0.504 OA
ATOM     20  H   UNL     1      -2.081  -5.050  10.856  1.00  0.00     0.293 HD
ENDBRANCH  16  19
ENDBRANCH   1  11
BRANCH  10  21
ATOM     21  O   UNL     1      -2.373   1.253  13.037  1.00  0.00    -0.500 OA
ATOM     22  H   UNL     1      -3.186   0.989  13.581  1.00  0.00     0.294 HD
ENDBRANCH  10  21
BRANCH   5  23
ATOM     23  O   UNL     1      -2.332   2.051   5.317  1.00  0.00    -0.507 OA
ATOM     24  H   UNL     1      -2.454   2.872   4.735  1.00  0.00     0.293 HD
ENDBRANCH   5  23
BRANCH   7  25
ATOM     25  O   UNL     1      -1.207   4.640   9.220  1.00  0.00    -0.507 OA
ATOM     26  H   UNL     1      -0.290   4.769   9.623  1.00  0.00     0.293 HD
ENDBRANCH   7  25
TORSDOF 6
ENDMDL
MODEL 7
REMARK VINA RESULT:    -8.141      1.944      7.055
REMARK INTER + INTRA:         -10.159
REMARK INTER:                 -10.049
REMARK INTRA:                  -0.110
REMARK UNBOUND:                -0.353
REMARK SMILES Oc1cc(O)c2cc(O)c(-c3ccc(O)c(O)c3)[o+]c2c1.[Cl-]
REMARK SMILES IDX 10 1 19 2 20 3 21 4 2 5 3 6 4 7 6 8 7 9 8 10 11 11 12 12
REMARK SMILES IDX 13 13 14 14 18 15 16 16 15 17 17 19 9 21 1 23 5 25
REMARK H PARENT 15 18 17 20 9 22 1 24 5 26
REMARK Flexibility Score: inf
ROOT
ATOM      1  C   UNL     1      -4.093   0.070  10.234  1.00  0.00     0.402 A 
ATOM      2  O   UNL     1      -2.830   0.421  10.010  1.00  0.00    -0.202 OA
ATOM      3  C   UNL     1      -2.434   1.062   8.915  1.00  0.00     0.368 A 
ATOM      4  C   UNL     1      -1.083   1.391   8.771  1.00  0.00     0.162 A 
ATOM      5  C   UNL     1      -0.640   2.066   7.633  1.00  0.00     0.128 A 
ATOM      6  C   UNL     1      -1.551   2.416   6.631  1.00  0.00     0.093 A 
ATOM      7  C   UNL     1      -2.910   2.098   6.752  1.00  0.00     0.136 A 
ATOM      8  C   UNL     1      -3.365   1.409   7.906  1.00  0.00     0.125 A 
ATOM      9  C   UNL     1      -4.704   1.038   8.106  1.00  0.00     0.078 A 
ATOM     10  C   UNL     1      -5.076   0.355   9.269  1.00  0.00     0.223 A 
ENDROOT
BRANCH   1  11
ATOM     11  C   UNL     1      -4.411  -0.632  11.498  1.00  0.00     0.087 A 
ATOM     12  C   UNL     1      -4.973  -1.917  11.453  1.00  0.00     0.022 A 
ATOM     13  C   UNL     1      -5.263  -2.607  12.633  1.00  0.00     0.051 A 
ATOM     14  C   UNL     1      -4.982  -2.027  13.877  1.00  0.00     0.157 A 
ATOM     15  C   UNL     1      -4.111  -0.061  12.749  1.00  0.00     0.068 A 
ATOM     16  C   UNL     1      -4.399  -0.750  13.934  1.00  0.00     0.158 A 
BRANCH  14  17
ATOM     17  O   UNL     1      -5.274  -2.715  15.052  1.00  0.00    -0.504 OA
ATOM     18  H   UNL     1      -5.093  -3.708  15.145  1.00  0.00     0.293 HD
ENDBRANCH  14  17
BRANCH  16  19
ATOM     19  O   UNL     1      -4.093  -0.152  15.156  1.00  0.00    -0.504 OA
ATOM     20  H   UNL     1      -4.760   0.424  15.655  1.00  0.00     0.293 HD
ENDBRANCH  16  19
ENDBRANCH   1  11
BRANCH  10  21
ATOM     21  O   UNL     1      -6.397  -0.058   9.444  1.00  0.00    -0.500 OA
ATOM     22  H   UNL     1      -6.726  -0.953   9.102  1.00  0.00     0.294 HD
ENDBRANCH  10  21
BRANCH   5  23
ATOM     23  O   UNL     1       0.711   2.385   7.508  1.00  0.00    -0.507 OA
ATOM     24  H   UNL     1       1.045   3.333   7.636  1.00  0.00     0.293 HD
ENDBRANCH   5  23
BRANCH   7  25
ATOM     25  O   UNL     1      -3.756   2.486   5.709  1.00  0.00    -0.507 OA
ATOM     26  H   UNL     1      -3.527   2.405   4.729  1.00  0.00     0.293 HD
ENDBRANCH   7  25
TORSDOF 6
ENDMDL
MODEL 8
REMARK VINA RESULT:    -8.140      1.199      2.742
REMARK INTER + INTRA:         -10.158
REMARK INTER:                  -9.843
REMARK INTRA:                  -0.316
REMARK UNBOUND:                -0.353
REMARK SMILES Oc1cc(O)c2cc(O)c(-c3ccc(O)c(O)c3)[o+]c2c1.[Cl-]
REMARK SMILES IDX 10 1 19 2 20 3 21 4 2 5 3 6 4 7 6 8 7 9 8 10 11 11 12 12
REMARK SMILES IDX 13 13 14 14 18 15 16 16 15 17 17 19 9 21 1 23 5 25
REMARK H PARENT 15 18 17 20 9 22 1 24 5 26
REMARK Flexibility Score: inf
ROOT
ATOM      1  C   UNL     1      -3.928   0.133   9.215  1.00  0.00     0.402 A 
ATOM      2  O   UNL     1      -3.717  -0.346  10.438  1.00  0.00    -0.202 OA
ATOM      3  C   UNL     1      -4.594  -1.110  11.083  1.00  0.00     0.368 A 
ATOM      4  C   UNL     1      -4.281  -1.569  12.365  1.00  0.00     0.162 A 
ATOM      5  C   UNL     1      -5.180  -2.374  13.065  1.00  0.00     0.128 A 
ATOM      6  C   UNL     1      -6.402  -2.725  12.480  1.00  0.00     0.093 A 
ATOM      7  C   UNL     1      -6.738  -2.278  11.196  1.00  0.00     0.136 A 
ATOM      8  C   UNL     1      -5.828  -1.457  10.482  1.00  0.00     0.125 A 
ATOM      9  C   UNL     1      -6.087  -0.952   9.197  1.00  0.00     0.078 A 
ATOM     10  C   UNL     1      -5.141  -0.144   8.559  1.00  0.00     0.223 A 
ENDROOT
BRANCH   1  11
ATOM     11  C   UNL     1      -2.870   0.964   8.597  1.00  0.00     0.087 A 
ATOM     12  C   UNL     1      -1.777   0.340   7.974  1.00  0.00     0.022 A 
ATOM     13  C   UNL     1      -0.776   1.104   7.368  1.00  0.00     0.051 A 
ATOM     14  C   UNL     1      -0.861   2.502   7.361  1.00  0.00     0.157 A 
ATOM     15  C   UNL     1      -2.961   2.368   8.570  1.00  0.00     0.068 A 
ATOM     16  C   UNL     1      -1.961   3.135   7.961  1.00  0.00     0.158 A 
BRANCH  14  17
ATOM     17  O   UNL     1       0.139   3.261   6.757  1.00  0.00    -0.504 OA
ATOM     18  H   UNL     1       0.691   3.928   7.283  1.00  0.00     0.293 HD
ENDBRANCH  14  17
BRANCH  16  19
ATOM     19  O   UNL     1      -2.082   4.525   7.958  1.00  0.00    -0.504 OA
ATOM     20  H   UNL     1      -2.970   4.988   7.806  1.00  0.00     0.293 HD
ENDBRANCH  16  19
ENDBRANCH   1  11
BRANCH  10  21
ATOM     21  O   UNL     1      -5.419   0.398   7.303  1.00  0.00    -0.500 OA
ATOM     22  H   UNL     1      -5.785  -0.168   6.547  1.00  0.00     0.294 HD
ENDBRANCH  10  21
BRANCH   5  23
ATOM     23  O   UNL     1      -4.850  -2.821  14.342  1.00  0.00    -0.507 OA
ATOM     24  H   UNL     1      -5.182  -3.712  14.694  1.00  0.00     0.293 HD
ENDBRANCH   5  23
BRANCH   7  25
ATOM     25  O   UNL     1      -7.977  -2.675  10.681  1.00  0.00    -0.507 OA
ATOM     26  H   UNL     1      -8.620  -2.059  10.206  1.00  0.00     0.293 HD
ENDBRANCH   7  25
TORSDOF 6
ENDMDL
MODEL 9
REMARK VINA RESULT:    -8.037      1.390      6.943
REMARK INTER + INTRA:         -10.035
REMARK INTER:                  -9.860
REMARK INTRA:                  -0.175
REMARK UNBOUND:                -0.353
REMARK SMILES Oc1cc(O)c2cc(O)c(-c3ccc(O)c(O)c3)[o+]c2c1.[Cl-]
REMARK SMILES IDX 10 1 19 2 20 3 21 4 2 5 3 6 4 7 6 8 7 9 8 10 11 11 12 12
REMARK SMILES IDX 13 13 14 14 18 15 16 16 15 17 17 19 9 21 1 23 5 25
REMARK H PARENT 15 18 17 20 9 22 1 24 5 26
REMARK Flexibility Score: inf
ROOT
ATOM      1  C   UNL     1      -3.108  -0.914   9.964  1.00  0.00     0.402 A 
ATOM      2  O   UNL     1      -3.243   0.399   9.799  1.00  0.00    -0.202 OA
ATOM      3  C   UNL     1      -2.423   1.128   9.047  1.00  0.00     0.368 A 
ATOM      4  C   UNL     1      -2.649   2.502   8.933  1.00  0.00     0.162 A 
ATOM      5  C   UNL     1      -1.806   3.292   8.149  1.00  0.00     0.128 A 
ATOM      6  C   UNL     1      -0.731   2.705   7.473  1.00  0.00     0.093 A 
ATOM      7  C   UNL     1      -0.485   1.329   7.572  1.00  0.00     0.136 A 
ATOM      8  C   UNL     1      -1.337   0.524   8.370  1.00  0.00     0.125 A 
ATOM      9  C   UNL     1      -1.158  -0.859   8.538  1.00  0.00     0.078 A 
ATOM     10  C   UNL     1      -2.038  -1.586   9.346  1.00  0.00     0.223 A 
ENDROOT
BRANCH   1  11
ATOM     11  C   UNL     1      -4.092  -1.617  10.818  1.00  0.00     0.087 A 
ATOM     12  C   UNL     1      -3.668  -2.203  12.021  1.00  0.00     0.022 A 
ATOM     13  C   UNL     1      -4.583  -2.855  12.852  1.00  0.00     0.051 A 
ATOM     14  C   UNL     1      -5.938  -2.917  12.501  1.00  0.00     0.157 A 
ATOM     15  C   UNL     1      -5.456  -1.663  10.479  1.00  0.00     0.068 A 
ATOM     16  C   UNL     1      -6.376  -2.313  11.311  1.00  0.00     0.158 A 
BRANCH  14  17
ATOM     17  O   UNL     1      -6.847  -3.568  13.331  1.00  0.00    -0.504 OA
ATOM     18  H   UNL     1      -6.783  -3.508  14.340  1.00  0.00     0.293 HD
ENDBRANCH  14  17
BRANCH  16  19
ATOM     19  O   UNL     1      -7.720  -2.344  10.940  1.00  0.00    -0.504 OA
ATOM     20  H   UNL     1      -8.364  -1.603  11.189  1.00  0.00     0.293 HD
ENDBRANCH  16  19
ENDBRANCH   1  11
BRANCH  10  21
ATOM     21  O   UNL     1      -1.831  -2.951   9.552  1.00  0.00    -0.500 OA
ATOM     22  H   UNL     1      -1.158  -3.292  10.229  1.00  0.00     0.294 HD
ENDBRANCH  10  21
BRANCH   5  23
ATOM     23  O   UNL     1      -2.047   4.660   8.047  1.00  0.00    -0.507 OA
ATOM     24  H   UNL     1      -2.646   5.040   7.323  1.00  0.00     0.293 HD
ENDBRANCH   5  23
BRANCH   7  25
ATOM     25  O   UNL     1       0.608   0.820   6.864  1.00  0.00    -0.507 OA
ATOM     26  H   UNL     1       1.418   0.396   7.293  1.00  0.00     0.293 HD
ENDBRANCH   7  25
TORSDOF 6
ENDMDL
