MODEL 1
REMARK VINA RESULT:    -7.037      0.000      0.000
REMARK INTER + INTRA:          -7.973
REMARK INTER:                  -7.655
REMARK INTRA:                  -0.318
REMARK UNBOUND:                -0.318
REMARK SMILES C=C(C)[C@@H]1CC[C@@]2(C)CC[C@]3(C)[C@@H](CC[C@@H]4[C@]5(C)CC[C@H](O)C(C)(C)[C@@H]5CC[C@]43C)[C@H]12
REMARK SMILES IDX 4 1 5 2 6 3 7 4 31 5 13 6 14 7 15 8 16 9 17 10 19 11 20 12
REMARK SMILES IDX 21 13 23 14 26 15 27 16 28 17 29 18 11 19 10 20 9 21 12 22
REMARK SMILES IDX 30 23 24 24 25 25 18 26 8 27 2 28 3 29 1 30 22 31
REMARK H PARENT 22 32
REMARK Flexibility Score: inf
ROOT
ATOM      1  C   UNL     1     146.095 136.453 149.234  1.00  0.00     0.018 C 
ATOM      2  C   UNL     1     144.884 136.456 150.198  1.00  0.00     0.009 C 
ATOM      3  C   UNL     1     143.734 137.185 149.465  1.00  0.00     0.008 C 
ATOM      4  C   UNL     1     144.018 136.988 147.961  1.00  0.00    -0.029 C 
ATOM      5  C   UNL     1     145.558 137.157 147.953  1.00  0.00     0.006 C 
ATOM      6  C   UNL     1     146.204 137.004 146.541  1.00  0.00    -0.000 C 
ATOM      7  C   UNL     1     147.757 136.991 146.583  1.00  0.00     0.005 C 
ATOM      8  C   UNL     1     148.458 138.151 145.917  1.00  0.00     0.005 C 
ATOM      9  C   UNL     1     147.923 138.383 144.485  1.00  0.00     0.002 C 
ATOM     10  C   UNL     1     148.979 139.125 143.510  1.00  0.00    -0.026 C 
ATOM     11  C   UNL     1     149.806 140.250 144.256  1.00  0.00     0.010 C 
ATOM     12  C   UNL     1     149.964 141.678 143.664  1.00  0.00     0.033 C 
ATOM     13  C   UNL     1     149.426 141.997 142.251  1.00  0.00     0.120 C 
ATOM     14  C   UNL     1     149.170 140.746 141.369  1.00  0.00    -0.006 C 
ATOM     15  C   UNL     1     148.321 139.651 142.154  1.00  0.00     0.003 C 
ATOM     16  C   UNL     1     146.829 140.081 142.291  1.00  0.00     0.005 C 
ATOM     17  C   UNL     1     145.982 139.133 143.128  1.00  0.00     0.008 C 
ATOM     18  C   UNL     1     146.477 138.962 144.592  1.00  0.00    -0.024 C 
ATOM     19  C   UNL     1     145.482 137.951 145.437  1.00  0.00    -0.024 C 
ATOM     20  C   UNL     1     144.331 138.808 146.113  1.00  0.00     0.008 C 
ATOM     21  C   UNL     1     143.350 138.066 147.049  1.00  0.00     0.007 C 
ATOM     22  C   UNL     1     144.743 136.964 144.469  1.00  0.00     0.012 C 
ATOM     23  C   UNL     1     146.530 140.400 145.227  1.00  0.00     0.012 C 
ATOM     24  C   UNL     1     148.438 141.191 140.065  1.00  0.00     0.014 C 
ATOM     25  C   UNL     1     150.546 140.196 140.895  1.00  0.00     0.014 C 
ATOM     26  C   UNL     1     150.002 137.990 143.125  1.00  0.00     0.012 C 
ATOM     27  C   UNL     1     143.490 135.568 147.553  1.00  0.00     0.011 C 
ENDROOT
BRANCH   1  28
ATOM     28  C   UNL     1     146.792 135.089 149.080  1.00  0.00    -0.077 C 
ATOM     29  C   UNL     1     148.159 134.879 149.684  1.00  0.00     0.039 C 
ATOM     30  C   UNL     1     146.200 134.010 148.536  1.00  0.00     0.008 C 
ENDBRANCH   1  28
BRANCH  13  31
ATOM     31  O   UNL     1     148.269 142.796 142.357  1.00  0.00    -0.393 OA
ATOM     32  H   UNL     1     147.984 142.772 143.309  1.00  0.00     0.210 HD
ENDBRANCH  13  31
TORSDOF 2
ENDMDL
MODEL 2
REMARK VINA RESULT:    -6.649      2.557      7.551
REMARK INTER + INTRA:          -7.551
REMARK INTER:                  -7.195
REMARK INTRA:                  -0.355
REMARK UNBOUND:                -0.318
REMARK SMILES C=C(C)[C@@H]1CC[C@@]2(C)CC[C@]3(C)[C@@H](CC[C@@H]4[C@]5(C)CC[C@H](O)C(C)(C)[C@@H]5CC[C@]43C)[C@H]12
REMARK SMILES IDX 4 1 5 2 6 3 7 4 31 5 13 6 14 7 15 8 16 9 17 10 19 11 20 12
REMARK SMILES IDX 21 13 23 14 26 15 27 16 28 17 29 18 11 19 10 20 9 21 12 22
REMARK SMILES IDX 30 23 24 24 25 25 18 26 8 27 2 28 3 29 1 30 22 31
REMARK H PARENT 22 32
REMARK Flexibility Score: inf
ROOT
ATOM      1  C   UNL     1     149.961 140.797 141.923  1.00  0.00     0.018 C 
ATOM      2  C   UNL     1     151.185 141.648 142.343  1.00  0.00     0.009 C 
ATOM      3  C   UNL     1     151.256 141.594 143.887  1.00  0.00     0.008 C 
ATOM      4  C   UNL     1     150.577 140.265 144.281  1.00  0.00    -0.029 C 
ATOM      5  C   UNL     1     149.403 140.252 143.271  1.00  0.00     0.006 C 
ATOM      6  C   UNL     1     148.483 138.996 143.386  1.00  0.00    -0.000 C 
ATOM      7  C   UNL     1     147.429 138.911 142.250  1.00  0.00     0.005 C 
ATOM      8  C   UNL     1     145.982 139.040 142.662  1.00  0.00     0.005 C 
ATOM      9  C   UNL     1     145.645 138.087 143.833  1.00  0.00     0.002 C 
ATOM     10  C   UNL     1     144.079 137.692 143.917  1.00  0.00    -0.026 C 
ATOM     11  C   UNL     1     143.127 138.908 143.564  1.00  0.00     0.010 C 
ATOM     12  C   UNL     1     141.927 139.297 144.471  1.00  0.00     0.033 C 
ATOM     13  C   UNL     1     141.548 138.412 145.680  1.00  0.00     0.120 C 
ATOM     14  C   UNL     1     142.123 136.972 145.622  1.00  0.00    -0.006 C 
ATOM     15  C   UNL     1     143.681 136.987 145.294  1.00  0.00     0.003 C 
ATOM     16  C   UNL     1     144.515 137.464 146.521  1.00  0.00     0.005 C 
ATOM     17  C   UNL     1     146.005 137.609 146.243  1.00  0.00     0.008 C 
ATOM     18  C   UNL     1     146.346 138.627 145.119  1.00  0.00    -0.024 C 
ATOM     19  C   UNL     1     147.979 138.751 144.911  1.00  0.00    -0.024 C 
ATOM     20  C   UNL     1     148.535 139.888 145.866  1.00  0.00     0.008 C 
ATOM     21  C   UNL     1     150.034 140.247 145.745  1.00  0.00     0.007 C 
ATOM     22  C   UNL     1     148.699 137.438 145.375  1.00  0.00     0.012 C 
ATOM     23  C   UNL     1     145.701 140.000 145.534  1.00  0.00     0.012 C 
ATOM     24  C   UNL     1     141.847 136.264 146.985  1.00  0.00     0.014 C 
ATOM     25  C   UNL     1     141.307 136.165 144.572  1.00  0.00     0.014 C 
ATOM     26  C   UNL     1     143.894 136.625 142.774  1.00  0.00     0.012 C 
ATOM     27  C   UNL     1     151.632 139.116 144.109  1.00  0.00     0.011 C 
ENDROOT
BRANCH   1  28
ATOM     28  C   UNL     1     150.232 139.796 140.786  1.00  0.00    -0.077 C 
ATOM     29  C   UNL     1     149.468 139.917 139.490  1.00  0.00     0.039 C 
ATOM     30  C   UNL     1     151.212 138.875 140.825  1.00  0.00     0.008 C 
ENDBRANCH   1  28
BRANCH  13  31
ATOM     31  O   UNL     1     141.915 139.065 146.875  1.00  0.00    -0.393 OA
ATOM     32  H   UNL     1     141.107 139.088 147.454  1.00  0.00     0.210 HD
ENDBRANCH  13  31
TORSDOF 2
ENDMDL
MODEL 3
REMARK VINA RESULT:    -6.604      2.218      4.692
REMARK INTER + INTRA:          -7.501
REMARK INTER:                  -7.152
REMARK INTRA:                  -0.349
REMARK UNBOUND:                -0.318
REMARK SMILES C=C(C)[C@@H]1CC[C@@]2(C)CC[C@]3(C)[C@@H](CC[C@@H]4[C@]5(C)CC[C@H](O)C(C)(C)[C@@H]5CC[C@]43C)[C@H]12
REMARK SMILES IDX 4 1 5 2 6 3 7 4 31 5 13 6 14 7 15 8 16 9 17 10 19 11 20 12
REMARK SMILES IDX 21 13 23 14 26 15 27 16 28 17 29 18 11 19 10 20 9 21 12 22
REMARK SMILES IDX 30 23 24 24 25 25 18 26 8 27 2 28 3 29 1 30 22 31
REMARK H PARENT 22 32
REMARK Flexibility Score: inf
ROOT
ATOM      1  C   UNL     1     142.409 134.338 146.903  1.00  0.00     0.018 C 
ATOM      2  C   UNL     1     141.984 133.071 147.682  1.00  0.00     0.009 C 
ATOM      3  C   UNL     1     143.036 132.859 148.796  1.00  0.00     0.008 C 
ATOM      4  C   UNL     1     143.609 134.263 149.088  1.00  0.00    -0.029 C 
ATOM      5  C   UNL     1     143.687 134.827 147.647  1.00  0.00     0.006 C 
ATOM      6  C   UNL     1     144.234 136.286 147.569  1.00  0.00    -0.000 C 
ATOM      7  C   UNL     1     144.130 136.897 146.145  1.00  0.00     0.005 C 
ATOM      8  C   UNL     1     145.433 137.203 145.446  1.00  0.00     0.005 C 
ATOM      9  C   UNL     1     146.379 138.022 146.355  1.00  0.00     0.002 C 
ATOM     10  C   UNL     1     147.459 138.906 145.538  1.00  0.00    -0.026 C 
ATOM     11  C   UNL     1     148.016 138.153 144.262  1.00  0.00     0.010 C 
ATOM     12  C   UNL     1     149.540 138.059 143.967  1.00  0.00     0.033 C 
ATOM     13  C   UNL     1     150.550 138.823 144.852  1.00  0.00     0.120 C 
ATOM     14  C   UNL     1     149.926 139.974 145.685  1.00  0.00    -0.006 C 
ATOM     15  C   UNL     1     148.627 139.483 146.463  1.00  0.00     0.003 C 
ATOM     16  C   UNL     1     148.998 138.570 147.670  1.00  0.00     0.005 C 
ATOM     17  C   UNL     1     147.799 137.974 148.393  1.00  0.00     0.008 C 
ATOM     18  C   UNL     1     146.892 137.086 147.495  1.00  0.00    -0.024 C 
ATOM     19  C   UNL     1     145.641 136.450 148.364  1.00  0.00    -0.024 C 
ATOM     20  C   UNL     1     146.094 135.060 148.977  1.00  0.00     0.008 C 
ATOM     21  C   UNL     1     145.029 134.238 149.739  1.00  0.00     0.007 C 
ATOM     22  C   UNL     1     145.310 137.354 149.601  1.00  0.00     0.012 C 
ATOM     23  C   UNL     1     147.811 135.966 146.883  1.00  0.00     0.012 C 
ATOM     24  C   UNL     1     151.000 140.516 146.679  1.00  0.00     0.014 C 
ATOM     25  C   UNL     1     149.626 141.161 144.725  1.00  0.00     0.014 C 
ATOM     26  C   UNL     1     146.626 140.134 145.013  1.00  0.00     0.012 C 
ATOM     27  C   UNL     1     142.614 134.998 150.053  1.00  0.00     0.011 C 
ENDROOT
BRANCH   1  28
ATOM     28  C   UNL     1     141.277 135.351 146.653  1.00  0.00    -0.077 C 
ATOM     29  C   UNL     1     140.923 135.737 145.238  1.00  0.00     0.039 C 
ATOM     30  C   UNL     1     140.484 135.834 147.627  1.00  0.00     0.008 C 
ENDBRANCH   1  28
BRANCH  13  31
ATOM     31  O   UNL     1     151.241 137.909 145.674  1.00  0.00    -0.393 OA
ATOM     32  H   UNL     1     151.975 138.414 146.117  1.00  0.00     0.210 HD
ENDBRANCH  13  31
TORSDOF 2
ENDMDL
MODEL 4
REMARK VINA RESULT:    -6.551      3.615      6.855
REMARK INTER + INTRA:          -7.443
REMARK INTER:                  -7.088
REMARK INTRA:                  -0.355
REMARK UNBOUND:                -0.318
REMARK SMILES C=C(C)[C@@H]1CC[C@@]2(C)CC[C@]3(C)[C@@H](CC[C@@H]4[C@]5(C)CC[C@H](O)C(C)(C)[C@@H]5CC[C@]43C)[C@H]12
REMARK SMILES IDX 4 1 5 2 6 3 7 4 31 5 13 6 14 7 15 8 16 9 17 10 19 11 20 12
REMARK SMILES IDX 21 13 23 14 26 15 27 16 28 17 29 18 11 19 10 20 9 21 12 22
REMARK SMILES IDX 30 23 24 24 25 25 18 26 8 27 2 28 3 29 1 30 22 31
REMARK H PARENT 22 32
REMARK Flexibility Score: inf
ROOT
ATOM      1  C   UNL     1     147.871 138.786 146.713  1.00  0.00     0.018 C 
ATOM      2  C   UNL     1     148.710 138.730 148.013  1.00  0.00     0.009 C 
ATOM      3  C   UNL     1     147.822 138.061 149.088  1.00  0.00     0.008 C 
ATOM      4  C   UNL     1     146.836 137.168 148.304  1.00  0.00    -0.029 C 
ATOM      5  C   UNL     1     146.531 138.095 147.101  1.00  0.00     0.006 C 
ATOM      6  C   UNL     1     145.538 137.480 146.066  1.00  0.00    -0.000 C 
ATOM      7  C   UNL     1     145.391 138.341 144.782  1.00  0.00     0.005 C 
ATOM      8  C   UNL     1     144.036 138.961 144.539  1.00  0.00     0.005 C 
ATOM      9  C   UNL     1     142.907 137.910 144.659  1.00  0.00     0.002 C 
ATOM     10  C   UNL     1     141.572 138.295 143.832  1.00  0.00    -0.026 C 
ATOM     11  C   UNL     1     141.244 139.843 143.895  1.00  0.00     0.010 C 
ATOM     12  C   UNL     1     139.824 140.365 144.251  1.00  0.00     0.033 C 
ATOM     13  C   UNL     1     138.652 139.373 144.421  1.00  0.00     0.120 C 
ATOM     14  C   UNL     1     138.898 137.980 143.783  1.00  0.00    -0.006 C 
ATOM     15  C   UNL     1     140.312 137.390 144.215  1.00  0.00     0.003 C 
ATOM     16  C   UNL     1     140.298 136.908 145.697  1.00  0.00     0.005 C 
ATOM     17  C   UNL     1     141.650 136.435 146.212  1.00  0.00     0.008 C 
ATOM     18  C   UNL     1     142.763 137.518 146.163  1.00  0.00    -0.024 C 
ATOM     19  C   UNL     1     144.182 136.934 146.774  1.00  0.00    -0.024 C 
ATOM     20  C   UNL     1     144.224 137.213 148.335  1.00  0.00     0.008 C 
ATOM     21  C   UNL     1     145.523 136.845 149.087  1.00  0.00     0.007 C 
ATOM     22  C   UNL     1     144.245 135.374 146.635  1.00  0.00     0.012 C 
ATOM     23  C   UNL     1     142.236 138.753 146.982  1.00  0.00     0.012 C 
ATOM     24  C   UNL     1     137.741 137.021 144.204  1.00  0.00     0.014 C 
ATOM     25  C   UNL     1     138.766 138.122 142.239  1.00  0.00     0.014 C 
ATOM     26  C   UNL     1     141.944 137.971 142.337  1.00  0.00     0.012 C 
ATOM     27  C   UNL     1     147.572 135.826 147.958  1.00  0.00     0.011 C 
ENDROOT
BRANCH   1  28
ATOM     28  C   UNL     1     148.606 138.299 145.451  1.00  0.00    -0.077 C 
ATOM     29  C   UNL     1     148.829 139.255 144.305  1.00  0.00     0.039 C 
ATOM     30  C   UNL     1     149.181 137.087 145.347  1.00  0.00     0.008 C 
ENDBRANCH   1  28
BRANCH  13  31
ATOM     31  O   UNL     1     138.322 139.262 145.787  1.00  0.00    -0.393 OA
ATOM     32  H   UNL     1     138.033 140.163 146.091  1.00  0.00     0.210 HD
ENDBRANCH  13  31
TORSDOF 2
ENDMDL
MODEL 5
REMARK VINA RESULT:    -6.540      3.633      8.647
REMARK INTER + INTRA:          -7.432
REMARK INTER:                  -7.079
REMARK INTRA:                  -0.353
REMARK UNBOUND:                -0.318
REMARK SMILES C=C(C)[C@@H]1CC[C@@]2(C)CC[C@]3(C)[C@@H](CC[C@@H]4[C@]5(C)CC[C@H](O)C(C)(C)[C@@H]5CC[C@]43C)[C@H]12
REMARK SMILES IDX 4 1 5 2 6 3 7 4 31 5 13 6 14 7 15 8 16 9 17 10 19 11 20 12
REMARK SMILES IDX 21 13 23 14 26 15 27 16 28 17 29 18 11 19 10 20 9 21 12 22
REMARK SMILES IDX 30 23 24 24 25 25 18 26 8 27 2 28 3 29 1 30 22 31
REMARK H PARENT 22 32
REMARK Flexibility Score: inf
ROOT
ATOM      1  C   UNL     1     148.627 140.733 136.988  1.00  0.00     0.018 C 
ATOM      2  C   UNL     1     147.511 140.929 135.934  1.00  0.00     0.009 C 
ATOM      3  C   UNL     1     146.203 141.200 136.715  1.00  0.00     0.008 C 
ATOM      4  C   UNL     1     146.651 141.814 138.059  1.00  0.00    -0.029 C 
ATOM      5  C   UNL     1     147.901 140.946 138.349  1.00  0.00     0.006 C 
ATOM      6  C   UNL     1     148.633 141.316 139.676  1.00  0.00    -0.000 C 
ATOM      7  C   UNL     1     149.980 140.565 139.855  1.00  0.00     0.005 C 
ATOM      8  C   UNL     1     150.058 139.584 141.000  1.00  0.00     0.005 C 
ATOM      9  C   UNL     1     149.578 140.226 142.323  1.00  0.00     0.002 C 
ATOM     10  C   UNL     1     150.192 139.526 143.645  1.00  0.00    -0.026 C 
ATOM     11  C   UNL     1     150.299 137.953 143.502  1.00  0.00     0.010 C 
ATOM     12  C   UNL     1     149.769 136.993 144.604  1.00  0.00     0.033 C 
ATOM     13  C   UNL     1     149.241 137.562 145.941  1.00  0.00     0.120 C 
ATOM     14  C   UNL     1     149.701 139.013 146.242  1.00  0.00    -0.006 C 
ATOM     15  C   UNL     1     149.454 139.966 144.991  1.00  0.00     0.003 C 
ATOM     16  C   UNL     1     147.940 140.291 144.814  1.00  0.00     0.005 C 
ATOM     17  C   UNL     1     147.619 141.108 143.570  1.00  0.00     0.008 C 
ATOM     18  C   UNL     1     148.032 140.424 142.236  1.00  0.00    -0.024 C 
ATOM     19  C   UNL     1     147.614 141.358 140.940  1.00  0.00    -0.024 C 
ATOM     20  C   UNL     1     146.146 140.972 140.479  1.00  0.00     0.008 C 
ATOM     21  C   UNL     1     145.600 141.652 139.203  1.00  0.00     0.007 C 
ATOM     22  C   UNL     1     147.529 142.869 141.350  1.00  0.00     0.012 C 
ATOM     23  C   UNL     1     147.322 139.021 142.203  1.00  0.00     0.012 C 
ATOM     24  C   UNL     1     148.936 139.533 147.499  1.00  0.00     0.014 C 
ATOM     25  C   UNL     1     151.197 138.972 146.666  1.00  0.00     0.014 C 
ATOM     26  C   UNL     1     151.666 140.076 143.717  1.00  0.00     0.012 C 
ATOM     27  C   UNL     1     146.925 143.341 137.823  1.00  0.00     0.011 C 
ENDROOT
BRANCH   1  28
ATOM     28  C   UNL     1     149.917 141.528 136.715  1.00  0.00    -0.077 C 
ATOM     29  C   UNL     1     151.201 140.788 136.432  1.00  0.00     0.039 C 
ATOM     30  C   UNL     1     149.952 142.867 136.591  1.00  0.00     0.008 C 
ENDBRANCH   1  28
BRANCH  13  31
ATOM     31  O   UNL     1     147.837 137.448 145.979  1.00  0.00    -0.393 OA
ATOM     32  H   UNL     1     147.501 138.181 146.561  1.00  0.00     0.210 HD
ENDBRANCH  13  31
TORSDOF 2
ENDMDL
MODEL 6
REMARK VINA RESULT:    -6.492      3.373      7.795
REMARK INTER + INTRA:          -7.379
REMARK INTER:                  -7.103
REMARK INTRA:                  -0.276
REMARK UNBOUND:                -0.318
REMARK SMILES C=C(C)[C@@H]1CC[C@@]2(C)CC[C@]3(C)[C@@H](CC[C@@H]4[C@]5(C)CC[C@H](O)C(C)(C)[C@@H]5CC[C@]43C)[C@H]12
REMARK SMILES IDX 4 1 5 2 6 3 7 4 31 5 13 6 14 7 15 8 16 9 17 10 19 11 20 12
REMARK SMILES IDX 21 13 23 14 26 15 27 16 28 17 29 18 11 19 10 20 9 21 12 22
REMARK SMILES IDX 30 23 24 24 25 25 18 26 8 27 2 28 3 29 1 30 22 31
REMARK H PARENT 22 32
REMARK Flexibility Score: inf
ROOT
ATOM      1  C   UNL     1     151.558 138.747 148.603  1.00  0.00     0.018 C 
ATOM      2  C   UNL     1     152.829 138.877 147.729  1.00  0.00     0.009 C 
ATOM      3  C   UNL     1     152.419 138.499 146.287  1.00  0.00     0.008 C 
ATOM      4  C   UNL     1     150.911 138.817 146.195  1.00  0.00    -0.029 C 
ATOM      5  C   UNL     1     150.448 138.333 147.592  1.00  0.00     0.006 C 
ATOM      6  C   UNL     1     148.921 138.522 147.852  1.00  0.00    -0.000 C 
ATOM      7  C   UNL     1     148.512 138.207 149.317  1.00  0.00     0.005 C 
ATOM      8  C   UNL     1     147.604 137.018 149.521  1.00  0.00     0.005 C 
ATOM      9  C   UNL     1     146.377 137.080 148.582  1.00  0.00     0.002 C 
ATOM     10  C   UNL     1     145.095 136.262 149.134  1.00  0.00    -0.026 C 
ATOM     11  C   UNL     1     145.502 134.906 149.843  1.00  0.00     0.010 C 
ATOM     12  C   UNL     1     144.805 133.561 149.496  1.00  0.00     0.033 C 
ATOM     13  C   UNL     1     143.592 133.538 148.539  1.00  0.00     0.120 C 
ATOM     14  C   UNL     1     142.898 134.914 148.357  1.00  0.00    -0.006 C 
ATOM     15  C   UNL     1     143.959 136.055 148.031  1.00  0.00     0.003 C 
ATOM     16  C   UNL     1     144.496 135.932 146.573  1.00  0.00     0.005 C 
ATOM     17  C   UNL     1     145.598 136.925 146.229  1.00  0.00     0.008 C 
ATOM     18  C   UNL     1     146.863 136.806 147.124  1.00  0.00    -0.024 C 
ATOM     19  C   UNL     1     148.019 137.890 146.659  1.00  0.00    -0.024 C 
ATOM     20  C   UNL     1     148.946 137.215 145.564  1.00  0.00     0.008 C 
ATOM     21  C   UNL     1     150.169 138.023 145.072  1.00  0.00     0.007 C 
ATOM     22  C   UNL     1     147.367 139.121 145.940  1.00  0.00     0.012 C 
ATOM     23  C   UNL     1     147.369 135.322 147.007  1.00  0.00     0.012 C 
ATOM     24  C   UNL     1     141.837 134.796 147.218  1.00  0.00     0.014 C 
ATOM     25  C   UNL     1     142.079 135.220 149.644  1.00  0.00     0.014 C 
ATOM     26  C   UNL     1     144.499 137.197 150.251  1.00  0.00     0.012 C 
ATOM     27  C   UNL     1     150.759 140.355 145.924  1.00  0.00     0.011 C 
ENDROOT
BRANCH   1  28
ATOM     28  C   UNL     1     151.290 139.945 149.532  1.00  0.00    -0.077 C 
ATOM     29  C   UNL     1     151.593 139.826 151.006  1.00  0.00     0.039 C 
ATOM     30  C   UNL     1     150.909 141.157 149.090  1.00  0.00     0.008 C 
ENDBRANCH   1  28
BRANCH  13  31
ATOM     31  O   UNL     1     143.980 132.989 147.300  1.00  0.00    -0.393 OA
ATOM     32  H   UNL     1     144.303 132.066 147.478  1.00  0.00     0.210 HD
ENDBRANCH  13  31
TORSDOF 2
ENDMDL
MODEL 7
REMARK VINA RESULT:    -6.423      1.620      3.840
REMARK INTER + INTRA:          -7.305
REMARK INTER:                  -6.952
REMARK INTRA:                  -0.352
REMARK UNBOUND:                -0.318
REMARK SMILES C=C(C)[C@@H]1CC[C@@]2(C)CC[C@]3(C)[C@@H](CC[C@@H]4[C@]5(C)CC[C@H](O)C(C)(C)[C@@H]5CC[C@]43C)[C@H]12
REMARK SMILES IDX 4 1 5 2 6 3 7 4 31 5 13 6 14 7 15 8 16 9 17 10 19 11 20 12
REMARK SMILES IDX 21 13 23 14 26 15 27 16 28 17 29 18 11 19 10 20 9 21 12 22
REMARK SMILES IDX 30 23 24 24 25 25 18 26 8 27 2 28 3 29 1 30 22 31
REMARK H PARENT 22 32
REMARK Flexibility Score: inf
ROOT
ATOM      1  C   UNL     1     144.861 136.347 146.517  1.00  0.00     0.018 C 
ATOM      2  C   UNL     1     144.877 135.187 147.542  1.00  0.00     0.009 C 
ATOM      3  C   UNL     1     146.325 135.082 148.074  1.00  0.00     0.008 C 
ATOM      4  C   UNL     1     146.922 136.497 147.915  1.00  0.00    -0.029 C 
ATOM      5  C   UNL     1     146.320 136.890 146.542  1.00  0.00     0.006 C 
ATOM      6  C   UNL     1     146.725 138.318 146.060  1.00  0.00    -0.000 C 
ATOM      7  C   UNL     1     145.968 138.763 144.780  1.00  0.00     0.005 C 
ATOM      8  C   UNL     1     146.803 138.958 143.537  1.00  0.00     0.005 C 
ATOM      9  C   UNL     1     148.030 139.855 143.820  1.00  0.00     0.002 C 
ATOM     10  C   UNL     1     148.595 140.615 142.508  1.00  0.00    -0.026 C 
ATOM     11  C   UNL     1     148.538 139.709 141.212  1.00  0.00     0.010 C 
ATOM     12  C   UNL     1     149.766 139.548 140.272  1.00  0.00     0.033 C 
ATOM     13  C   UNL     1     151.042 140.386 140.510  1.00  0.00     0.120 C 
ATOM     14  C   UNL     1     150.825 141.639 141.400  1.00  0.00    -0.006 C 
ATOM     15  C   UNL     1     150.035 141.269 142.732  1.00  0.00     0.003 C 
ATOM     16  C   UNL     1     150.942 140.494 143.734  1.00  0.00     0.005 C 
ATOM     17  C   UNL     1     150.219 140.011 144.984  1.00  0.00     0.008 C 
ATOM     18  C   UNL     1     149.034 139.046 144.700  1.00  0.00    -0.024 C 
ATOM     19  C   UNL     1     148.333 138.542 146.108  1.00  0.00    -0.024 C 
ATOM     20  C   UNL     1     149.060 137.221 146.601  1.00  0.00     0.008 C 
ATOM     21  C   UNL     1     148.482 136.517 147.849  1.00  0.00     0.007 C 
ATOM     22  C   UNL     1     148.569 139.589 147.250  1.00  0.00     0.012 C 
ATOM     23  C   UNL     1     149.613 137.843 143.869  1.00  0.00     0.012 C 
ATOM     24  C   UNL     1     152.214 142.268 141.731  1.00  0.00     0.014 C 
ATOM     25  C   UNL     1     150.084 142.714 140.553  1.00  0.00     0.014 C 
ATOM     26  C   UNL     1     147.575 141.793 142.283  1.00  0.00     0.012 C 
ATOM     27  C   UNL     1     146.447 137.361 149.136  1.00  0.00     0.011 C 
ENDROOT
BRANCH   1  28
ATOM     28  C   UNL     1     143.706 137.349 146.695  1.00  0.00    -0.077 C 
ATOM     29  C   UNL     1     142.726 137.563 145.568  1.00  0.00     0.039 C 
ATOM     30  C   UNL     1     143.435 137.971 147.857  1.00  0.00     0.008 C 
ENDBRANCH   1  28
BRANCH  13  31
ATOM     31  O   UNL     1     152.059 139.558 141.027  1.00  0.00    -0.393 OA
ATOM     32  H   UNL     1     151.862 139.421 141.991  1.00  0.00     0.210 HD
ENDBRANCH  13  31
TORSDOF 2
ENDMDL
MODEL 8
REMARK VINA RESULT:    -6.384      2.652      9.261
REMARK INTER + INTRA:          -7.262
REMARK INTER:                  -6.911
REMARK INTRA:                  -0.351
REMARK UNBOUND:                -0.318
REMARK SMILES C=C(C)[C@@H]1CC[C@@]2(C)CC[C@]3(C)[C@@H](CC[C@@H]4[C@]5(C)CC[C@H](O)C(C)(C)[C@@H]5CC[C@]43C)[C@H]12
REMARK SMILES IDX 4 1 5 2 6 3 7 4 31 5 13 6 14 7 15 8 16 9 17 10 19 11 20 12
REMARK SMILES IDX 21 13 23 14 26 15 27 16 28 17 29 18 11 19 10 20 9 21 12 22
REMARK SMILES IDX 30 23 24 24 25 25 18 26 8 27 2 28 3 29 1 30 22 31
REMARK H PARENT 22 32
REMARK Flexibility Score: inf
ROOT
ATOM      1  C   UNL     1     147.415 142.866 137.222  1.00  0.00     0.018 C 
ATOM      2  C   UNL     1     148.269 143.802 136.333  1.00  0.00     0.009 C 
ATOM      3  C   UNL     1     149.727 143.687 136.836  1.00  0.00     0.008 C 
ATOM      4  C   UNL     1     149.828 142.286 137.478  1.00  0.00    -0.029 C 
ATOM      5  C   UNL     1     148.451 142.214 138.185  1.00  0.00     0.006 C 
ATOM      6  C   UNL     1     148.205 140.878 138.952  1.00  0.00    -0.000 C 
ATOM      7  C   UNL     1     146.755 140.749 139.494  1.00  0.00     0.005 C 
ATOM      8  C   UNL     1     146.596 140.731 140.996  1.00  0.00     0.005 C 
ATOM      9  C   UNL     1     147.548 139.702 141.649  1.00  0.00     0.002 C 
ATOM     10  C   UNL     1     147.036 139.166 143.086  1.00  0.00    -0.026 C 
ATOM     11  C   UNL     1     146.362 140.307 143.953  1.00  0.00     0.010 C 
ATOM     12  C   UNL     1     146.756 140.547 145.437  1.00  0.00     0.033 C 
ATOM     13  C   UNL     1     147.729 139.580 146.149  1.00  0.00     0.120 C 
ATOM     14  C   UNL     1     147.879 138.201 145.454  1.00  0.00    -0.006 C 
ATOM     15  C   UNL     1     148.159 138.369 143.896  1.00  0.00     0.003 C 
ATOM     16  C   UNL     1     149.613 138.863 143.630  1.00  0.00     0.005 C 
ATOM     17  C   UNL     1     149.914 139.152 142.166  1.00  0.00     0.008 C 
ATOM     18  C   UNL     1     149.007 140.245 141.534  1.00  0.00    -0.024 C 
ATOM     19  C   UNL     1     149.427 140.522 139.961  1.00  0.00    -0.024 C 
ATOM     20  C   UNL     1     150.530 141.661 139.915  1.00  0.00     0.008 C 
ATOM     21  C   UNL     1     150.982 142.156 138.523  1.00  0.00     0.007 C 
ATOM     22  C   UNL     1     150.117 139.259 139.340  1.00  0.00     0.012 C 
ATOM     23  C   UNL     1     149.161 141.535 142.419  1.00  0.00     0.012 C 
ATOM     24  C   UNL     1     149.033 137.412 146.147  1.00  0.00     0.014 C 
ATOM     25  C   UNL     1     146.594 137.371 145.737  1.00  0.00     0.014 C 
ATOM     26  C   UNL     1     145.899 138.138 142.726  1.00  0.00     0.012 C 
ATOM     27  C   UNL     1     150.056 141.245 136.327  1.00  0.00     0.011 C 
ENDROOT
BRANCH   1  28
ATOM     28  C   UNL     1     146.455 141.944 136.450  1.00  0.00    -0.077 C 
ATOM     29  C   UNL     1     144.970 142.038 136.701  1.00  0.00     0.039 C 
ATOM     30  C   UNL     1     146.849 141.125 135.457  1.00  0.00     0.008 C 
ENDBRANCH   1  28
BRANCH  13  31
ATOM     31  O   UNL     1     148.979 140.209 146.320  1.00  0.00    -0.393 OA
ATOM     32  H   UNL     1     149.230 140.105 147.276  1.00  0.00     0.210 HD
ENDBRANCH  13  31
TORSDOF 2
ENDMDL
MODEL 9
REMARK VINA RESULT:    -6.354      9.935     12.185
REMARK INTER + INTRA:          -7.230
REMARK INTER:                  -6.893
REMARK INTRA:                  -0.337
REMARK UNBOUND:                -0.318
REMARK SMILES C=C(C)[C@@H]1CC[C@@]2(C)CC[C@]3(C)[C@@H](CC[C@@H]4[C@]5(C)CC[C@H](O)C(C)(C)[C@@H]5CC[C@]43C)[C@H]12
REMARK SMILES IDX 4 1 5 2 6 3 7 4 31 5 13 6 14 7 15 8 16 9 17 10 19 11 20 12
REMARK SMILES IDX 21 13 23 14 26 15 27 16 28 17 29 18 11 19 10 20 9 21 12 22
REMARK SMILES IDX 30 23 24 24 25 25 18 26 8 27 2 28 3 29 1 30 22 31
REMARK H PARENT 22 32
REMARK Flexibility Score: inf
ROOT
ATOM      1  C   UNL     1     138.531 141.088 146.228  1.00  0.00     0.018 C 
ATOM      2  C   UNL     1     139.127 139.701 146.573  1.00  0.00     0.009 C 
ATOM      3  C   UNL     1     139.392 138.984 145.228  1.00  0.00     0.008 C 
ATOM      4  C   UNL     1     139.603 140.114 144.197  1.00  0.00    -0.029 C 
ATOM      5  C   UNL     1     138.521 141.116 144.672  1.00  0.00     0.006 C 
ATOM      6  C   UNL     1     138.461 142.427 143.826  1.00  0.00    -0.000 C 
ATOM      7  C   UNL     1     137.504 143.492 144.428  1.00  0.00     0.005 C 
ATOM      8  C   UNL     1     136.281 143.836 143.612  1.00  0.00     0.005 C 
ATOM      9  C   UNL     1     136.657 144.161 142.147  1.00  0.00     0.002 C 
ATOM     10  C   UNL     1     135.585 145.114 141.399  1.00  0.00    -0.026 C 
ATOM     11  C   UNL     1     134.091 144.770 141.792  1.00  0.00     0.010 C 
ATOM     12  C   UNL     1     132.986 144.574 140.716  1.00  0.00     0.033 C 
ATOM     13  C   UNL     1     133.294 144.848 139.227  1.00  0.00     0.120 C 
ATOM     14  C   UNL     1     134.554 145.723 138.987  1.00  0.00    -0.006 C 
ATOM     15  C   UNL     1     135.799 145.180 139.817  1.00  0.00     0.003 C 
ATOM     16  C   UNL     1     136.369 143.871 139.193  1.00  0.00     0.005 C 
ATOM     17  C   UNL     1     137.493 143.234 140.000  1.00  0.00     0.008 C 
ATOM     18  C   UNL     1     137.089 142.835 141.447  1.00  0.00    -0.024 C 
ATOM     19  C   UNL     1     138.351 142.119 142.235  1.00  0.00    -0.024 C 
ATOM     20  C   UNL     1     138.298 140.555 141.978  1.00  0.00     0.008 C 
ATOM     21  C   UNL     1     139.330 139.677 142.723  1.00  0.00     0.007 C 
ATOM     22  C   UNL     1     139.719 142.587 141.631  1.00  0.00     0.012 C 
ATOM     23  C   UNL     1     135.850 141.874 141.328  1.00  0.00     0.012 C 
ATOM     24  C   UNL     1     134.868 145.745 137.459  1.00  0.00     0.014 C 
ATOM     25  C   UNL     1     134.200 147.194 139.350  1.00  0.00     0.014 C 
ATOM     26  C   UNL     1     135.886 146.549 141.972  1.00  0.00     0.012 C 
ATOM     27  C   UNL     1     141.087 140.608 144.321  1.00  0.00     0.011 C 
ENDROOT
BRANCH   1  28
ATOM     28  C   UNL     1     139.175 142.269 146.977  1.00  0.00    -0.077 C 
ATOM     29  C   UNL     1     138.371 143.022 148.009  1.00  0.00     0.039 C 
ATOM     30  C   UNL     1     140.472 142.606 146.858  1.00  0.00     0.008 C 
ENDBRANCH   1  28
BRANCH  13  31
ATOM     31  O   UNL     1     133.377 143.625 138.530  1.00  0.00    -0.393 OA
ATOM     32  H   UNL     1     133.290 142.900 139.204  1.00  0.00     0.210 HD
ENDBRANCH  13  31
TORSDOF 2
ENDMDL
