MODEL 1
REMARK VINA RESULT:    -6.037      0.000      0.000
REMARK INTER + INTRA:          -7.670
REMARK INTER:                  -7.272
REMARK INTRA:                  -0.398
REMARK UNBOUND:                -0.398
REMARK SMILES O=c1c(O)c(-c2ccc(O)cc2O)oc2cc(O)cc(O)c12
REMARK SMILES IDX 5 1 3 2 2 3 1 4 22 5 20 6 19 7 17 8 16 9 15 10 14 11 6 12
REMARK SMILES IDX 8 13 7 14 9 15 11 16 12 17 10 18 13 20 4 22 21 24 18 26
REMARK H PARENT 10 19 13 21 4 23 21 25 18 27
REMARK Flexibility Score: inf
ROOT
ATOM      1  C   UNL     1      16.771 -12.176   3.282  1.00  0.00     0.184 A 
ATOM      2  C   UNL     1      17.916 -11.575   2.739  1.00  0.00     0.208 A 
ATOM      3  C   UNL     1      18.371 -11.992   1.479  1.00  0.00     0.238 A 
ATOM      4  O   UNL     1      19.440 -11.501   1.030  1.00  0.00    -0.285 OA
ATOM      5  C   UNL     1      17.642 -12.967   0.754  1.00  0.00     0.111 A 
ATOM      6  C   UNL     1      17.985 -13.434  -0.551  1.00  0.00     0.134 A 
ATOM      7  C   UNL     1      17.250 -14.478  -1.126  1.00  0.00     0.093 A 
ATOM      8  C   UNL     1      16.147 -15.027  -0.474  1.00  0.00     0.123 A 
ATOM      9  C   UNL     1      15.769 -14.542   0.777  1.00  0.00     0.094 A 
ATOM     10  C   UNL     1      16.505 -13.527   1.395  1.00  0.00     0.146 A 
ATOM     11  O   UNL     1      16.124 -13.109   2.596  1.00  0.00    -0.451 OA
ENDROOT
BRANCH   1  12
ATOM     12  C   UNL     1      16.244 -11.788   4.608  1.00  0.00     0.063 A 
ATOM     13  C   UNL     1      16.505 -11.780   7.025  1.00  0.00     0.047 A 
ATOM     14  C   UNL     1      16.971 -12.136   5.756  1.00  0.00     0.020 A 
ATOM     15  C   UNL     1      15.313 -11.058   7.159  1.00  0.00     0.119 A 
ATOM     16  C   UNL     1      14.595 -10.686   6.019  1.00  0.00     0.093 A 
ATOM     17  C   UNL     1      15.059 -11.035   4.741  1.00  0.00     0.130 A 
BRANCH  15  18
ATOM     18  O   UNL     1      14.838 -10.700   8.418  1.00  0.00    -0.508 OA
ATOM     19  H   UNL     1      15.206 -11.121   9.263  1.00  0.00     0.293 HD
ENDBRANCH  15  18
BRANCH  17  20
ATOM     20  O   UNL     1      14.358 -10.617   3.610  1.00  0.00    -0.507 OA
ATOM     21  H   UNL     1      13.357 -10.749   3.525  1.00  0.00     0.293 HD
ENDBRANCH  17  20
ENDBRANCH   1  12
BRANCH   2  22
ATOM     22  O   UNL     1      18.577 -10.564   3.443  1.00  0.00    -0.502 OA
ATOM     23  H   UNL     1      18.851 -10.668   4.412  1.00  0.00     0.293 HD
ENDBRANCH   2  22
BRANCH   6  24
ATOM     24  O   UNL     1      19.013 -12.895  -1.331  1.00  0.00    -0.507 OA
ATOM     25  H   UNL     1      19.740 -13.431  -1.779  1.00  0.00     0.293 HD
ENDBRANCH   6  24
BRANCH   8  26
ATOM     26  O   UNL     1      15.428 -16.053  -1.085  1.00  0.00    -0.508 OA
ATOM     27  H   UNL     1      15.871 -16.925  -1.350  1.00  0.00     0.293 HD
ENDBRANCH   8  26
TORSDOF 6
ENDMDL
MODEL 2
REMARK VINA RESULT:    -5.869      1.255      2.896
REMARK INTER + INTRA:          -7.468
REMARK INTER:                  -7.051
REMARK INTRA:                  -0.417
REMARK UNBOUND:                -0.398
REMARK SMILES O=c1c(O)c(-c2ccc(O)cc2O)oc2cc(O)cc(O)c12
REMARK SMILES IDX 5 1 3 2 2 3 1 4 22 5 20 6 19 7 17 8 16 9 15 10 14 11 6 12
REMARK SMILES IDX 8 13 7 14 9 15 11 16 12 17 10 18 13 20 4 22 21 24 18 26
REMARK H PARENT 10 19 13 21 4 23 21 25 18 27
REMARK Flexibility Score: inf
ROOT
ATOM      1  C   UNL     1      16.639 -12.326   3.114  1.00  0.00     0.184 A 
ATOM      2  C   UNL     1      16.087 -13.466   2.510  1.00  0.00     0.208 A 
ATOM      3  C   UNL     1      16.491 -13.811   1.212  1.00  0.00     0.238 A 
ATOM      4  O   UNL     1      15.939 -14.792   0.649  1.00  0.00    -0.285 OA
ATOM      5  C   UNL     1      17.484 -13.042   0.555  1.00  0.00     0.111 A 
ATOM      6  C   UNL     1      18.002 -13.325  -0.745  1.00  0.00     0.134 A 
ATOM      7  C   UNL     1      18.906 -12.433  -1.337  1.00  0.00     0.093 A 
ATOM      8  C   UNL     1      19.358 -11.306  -0.654  1.00  0.00     0.123 A 
ATOM      9  C   UNL     1      18.900 -11.048   0.639  1.00  0.00     0.094 A 
ATOM     10  C   UNL     1      17.969 -11.898   1.242  1.00  0.00     0.146 A 
ATOM     11  O   UNL     1      17.544 -11.605   2.465  1.00  0.00    -0.451 OA
ENDROOT
BRANCH   1  12
ATOM     12  C   UNL     1      16.250 -11.903   4.476  1.00  0.00     0.063 A 
ATOM     13  C   UNL     1      16.704 -11.918   6.864  1.00  0.00     0.047 A 
ATOM     14  C   UNL     1      17.040 -12.305   5.564  1.00  0.00     0.020 A 
ATOM     15  C   UNL     1      15.583 -11.111   7.091  1.00  0.00     0.119 A 
ATOM     16  C   UNL     1      14.805 -10.685   6.011  1.00  0.00     0.093 A 
ATOM     17  C   UNL     1      15.137 -11.065   4.701  1.00  0.00     0.130 A 
BRANCH  15  18
ATOM     18  O   UNL     1      15.238 -10.722   8.383  1.00  0.00    -0.508 OA
ATOM     19  H   UNL     1      14.333 -10.316   8.590  1.00  0.00     0.293 HD
ENDBRANCH  15  18
BRANCH  17  20
ATOM     20  O   UNL     1      14.381 -10.594   3.628  1.00  0.00    -0.507 OA
ATOM     21  H   UNL     1      13.377 -10.476   3.697  1.00  0.00     0.293 HD
ENDBRANCH  17  20
ENDBRANCH   1  12
BRANCH   2  22
ATOM     22  O   UNL     1      15.162 -14.249   3.208  1.00  0.00    -0.502 OA
ATOM     23  H   UNL     1      14.390 -14.715   2.748  1.00  0.00     0.293 HD
ENDBRANCH   2  22
BRANCH   6  24
ATOM     24  O   UNL     1      17.687 -14.471  -1.482  1.00  0.00    -0.507 OA
ATOM     25  H   UNL     1      16.968 -15.134  -1.239  1.00  0.00     0.293 HD
ENDBRANCH   6  24
BRANCH   8  26
ATOM     26  O   UNL     1      20.270 -10.450  -1.267  1.00  0.00    -0.508 OA
ATOM     27  H   UNL     1      20.233  -9.447  -1.127  1.00  0.00     0.293 HD
ENDBRANCH   8  26
TORSDOF 6
ENDMDL
MODEL 3
REMARK VINA RESULT:    -5.577      2.890      6.090
REMARK INTER + INTRA:          -7.116
REMARK INTER:                  -6.797
REMARK INTRA:                  -0.319
REMARK UNBOUND:                -0.398
REMARK SMILES O=c1c(O)c(-c2ccc(O)cc2O)oc2cc(O)cc(O)c12
REMARK SMILES IDX 5 1 3 2 2 3 1 4 22 5 20 6 19 7 17 8 16 9 15 10 14 11 6 12
REMARK SMILES IDX 8 13 7 14 9 15 11 16 12 17 10 18 13 20 4 22 21 24 18 26
REMARK H PARENT 10 19 13 21 4 23 21 25 18 27
REMARK Flexibility Score: inf
ROOT
ATOM      1  C   UNL     1      18.893 -11.203   0.468  1.00  0.00     0.184 A 
ATOM      2  C   UNL     1      18.727 -12.259  -0.441  1.00  0.00     0.208 A 
ATOM      3  C   UNL     1      17.802 -13.271  -0.147  1.00  0.00     0.238 A 
ATOM      4  O   UNL     1      17.710 -14.252  -0.931  1.00  0.00    -0.285 OA
ATOM      5  C   UNL     1      17.014 -13.186   1.027  1.00  0.00     0.111 A 
ATOM      6  C   UNL     1      16.013 -14.132   1.405  1.00  0.00     0.134 A 
ATOM      7  C   UNL     1      15.370 -14.000   2.643  1.00  0.00     0.093 A 
ATOM      8  C   UNL     1      15.644 -12.925   3.487  1.00  0.00     0.123 A 
ATOM      9  C   UNL     1      16.581 -11.965   3.104  1.00  0.00     0.094 A 
ATOM     10  C   UNL     1      17.267 -12.088   1.893  1.00  0.00     0.146 A 
ATOM     11  O   UNL     1      18.165 -11.164   1.576  1.00  0.00    -0.451 OA
ENDROOT
BRANCH   1  12
ATOM     12  C   UNL     1      19.857 -10.110   0.222  1.00  0.00     0.063 A 
ATOM     13  C   UNL     1      21.961  -9.030   0.786  1.00  0.00     0.047 A 
ATOM     14  C   UNL     1      21.026 -10.047   0.996  1.00  0.00     0.020 A 
ATOM     15  C   UNL     1      21.746  -8.072  -0.212  1.00  0.00     0.119 A 
ATOM     16  C   UNL     1      20.596  -8.141  -1.004  1.00  0.00     0.093 A 
ATOM     17  C   UNL     1      19.654  -9.162  -0.803  1.00  0.00     0.130 A 
BRANCH  15  18
ATOM     18  O   UNL     1      22.669  -7.053  -0.428  1.00  0.00    -0.508 OA
ATOM     19  H   UNL     1      23.465  -6.920   0.185  1.00  0.00     0.293 HD
ENDBRANCH  15  18
BRANCH  17  20
ATOM     20  O   UNL     1      18.536  -9.248  -1.632  1.00  0.00    -0.507 OA
ATOM     21  H   UNL     1      17.730  -8.649  -1.501  1.00  0.00     0.293 HD
ENDBRANCH  17  20
ENDBRANCH   1  12
BRANCH   2  22
ATOM     22  O   UNL     1      19.466 -12.283  -1.628  1.00  0.00    -0.502 OA
ATOM     23  H   UNL     1      20.282 -12.869  -1.748  1.00  0.00     0.293 HD
ENDBRANCH   2  22
BRANCH   6  24
ATOM     24  O   UNL     1      15.596 -15.195   0.598  1.00  0.00    -0.507 OA
ATOM     25  H   UNL     1      15.453 -15.143  -0.398  1.00  0.00     0.293 HD
ENDBRANCH   6  24
BRANCH   8  26
ATOM     26  O   UNL     1      14.973 -12.818   4.703  1.00  0.00    -0.508 OA
ATOM     27  H   UNL     1      14.020 -12.480   4.753  1.00  0.00     0.293 HD
ENDBRANCH   8  26
TORSDOF 6
ENDMDL
MODEL 4
REMARK VINA RESULT:    -5.573      7.223      8.656
REMARK INTER + INTRA:          -7.111
REMARK INTER:                  -6.713
REMARK INTRA:                  -0.397
REMARK UNBOUND:                -0.398
REMARK SMILES O=c1c(O)c(-c2ccc(O)cc2O)oc2cc(O)cc(O)c12
REMARK SMILES IDX 5 1 3 2 2 3 1 4 22 5 20 6 19 7 17 8 16 9 15 10 14 11 6 12
REMARK SMILES IDX 8 13 7 14 9 15 11 16 12 17 10 18 13 20 4 22 21 24 18 26
REMARK H PARENT 10 19 13 21 4 23 21 25 18 27
REMARK Flexibility Score: inf
ROOT
ATOM      1  C   UNL     1      20.559 -15.386   8.083  1.00  0.00     0.184 A 
ATOM      2  C   UNL     1      21.490 -14.809   8.961  1.00  0.00     0.208 A 
ATOM      3  C   UNL     1      22.663 -15.514   9.268  1.00  0.00     0.238 A 
ATOM      4  O   UNL     1      23.459 -15.025  10.111  1.00  0.00    -0.285 OA
ATOM      5  C   UNL     1      22.917 -16.764   8.649  1.00  0.00     0.111 A 
ATOM      6  C   UNL     1      24.093 -17.547   8.851  1.00  0.00     0.134 A 
ATOM      7  C   UNL     1      24.186 -18.817   8.267  1.00  0.00     0.093 A 
ATOM      8  C   UNL     1      23.177 -19.305   7.438  1.00  0.00     0.123 A 
ATOM      9  C   UNL     1      22.047 -18.526   7.189  1.00  0.00     0.094 A 
ATOM     10  C   UNL     1      21.907 -17.271   7.788  1.00  0.00     0.146 A 
ATOM     11  O   UNL     1      20.806 -16.571   7.541  1.00  0.00    -0.451 OA
ENDROOT
BRANCH   1  12
ATOM     12  C   UNL     1      19.300 -14.699   7.725  1.00  0.00     0.063 A 
ATOM     13  C   UNL     1      18.189 -12.861   6.586  1.00  0.00     0.047 A 
ATOM     14  C   UNL     1      19.360 -13.532   6.947  1.00  0.00     0.020 A 
ATOM     15  C   UNL     1      16.942 -13.357   6.985  1.00  0.00     0.119 A 
ATOM     16  C   UNL     1      16.872 -14.532   7.739  1.00  0.00     0.093 A 
ATOM     17  C   UNL     1      18.043 -15.215   8.102  1.00  0.00     0.130 A 
BRANCH  15  18
ATOM     18  O   UNL     1      15.769 -12.695   6.633  1.00  0.00    -0.508 OA
ATOM     19  H   UNL     1      15.482 -12.603   5.666  1.00  0.00     0.293 HD
ENDBRANCH  15  18
BRANCH  17  20
ATOM     20  O   UNL     1      17.956 -16.412   8.813  1.00  0.00    -0.507 OA
ATOM     21  H   UNL     1      18.569 -16.611   9.596  1.00  0.00     0.293 HD
ENDBRANCH  17  20
ENDBRANCH   1  12
BRANCH   2  22
ATOM     22  O   UNL     1      21.250 -13.543   9.502  1.00  0.00    -0.502 OA
ATOM     23  H   UNL     1      21.486 -13.308  10.458  1.00  0.00     0.293 HD
ENDBRANCH   2  22
BRANCH   6  24
ATOM     24  O   UNL     1      25.202 -17.119   9.588  1.00  0.00    -0.507 OA
ATOM     25  H   UNL     1      25.330 -16.187   9.950  1.00  0.00     0.293 HD
ENDBRANCH   6  24
BRANCH   8  26
ATOM     26  O   UNL     1      23.312 -20.566   6.860  1.00  0.00    -0.508 OA
ATOM     27  H   UNL     1      22.664 -21.315   7.069  1.00  0.00     0.293 HD
ENDBRANCH   8  26
TORSDOF 6
ENDMDL
MODEL 5
REMARK VINA RESULT:    -5.554      1.595      6.513
REMARK INTER + INTRA:          -7.088
REMARK INTER:                  -6.765
REMARK INTRA:                  -0.323
REMARK UNBOUND:                -0.398
REMARK SMILES O=c1c(O)c(-c2ccc(O)cc2O)oc2cc(O)cc(O)c12
REMARK SMILES IDX 5 1 3 2 2 3 1 4 22 5 20 6 19 7 17 8 16 9 15 10 14 11 6 12
REMARK SMILES IDX 8 13 7 14 9 15 11 16 12 17 10 18 13 20 4 22 21 24 18 26
REMARK H PARENT 10 19 13 21 4 23 21 25 18 27
REMARK Flexibility Score: inf
ROOT
ATOM      1  C   UNL     1      16.608 -12.015   3.133  1.00  0.00     0.184 A 
ATOM      2  C   UNL     1      17.419 -11.436   4.121  1.00  0.00     0.208 A 
ATOM      3  C   UNL     1      16.814 -10.879   5.258  1.00  0.00     0.238 A 
ATOM      4  O   UNL     1      17.540 -10.298   6.105  1.00  0.00    -0.285 OA
ATOM      5  C   UNL     1      15.408 -10.958   5.418  1.00  0.00     0.111 A 
ATOM      6  C   UNL     1      14.690 -10.467   6.550  1.00  0.00     0.134 A 
ATOM      7  C   UNL     1      13.290 -10.506   6.549  1.00  0.00     0.093 A 
ATOM      8  C   UNL     1      12.585 -11.073   5.490  1.00  0.00     0.123 A 
ATOM      9  C   UNL     1      13.277 -11.606   4.402  1.00  0.00     0.094 A 
ATOM     10  C   UNL     1      14.673 -11.548   4.355  1.00  0.00     0.146 A 
ATOM     11  O   UNL     1      15.292 -12.047   3.292  1.00  0.00    -0.451 OA
ENDROOT
BRANCH   1  12
ATOM     12  C   UNL     1      17.182 -12.611   1.908  1.00  0.00     0.063 A 
ATOM     13  C   UNL     1      18.506 -12.335  -0.112  1.00  0.00     0.047 A 
ATOM     14  C   UNL     1      17.944 -11.802   1.051  1.00  0.00     0.020 A 
ATOM     15  C   UNL     1      18.326 -13.688  -0.425  1.00  0.00     0.119 A 
ATOM     16  C   UNL     1      17.589 -14.507   0.436  1.00  0.00     0.093 A 
ATOM     17  C   UNL     1      17.025 -13.980   1.609  1.00  0.00     0.130 A 
BRANCH  15  18
ATOM     18  O   UNL     1      18.879 -14.228  -1.583  1.00  0.00    -0.508 OA
ATOM     19  H   UNL     1      19.860 -14.476  -1.636  1.00  0.00     0.293 HD
ENDBRANCH  15  18
BRANCH  17  20
ATOM     20  O   UNL     1      16.334 -14.819   2.483  1.00  0.00    -0.507 OA
ATOM     21  H   UNL     1      16.203 -15.803   2.283  1.00  0.00     0.293 HD
ENDBRANCH  17  20
ENDBRANCH   1  12
BRANCH   2  22
ATOM     22  O   UNL     1      18.809 -11.435   3.973  1.00  0.00    -0.502 OA
ATOM     23  H   UNL     1      19.299 -12.147   3.447  1.00  0.00     0.293 HD
ENDBRANCH   2  22
BRANCH   6  24
ATOM     24  O   UNL     1      15.298  -9.960   7.703  1.00  0.00    -0.507 OA
ATOM     25  H   UNL     1      16.059 -10.399   8.195  1.00  0.00     0.293 HD
ENDBRANCH   6  24
BRANCH   8  26
ATOM     26  O   UNL     1      11.192 -11.110   5.531  1.00  0.00    -0.508 OA
ATOM     27  H   UNL     1      10.697 -11.537   6.304  1.00  0.00     0.293 HD
ENDBRANCH   8  26
TORSDOF 6
ENDMDL
MODEL 6
REMARK VINA RESULT:    -5.485      1.464      3.220
REMARK INTER + INTRA:          -7.005
REMARK INTER:                  -6.593
REMARK INTRA:                  -0.411
REMARK UNBOUND:                -0.398
REMARK SMILES O=c1c(O)c(-c2ccc(O)cc2O)oc2cc(O)cc(O)c12
REMARK SMILES IDX 5 1 3 2 2 3 1 4 22 5 20 6 19 7 17 8 16 9 15 10 14 11 6 12
REMARK SMILES IDX 8 13 7 14 9 15 11 16 12 17 10 18 13 20 4 22 21 24 18 26
REMARK H PARENT 10 19 13 21 4 23 21 25 18 27
REMARK Flexibility Score: inf
ROOT
ATOM      1  C   UNL     1      16.363 -12.153   3.080  1.00  0.00     0.184 A 
ATOM      2  C   UNL     1      16.002 -13.402   2.552  1.00  0.00     0.208 A 
ATOM      3  C   UNL     1      16.511 -13.786   1.303  1.00  0.00     0.238 A 
ATOM      4  O   UNL     1      16.126 -14.874   0.803  1.00  0.00    -0.285 OA
ATOM      5  C   UNL     1      17.419 -12.938   0.621  1.00  0.00     0.111 A 
ATOM      6  C   UNL     1      18.032 -13.244  -0.632  1.00  0.00     0.134 A 
ATOM      7  C   UNL     1      18.832 -12.282  -1.262  1.00  0.00     0.093 A 
ATOM      8  C   UNL     1      19.093 -11.053  -0.658  1.00  0.00     0.123 A 
ATOM      9  C   UNL     1      18.543 -10.764   0.591  1.00  0.00     0.094 A 
ATOM     10  C   UNL     1      17.710 -11.687   1.228  1.00  0.00     0.146 A 
ATOM     11  O   UNL     1      17.190 -11.364   2.407  1.00  0.00    -0.451 OA
ENDROOT
BRANCH   1  12
ATOM     12  C   UNL     1      15.855 -11.685   4.387  1.00  0.00     0.063 A 
ATOM     13  C   UNL     1      14.011 -10.809   5.706  1.00  0.00     0.047 A 
ATOM     14  C   UNL     1      14.524 -11.252   4.484  1.00  0.00     0.020 A 
ATOM     15  C   UNL     1      14.818 -10.809   6.849  1.00  0.00     0.119 A 
ATOM     16  C   UNL     1      16.138 -11.262   6.768  1.00  0.00     0.093 A 
ATOM     17  C   UNL     1      16.660 -11.713   5.545  1.00  0.00     0.130 A 
BRANCH  15  18
ATOM     18  O   UNL     1      14.317 -10.367   8.071  1.00  0.00    -0.508 OA
ATOM     19  H   UNL     1      14.407 -10.924   8.914  1.00  0.00     0.293 HD
ENDBRANCH  15  18
BRANCH  17  20
ATOM     20  O   UNL     1      17.963 -12.208   5.488  1.00  0.00    -0.507 OA
ATOM     21  H   UNL     1      18.201 -13.121   5.856  1.00  0.00     0.293 HD
ENDBRANCH  17  20
ENDBRANCH   1  12
BRANCH   2  22
ATOM     22  O   UNL     1      15.161 -14.251   3.278  1.00  0.00    -0.502 OA
ATOM     23  H   UNL     1      15.483 -14.776   4.081  1.00  0.00     0.293 HD
ENDBRANCH   2  22
BRANCH   6  24
ATOM     24  O   UNL     1      17.912 -14.475  -1.283  1.00  0.00    -0.507 OA
ATOM     25  H   UNL     1      17.058 -14.842  -1.671  1.00  0.00     0.293 HD
ENDBRANCH   6  24
BRANCH   8  26
ATOM     26  O   UNL     1      19.907 -10.127  -1.306  1.00  0.00    -0.508 OA
ATOM     27  H   UNL     1      20.364  -9.378  -0.801  1.00  0.00     0.293 HD
ENDBRANCH   8  26
TORSDOF 6
ENDMDL
MODEL 7
REMARK VINA RESULT:    -5.388      1.674      6.720
REMARK INTER + INTRA:          -6.888
REMARK INTER:                  -6.581
REMARK INTRA:                  -0.306
REMARK UNBOUND:                -0.398
REMARK SMILES O=c1c(O)c(-c2ccc(O)cc2O)oc2cc(O)cc(O)c12
REMARK SMILES IDX 5 1 3 2 2 3 1 4 22 5 20 6 19 7 17 8 16 9 15 10 14 11 6 12
REMARK SMILES IDX 8 13 7 14 9 15 11 16 12 17 10 18 13 20 4 22 21 24 18 26
REMARK H PARENT 10 19 13 21 4 23 21 25 18 27
REMARK Flexibility Score: inf
ROOT
ATOM      1  C   UNL     1      16.669 -12.419   3.306  1.00  0.00     0.184 A 
ATOM      2  C   UNL     1      16.085 -11.164   3.535  1.00  0.00     0.208 A 
ATOM      3  C   UNL     1      15.830 -10.762   4.855  1.00  0.00     0.238 A 
ATOM      4  O   UNL     1      15.240  -9.668   5.050  1.00  0.00    -0.285 OA
ATOM      5  C   UNL     1      16.214 -11.599   5.933  1.00  0.00     0.111 A 
ATOM      6  C   UNL     1      16.045 -11.275   7.313  1.00  0.00     0.134 A 
ATOM      7  C   UNL     1      16.366 -12.227   8.289  1.00  0.00     0.093 A 
ATOM      8  C   UNL     1      16.908 -13.463   7.941  1.00  0.00     0.123 A 
ATOM      9  C   UNL     1      17.129 -13.769   6.598  1.00  0.00     0.094 A 
ATOM     10  C   UNL     1      16.783 -12.857   5.598  1.00  0.00     0.146 A 
ATOM     11  O   UNL     1      16.990 -13.197   4.332  1.00  0.00    -0.451 OA
ENDROOT
BRANCH   1  12
ATOM     12  C   UNL     1      16.956 -12.904   1.940  1.00  0.00     0.063 A 
ATOM     13  C   UNL     1      18.111 -12.589  -0.176  1.00  0.00     0.047 A 
ATOM     14  C   UNL     1      17.814 -12.156   1.119  1.00  0.00     0.020 A 
ATOM     15  C   UNL     1      17.567 -13.784  -0.660  1.00  0.00     0.119 A 
ATOM     16  C   UNL     1      16.731 -14.548   0.159  1.00  0.00     0.093 A 
ATOM     17  C   UNL     1      16.431 -14.123   1.463  1.00  0.00     0.130 A 
BRANCH  15  18
ATOM     18  O   UNL     1      17.854 -14.224  -1.950  1.00  0.00    -0.508 OA
ATOM     19  H   UNL     1      18.805 -14.407  -2.248  1.00  0.00     0.293 HD
ENDBRANCH  15  18
BRANCH  17  20
ATOM     20  O   UNL     1      15.635 -14.919   2.286  1.00  0.00    -0.507 OA
ATOM     21  H   UNL     1      15.792 -14.974   3.286  1.00  0.00     0.293 HD
ENDBRANCH  17  20
ENDBRANCH   1  12
BRANCH   2  22
ATOM     22  O   UNL     1      15.781 -10.326   2.458  1.00  0.00    -0.502 OA
ATOM     23  H   UNL     1      15.849 -10.633   1.496  1.00  0.00     0.293 HD
ENDBRANCH   2  22
BRANCH   6  24
ATOM     24  O   UNL     1      15.594 -10.036   7.777  1.00  0.00    -0.507 OA
ATOM     25  H   UNL     1      15.818  -9.147   7.359  1.00  0.00     0.293 HD
ENDBRANCH   6  24
BRANCH   8  26
ATOM     26  O   UNL     1      17.231 -14.378   8.941  1.00  0.00    -0.508 OA
ATOM     27  H   UNL     1      18.149 -14.391   9.370  1.00  0.00     0.293 HD
ENDBRANCH   8  26
TORSDOF 6
ENDMDL
MODEL 8
REMARK VINA RESULT:    -5.376      7.532      9.087
REMARK INTER + INTRA:          -6.873
REMARK INTER:                  -6.546
REMARK INTRA:                  -0.328
REMARK UNBOUND:                -0.398
REMARK SMILES O=c1c(O)c(-c2ccc(O)cc2O)oc2cc(O)cc(O)c12
REMARK SMILES IDX 5 1 3 2 2 3 1 4 22 5 20 6 19 7 17 8 16 9 15 10 14 11 6 12
REMARK SMILES IDX 8 13 7 14 9 15 11 16 12 17 10 18 13 20 4 22 21 24 18 26
REMARK H PARENT 10 19 13 21 4 23 21 25 18 27
REMARK Flexibility Score: inf
ROOT
ATOM      1  C   UNL     1      20.726 -16.128   7.909  1.00  0.00     0.184 A 
ATOM      2  C   UNL     1      20.268 -17.315   7.315  1.00  0.00     0.208 A 
ATOM      3  C   UNL     1      21.188 -18.339   7.044  1.00  0.00     0.238 A 
ATOM      4  O   UNL     1      20.785 -19.369   6.445  1.00  0.00    -0.285 OA
ATOM      5  C   UNL     1      22.545 -18.185   7.421  1.00  0.00     0.111 A 
ATOM      6  C   UNL     1      23.558 -19.175   7.235  1.00  0.00     0.134 A 
ATOM      7  C   UNL     1      24.887 -18.870   7.551  1.00  0.00     0.093 A 
ATOM      8  C   UNL     1      25.233 -17.638   8.104  1.00  0.00     0.123 A 
ATOM      9  C   UNL     1      24.244 -16.682   8.341  1.00  0.00     0.094 A 
ATOM     10  C   UNL     1      22.914 -16.942   8.001  1.00  0.00     0.146 A 
ATOM     11  O   UNL     1      22.008 -15.997   8.224  1.00  0.00    -0.451 OA
ENDROOT
BRANCH   1  12
ATOM     12  C   UNL     1      19.810 -15.009   8.213  1.00  0.00     0.063 A 
ATOM     13  C   UNL     1      18.222 -13.350   7.417  1.00  0.00     0.047 A 
ATOM     14  C   UNL     1      19.100 -14.407   7.163  1.00  0.00     0.020 A 
ATOM     15  C   UNL     1      18.031 -12.892   8.726  1.00  0.00     0.119 A 
ATOM     16  C   UNL     1      18.716 -13.501   9.781  1.00  0.00     0.093 A 
ATOM     17  C   UNL     1      19.596 -14.567   9.536  1.00  0.00     0.130 A 
BRANCH  15  18
ATOM     18  O   UNL     1      17.161 -11.837   8.989  1.00  0.00    -0.508 OA
ATOM     19  H   UNL     1      16.197 -12.000   9.257  1.00  0.00     0.293 HD
ENDBRANCH  15  18
BRANCH  17  20
ATOM     20  O   UNL     1      20.236 -15.198  10.602  1.00  0.00    -0.507 OA
ATOM     21  H   UNL     1      20.489 -16.178  10.566  1.00  0.00     0.293 HD
ENDBRANCH  17  20
ENDBRANCH   1  12
BRANCH   2  22
ATOM     22  O   UNL     1      18.911 -17.470   7.018  1.00  0.00    -0.502 OA
ATOM     23  H   UNL     1      18.543 -18.306   6.581  1.00  0.00     0.293 HD
ENDBRANCH   2  22
BRANCH   6  24
ATOM     24  O   UNL     1      23.310 -20.471   6.772  1.00  0.00    -0.507 OA
ATOM     25  H   UNL     1      23.333 -20.753   5.805  1.00  0.00     0.293 HD
ENDBRANCH   6  24
BRANCH   8  26
ATOM     26  O   UNL     1      26.564 -17.376   8.422  1.00  0.00    -0.508 OA
ATOM     27  H   UNL     1      26.816 -16.678   9.112  1.00  0.00     0.293 HD
ENDBRANCH   8  26
TORSDOF 6
ENDMDL
MODEL 9
REMARK VINA RESULT:    -5.247      2.360      6.537
REMARK INTER + INTRA:          -6.718
REMARK INTER:                  -6.429
REMARK INTRA:                  -0.289
REMARK UNBOUND:                -0.398
REMARK SMILES O=c1c(O)c(-c2ccc(O)cc2O)oc2cc(O)cc(O)c12
REMARK SMILES IDX 5 1 3 2 2 3 1 4 22 5 20 6 19 7 17 8 16 9 15 10 14 11 6 12
REMARK SMILES IDX 8 13 7 14 9 15 11 16 12 17 10 18 13 20 4 22 21 24 18 26
REMARK H PARENT 10 19 13 21 4 23 21 25 18 27
REMARK Flexibility Score: inf
ROOT
ATOM      1  C   UNL     1      17.111 -12.265   2.641  1.00  0.00     0.184 A 
ATOM      2  C   UNL     1      16.309 -13.408   2.508  1.00  0.00     0.208 A 
ATOM      3  C   UNL     1      16.025 -14.177   3.647  1.00  0.00     0.238 A 
ATOM      4  O   UNL     1      15.367 -15.240   3.509  1.00  0.00    -0.285 OA
ATOM      5  C   UNL     1      16.502 -13.760   4.915  1.00  0.00     0.111 A 
ATOM      6  C   UNL     1      16.239 -14.437   6.144  1.00  0.00     0.134 A 
ATOM      7  C   UNL     1      16.852 -13.991   7.322  1.00  0.00     0.093 A 
ATOM      8  C   UNL     1      17.664 -12.859   7.328  1.00  0.00     0.123 A 
ATOM      9  C   UNL     1      17.885 -12.157   6.143  1.00  0.00     0.094 A 
ATOM     10  C   UNL     1      17.319 -12.599   4.944  1.00  0.00     0.146 A 
ATOM     11  O   UNL     1      17.571 -11.914   3.835  1.00  0.00    -0.451 OA
ENDROOT
BRANCH   1  12
ATOM     12  C   UNL     1      17.454 -11.416   1.480  1.00  0.00     0.063 A 
ATOM     13  C   UNL     1      17.317  -9.256   0.374  1.00  0.00     0.047 A 
ATOM     14  C   UNL     1      17.007 -10.087   1.454  1.00  0.00     0.020 A 
ATOM     15  C   UNL     1      18.093  -9.740  -0.686  1.00  0.00     0.119 A 
ATOM     16  C   UNL     1      18.563 -11.056  -0.657  1.00  0.00     0.093 A 
ATOM     17  C   UNL     1      18.260 -11.896   0.426  1.00  0.00     0.130 A 
BRANCH  15  18
ATOM     18  O   UNL     1      18.406  -8.922  -1.768  1.00  0.00    -0.508 OA
ATOM     19  H   UNL     1      17.722  -8.293  -2.173  1.00  0.00     0.293 HD
ENDBRANCH  15  18
BRANCH  17  20
ATOM     20  O   UNL     1      18.776 -13.191   0.466  1.00  0.00    -0.507 OA
ATOM     21  H   UNL     1      19.769 -13.365   0.568  1.00  0.00     0.293 HD
ENDBRANCH  17  20
ENDBRANCH   1  12
BRANCH   2  22
ATOM     22  O   UNL     1      15.791 -13.758   1.257  1.00  0.00    -0.502 OA
ATOM     23  H   UNL     1      15.608 -14.718   0.995  1.00  0.00     0.293 HD
ENDBRANCH   2  22
BRANCH   6  24
ATOM     24  O   UNL     1      15.372 -15.527   6.268  1.00  0.00    -0.507 OA
ATOM     25  H   UNL     1      14.558 -15.685   5.695  1.00  0.00     0.293 HD
ENDBRANCH   6  24
BRANCH   8  26
ATOM     26  O   UNL     1      18.243 -12.435   8.523  1.00  0.00    -0.508 OA
ATOM     27  H   UNL     1      19.232 -12.559   8.706  1.00  0.00     0.293 HD
ENDBRANCH   8  26
TORSDOF 6
ENDMDL
