MODEL 1
REMARK VINA RESULT:    -5.240      0.000      0.000
REMARK INTER + INTRA:         -12.314
REMARK INTER:                 -10.141
REMARK INTRA:                  -2.173
REMARK UNBOUND:                -2.173
REMARK SMILES CCCCCCCCCCCCCCCCCC(=O)[O-]
REMARK SMILES IDX 10 1 11 2 12 3 13 4 14 5 15 6 16 7 17 8 18 9 19 10 20 11
REMARK SMILES IDX 9 12 8 13 7 14 6 15 5 16 4 17 3 18 2 19 1 20
REMARK H PARENT
REMARK Flexibility Score: inf
ROOT
ATOM      1  C   UNL     1       5.258  46.887   9.598  1.00  0.00     0.000 C 
ENDROOT
BRANCH   1   2
ATOM      2  C   UNL     1       4.220  46.368  10.611  1.00  0.00     0.000 C 
BRANCH   2   3
ATOM      3  C   UNL     1       4.277  44.842  10.791  1.00  0.00     0.000 C 
BRANCH   3   4
ATOM      4  C   UNL     1       3.874  44.083   9.517  1.00  0.00     0.000 C 
BRANCH   4   5
ATOM      5  C   UNL     1       3.133  42.772   9.819  1.00  0.00     0.000 C 
BRANCH   5   6
ATOM      6  C   UNL     1       2.705  42.711  11.293  1.00  0.00     0.000 C 
BRANCH   6   7
ATOM      7  C   UNL     1       3.502  41.676  12.102  1.00  0.00     0.006 C 
BRANCH   7   8
ATOM      8  C   UNL     1       2.631  40.524  12.618  1.00  0.00     0.053 C 
BRANCH   8   9
ATOM      9  C   UNL     1       3.456  39.289  12.797  1.00  0.00     0.041 C 
ATOM     10  O   UNL     1       2.988  38.163  12.481  1.00  0.00    -0.550 OA
ATOM     11  O   UNL     1       4.726  39.376  13.357  1.00  0.00    -0.550 OA
ENDBRANCH   8   9
ENDBRANCH   7   8
ENDBRANCH   6   7
ENDBRANCH   5   6
ENDBRANCH   4   5
ENDBRANCH   3   4
ENDBRANCH   2   3
ENDBRANCH   1   2
BRANCH   1  12
ATOM     12  C   UNL     1       4.681  47.768   8.474  1.00  0.00     0.000 C 
BRANCH  12  13
ATOM     13  C   UNL     1       3.248  47.409   8.033  1.00  0.00    -0.000 C 
BRANCH  13  14
ATOM     14  C   UNL     1       2.392  48.632   7.640  1.00  0.00    -0.000 C 
BRANCH  14  15
ATOM     15  C   UNL     1       1.217  48.867   8.607  1.00  0.00    -0.000 C 
BRANCH  15  16
ATOM     16  C   UNL     1       1.201  47.857   9.774  1.00  0.00    -0.000 C 
BRANCH  16  17
ATOM     17  C   UNL     1       0.029  46.859   9.718  1.00  0.00    -0.000 C 
BRANCH  17  18
ATOM     18  C   UNL     1       0.436  45.375   9.661  1.00  0.00    -0.000 C 
BRANCH  18  19
ATOM     19  C   UNL     1       0.450  44.761   8.249  1.00  0.00    -0.003 C 
ATOM     20  C   UNL     1      -0.212  45.657   7.203  1.00  0.00     0.004 C 
ENDBRANCH  18  19
ENDBRANCH  17  18
ENDBRANCH  16  17
ENDBRANCH  15  16
ENDBRANCH  14  15
ENDBRANCH  13  14
ENDBRANCH  12  13
ENDBRANCH   1  12
TORSDOF 16
ENDMDL
MODEL 2
REMARK VINA RESULT:    -5.106      3.765      7.087
REMARK INTER + INTRA:         -12.056
REMARK INTER:                  -9.862
REMARK INTRA:                  -2.193
REMARK UNBOUND:                -2.173
REMARK SMILES CCCCCCCCCCCCCCCCCC(=O)[O-]
REMARK SMILES IDX 10 1 11 2 12 3 13 4 14 5 15 6 16 7 17 8 18 9 19 10 20 11
REMARK SMILES IDX 9 12 8 13 7 14 6 15 5 16 4 17 3 18 2 19 1 20
REMARK H PARENT
REMARK Flexibility Score: inf
ROOT
ATOM      1  C   UNL     1       3.924  43.530   9.341  1.00  0.00     0.000 C 
ENDROOT
BRANCH   1   2
ATOM      2  C   UNL     1       2.602  43.215   8.618  1.00  0.00     0.000 C 
BRANCH   2   3
ATOM      3  C   UNL     1       1.406  43.983   9.206  1.00  0.00     0.000 C 
BRANCH   3   4
ATOM      4  C   UNL     1       0.682  44.840   8.156  1.00  0.00     0.000 C 
BRANCH   4   5
ATOM      5  C   UNL     1      -0.055  46.036   8.777  1.00  0.00     0.000 C 
BRANCH   5   6
ATOM      6  C   UNL     1       0.642  46.503  10.064  1.00  0.00     0.000 C 
BRANCH   6   7
ATOM      7  C   UNL     1       1.616  47.667   9.825  1.00  0.00     0.006 C 
BRANCH   7   8
ATOM      8  C   UNL     1       1.234  48.524   8.612  1.00  0.00     0.053 C 
BRANCH   8   9
ATOM      9  C   UNL     1       2.422  48.729   7.727  1.00  0.00     0.041 C 
ATOM     10  O   UNL     1       3.292  47.825   7.613  1.00  0.00    -0.550 OA
ATOM     11  O   UNL     1       2.594  49.938   7.062  1.00  0.00    -0.550 OA
ENDBRANCH   8   9
ENDBRANCH   7   8
ENDBRANCH   6   7
ENDBRANCH   5   6
ENDBRANCH   4   5
ENDBRANCH   3   4
ENDBRANCH   2   3
ENDBRANCH   1   2
BRANCH   1  12
ATOM     12  C   UNL     1       4.096  45.002   9.762  1.00  0.00     0.000 C 
BRANCH  12  13
ATOM     13  C   UNL     1       4.117  45.249  11.283  1.00  0.00    -0.000 C 
BRANCH  13  14
ATOM     14  C   UNL     1       3.745  44.006  12.121  1.00  0.00    -0.000 C 
BRANCH  14  15
ATOM     15  C   UNL     1       2.240  43.934  12.434  1.00  0.00    -0.000 C 
BRANCH  15  16
ATOM     16  C   UNL     1       1.696  42.490  12.398  1.00  0.00    -0.000 C 
BRANCH  16  17
ATOM     17  C   UNL     1       2.761  41.431  12.056  1.00  0.00    -0.000 C 
BRANCH  17  18
ATOM     18  C   UNL     1       2.623  40.095  12.809  1.00  0.00    -0.000 C 
BRANCH  18  19
ATOM     19  C   UNL     1       3.906  39.247  12.864  1.00  0.00    -0.003 C 
ATOM     20  C   UNL     1       5.087  39.991  13.486  1.00  0.00     0.004 C 
ENDBRANCH  18  19
ENDBRANCH  17  18
ENDBRANCH  16  17
ENDBRANCH  15  16
ENDBRANCH  14  15
ENDBRANCH  13  14
ENDBRANCH  12  13
ENDBRANCH   1  12
TORSDOF 16
ENDMDL
MODEL 3
REMARK VINA RESULT:    -5.104      1.171      2.335
REMARK INTER + INTRA:         -12.052
REMARK INTER:                  -9.344
REMARK INTRA:                  -2.708
REMARK UNBOUND:                -2.173
REMARK SMILES CCCCCCCCCCCCCCCCCC(=O)[O-]
REMARK SMILES IDX 10 1 11 2 12 3 13 4 14 5 15 6 16 7 17 8 18 9 19 10 20 11
REMARK SMILES IDX 9 12 8 13 7 14 6 15 5 16 4 17 3 18 2 19 1 20
REMARK H PARENT
REMARK Flexibility Score: inf
ROOT
ATOM      1  C   UNL     1       3.517  47.753   7.944  1.00  0.00     0.000 C 
ENDROOT
BRANCH   1   2
ATOM      2  C   UNL     1       3.664  47.202   9.374  1.00  0.00     0.000 C 
BRANCH   2   3
ATOM      3  C   UNL     1       4.864  46.251   9.523  1.00  0.00     0.000 C 
BRANCH   3   4
ATOM      4  C   UNL     1       4.496  44.948  10.250  1.00  0.00     0.000 C 
BRANCH   4   5
ATOM      5  C   UNL     1       4.178  45.169  11.736  1.00  0.00     0.000 C 
BRANCH   5   6
ATOM      6  C   UNL     1       3.796  43.848  12.419  1.00  0.00     0.000 C 
BRANCH   6   7
ATOM      7  C   UNL     1       3.830  42.649  11.458  1.00  0.00     0.006 C 
BRANCH   7   8
ATOM      8  C   UNL     1       2.834  41.549  11.843  1.00  0.00     0.053 C 
BRANCH   8   9
ATOM      9  C   UNL     1       3.543  40.421  12.524  1.00  0.00     0.041 C 
ATOM     10  O   UNL     1       2.912  39.382  12.852  1.00  0.00    -0.550 OA
ATOM     11  O   UNL     1       4.892  40.536  12.838  1.00  0.00    -0.550 OA
ENDBRANCH   8   9
ENDBRANCH   7   8
ENDBRANCH   6   7
ENDBRANCH   5   6
ENDBRANCH   4   5
ENDBRANCH   3   4
ENDBRANCH   2   3
ENDBRANCH   1   2
BRANCH   1  12
ATOM     12  C   UNL     1       2.146  48.385   7.633  1.00  0.00     0.000 C 
BRANCH  12  13
ATOM     13  C   UNL     1       1.316  48.786   8.868  1.00  0.00    -0.000 C 
BRANCH  13  14
ATOM     14  C   UNL     1      -0.172  48.383   8.776  1.00  0.00    -0.000 C 
BRANCH  14  15
ATOM     15  C   UNL     1      -0.451  47.412   7.614  1.00  0.00    -0.000 C 
BRANCH  15  16
ATOM     16  C   UNL     1      -0.793  45.989   8.102  1.00  0.00    -0.000 C 
BRANCH  16  17
ATOM     17  C   UNL     1       0.321  44.957   7.846  1.00  0.00    -0.000 C 
BRANCH  17  18
ATOM     18  C   UNL     1       1.028  44.429   9.108  1.00  0.00    -0.000 C 
BRANCH  18  19
ATOM     19  C   UNL     1       0.779  45.255  10.383  1.00  0.00    -0.003 C 
ATOM     20  C   UNL     1       0.291  44.407  11.556  1.00  0.00     0.004 C 
ENDBRANCH  18  19
ENDBRANCH  17  18
ENDBRANCH  16  17
ENDBRANCH  15  16
ENDBRANCH  14  15
ENDBRANCH  13  14
ENDBRANCH  12  13
ENDBRANCH   1  12
TORSDOF 16
ENDMDL
MODEL 4
REMARK VINA RESULT:    -5.050      0.937      3.374
REMARK INTER + INTRA:         -11.947
REMARK INTER:                  -9.740
REMARK INTRA:                  -2.207
REMARK UNBOUND:                -2.173
REMARK SMILES CCCCCCCCCCCCCCCCCC(=O)[O-]
REMARK SMILES IDX 10 1 11 2 12 3 13 4 14 5 15 6 16 7 17 8 18 9 19 10 20 11
REMARK SMILES IDX 9 12 8 13 7 14 6 15 5 16 4 17 3 18 2 19 1 20
REMARK H PARENT
REMARK Flexibility Score: inf
ROOT
ATOM      1  C   UNL     1       0.225  45.197   8.006  1.00  0.00     0.000 C 
ENDROOT
BRANCH   1   2
ATOM      2  C   UNL     1       0.166  45.270   9.543  1.00  0.00     0.000 C 
BRANCH   2   3
ATOM      3  C   UNL     1       1.322  44.513  10.219  1.00  0.00     0.000 C 
BRANCH   3   4
ATOM      4  C   UNL     1       2.090  43.613   9.238  1.00  0.00     0.000 C 
BRANCH   4   5
ATOM      5  C   UNL     1       3.422  43.111   9.816  1.00  0.00     0.000 C 
BRANCH   5   6
ATOM      6  C   UNL     1       3.545  43.472  11.303  1.00  0.00     0.000 C 
BRANCH   6   7
ATOM      7  C   UNL     1       3.932  42.269  12.178  1.00  0.00     0.006 C 
BRANCH   7   8
ATOM      8  C   UNL     1       2.886  41.149  12.146  1.00  0.00     0.053 C 
BRANCH   8   9
ATOM      9  C   UNL     1       3.453  39.892  12.726  1.00  0.00     0.041 C 
ATOM     10  O   UNL     1       2.789  38.822  12.691  1.00  0.00    -0.550 OA
ATOM     11  O   UNL     1       4.697  39.911  13.346  1.00  0.00    -0.550 OA
ENDBRANCH   8   9
ENDBRANCH   7   8
ENDBRANCH   6   7
ENDBRANCH   5   6
ENDBRANCH   4   5
ENDBRANCH   3   4
ENDBRANCH   2   3
ENDBRANCH   1   2
BRANCH   1  12
ATOM     12  C   UNL     1      -0.225  46.479   7.279  1.00  0.00     0.000 C 
BRANCH  12  13
ATOM     13  C   UNL     1      -0.675  47.629   8.201  1.00  0.00    -0.000 C 
BRANCH  13  14
ATOM     14  C   UNL     1       0.101  48.945   7.980  1.00  0.00    -0.000 C 
BRANCH  14  15
ATOM     15  C   UNL     1       1.508  48.913   8.603  1.00  0.00    -0.000 C 
BRANCH  15  16
ATOM     16  C   UNL     1       2.625  48.839   7.541  1.00  0.00    -0.000 C 
BRANCH  16  17
ATOM     17  C   UNL     1       3.657  47.725   7.796  1.00  0.00    -0.000 C 
BRANCH  17  18
ATOM     18  C   UNL     1       3.603  47.090   9.198  1.00  0.00    -0.000 C 
BRANCH  18  19
ATOM     19  C   UNL     1       4.967  46.660   9.767  1.00  0.00    -0.003 C 
ATOM     20  C   UNL     1       6.099  47.611   9.383  1.00  0.00     0.004 C 
ENDBRANCH  18  19
ENDBRANCH  17  18
ENDBRANCH  16  17
ENDBRANCH  15  16
ENDBRANCH  14  15
ENDBRANCH  13  14
ENDBRANCH  12  13
ENDBRANCH   1  12
TORSDOF 16
ENDMDL
MODEL 5
REMARK VINA RESULT:    -5.027      0.983      2.890
REMARK INTER + INTRA:         -11.902
REMARK INTER:                  -9.659
REMARK INTRA:                  -2.243
REMARK UNBOUND:                -2.173
REMARK SMILES CCCCCCCCCCCCCCCCCC(=O)[O-]
REMARK SMILES IDX 10 1 11 2 12 3 13 4 14 5 15 6 16 7 17 8 18 9 19 10 20 11
REMARK SMILES IDX 9 12 8 13 7 14 6 15 5 16 4 17 3 18 2 19 1 20
REMARK H PARENT
REMARK Flexibility Score: inf
ROOT
ATOM      1  C   UNL     1       4.072  43.626   9.300  1.00  0.00     0.000 C 
ENDROOT
BRANCH   1   2
ATOM      2  C   UNL     1       4.012  45.077   9.811  1.00  0.00     0.000 C 
BRANCH   2   3
ATOM      3  C   UNL     1       4.309  45.189  11.316  1.00  0.00     0.000 C 
BRANCH   3   4
ATOM      4  C   UNL     1       3.854  43.948  12.100  1.00  0.00     0.000 C 
BRANCH   4   5
ATOM      5  C   UNL     1       2.375  44.016  12.507  1.00  0.00     0.000 C 
BRANCH   5   6
ATOM      6  C   UNL     1       1.723  42.627  12.438  1.00  0.00     0.000 C 
BRANCH   6   7
ATOM      7  C   UNL     1       2.741  41.502  12.194  1.00  0.00     0.006 C 
BRANCH   7   8
ATOM      8  C   UNL     1       2.381  40.204  12.927  1.00  0.00     0.053 C 
BRANCH   8   9
ATOM      9  C   UNL     1       3.476  39.197  12.769  1.00  0.00     0.041 C 
ATOM     10  O   UNL     1       3.234  38.072  12.258  1.00  0.00    -0.550 OA
ATOM     11  O   UNL     1       4.756  39.484  13.228  1.00  0.00    -0.550 OA
ENDBRANCH   8   9
ENDBRANCH   7   8
ENDBRANCH   6   7
ENDBRANCH   5   6
ENDBRANCH   4   5
ENDBRANCH   3   4
ENDBRANCH   2   3
ENDBRANCH   1   2
BRANCH   1  12
ATOM     12  C   UNL     1       2.749  43.090   8.720  1.00  0.00     0.000 C 
BRANCH  12  13
ATOM     13  C   UNL     1       1.478  43.795   9.230  1.00  0.00    -0.000 C 
BRANCH  13  14
ATOM     14  C   UNL     1       0.627  44.435   8.111  1.00  0.00    -0.000 C 
BRANCH  14  15
ATOM     15  C   UNL     1      -0.057  45.738   8.560  1.00  0.00    -0.000 C 
BRANCH  15  16
ATOM     16  C   UNL     1       0.575  46.329   9.838  1.00  0.00    -0.000 C 
BRANCH  16  17
ATOM     17  C   UNL     1       1.228  47.708   9.631  1.00  0.00    -0.000 C 
BRANCH  17  18
ATOM     18  C   UNL     1       1.058  48.309   8.224  1.00  0.00    -0.000 C 
BRANCH  18  19
ATOM     19  C   UNL     1       2.323  48.968   7.644  1.00  0.00    -0.003 C 
ATOM     20  C   UNL     1       3.515  48.014   7.580  1.00  0.00     0.004 C 
ENDBRANCH  18  19
ENDBRANCH  17  18
ENDBRANCH  16  17
ENDBRANCH  15  16
ENDBRANCH  14  15
ENDBRANCH  13  14
ENDBRANCH  12  13
ENDBRANCH   1  12
TORSDOF 16
ENDMDL
MODEL 6
REMARK VINA RESULT:    -4.926      2.533      5.885
REMARK INTER + INTRA:         -11.707
REMARK INTER:                  -9.797
REMARK INTRA:                  -1.910
REMARK UNBOUND:                -2.173
REMARK SMILES CCCCCCCCCCCCCCCCCC(=O)[O-]
REMARK SMILES IDX 10 1 11 2 12 3 13 4 14 5 15 6 16 7 17 8 18 9 19 10 20 11
REMARK SMILES IDX 9 12 8 13 7 14 6 15 5 16 4 17 3 18 2 19 1 20
REMARK H PARENT
REMARK Flexibility Score: inf
ROOT
ATOM      1  C   UNL     1       4.849  47.758   8.548  1.00  0.00     0.000 C 
ENDROOT
BRANCH   1   2
ATOM      2  C   UNL     1       3.402  47.450   8.119  1.00  0.00     0.000 C 
BRANCH   2   3
ATOM      3  C   UNL     1       2.690  48.671   7.513  1.00  0.00     0.000 C 
BRANCH   3   4
ATOM      4  C   UNL     1       1.290  48.892   8.107  1.00  0.00     0.000 C 
BRANCH   4   5
ATOM      5  C   UNL     1       1.066  48.097   9.402  1.00  0.00     0.000 C 
BRANCH   5   6
ATOM      6  C   UNL     1      -0.414  47.718   9.564  1.00  0.00     0.000 C 
BRANCH   6   7
ATOM      7  C   UNL     1      -0.663  46.210   9.416  1.00  0.00     0.006 C 
BRANCH   7   8
ATOM      8  C   UNL     1       0.595  45.370   9.671  1.00  0.00     0.053 C 
BRANCH   8   9
ATOM      9  C   UNL     1       0.813  44.406   8.548  1.00  0.00     0.041 C 
ATOM     10  O   UNL     1       0.129  44.496   7.494  1.00  0.00    -0.550 OA
ATOM     11  O   UNL     1       1.740  43.379   8.683  1.00  0.00    -0.550 OA
ENDBRANCH   8   9
ENDBRANCH   7   8
ENDBRANCH   6   7
ENDBRANCH   5   6
ENDBRANCH   4   5
ENDBRANCH   3   4
ENDBRANCH   2   3
ENDBRANCH   1   2
BRANCH   1  12
ATOM     12  C   UNL     1       5.275  47.123   9.886  1.00  0.00     0.000 C 
BRANCH  12  13
ATOM     13  C   UNL     1       4.175  46.324  10.611  1.00  0.00    -0.000 C 
BRANCH  13  14
ATOM     14  C   UNL     1       4.283  44.796  10.415  1.00  0.00    -0.000 C 
BRANCH  14  15
ATOM     15  C   UNL     1       4.111  44.018  11.732  1.00  0.00    -0.000 C 
BRANCH  15  16
ATOM     16  C   UNL     1       2.635  43.915  12.170  1.00  0.00    -0.000 C 
BRANCH  16  17
ATOM     17  C   UNL     1       2.111  42.469  12.263  1.00  0.00    -0.000 C 
BRANCH  17  18
ATOM     18  C   UNL     1       3.076  41.388  11.742  1.00  0.00    -0.000 C 
BRANCH  18  19
ATOM     19  C   UNL     1       3.333  40.226  12.718  1.00  0.00    -0.003 C 
ATOM     20  C   UNL     1       4.801  40.106  13.128  1.00  0.00     0.004 C 
ENDBRANCH  18  19
ENDBRANCH  17  18
ENDBRANCH  16  17
ENDBRANCH  15  16
ENDBRANCH  14  15
ENDBRANCH  13  14
ENDBRANCH  12  13
ENDBRANCH   1  12
TORSDOF 16
ENDMDL
MODEL 7
REMARK VINA RESULT:    -4.918      3.357      6.988
REMARK INTER + INTRA:         -11.690
REMARK INTER:                  -9.837
REMARK INTRA:                  -1.853
REMARK UNBOUND:                -2.173
REMARK SMILES CCCCCCCCCCCCCCCCCC(=O)[O-]
REMARK SMILES IDX 10 1 11 2 12 3 13 4 14 5 15 6 16 7 17 8 18 9 19 10 20 11
REMARK SMILES IDX 9 12 8 13 7 14 6 15 5 16 4 17 3 18 2 19 1 20
REMARK H PARENT
REMARK Flexibility Score: inf
ROOT
ATOM      1  C   UNL     1       0.398  44.418   7.750  1.00  0.00     0.000 C 
ENDROOT
BRANCH   1   2
ATOM      2  C   UNL     1      -0.493  45.670   7.859  1.00  0.00     0.000 C 
BRANCH   2   3
ATOM      3  C   UNL     1       0.270  46.970   7.554  1.00  0.00     0.000 C 
BRANCH   3   4
ATOM      4  C   UNL     1       0.522  47.815   8.812  1.00  0.00     0.000 C 
BRANCH   4   5
ATOM      5  C   UNL     1       1.978  47.736   9.295  1.00  0.00     0.000 C 
BRANCH   5   6
ATOM      6  C   UNL     1       2.902  47.240   8.173  1.00  0.00     0.000 C 
BRANCH   6   7
ATOM      7  C   UNL     1       4.276  47.928   8.186  1.00  0.00     0.006 C 
BRANCH   7   8
ATOM      8  C   UNL     1       5.239  47.318   9.211  1.00  0.00     0.053 C 
BRANCH   8   9
ATOM      9  C   UNL     1       6.572  47.992   9.137  1.00  0.00     0.041 C 
ATOM     10  O   UNL     1       6.691  49.101   8.552  1.00  0.00    -0.550 OA
ATOM     11  O   UNL     1       7.695  47.373   9.675  1.00  0.00    -0.550 OA
ENDBRANCH   8   9
ENDBRANCH   7   8
ENDBRANCH   6   7
ENDBRANCH   5   6
ENDBRANCH   4   5
ENDBRANCH   3   4
ENDBRANCH   2   3
ENDBRANCH   1   2
BRANCH   1  12
ATOM     12  C   UNL     1       1.219  44.097   9.014  1.00  0.00     0.000 C 
BRANCH  12  13
ATOM     13  C   UNL     1       2.518  43.306   8.766  1.00  0.00    -0.000 C 
BRANCH  13  14
ATOM     14  C   UNL     1       3.723  43.813   9.587  1.00  0.00    -0.000 C 
BRANCH  14  15
ATOM     15  C   UNL     1       3.297  44.538  10.876  1.00  0.00    -0.000 C 
BRANCH  15  16
ATOM     16  C   UNL     1       3.249  43.596  12.097  1.00  0.00    -0.000 C 
BRANCH  16  17
ATOM     17  C   UNL     1       3.774  42.176  11.812  1.00  0.00    -0.000 C 
BRANCH  17  18
ATOM     18  C   UNL     1       2.869  41.031  12.303  1.00  0.00    -0.000 C 
BRANCH  18  19
ATOM     19  C   UNL     1       3.618  39.820  12.887  1.00  0.00    -0.003 C 
ATOM     20  C   UNL     1       2.965  38.486  12.528  1.00  0.00     0.004 C 
ENDBRANCH  18  19
ENDBRANCH  17  18
ENDBRANCH  16  17
ENDBRANCH  15  16
ENDBRANCH  14  15
ENDBRANCH  13  14
ENDBRANCH  12  13
ENDBRANCH   1  12
TORSDOF 16
ENDMDL
MODEL 8
REMARK VINA RESULT:    -4.816      2.871      7.078
REMARK INTER + INTRA:         -11.493
REMARK INTER:                  -9.689
REMARK INTRA:                  -1.804
REMARK UNBOUND:                -2.173
REMARK SMILES CCCCCCCCCCCCCCCCCC(=O)[O-]
REMARK SMILES IDX 10 1 11 2 12 3 13 4 14 5 15 6 16 7 17 8 18 9 19 10 20 11
REMARK SMILES IDX 9 12 8 13 7 14 6 15 5 16 4 17 3 18 2 19 1 20
REMARK H PARENT
REMARK Flexibility Score: inf
ROOT
ATOM      1  C   UNL     1       0.081  45.449   7.962  1.00  0.00     0.000 C 
ENDROOT
BRANCH   1   2
ATOM      2  C   UNL     1      -0.104  46.774   7.199  1.00  0.00     0.000 C 
BRANCH   2   3
ATOM      3  C   UNL     1      -0.652  47.902   8.091  1.00  0.00     0.000 C 
BRANCH   3   4
ATOM      4  C   UNL     1       0.109  49.223   7.904  1.00  0.00     0.000 C 
BRANCH   4   5
ATOM      5  C   UNL     1       1.539  49.166   8.463  1.00  0.00     0.000 C 
BRANCH   5   6
ATOM      6  C   UNL     1       2.573  49.392   7.350  1.00  0.00     0.000 C 
BRANCH   6   7
ATOM      7  C   UNL     1       3.699  48.347   7.361  1.00  0.00     0.006 C 
BRANCH   7   8
ATOM      8  C   UNL     1       3.472  47.238   8.396  1.00  0.00     0.053 C 
BRANCH   8   9
ATOM      9  C   UNL     1       4.669  47.103   9.283  1.00  0.00     0.041 C 
ATOM     10  O   UNL     1       5.812  47.416   8.858  1.00  0.00    -0.550 OA
ATOM     11  O   UNL     1       4.528  46.588  10.567  1.00  0.00    -0.550 OA
ENDBRANCH   8   9
ENDBRANCH   7   8
ENDBRANCH   6   7
ENDBRANCH   5   6
ENDBRANCH   4   5
ENDBRANCH   3   4
ENDBRANCH   2   3
ENDBRANCH   1   2
BRANCH   1  12
ATOM     12  C   UNL     1       0.305  45.602   9.479  1.00  0.00     0.000 C 
BRANCH  12  13
ATOM     13  C   UNL     1       1.436  44.735  10.064  1.00  0.00    -0.000 C 
BRANCH  13  14
ATOM     14  C   UNL     1       1.946  43.642   9.100  1.00  0.00    -0.000 C 
BRANCH  14  15
ATOM     15  C   UNL     1       2.924  42.666   9.777  1.00  0.00    -0.000 C 
BRANCH  15  16
ATOM     16  C   UNL     1       3.213  43.041  11.246  1.00  0.00    -0.000 C 
BRANCH  16  17
ATOM     17  C   UNL     1       3.808  41.890  12.079  1.00  0.00    -0.000 C 
BRANCH  17  18
ATOM     18  C   UNL     1       2.826  40.755  12.422  1.00  0.00    -0.000 C 
BRANCH  18  19
ATOM     19  C   UNL     1       3.483  39.470  12.958  1.00  0.00    -0.003 C 
ATOM     20  C   UNL     1       4.912  39.693  13.453  1.00  0.00     0.004 C 
ENDBRANCH  18  19
ENDBRANCH  17  18
ENDBRANCH  16  17
ENDBRANCH  15  16
ENDBRANCH  14  15
ENDBRANCH  13  14
ENDBRANCH  12  13
ENDBRANCH   1  12
TORSDOF 16
ENDMDL
MODEL 9
REMARK VINA RESULT:    -4.782      1.076      1.991
REMARK INTER + INTRA:         -11.427
REMARK INTER:                  -9.442
REMARK INTRA:                  -1.985
REMARK UNBOUND:                -2.173
REMARK SMILES CCCCCCCCCCCCCCCCCC(=O)[O-]
REMARK SMILES IDX 10 1 11 2 12 3 13 4 14 5 15 6 16 7 17 8 18 9 19 10 20 11
REMARK SMILES IDX 9 12 8 13 7 14 6 15 5 16 4 17 3 18 2 19 1 20
REMARK H PARENT
REMARK Flexibility Score: inf
ROOT
ATOM      1  C   UNL     1       4.351  44.959  10.170  1.00  0.00     0.000 C 
ENDROOT
BRANCH   1   2
ATOM      2  C   UNL     1       3.806  43.885   9.210  1.00  0.00     0.000 C 
BRANCH   2   3
ATOM      3  C   UNL     1       2.276  43.750   9.277  1.00  0.00     0.000 C 
BRANCH   3   4
ATOM      4  C   UNL     1       1.652  44.636  10.366  1.00  0.00     0.000 C 
BRANCH   4   5
ATOM      5  C   UNL     1       1.066  43.820  11.528  1.00  0.00     0.000 C 
BRANCH   5   6
ATOM      6  C   UNL     1       2.182  43.229  12.401  1.00  0.00     0.000 C 
BRANCH   6   7
ATOM      7  C   UNL     1       2.399  41.728  12.155  1.00  0.00     0.006 C 
BRANCH   7   8
ATOM      8  C   UNL     1       3.868  41.309  12.286  1.00  0.00     0.053 C 
BRANCH   8   9
ATOM      9  C   UNL     1       3.969  39.953  12.908  1.00  0.00     0.041 C 
ATOM     10  O   UNL     1       4.990  39.635  13.574  1.00  0.00    -0.550 OA
ATOM     11  O   UNL     1       2.955  39.022  12.716  1.00  0.00    -0.550 OA
ENDBRANCH   8   9
ENDBRANCH   7   8
ENDBRANCH   6   7
ENDBRANCH   5   6
ENDBRANCH   4   5
ENDBRANCH   3   4
ENDBRANCH   2   3
ENDBRANCH   1   2
BRANCH   1  12
ATOM     12  C   UNL     1       4.854  46.244   9.484  1.00  0.00     0.000 C 
BRANCH  12  13
ATOM     13  C   UNL     1       3.810  47.369   9.356  1.00  0.00    -0.000 C 
BRANCH  13  14
ATOM     14  C   UNL     1       3.371  47.650   7.902  1.00  0.00    -0.000 C 
BRANCH  14  15
ATOM     15  C   UNL     1       2.289  48.741   7.812  1.00  0.00    -0.000 C 
BRANCH  15  16
ATOM     16  C   UNL     1       1.353  48.750   9.038  1.00  0.00    -0.000 C 
BRANCH  16  17
ATOM     17  C   UNL     1       0.222  47.707   8.968  1.00  0.00    -0.000 C 
BRANCH  17  18
ATOM     18  C   UNL     1      -0.469  47.581   7.598  1.00  0.00    -0.000 C 
BRANCH  18  19
ATOM     19  C   UNL     1      -0.055  46.347   6.775  1.00  0.00    -0.003 C 
ATOM     20  C   UNL     1      -0.620  45.042   7.333  1.00  0.00     0.004 C 
ENDBRANCH  18  19
ENDBRANCH  17  18
ENDBRANCH  16  17
ENDBRANCH  15  16
ENDBRANCH  14  15
ENDBRANCH  13  14
ENDBRANCH  12  13
ENDBRANCH   1  12
TORSDOF 16
ENDMDL
