MODEL 1
REMARK VINA RESULT:    -3.255      0.000      0.000
REMARK INTER + INTRA:          -8.126
REMARK INTER:                  -6.300
REMARK INTRA:                  -1.826
REMARK UNBOUND:                -1.826
REMARK SMILES CCCCCCCCCCCCCCCCCC(=O)[O-]
REMARK SMILES IDX 10 1 11 2 12 3 13 4 14 5 15 6 16 7 17 8 18 9 19 10 20 11
REMARK SMILES IDX 9 12 8 13 7 14 6 15 5 16 4 17 3 18 2 19 1 20
REMARK H PARENT
REMARK Flexibility Score: inf
ROOT
ATOM      1  C   UNL     1     -13.554 -13.825  23.498  1.00  0.00     0.000 C 
ENDROOT
BRANCH   1   2
ATOM      2  C   UNL     1     -14.366 -14.375  24.680  1.00  0.00     0.000 C 
BRANCH   2   3
ATOM      3  C   UNL     1     -14.976 -15.755  24.389  1.00  0.00     0.000 C 
BRANCH   3   4
ATOM      4  C   UNL     1     -14.037 -16.909  24.785  1.00  0.00     0.000 C 
BRANCH   4   5
ATOM      5  C   UNL     1     -14.143 -18.115  23.837  1.00  0.00     0.000 C 
BRANCH   5   6
ATOM      6  C   UNL     1     -15.037 -17.834  22.616  1.00  0.00     0.000 C 
BRANCH   6   7
ATOM      7  C   UNL     1     -14.229 -17.391  21.386  1.00  0.00     0.006 C 
BRANCH   7   8
ATOM      8  C   UNL     1     -15.115 -16.793  20.283  1.00  0.00     0.053 C 
BRANCH   8   9
ATOM      9  C   UNL     1     -14.270 -16.223  19.187  1.00  0.00     0.041 C 
ATOM     10  O   UNL     1     -14.760 -15.392  18.378  1.00  0.00    -0.550 OA
ATOM     11  O   UNL     1     -12.958 -16.649  19.028  1.00  0.00    -0.550 OA
ENDBRANCH   8   9
ENDBRANCH   7   8
ENDBRANCH   6   7
ENDBRANCH   5   6
ENDBRANCH   4   5
ENDBRANCH   3   4
ENDBRANCH   2   3
ENDBRANCH   1   2
BRANCH   1  12
ATOM     12  C   UNL     1     -14.465 -13.529  22.297  1.00  0.00     0.000 C 
BRANCH  12  13
ATOM     13  C   UNL     1     -14.955 -12.070  22.255  1.00  0.00    -0.000 C 
BRANCH  13  14
ATOM     14  C   UNL     1     -15.114 -11.472  20.846  1.00  0.00    -0.000 C 
BRANCH  14  15
ATOM     15  C   UNL     1     -14.882 -12.501  19.726  1.00  0.00    -0.000 C 
BRANCH  15  16
ATOM     16  C   UNL     1     -14.447 -11.846  18.405  1.00  0.00    -0.000 C 
BRANCH  16  17
ATOM     17  C   UNL     1     -12.953 -11.489  18.383  1.00  0.00    -0.000 C 
BRANCH  17  18
ATOM     18  C   UNL     1     -12.145 -12.562  17.638  1.00  0.00    -0.000 C 
BRANCH  18  19
ATOM     19  C   UNL     1     -11.382 -13.496  18.592  1.00  0.00    -0.003 C 
ATOM     20  C   UNL     1     -11.156 -12.875  19.972  1.00  0.00     0.004 C 
ENDBRANCH  18  19
ENDBRANCH  17  18
ENDBRANCH  16  17
ENDBRANCH  15  16
ENDBRANCH  14  15
ENDBRANCH  13  14
ENDBRANCH  12  13
ENDBRANCH   1  12
TORSDOF 16
ENDMDL
MODEL 2
REMARK VINA RESULT:    -2.422      2.138      3.532
REMARK INTER + INTRA:          -6.515
REMARK INTER:                  -6.223
REMARK INTRA:                  -0.291
REMARK UNBOUND:                -1.826
REMARK SMILES CCCCCCCCCCCCCCCCCC(=O)[O-]
REMARK SMILES IDX 10 1 11 2 12 3 13 4 14 5 15 6 16 7 17 8 18 9 19 10 20 11
REMARK SMILES IDX 9 12 8 13 7 14 6 15 5 16 4 17 3 18 2 19 1 20
REMARK H PARENT
REMARK Flexibility Score: inf
ROOT
ATOM      1  C   UNL     1     -14.670 -14.489  19.277  1.00  0.00     0.000 C 
ENDROOT
BRANCH   1   2
ATOM      2  C   UNL     1     -15.080 -15.970  19.272  1.00  0.00     0.000 C 
BRANCH   2   3
ATOM      3  C   UNL     1     -13.872 -16.918  19.347  1.00  0.00     0.000 C 
BRANCH   3   4
ATOM      4  C   UNL     1     -13.776 -17.640  20.702  1.00  0.00     0.000 C 
BRANCH   4   5
ATOM      5  C   UNL     1     -15.087 -17.581  21.503  1.00  0.00     0.000 C 
BRANCH   5   6
ATOM      6  C   UNL     1     -14.933 -18.124  22.935  1.00  0.00     0.000 C 
BRANCH   6   7
ATOM      7  C   UNL     1     -14.471 -17.044  23.927  1.00  0.00     0.006 C 
BRANCH   7   8
ATOM      8  C   UNL     1     -13.651 -15.936  23.252  1.00  0.00     0.053 C 
BRANCH   8   9
ATOM      9  C   UNL     1     -13.834 -14.638  23.973  1.00  0.00     0.041 C 
ATOM     10  O   UNL     1     -14.342 -14.620  25.125  1.00  0.00    -0.550 OA
ATOM     11  O   UNL     1     -13.491 -13.443  23.352  1.00  0.00    -0.550 OA
ENDBRANCH   8   9
ENDBRANCH   7   8
ENDBRANCH   6   7
ENDBRANCH   5   6
ENDBRANCH   4   5
ENDBRANCH   3   4
ENDBRANCH   2   3
ENDBRANCH   1   2
BRANCH   1  12
ATOM     12  C   UNL     1     -15.121 -13.799  20.573  1.00  0.00     0.000 C 
BRANCH  12  13
ATOM     13  C   UNL     1     -14.924 -12.272  20.544  1.00  0.00    -0.000 C 
BRANCH  13  14
ATOM     14  C   UNL     1     -14.898 -11.641  19.140  1.00  0.00    -0.000 C 
BRANCH  14  15
ATOM     15  C   UNL     1     -13.829 -12.259  18.223  1.00  0.00    -0.000 C 
BRANCH  15  16
ATOM     16  C   UNL     1     -12.636 -11.317  17.989  1.00  0.00    -0.000 C 
BRANCH  16  17
ATOM     17  C   UNL     1     -11.419 -12.039  17.391  1.00  0.00    -0.000 C 
BRANCH  17  18
ATOM     18  C   UNL     1     -10.997 -13.224  18.275  1.00  0.00    -0.000 C 
BRANCH  18  19
ATOM     19  C   UNL     1     -10.911 -12.849  19.763  1.00  0.00    -0.003 C 
ATOM     20  C   UNL     1     -11.624 -13.854  20.668  1.00  0.00     0.004 C 
ENDBRANCH  18  19
ENDBRANCH  17  18
ENDBRANCH  16  17
ENDBRANCH  15  16
ENDBRANCH  14  15
ENDBRANCH  13  14
ENDBRANCH  12  13
ENDBRANCH   1  12
TORSDOF 16
ENDMDL
MODEL 3
REMARK VINA RESULT:    -2.420      1.979      4.048
REMARK INTER + INTRA:          -6.511
REMARK INTER:                  -5.341
REMARK INTRA:                  -1.170
REMARK UNBOUND:                -1.826
REMARK SMILES CCCCCCCCCCCCCCCCCC(=O)[O-]
REMARK SMILES IDX 10 1 11 2 12 3 13 4 14 5 15 6 16 7 17 8 18 9 19 10 20 11
REMARK SMILES IDX 9 12 8 13 7 14 6 15 5 16 4 17 3 18 2 19 1 20
REMARK H PARENT
REMARK Flexibility Score: inf
ROOT
ATOM      1  C   UNL     1     -12.825 -15.010  19.384  1.00  0.00     0.000 C 
ENDROOT
BRANCH   1   2
ATOM      2  C   UNL     1     -14.345 -15.226  19.429  1.00  0.00     0.000 C 
BRANCH   2   3
ATOM      3  C   UNL     1     -14.812 -15.879  20.740  1.00  0.00     0.000 C 
BRANCH   3   4
ATOM      4  C   UNL     1     -13.901 -17.041  21.174  1.00  0.00     0.000 C 
BRANCH   4   5
ATOM      5  C   UNL     1     -14.641 -18.096  22.013  1.00  0.00     0.000 C 
BRANCH   5   6
ATOM      6  C   UNL     1     -14.369 -17.952  23.521  1.00  0.00     0.000 C 
BRANCH   6   7
ATOM      7  C   UNL     1     -15.110 -16.755  24.140  1.00  0.00     0.006 C 
BRANCH   7   8
ATOM      8  C   UNL     1     -14.160 -15.774  24.841  1.00  0.00     0.053 C 
BRANCH   8   9
ATOM      9  C   UNL     1     -14.030 -14.514  24.043  1.00  0.00     0.041 C 
ATOM     10  O   UNL     1     -12.917 -14.190  23.550  1.00  0.00    -0.550 OA
ATOM     11  O   UNL     1     -15.124 -13.673  23.887  1.00  0.00    -0.550 OA
ENDBRANCH   8   9
ENDBRANCH   7   8
ENDBRANCH   6   7
ENDBRANCH   5   6
ENDBRANCH   4   5
ENDBRANCH   3   4
ENDBRANCH   2   3
ENDBRANCH   1   2
BRANCH   1  12
ATOM     12  C   UNL     1     -12.392 -13.942  20.400  1.00  0.00     0.000 C 
BRANCH  12  13
ATOM     13  C   UNL     1     -11.205 -13.091  19.912  1.00  0.00    -0.000 C 
BRANCH  13  14
ATOM     14  C   UNL     1     -11.130 -12.884  18.388  1.00  0.00    -0.000 C 
BRANCH  14  15
ATOM     15  C   UNL     1     -11.335 -11.418  17.969  1.00  0.00    -0.000 C 
BRANCH  15  16
ATOM     16  C   UNL     1     -12.813 -11.078  17.719  1.00  0.00    -0.000 C 
BRANCH  16  17
ATOM     17  C   UNL     1     -13.742 -12.285  17.920  1.00  0.00    -0.000 C 
BRANCH  17  18
ATOM     18  C   UNL     1     -15.115 -11.837  18.444  1.00  0.00    -0.000 C 
BRANCH  18  19
ATOM     19  C   UNL     1     -15.020 -11.081  19.779  1.00  0.00    -0.003 C 
ATOM     20  C   UNL     1     -15.107 -12.009  20.992  1.00  0.00     0.004 C 
ENDBRANCH  18  19
ENDBRANCH  17  18
ENDBRANCH  16  17
ENDBRANCH  15  16
ENDBRANCH  14  15
ENDBRANCH  13  14
ENDBRANCH  12  13
ENDBRANCH   1  12
TORSDOF 16
ENDMDL
MODEL 4
REMARK VINA RESULT:    -2.370      1.984      3.965
REMARK INTER + INTRA:          -6.414
REMARK INTER:                  -5.823
REMARK INTRA:                  -0.591
REMARK UNBOUND:                -1.826
REMARK SMILES CCCCCCCCCCCCCCCCCC(=O)[O-]
REMARK SMILES IDX 10 1 11 2 12 3 13 4 14 5 15 6 16 7 17 8 18 9 19 10 20 11
REMARK SMILES IDX 9 12 8 13 7 14 6 15 5 16 4 17 3 18 2 19 1 20
REMARK H PARENT
REMARK Flexibility Score: inf
ROOT
ATOM      1  C   UNL     1     -14.517 -12.181  19.557  1.00  0.00     0.000 C 
ENDROOT
BRANCH   1   2
ATOM      2  C   UNL     1     -15.093 -12.929  18.346  1.00  0.00     0.000 C 
BRANCH   2   3
ATOM      3  C   UNL     1     -15.120 -14.453  18.550  1.00  0.00     0.000 C 
BRANCH   3   4
ATOM      4  C   UNL     1     -13.727 -15.029  18.861  1.00  0.00     0.000 C 
BRANCH   4   5
ATOM      5  C   UNL     1     -13.761 -16.111  19.953  1.00  0.00     0.000 C 
BRANCH   5   6
ATOM      6  C   UNL     1     -14.587 -17.343  19.542  1.00  0.00     0.000 C 
BRANCH   6   7
ATOM      7  C   UNL     1     -15.119 -18.125  20.754  1.00  0.00     0.006 C 
BRANCH   7   8
ATOM      8  C   UNL     1     -14.145 -18.105  21.941  1.00  0.00     0.053 C 
BRANCH   8   9
ATOM      9  C   UNL     1     -14.651 -17.194  23.015  1.00  0.00     0.041 C 
ATOM     10  O   UNL     1     -15.090 -16.050  22.722  1.00  0.00    -0.550 OA
ATOM     11  O   UNL     1     -14.591 -17.587  24.346  1.00  0.00    -0.550 OA
ENDBRANCH   8   9
ENDBRANCH   7   8
ENDBRANCH   6   7
ENDBRANCH   5   6
ENDBRANCH   4   5
ENDBRANCH   3   4
ENDBRANCH   2   3
ENDBRANCH   1   2
BRANCH   1  12
ATOM     12  C   UNL     1     -15.122 -12.707  20.868  1.00  0.00     0.000 C 
BRANCH  12  13
ATOM     13  C   UNL     1     -14.217 -12.466  22.090  1.00  0.00    -0.000 C 
BRANCH  13  14
ATOM     14  C   UNL     1     -13.577 -13.731  22.691  1.00  0.00    -0.000 C 
BRANCH  14  15
ATOM     15  C   UNL     1     -12.208 -14.064  22.074  1.00  0.00    -0.000 C 
BRANCH  15  16
ATOM     16  C   UNL     1     -11.667 -12.926  21.192  1.00  0.00    -0.000 C 
BRANCH  16  17
ATOM     17  C   UNL     1     -11.354 -13.384  19.759  1.00  0.00    -0.000 C 
BRANCH  17  18
ATOM     18  C   UNL     1     -10.877 -12.203  18.900  1.00  0.00    -0.000 C 
BRANCH  18  19
ATOM     19  C   UNL     1     -11.634 -12.100  17.566  1.00  0.00    -0.003 C 
ATOM     20  C   UNL     1     -11.671 -10.674  17.015  1.00  0.00     0.004 C 
ENDBRANCH  18  19
ENDBRANCH  17  18
ENDBRANCH  16  17
ENDBRANCH  15  16
ENDBRANCH  14  15
ENDBRANCH  13  14
ENDBRANCH  12  13
ENDBRANCH   1  12
TORSDOF 16
ENDMDL
MODEL 5
REMARK VINA RESULT:    -2.285      1.684      6.275
REMARK INTER + INTRA:          -6.249
REMARK INTER:                  -5.463
REMARK INTRA:                  -0.786
REMARK UNBOUND:                -1.826
REMARK SMILES CCCCCCCCCCCCCCCCCC(=O)[O-]
REMARK SMILES IDX 10 1 11 2 12 3 13 4 14 5 15 6 16 7 17 8 18 9 19 10 20 11
REMARK SMILES IDX 9 12 8 13 7 14 6 15 5 16 4 17 3 18 2 19 1 20
REMARK H PARENT
REMARK Flexibility Score: inf
ROOT
ATOM      1  C   UNL     1     -13.801 -15.050  18.714  1.00  0.00     0.000 C 
ENDROOT
BRANCH   1   2
ATOM      2  C   UNL     1     -15.118 -14.305  18.976  1.00  0.00     0.000 C 
BRANCH   2   3
ATOM      3  C   UNL     1     -14.975 -13.209  20.044  1.00  0.00     0.000 C 
BRANCH   3   4
ATOM      4  C   UNL     1     -14.386 -11.906  19.473  1.00  0.00     0.000 C 
BRANCH   4   5
ATOM      5  C   UNL     1     -13.843 -12.074  18.045  1.00  0.00     0.000 C 
BRANCH   5   6
ATOM      6  C   UNL     1     -12.692 -11.102  17.729  1.00  0.00     0.000 C 
BRANCH   6   7
ATOM      7  C   UNL     1     -11.418 -11.829  17.270  1.00  0.00     0.006 C 
BRANCH   7   8
ATOM      8  C   UNL     1     -11.224 -13.179  17.976  1.00  0.00     0.053 C 
BRANCH   8   9
ATOM      9  C   UNL     1     -10.968 -12.972  19.435  1.00  0.00     0.041 C 
ATOM     10  O   UNL     1     -10.174 -12.073  19.818  1.00  0.00    -0.550 OA
ATOM     11  O   UNL     1     -11.567 -13.806  20.371  1.00  0.00    -0.550 OA
ENDBRANCH   8   9
ENDBRANCH   7   8
ENDBRANCH   6   7
ENDBRANCH   5   6
ENDBRANCH   4   5
ENDBRANCH   3   4
ENDBRANCH   2   3
ENDBRANCH   1   2
BRANCH   1  12
ATOM     12  C   UNL     1     -13.918 -16.530  19.109  1.00  0.00     0.000 C 
BRANCH  12  13
ATOM     13  C   UNL     1     -14.103 -16.738  20.623  1.00  0.00    -0.000 C 
BRANCH  13  14
ATOM     14  C   UNL     1     -14.806 -18.049  21.024  1.00  0.00    -0.000 C 
BRANCH  14  15
ATOM     15  C   UNL     1     -15.124 -18.125  22.526  1.00  0.00    -0.000 C 
BRANCH  15  16
ATOM     16  C   UNL     1     -14.039 -17.466  23.393  1.00  0.00    -0.000 C 
BRANCH  16  17
ATOM     17  C   UNL     1     -14.624 -16.627  24.540  1.00  0.00    -0.000 C 
BRANCH  17  18
ATOM     18  C   UNL     1     -14.591 -15.131  24.195  1.00  0.00    -0.000 C 
BRANCH  18  19
ATOM     19  C   UNL     1     -13.376 -14.750  23.333  1.00  0.00    -0.003 C 
ATOM     20  C   UNL     1     -13.221 -13.238  23.164  1.00  0.00     0.004 C 
ENDBRANCH  18  19
ENDBRANCH  17  18
ENDBRANCH  16  17
ENDBRANCH  15  16
ENDBRANCH  14  15
ENDBRANCH  13  14
ENDBRANCH  12  13
ENDBRANCH   1  12
TORSDOF 16
ENDMDL
MODEL 6
REMARK VINA RESULT:    -2.164      1.917      4.228
REMARK INTER + INTRA:          -6.014
REMARK INTER:                  -5.228
REMARK INTRA:                  -0.787
REMARK UNBOUND:                -1.826
REMARK SMILES CCCCCCCCCCCCCCCCCC(=O)[O-]
REMARK SMILES IDX 10 1 11 2 12 3 13 4 14 5 15 6 16 7 17 8 18 9 19 10 20 11
REMARK SMILES IDX 9 12 8 13 7 14 6 15 5 16 4 17 3 18 2 19 1 20
REMARK H PARENT
REMARK Flexibility Score: inf
ROOT
ATOM      1  C   UNL     1     -11.433 -13.942  19.977  1.00  0.00     0.000 C 
ENDROOT
BRANCH   1   2
ATOM      2  C   UNL     1     -12.174 -14.747  18.898  1.00  0.00     0.000 C 
BRANCH   2   3
ATOM      3  C   UNL     1     -12.525 -16.171  19.359  1.00  0.00     0.000 C 
BRANCH   3   4
ATOM      4  C   UNL     1     -14.035 -16.458  19.285  1.00  0.00     0.000 C 
BRANCH   4   5
ATOM      5  C   UNL     1     -14.378 -17.926  19.584  1.00  0.00     0.000 C 
BRANCH   5   6
ATOM      6  C   UNL     1     -15.086 -18.106  20.939  1.00  0.00     0.000 C 
BRANCH   6   7
ATOM      7  C   UNL     1     -14.263 -17.545  22.111  1.00  0.00     0.006 C 
BRANCH   7   8
ATOM      8  C   UNL     1     -15.083 -16.611  23.012  1.00  0.00     0.053 C 
BRANCH   8   9
ATOM      9  C   UNL     1     -14.240 -15.467  23.482  1.00  0.00     0.041 C 
ATOM     10  O   UNL     1     -14.662 -14.699  24.386  1.00  0.00    -0.550 OA
ATOM     11  O   UNL     1     -13.010 -15.219  22.886  1.00  0.00    -0.550 OA
ENDBRANCH   8   9
ENDBRANCH   7   8
ENDBRANCH   6   7
ENDBRANCH   5   6
ENDBRANCH   4   5
ENDBRANCH   3   4
ENDBRANCH   2   3
ENDBRANCH   1   2
BRANCH   1  12
ATOM     12  C   UNL     1     -11.127 -12.519  19.486  1.00  0.00     0.000 C 
BRANCH  12  13
ATOM     13  C   UNL     1     -11.260 -12.364  17.960  1.00  0.00    -0.000 C 
BRANCH  13  14
ATOM     14  C   UNL     1     -12.570 -11.716  17.479  1.00  0.00    -0.000 C 
BRANCH  14  15
ATOM     15  C   UNL     1     -13.558 -11.434  18.624  1.00  0.00    -0.000 C 
BRANCH  15  16
ATOM     16  C   UNL     1     -14.952 -12.024  18.359  1.00  0.00    -0.000 C 
BRANCH  16  17
ATOM     17  C   UNL     1     -15.117 -13.439  18.936  1.00  0.00    -0.000 C 
BRANCH  17  18
ATOM     18  C   UNL     1     -15.125 -13.405  20.472  1.00  0.00    -0.000 C 
BRANCH  18  19
ATOM     19  C   UNL     1     -14.436 -12.153  21.039  1.00  0.00    -0.003 C 
ATOM     20  C   UNL     1     -14.795 -11.892  22.503  1.00  0.00     0.004 C 
ENDBRANCH  18  19
ENDBRANCH  17  18
ENDBRANCH  16  17
ENDBRANCH  15  16
ENDBRANCH  14  15
ENDBRANCH  13  14
ENDBRANCH  12  13
ENDBRANCH   1  12
TORSDOF 16
ENDMDL
MODEL 7
REMARK VINA RESULT:    -2.082      2.107      3.854
REMARK INTER + INTRA:          -5.855
REMARK INTER:                  -4.869
REMARK INTRA:                  -0.986
REMARK UNBOUND:                -1.826
REMARK SMILES CCCCCCCCCCCCCCCCCC(=O)[O-]
REMARK SMILES IDX 10 1 11 2 12 3 13 4 14 5 15 6 16 7 17 8 18 9 19 10 20 11
REMARK SMILES IDX 9 12 8 13 7 14 6 15 5 16 4 17 3 18 2 19 1 20
REMARK H PARENT
REMARK Flexibility Score: inf
ROOT
ATOM      1  C   UNL     1     -15.091 -15.553  19.628  1.00  0.00     0.000 C 
ENDROOT
BRANCH   1   2
ATOM      2  C   UNL     1     -14.808 -17.000  19.197  1.00  0.00     0.000 C 
BRANCH   2   3
ATOM      3  C   UNL     1     -14.760 -17.973  20.386  1.00  0.00     0.000 C 
BRANCH   3   4
ATOM      4  C   UNL     1     -14.643 -17.244  21.737  1.00  0.00     0.000 C 
BRANCH   4   5
ATOM      5  C   UNL     1     -15.064 -18.124  22.926  1.00  0.00     0.000 C 
BRANCH   5   6
ATOM      6  C   UNL     1     -14.747 -17.476  24.285  1.00  0.00     0.000 C 
BRANCH   6   7
ATOM      7  C   UNL     1     -13.841 -16.241  24.151  1.00  0.00     0.006 C 
BRANCH   7   8
ATOM      8  C   UNL     1     -14.477 -14.976  24.744  1.00  0.00     0.053 C 
BRANCH   8   9
ATOM      9  C   UNL     1     -14.268 -13.809  23.831  1.00  0.00     0.041 C 
ATOM     10  O   UNL     1     -15.121 -13.536  22.946  1.00  0.00    -0.550 OA
ATOM     11  O   UNL     1     -13.105 -13.054  23.924  1.00  0.00    -0.550 OA
ENDBRANCH   8   9
ENDBRANCH   7   8
ENDBRANCH   6   7
ENDBRANCH   5   6
ENDBRANCH   4   5
ENDBRANCH   3   4
ENDBRANCH   2   3
ENDBRANCH   1   2
BRANCH   1  12
ATOM     12  C   UNL     1     -15.077 -14.606  18.418  1.00  0.00     0.000 C 
BRANCH  12  13
ATOM     13  C   UNL     1     -14.783 -13.143  18.800  1.00  0.00    -0.000 C 
BRANCH  13  14
ATOM     14  C   UNL     1     -14.305 -12.927  20.247  1.00  0.00    -0.000 C 
BRANCH  14  15
ATOM     15  C   UNL     1     -12.772 -12.914  20.378  1.00  0.00    -0.000 C 
BRANCH  15  16
ATOM     16  C   UNL     1     -12.107 -14.082  19.632  1.00  0.00    -0.000 C 
BRANCH  16  17
ATOM     17  C   UNL     1     -11.150 -13.611  18.525  1.00  0.00    -0.000 C 
BRANCH  17  18
ATOM     18  C   UNL     1     -11.099 -12.077  18.464  1.00  0.00    -0.000 C 
BRANCH  18  19
ATOM     19  C   UNL     1     -11.786 -11.513  17.209  1.00  0.00    -0.003 C 
ATOM     20  C   UNL     1     -11.499 -10.026  16.996  1.00  0.00     0.004 C 
ENDBRANCH  18  19
ENDBRANCH  17  18
ENDBRANCH  16  17
ENDBRANCH  15  16
ENDBRANCH  14  15
ENDBRANCH  13  14
ENDBRANCH  12  13
ENDBRANCH   1  12
TORSDOF 16
ENDMDL
MODEL 8
REMARK VINA RESULT:    -1.771     19.355     22.602
REMARK INTER + INTRA:          -5.253
REMARK INTER:                  -3.996
REMARK INTRA:                  -1.258
REMARK UNBOUND:                -1.826
REMARK SMILES CCCCCCCCCCCCCCCCCC(=O)[O-]
REMARK SMILES IDX 10 1 11 2 12 3 13 4 14 5 15 6 16 7 17 8 18 9 19 10 20 11
REMARK SMILES IDX 9 12 8 13 7 14 6 15 5 16 4 17 3 18 2 19 1 20
REMARK H PARENT
REMARK Flexibility Score: inf
ROOT
ATOM      1  C   UNL     1       3.549  -2.509  11.032  1.00  0.00     0.000 C 
ENDROOT
BRANCH   1   2
ATOM      2  C   UNL     1       3.489  -3.900  11.680  1.00  0.00     0.000 C 
BRANCH   2   3
ATOM      3  C   UNL     1       4.704  -4.189  12.575  1.00  0.00     0.000 C 
BRANCH   3   4
ATOM      4  C   UNL     1       4.404  -5.251  13.649  1.00  0.00     0.000 C 
BRANCH   4   5
ATOM      5  C   UNL     1       2.974  -5.806  13.554  1.00  0.00     0.000 C 
BRANCH   5   6
ATOM      6  C   UNL     1       2.347  -6.070  14.935  1.00  0.00     0.000 C 
BRANCH   6   7
ATOM      7  C   UNL     1       1.190  -7.081  14.871  1.00  0.00     0.006 C 
BRANCH   7   8
ATOM      8  C   UNL     1       0.238  -6.962  16.069  1.00  0.00     0.053 C 
BRANCH   8   9
ATOM      9  C   UNL     1      -1.128  -7.448  15.699  1.00  0.00     0.041 C 
ATOM     10  O   UNL     1      -2.150  -6.831  16.101  1.00  0.00    -0.550 OA
ATOM     11  O   UNL     1      -1.275  -8.611  14.955  1.00  0.00    -0.550 OA
ENDBRANCH   8   9
ENDBRANCH   7   8
ENDBRANCH   6   7
ENDBRANCH   5   6
ENDBRANCH   4   5
ENDBRANCH   3   4
ENDBRANCH   2   3
ENDBRANCH   1   2
BRANCH   1  12
ATOM     12  C   UNL     1       4.970  -2.194  10.539  1.00  0.00     0.000 C 
BRANCH  12  13
ATOM     13  C   UNL     1       5.111  -2.282   9.008  1.00  0.00    -0.000 C 
BRANCH  13  14
ATOM     14  C   UNL     1       4.730  -1.004   8.240  1.00  0.00    -0.000 C 
BRANCH  14  15
ATOM     15  C   UNL     1       5.024   0.283   9.030  1.00  0.00    -0.000 C 
BRANCH  15  16
ATOM     16  C   UNL     1       3.786   1.184   9.172  1.00  0.00    -0.000 C 
BRANCH  16  17
ATOM     17  C   UNL     1       3.666   1.810  10.570  1.00  0.00    -0.000 C 
BRANCH  17  18
ATOM     18  C   UNL     1       4.973   1.642  11.359  1.00  0.00    -0.000 C 
BRANCH  18  19
ATOM     19  C   UNL     1       4.822   0.689  12.556  1.00  0.00    -0.003 C 
ATOM     20  C   UNL     1       4.551   1.427  13.868  1.00  0.00     0.004 C 
ENDBRANCH  18  19
ENDBRANCH  17  18
ENDBRANCH  16  17
ENDBRANCH  15  16
ENDBRANCH  14  15
ENDBRANCH  13  14
ENDBRANCH  12  13
ENDBRANCH   1  12
TORSDOF 16
ENDMDL
MODEL 9
REMARK VINA RESULT:    -1.263     19.730     22.959
REMARK INTER + INTRA:          -4.271
REMARK INTER:                  -4.001
REMARK INTRA:                  -0.270
REMARK UNBOUND:                -1.826
REMARK SMILES CCCCCCCCCCCCCCCCCC(=O)[O-]
REMARK SMILES IDX 10 1 11 2 12 3 13 4 14 5 15 6 16 7 17 8 18 9 19 10 20 11
REMARK SMILES IDX 9 12 8 13 7 14 6 15 5 16 4 17 3 18 2 19 1 20
REMARK H PARENT
REMARK Flexibility Score: inf
ROOT
ATOM      1  C   UNL     1       3.205  -2.438  11.904  1.00  0.00     0.000 C 
ENDROOT
BRANCH   1   2
ATOM      2  C   UNL     1       3.325  -3.631  10.943  1.00  0.00     0.000 C 
BRANCH   2   3
ATOM      3  C   UNL     1       4.392  -4.644  11.388  1.00  0.00     0.000 C 
BRANCH   3   4
ATOM      4  C   UNL     1       4.965  -4.321  12.779  1.00  0.00     0.000 C 
BRANCH   4   5
ATOM      5  C   UNL     1       4.375  -5.210  13.887  1.00  0.00     0.000 C 
BRANCH   5   6
ATOM      6  C   UNL     1       3.039  -5.856  13.480  1.00  0.00     0.000 C 
BRANCH   6   7
ATOM      7  C   UNL     1       2.132  -6.140  14.688  1.00  0.00     0.006 C 
BRANCH   7   8
ATOM      8  C   UNL     1       1.455  -7.515  14.606  1.00  0.00     0.053 C 
BRANCH   8   9
ATOM      9  C   UNL     1       0.231  -7.547  15.466  1.00  0.00     0.041 C 
ATOM     10  O   UNL     1       0.281  -7.136  16.656  1.00  0.00    -0.550 OA
ATOM     11  O   UNL     1      -0.954  -8.076  14.970  1.00  0.00    -0.550 OA
ENDBRANCH   8   9
ENDBRANCH   7   8
ENDBRANCH   6   7
ENDBRANCH   5   6
ENDBRANCH   4   5
ENDBRANCH   3   4
ENDBRANCH   2   3
ENDBRANCH   1   2
BRANCH   1  12
ATOM     12  C   UNL     1       4.185  -1.320  11.517  1.00  0.00     0.000 C 
BRANCH  12  13
ATOM     13  C   UNL     1       5.038  -0.828  12.701  1.00  0.00    -0.000 C 
BRANCH  13  14
ATOM     14  C   UNL     1       4.741   0.607  13.171  1.00  0.00    -0.000 C 
BRANCH  14  15
ATOM     15  C   UNL     1       4.154   1.494  12.060  1.00  0.00    -0.000 C 
BRANCH  15  16
ATOM     16  C   UNL     1       5.092   1.617  10.848  1.00  0.00    -0.000 C 
BRANCH  16  17
ATOM     17  C   UNL     1       4.345   1.976   9.554  1.00  0.00    -0.000 C 
BRANCH  17  18
ATOM     18  C   UNL     1       4.074   0.719   8.712  1.00  0.00    -0.000 C 
BRANCH  18  19
ATOM     19  C   UNL     1       5.123  -0.381   8.940  1.00  0.00    -0.003 C 
ATOM     20  C   UNL     1       5.104  -1.452   7.849  1.00  0.00     0.004 C 
ENDBRANCH  18  19
ENDBRANCH  17  18
ENDBRANCH  16  17
ENDBRANCH  15  16
ENDBRANCH  14  15
ENDBRANCH  13  14
ENDBRANCH  12  13
ENDBRANCH   1  12
TORSDOF 16
ENDMDL
