MODEL 1
REMARK VINA RESULT:    -4.003      0.000      0.000
REMARK INTER + INTRA:          -9.798
REMARK INTER:                  -7.279
REMARK INTRA:                  -2.519
REMARK UNBOUND:                -2.519
REMARK SMILES CCCCCCCCCCCCCC[C@@H](C)C(=O)[O-]
REMARK SMILES IDX 9 1 10 2 11 3 12 4 13 5 14 6 15 7 16 8 17 9 18 10 19 11 8 12
REMARK SMILES IDX 7 13 6 14 5 15 4 16 3 17 2 18 1 19
REMARK H PARENT
REMARK Flexibility Score: inf
ROOT
ATOM      1  C   UNL     1     171.635 172.591 151.047  1.00  0.00     0.000 C 
ENDROOT
BRANCH   1   2
ATOM      2  C   UNL     1     172.355 173.946 150.952  1.00  0.00     0.000 C 
BRANCH   2   3
ATOM      3  C   UNL     1     173.624 173.882 150.087  1.00  0.00     0.000 C 
BRANCH   3   4
ATOM      4  C   UNL     1     174.899 174.195 150.886  1.00  0.00     0.000 C 
BRANCH   4   5
ATOM      5  C   UNL     1     174.607 174.231 152.390  1.00  0.00     0.001 C 
BRANCH   5   6
ATOM      6  C   UNL     1     175.353 173.104 153.124  1.00  0.00     0.009 C 
BRANCH   6   7
ATOM      7  C   UNL     1     174.603 172.638 154.388  1.00  0.00     0.032 C 
ATOM      8  C   UNL     1     173.170 173.180 154.397  1.00  0.00     0.014 C 
BRANCH   7   9
ATOM      9  C   UNL     1     174.577 171.136 154.486  1.00  0.00     0.044 C 
ATOM     10  O   UNL     1     175.644 170.477 154.370  1.00  0.00    -0.550 OA
ATOM     11  O   UNL     1     173.379 170.467 154.706  1.00  0.00    -0.550 OA
ENDBRANCH   7   9
ENDBRANCH   6   7
ENDBRANCH   5   6
ENDBRANCH   4   5
ENDBRANCH   3   4
ENDBRANCH   2   3
ENDBRANCH   1   2
BRANCH   1  12
ATOM     12  C   UNL     1     172.334 171.485 150.239  1.00  0.00     0.000 C 
BRANCH  12  13
ATOM     13  C   UNL     1     173.131 170.492 151.112  1.00  0.00    -0.000 C 
BRANCH  13  14
ATOM     14  C   UNL     1     174.599 170.379 150.674  1.00  0.00    -0.000 C 
BRANCH  14  15
ATOM     15  C   UNL     1     175.205 169.040 151.121  1.00  0.00    -0.000 C 
BRANCH  15  16
ATOM     16  C   UNL     1     174.348 167.833 150.710  1.00  0.00    -0.000 C 
BRANCH  16  17
ATOM     17  C   UNL     1     174.530 167.454 149.232  1.00  0.00    -0.000 C 
BRANCH  17  18
ATOM     18  C   UNL     1     173.197 167.534 148.477  1.00  0.00    -0.003 C 
ATOM     19  C   UNL     1     172.017 167.298 149.415  1.00  0.00     0.004 C 
ENDBRANCH  17  18
ENDBRANCH  16  17
ENDBRANCH  15  16
ENDBRANCH  14  15
ENDBRANCH  13  14
ENDBRANCH  12  13
ENDBRANCH   1  12
TORSDOF 14
ENDMDL
MODEL 2
REMARK VINA RESULT:    -3.949      1.631      5.065
REMARK INTER + INTRA:          -9.700
REMARK INTER:                  -7.326
REMARK INTRA:                  -2.375
REMARK UNBOUND:                -2.519
REMARK SMILES CCCCCCCCCCCCCC[C@@H](C)C(=O)[O-]
REMARK SMILES IDX 9 1 10 2 11 3 12 4 13 5 14 6 15 7 16 8 17 9 18 10 19 11 8 12
REMARK SMILES IDX 7 13 6 14 5 15 4 16 3 17 2 18 1 19
REMARK H PARENT
REMARK Flexibility Score: inf
ROOT
ATOM      1  C   UNL     1     172.333 174.337 150.841  1.00  0.00     0.000 C 
ENDROOT
BRANCH   1   2
ATOM      2  C   UNL     1     171.105 173.460 151.132  1.00  0.00     0.000 C 
BRANCH   2   3
ATOM      3  C   UNL     1     171.480 172.100 151.745  1.00  0.00     0.000 C 
BRANCH   3   4
ATOM      4  C   UNL     1     171.009 170.917 150.887  1.00  0.00     0.000 C 
BRANCH   4   5
ATOM      5  C   UNL     1     172.202 170.169 150.281  1.00  0.00     0.001 C 
BRANCH   5   6
ATOM      6  C   UNL     1     173.460 170.345 151.146  1.00  0.00     0.009 C 
BRANCH   6   7
ATOM      7  C   UNL     1     174.593 169.386 150.729  1.00  0.00     0.032 C 
ATOM      8  C   UNL     1     175.743 170.160 150.076  1.00  0.00     0.014 C 
BRANCH   7   9
ATOM      9  C   UNL     1     175.112 168.606 151.907  1.00  0.00     0.044 C 
ATOM     10  O   UNL     1     175.070 167.347 151.899  1.00  0.00    -0.550 OA
ATOM     11  O   UNL     1     175.641 169.267 153.009  1.00  0.00    -0.550 OA
ENDBRANCH   7   9
ENDBRANCH   6   7
ENDBRANCH   5   6
ENDBRANCH   4   5
ENDBRANCH   3   4
ENDBRANCH   2   3
ENDBRANCH   1   2
BRANCH   1  12
ATOM     12  C   UNL     1     173.281 173.712 149.803  1.00  0.00     0.000 C 
BRANCH  12  13
ATOM     13  C   UNL     1     174.758 173.691 150.251  1.00  0.00    -0.000 C 
BRANCH  13  14
ATOM     14  C   UNL     1     174.951 174.284 151.654  1.00  0.00    -0.000 C 
BRANCH  14  15
ATOM     15  C   UNL     1     175.150 173.174 152.698  1.00  0.00    -0.000 C 
BRANCH  15  16
ATOM     16  C   UNL     1     174.310 173.394 153.966  1.00  0.00    -0.000 C 
BRANCH  16  17
ATOM     17  C   UNL     1     173.899 172.077 154.640  1.00  0.00    -0.000 C 
BRANCH  17  18
ATOM     18  C   UNL     1     174.941 171.646 155.681  1.00  0.00    -0.003 C 
ATOM     19  C   UNL     1     174.456 171.934 157.099  1.00  0.00     0.004 C 
ENDBRANCH  17  18
ENDBRANCH  16  17
ENDBRANCH  15  16
ENDBRANCH  14  15
ENDBRANCH  13  14
ENDBRANCH  12  13
ENDBRANCH   1  12
TORSDOF 14
ENDMDL
MODEL 3
REMARK VINA RESULT:    -3.948      1.788      3.093
REMARK INTER + INTRA:          -9.698
REMARK INTER:                  -7.477
REMARK INTRA:                  -2.220
REMARK UNBOUND:                -2.519
REMARK SMILES CCCCCCCCCCCCCC[C@@H](C)C(=O)[O-]
REMARK SMILES IDX 9 1 10 2 11 3 12 4 13 5 14 6 15 7 16 8 17 9 18 10 19 11 8 12
REMARK SMILES IDX 7 13 6 14 5 15 4 16 3 17 2 18 1 19
REMARK H PARENT
REMARK Flexibility Score: inf
ROOT
ATOM      1  C   UNL     1     175.185 170.863 150.205  1.00  0.00     0.000 C 
ENDROOT
BRANCH   1   2
ATOM      2  C   UNL     1     173.688 171.210 150.243  1.00  0.00     0.000 C 
BRANCH   2   3
ATOM      3  C   UNL     1     173.422 172.710 150.041  1.00  0.00     0.000 C 
BRANCH   3   4
ATOM      4  C   UNL     1     174.664 173.572 150.319  1.00  0.00     0.000 C 
BRANCH   4   5
ATOM      5  C   UNL     1     174.538 174.296 151.665  1.00  0.00     0.001 C 
BRANCH   5   6
ATOM      6  C   UNL     1     175.315 173.555 152.765  1.00  0.00     0.009 C 
BRANCH   6   7
ATOM      7  C   UNL     1     174.395 172.677 153.637  1.00  0.00     0.032 C 
ATOM      8  C   UNL     1     175.176 172.078 154.811  1.00  0.00     0.014 C 
BRANCH   7   9
ATOM      9  C   UNL     1     173.222 173.463 154.157  1.00  0.00     0.044 C 
ATOM     10  O   UNL     1     173.392 174.341 155.044  1.00  0.00    -0.550 OA
ATOM     11  O   UNL     1     171.944 173.227 153.664  1.00  0.00    -0.550 OA
ENDBRANCH   7   9
ENDBRANCH   6   7
ENDBRANCH   5   6
ENDBRANCH   4   5
ENDBRANCH   3   4
ENDBRANCH   2   3
ENDBRANCH   1   2
BRANCH   1  12
ATOM     12  C   UNL     1     175.448 169.389 149.855  1.00  0.00     0.000 C 
BRANCH  12  13
ATOM     13  C   UNL     1     174.160 168.559 149.666  1.00  0.00    -0.000 C 
BRANCH  13  14
ATOM     14  C   UNL     1     174.455 167.114 149.240  1.00  0.00    -0.000 C 
BRANCH  14  15
ATOM     15  C   UNL     1     174.567 166.191 150.463  1.00  0.00    -0.000 C 
BRANCH  15  16
ATOM     16  C   UNL     1     173.820 166.738 151.689  1.00  0.00    -0.000 C 
BRANCH  16  17
ATOM     17  C   UNL     1     174.699 166.778 152.949  1.00  0.00    -0.000 C 
BRANCH  17  18
ATOM     18  C   UNL     1     174.894 168.220 153.435  1.00  0.00    -0.003 C 
ATOM     19  C   UNL     1     173.610 169.030 153.289  1.00  0.00     0.004 C 
ENDBRANCH  17  18
ENDBRANCH  16  17
ENDBRANCH  15  16
ENDBRANCH  14  15
ENDBRANCH  13  14
ENDBRANCH  12  13
ENDBRANCH   1  12
TORSDOF 14
ENDMDL
MODEL 4
REMARK VINA RESULT:    -3.921      1.965      4.075
REMARK INTER + INTRA:          -9.649
REMARK INTER:                  -7.350
REMARK INTRA:                  -2.299
REMARK UNBOUND:                -2.519
REMARK SMILES CCCCCCCCCCCCCC[C@@H](C)C(=O)[O-]
REMARK SMILES IDX 9 1 10 2 11 3 12 4 13 5 14 6 15 7 16 8 17 9 18 10 19 11 8 12
REMARK SMILES IDX 7 13 6 14 5 15 4 16 3 17 2 18 1 19
REMARK H PARENT
REMARK Flexibility Score: inf
ROOT
ATOM      1  C   UNL     1     174.259 168.375 149.603  1.00  0.00     0.000 C 
ENDROOT
BRANCH   1   2
ATOM      2  C   UNL     1     175.510 169.258 149.742  1.00  0.00     0.000 C 
BRANCH   2   3
ATOM      3  C   UNL     1     175.199 170.632 150.357  1.00  0.00     0.000 C 
BRANCH   3   4
ATOM      4  C   UNL     1     173.721 171.024 150.208  1.00  0.00     0.000 C 
BRANCH   4   5
ATOM      5  C   UNL     1     173.573 172.536 149.998  1.00  0.00     0.001 C 
BRANCH   5   6
ATOM      6  C   UNL     1     174.761 173.296 150.610  1.00  0.00     0.009 C 
BRANCH   6   7
ATOM      7  C   UNL     1     174.331 174.202 151.781  1.00  0.00     0.032 C 
ATOM      8  C   UNL     1     172.806 174.196 151.936  1.00  0.00     0.014 C 
BRANCH   7   9
ATOM      9  C   UNL     1     174.973 173.769 153.072  1.00  0.00     0.044 C 
ATOM     10  O   UNL     1     175.094 174.587 154.022  1.00  0.00    -0.550 OA
ATOM     11  O   UNL     1     175.434 172.467 153.226  1.00  0.00    -0.550 OA
ENDBRANCH   7   9
ENDBRANCH   6   7
ENDBRANCH   5   6
ENDBRANCH   4   5
ENDBRANCH   3   4
ENDBRANCH   2   3
ENDBRANCH   1   2
BRANCH   1  12
ATOM     12  C   UNL     1     174.578 166.872 149.671  1.00  0.00     0.000 C 
BRANCH  12  13
ATOM     13  C   UNL     1     173.719 166.105 150.699  1.00  0.00    -0.000 C 
BRANCH  13  14
ATOM     14  C   UNL     1     174.539 165.636 151.910  1.00  0.00    -0.000 C 
BRANCH  14  15
ATOM     15  C   UNL     1     174.292 166.542 153.126  1.00  0.00    -0.000 C 
BRANCH  15  16
ATOM     16  C   UNL     1     175.245 167.747 153.171  1.00  0.00    -0.000 C 
BRANCH  16  17
ATOM     17  C   UNL     1     174.546 169.038 153.621  1.00  0.00    -0.000 C 
BRANCH  17  18
ATOM     18  C   UNL     1     173.124 169.118 153.052  1.00  0.00    -0.003 C 
ATOM     19  C   UNL     1     172.363 170.307 153.632  1.00  0.00     0.004 C 
ENDBRANCH  17  18
ENDBRANCH  16  17
ENDBRANCH  15  16
ENDBRANCH  14  15
ENDBRANCH  13  14
ENDBRANCH  12  13
ENDBRANCH   1  12
TORSDOF 14
ENDMDL
MODEL 5
REMARK VINA RESULT:    -3.907      1.869      5.426
REMARK INTER + INTRA:          -9.623
REMARK INTER:                  -7.613
REMARK INTRA:                  -2.010
REMARK UNBOUND:                -2.519
REMARK SMILES CCCCCCCCCCCCCC[C@@H](C)C(=O)[O-]
REMARK SMILES IDX 9 1 10 2 11 3 12 4 13 5 14 6 15 7 16 8 17 9 18 10 19 11 8 12
REMARK SMILES IDX 7 13 6 14 5 15 4 16 3 17 2 18 1 19
REMARK H PARENT
REMARK Flexibility Score: inf
ROOT
ATOM      1  C   UNL     1     173.772 174.105 151.861  1.00  0.00     0.000 C 
ENDROOT
BRANCH   1   2
ATOM      2  C   UNL     1     173.721 173.868 150.343  1.00  0.00     0.000 C 
BRANCH   2   3
ATOM      3  C   UNL     1     172.939 172.599 149.968  1.00  0.00     0.000 C 
BRANCH   3   4
ATOM      4  C   UNL     1     173.548 171.329 150.582  1.00  0.00     0.000 C 
BRANCH   4   5
ATOM      5  C   UNL     1     175.005 171.151 150.140  1.00  0.00     0.001 C 
BRANCH   5   6
ATOM      6  C   UNL     1     175.535 169.762 150.533  1.00  0.00     0.009 C 
BRANCH   6   7
ATOM      7  C   UNL     1     174.438 168.681 150.467  1.00  0.00     0.032 C 
ATOM      8  C   UNL     1     174.685 167.734 149.288  1.00  0.00     0.014 C 
BRANCH   7   9
ATOM      9  C   UNL     1     174.371 167.890 151.746  1.00  0.00     0.044 C 
ATOM     10  O   UNL     1     175.405 167.736 152.449  1.00  0.00    -0.550 OA
ATOM     11  O   UNL     1     173.171 167.327 152.162  1.00  0.00    -0.550 OA
ENDBRANCH   7   9
ENDBRANCH   6   7
ENDBRANCH   5   6
ENDBRANCH   4   5
ENDBRANCH   3   4
ENDBRANCH   2   3
ENDBRANCH   1   2
BRANCH   1  12
ATOM     12  C   UNL     1     175.208 174.146 152.411  1.00  0.00     0.000 C 
BRANCH  12  13
ATOM     13  C   UNL     1     175.369 173.435 153.772  1.00  0.00    -0.000 C 
BRANCH  13  14
ATOM     14  C   UNL     1     174.217 172.462 154.061  1.00  0.00    -0.000 C 
BRANCH  14  15
ATOM     15  C   UNL     1     174.716 171.009 154.086  1.00  0.00    -0.000 C 
BRANCH  15  16
ATOM     16  C   UNL     1     175.660 170.726 155.265  1.00  0.00    -0.000 C 
BRANCH  16  17
ATOM     17  C   UNL     1     174.905 170.395 156.561  1.00  0.00    -0.000 C 
BRANCH  17  18
ATOM     18  C   UNL     1     175.311 171.349 157.691  1.00  0.00    -0.003 C 
ATOM     19  C   UNL     1     174.347 172.527 157.792  1.00  0.00     0.004 C 
ENDBRANCH  17  18
ENDBRANCH  16  17
ENDBRANCH  15  16
ENDBRANCH  14  15
ENDBRANCH  13  14
ENDBRANCH  12  13
ENDBRANCH   1  12
TORSDOF 14
ENDMDL
MODEL 6
REMARK VINA RESULT:    -3.899      2.977      5.726
REMARK INTER + INTRA:          -9.609
REMARK INTER:                  -7.043
REMARK INTRA:                  -2.566
REMARK UNBOUND:                -2.519
REMARK SMILES CCCCCCCCCCCCCC[C@@H](C)C(=O)[O-]
REMARK SMILES IDX 9 1 10 2 11 3 12 4 13 5 14 6 15 7 16 8 17 9 18 10 19 11 8 12
REMARK SMILES IDX 7 13 6 14 5 15 4 16 3 17 2 18 1 19
REMARK H PARENT
REMARK Flexibility Score: inf
ROOT
ATOM      1  C   UNL     1     175.021 171.191 150.169  1.00  0.00     0.000 C 
ENDROOT
BRANCH   1   2
ATOM      2  C   UNL     1     174.686 170.350 151.411  1.00  0.00     0.000 C 
BRANCH   2   3
ATOM      3  C   UNL     1     173.183 170.050 151.534  1.00  0.00     0.000 C 
BRANCH   3   4
ATOM      4  C   UNL     1     172.654 170.264 152.961  1.00  0.00     0.000 C 
BRANCH   4   5
ATOM      5  C   UNL     1     171.298 170.980 152.940  1.00  0.00     0.001 C 
BRANCH   5   6
ATOM      6  C   UNL     1     171.474 172.488 152.700  1.00  0.00     0.009 C 
BRANCH   6   7
ATOM      7  C   UNL     1     170.731 172.966 151.436  1.00  0.00     0.032 C 
ATOM      8  C   UNL     1     169.535 172.056 151.137  1.00  0.00     0.014 C 
BRANCH   7   9
ATOM      9  C   UNL     1     170.260 174.388 151.583  1.00  0.00     0.044 C 
ATOM     10  O   UNL     1     169.146 174.633 152.117  1.00  0.00    -0.550 OA
ATOM     11  O   UNL     1     171.050 175.440 151.134  1.00  0.00    -0.550 OA
ENDBRANCH   7   9
ENDBRANCH   6   7
ENDBRANCH   5   6
ENDBRANCH   4   5
ENDBRANCH   3   4
ENDBRANCH   2   3
ENDBRANCH   1   2
BRANCH   1  12
ATOM     12  C   UNL     1     174.147 172.452 150.047  1.00  0.00     0.000 C 
BRANCH  12  13
ATOM     13  C   UNL     1     174.866 173.746 150.487  1.00  0.00    -0.000 C 
BRANCH  13  14
ATOM     14  C   UNL     1     174.309 174.303 151.805  1.00  0.00    -0.000 C 
BRANCH  14  15
ATOM     15  C   UNL     1     175.336 174.164 152.939  1.00  0.00    -0.000 C 
BRANCH  15  16
ATOM     16  C   UNL     1     174.739 173.529 154.205  1.00  0.00    -0.000 C 
BRANCH  16  17
ATOM     17  C   UNL     1     175.375 172.171 154.542  1.00  0.00    -0.000 C 
BRANCH  17  18
ATOM     18  C   UNL     1     174.679 171.525 155.747  1.00  0.00    -0.003 C 
ATOM     19  C   UNL     1     174.135 172.582 156.702  1.00  0.00     0.004 C 
ENDBRANCH  17  18
ENDBRANCH  16  17
ENDBRANCH  15  16
ENDBRANCH  14  15
ENDBRANCH  13  14
ENDBRANCH  12  13
ENDBRANCH   1  12
TORSDOF 14
ENDMDL
MODEL 7
REMARK VINA RESULT:    -3.894      2.542      5.744
REMARK INTER + INTRA:          -9.601
REMARK INTER:                  -7.514
REMARK INTRA:                  -2.087
REMARK UNBOUND:                -2.519
REMARK SMILES CCCCCCCCCCCCCC[C@@H](C)C(=O)[O-]
REMARK SMILES IDX 9 1 10 2 11 3 12 4 13 5 14 6 15 7 16 8 17 9 18 10 19 11 8 12
REMARK SMILES IDX 7 13 6 14 5 15 4 16 3 17 2 18 1 19
REMARK H PARENT
REMARK Flexibility Score: inf
ROOT
ATOM      1  C   UNL     1     173.049 172.558 150.125  1.00  0.00     0.000 C 
ENDROOT
BRANCH   1   2
ATOM      2  C   UNL     1     173.622 171.132 150.122  1.00  0.00     0.000 C 
BRANCH   2   3
ATOM      3  C   UNL     1     175.159 171.111 150.127  1.00  0.00     0.000 C 
BRANCH   3   4
ATOM      4  C   UNL     1     175.730 169.685 150.139  1.00  0.00     0.000 C 
BRANCH   4   5
ATOM      5  C   UNL     1     174.628 168.657 150.425  1.00  0.00     0.001 C 
BRANCH   5   6
ATOM      6  C   UNL     1     174.373 167.767 149.198  1.00  0.00     0.009 C 
BRANCH   6   7
ATOM      7  C   UNL     1     173.168 166.827 149.403  1.00  0.00     0.032 C 
ATOM      8  C   UNL     1     172.970 166.519 150.891  1.00  0.00     0.014 C 
BRANCH   7   9
ATOM      9  C   UNL     1     171.907 167.422 148.837  1.00  0.00     0.044 C 
ATOM     10  O   UNL     1     170.816 166.799 148.931  1.00  0.00    -0.550 OA
ATOM     11  O   UNL     1     171.934 168.662 148.211  1.00  0.00    -0.550 OA
ENDBRANCH   7   9
ENDBRANCH   6   7
ENDBRANCH   5   6
ENDBRANCH   4   5
ENDBRANCH   3   4
ENDBRANCH   2   3
ENDBRANCH   1   2
BRANCH   1  12
ATOM     12  C   UNL     1     174.130 173.636 149.936  1.00  0.00     0.000 C 
BRANCH  12  13
ATOM     13  C   UNL     1     174.621 174.258 151.261  1.00  0.00    -0.000 C 
BRANCH  13  14
ATOM     14  C   UNL     1     173.584 174.125 152.386  1.00  0.00    -0.000 C 
BRANCH  14  15
ATOM     15  C   UNL     1     174.267 173.867 153.738  1.00  0.00    -0.000 C 
BRANCH  15  16
ATOM     16  C   UNL     1     175.328 172.758 153.664  1.00  0.00    -0.000 C 
BRANCH  16  17
ATOM     17  C   UNL     1     175.008 171.571 154.587  1.00  0.00    -0.000 C 
BRANCH  17  18
ATOM     18  C   UNL     1     174.627 170.330 153.770  1.00  0.00    -0.003 C 
ATOM     19  C   UNL     1     173.118 170.248 153.562  1.00  0.00     0.004 C 
ENDBRANCH  17  18
ENDBRANCH  16  17
ENDBRANCH  15  16
ENDBRANCH  14  15
ENDBRANCH  13  14
ENDBRANCH  12  13
ENDBRANCH   1  12
TORSDOF 14
ENDMDL
MODEL 8
REMARK VINA RESULT:    -3.855      2.160      5.186
REMARK INTER + INTRA:          -9.528
REMARK INTER:                  -6.936
REMARK INTRA:                  -2.593
REMARK UNBOUND:                -2.519
REMARK SMILES CCCCCCCCCCCCCC[C@@H](C)C(=O)[O-]
REMARK SMILES IDX 9 1 10 2 11 3 12 4 13 5 14 6 15 7 16 8 17 9 18 10 19 11 8 12
REMARK SMILES IDX 7 13 6 14 5 15 4 16 3 17 2 18 1 19
REMARK H PARENT
REMARK Flexibility Score: inf
ROOT
ATOM      1  C   UNL     1     174.654 173.843 150.374  1.00  0.00     0.000 C 
ENDROOT
BRANCH   1   2
ATOM      2  C   UNL     1     173.534 172.967 149.791  1.00  0.00     0.000 C 
BRANCH   2   3
ATOM      3  C   UNL     1     173.705 171.479 150.136  1.00  0.00     0.000 C 
BRANCH   3   4
ATOM      4  C   UNL     1     175.178 171.042 150.146  1.00  0.00     0.000 C 
BRANCH   4   5
ATOM      5  C   UNL     1     175.302 169.541 150.430  1.00  0.00     0.001 C 
BRANCH   5   6
ATOM      6  C   UNL     1     173.932 168.926 150.756  1.00  0.00     0.009 C 
BRANCH   6   7
ATOM      7  C   UNL     1     173.685 167.612 149.987  1.00  0.00     0.032 C 
ATOM      8  C   UNL     1     174.659 167.485 148.811  1.00  0.00     0.014 C 
BRANCH   7   9
ATOM      9  C   UNL     1     173.822 166.416 150.890  1.00  0.00     0.044 C 
ATOM     10  O   UNL     1     174.965 166.007 151.228  1.00  0.00    -0.550 OA
ATOM     11  O   UNL     1     172.693 165.755 151.358  1.00  0.00    -0.550 OA
ENDBRANCH   7   9
ENDBRANCH   6   7
ENDBRANCH   5   6
ENDBRANCH   4   5
ENDBRANCH   3   4
ENDBRANCH   2   3
ENDBRANCH   1   2
BRANCH   1  12
ATOM     12  C   UNL     1     174.394 174.253 151.834  1.00  0.00     0.000 C 
BRANCH  12  13
ATOM     13  C   UNL     1     175.386 173.627 152.838  1.00  0.00    -0.000 C 
BRANCH  13  14
ATOM     14  C   UNL     1     174.673 172.962 154.025  1.00  0.00    -0.000 C 
BRANCH  14  15
ATOM     15  C   UNL     1     174.527 171.449 153.803  1.00  0.00    -0.000 C 
BRANCH  15  16
ATOM     16  C   UNL     1     173.059 170.996 153.752  1.00  0.00    -0.000 C 
BRANCH  16  17
ATOM     17  C   UNL     1     172.080 172.173 153.626  1.00  0.00    -0.000 C 
BRANCH  17  18
ATOM     18  C   UNL     1     171.083 171.936 152.484  1.00  0.00    -0.003 C 
ATOM     19  C   UNL     1     170.368 173.228 152.100  1.00  0.00     0.004 C 
ENDBRANCH  17  18
ENDBRANCH  16  17
ENDBRANCH  15  16
ENDBRANCH  14  15
ENDBRANCH  13  14
ENDBRANCH  12  13
ENDBRANCH   1  12
TORSDOF 14
ENDMDL
MODEL 9
REMARK VINA RESULT:    -3.767      9.594     12.355
REMARK INTER + INTRA:          -9.368
REMARK INTER:                  -6.994
REMARK INTRA:                  -2.375
REMARK UNBOUND:                -2.519
REMARK SMILES CCCCCCCCCCCCCC[C@@H](C)C(=O)[O-]
REMARK SMILES IDX 9 1 10 2 11 3 12 4 13 5 14 6 15 7 16 8 17 9 18 10 19 11 8 12
REMARK SMILES IDX 7 13 6 14 5 15 4 16 3 17 2 18 1 19
REMARK H PARENT
REMARK Flexibility Score: inf
ROOT
ATOM      1  C   UNL     1     173.767 161.704 150.243  1.00  0.00     0.000 C 
ENDROOT
BRANCH   1   2
ATOM      2  C   UNL     1     175.087 161.116 149.720  1.00  0.00     0.000 C 
BRANCH   2   3
ATOM      3  C   UNL     1     175.250 159.627 150.066  1.00  0.00     0.000 C 
BRANCH   3   4
ATOM      4  C   UNL     1     174.117 159.103 150.962  1.00  0.00     0.000 C 
BRANCH   4   5
ATOM      5  C   UNL     1     173.137 158.240 150.158  1.00  0.00     0.001 C 
BRANCH   5   6
ATOM      6  C   UNL     1     171.683 158.545 150.551  1.00  0.00     0.009 C 
BRANCH   6   7
ATOM      7  C   UNL     1     171.550 158.922 152.040  1.00  0.00     0.032 C 
ATOM      8  C   UNL     1     170.705 160.190 152.201  1.00  0.00     0.014 C 
BRANCH   7   9
ATOM      9  C   UNL     1     170.938 157.801 152.836  1.00  0.00     0.044 C 
ATOM     10  O   UNL     1     171.626 156.790 153.135  1.00  0.00    -0.550 OA
ATOM     11  O   UNL     1     169.613 157.874 153.249  1.00  0.00    -0.550 OA
ENDBRANCH   7   9
ENDBRANCH   6   7
ENDBRANCH   5   6
ENDBRANCH   4   5
ENDBRANCH   3   4
ENDBRANCH   2   3
ENDBRANCH   1   2
BRANCH   1  12
ATOM     12  C   UNL     1     173.980 162.811 151.290  1.00  0.00     0.000 C 
BRANCH  12  13
ATOM     13  C   UNL     1     174.024 162.288 152.742  1.00  0.00    -0.000 C 
BRANCH  13  14
ATOM     14  C   UNL     1     175.453 162.246 153.303  1.00  0.00    -0.000 C 
BRANCH  14  15
ATOM     15  C   UNL     1     175.872 160.806 153.637  1.00  0.00    -0.000 C 
BRANCH  15  16
ATOM     16  C   UNL     1     175.915 160.536 155.150  1.00  0.00    -0.000 C 
BRANCH  16  17
ATOM     17  C   UNL     1     174.533 160.199 155.731  1.00  0.00    -0.000 C 
BRANCH  17  18
ATOM     18  C   UNL     1     173.879 159.048 154.956  1.00  0.00    -0.003 C 
ATOM     19  C   UNL     1     173.868 157.764 155.781  1.00  0.00     0.004 C 
ENDBRANCH  17  18
ENDBRANCH  16  17
ENDBRANCH  15  16
ENDBRANCH  14  15
ENDBRANCH  13  14
ENDBRANCH  12  13
ENDBRANCH   1  12
TORSDOF 14
ENDMDL
