MODEL 1
REMARK VINA RESULT:    -3.758      0.000      0.000
REMARK INTER + INTRA:          -5.699
REMARK INTER:                  -5.077
REMARK INTRA:                  -0.623
REMARK UNBOUND:                -0.623
REMARK SMILES O=C[C@@H](O)[C@H](O)[C@H](O)CO
REMARK SMILES IDX 7 1 9 2 10 3 5 5 3 6 2 7 1 8 4 9 6 11 8 13
REMARK H PARENT 10 4 4 10 6 12 8 14
REMARK Flexibility Score: inf
ROOT
ATOM      1  C   UNL     1       5.807  -9.753   5.030  1.00  0.00     0.171 C 
ENDROOT
BRANCH   1   2
ATOM      2  C   UNL     1       6.259 -10.107   3.599  1.00  0.00     0.190 C 
BRANCH   2   3
ATOM      3  O   UNL     1       5.581  -9.334   2.645  1.00  0.00    -0.394 OA
ATOM      4  H   UNL     1       4.611  -9.440   2.830  1.00  0.00     0.210 HD
ENDBRANCH   2   3
ENDBRANCH   1   2
BRANCH   1   5
ATOM      5  C   UNL     1       4.814  -8.566   5.038  1.00  0.00     0.181 C 
BRANCH   5   6
ATOM      6  C   UNL     1       4.582  -8.020   6.470  1.00  0.00     0.209 C 
BRANCH   6   7
ATOM      7  C   UNL     1       3.174  -7.520   6.629  1.00  0.00     0.258 C 
ATOM      8  O   UNL     1       2.699  -6.741   5.817  1.00  0.00    -0.300 OA
ENDBRANCH   6   7
BRANCH   6   9
ATOM      9  O   UNL     1       4.814  -9.029   7.420  1.00  0.00    -0.383 OA
ATOM     10  H   UNL     1       4.946  -8.580   8.296  1.00  0.00     0.211 HD
ENDBRANCH   6   9
ENDBRANCH   5   6
BRANCH   5  11
ATOM     11  O   UNL     1       3.586  -8.977   4.488  1.00  0.00    -0.387 OA
ATOM     12  H   UNL     1       3.240  -9.710   5.062  1.00  0.00     0.211 HD
ENDBRANCH   5  11
ENDBRANCH   1   5
BRANCH   1  13
ATOM     13  O   UNL     1       6.939  -9.419   5.793  1.00  0.00    -0.388 OA
ATOM     14  H   UNL     1       7.019 -10.105   6.506  1.00  0.00     0.211 HD
ENDBRANCH   1  13
TORSDOF 8
ENDMDL
MODEL 2
REMARK VINA RESULT:    -3.671      2.002      3.105
REMARK INTER + INTRA:          -5.581
REMARK INTER:                  -5.074
REMARK INTRA:                  -0.507
REMARK UNBOUND:                -0.623
REMARK SMILES O=C[C@@H](O)[C@H](O)[C@H](O)CO
REMARK SMILES IDX 7 1 9 2 10 3 5 5 3 6 2 7 1 8 4 9 6 11 8 13
REMARK H PARENT 10 4 4 10 6 12 8 14
REMARK Flexibility Score: inf
ROOT
ATOM      1  C   UNL     1       3.752  -7.876   6.146  1.00  0.00     0.171 C 
ENDROOT
BRANCH   1   2
ATOM      2  C   UNL     1       4.356  -8.892   5.156  1.00  0.00     0.190 C 
BRANCH   2   3
ATOM      3  O   UNL     1       5.646  -8.513   4.761  1.00  0.00    -0.394 OA
ATOM      4  H   UNL     1       6.278  -8.960   5.383  1.00  0.00     0.210 HD
ENDBRANCH   2   3
ENDBRANCH   1   2
BRANCH   1   5
ATOM      5  C   UNL     1       2.267  -7.579   5.825  1.00  0.00     0.181 C 
BRANCH   5   6
ATOM      6  C   UNL     1       1.582  -6.778   6.960  1.00  0.00     0.209 C 
BRANCH   6   7
ATOM      7  C   UNL     1       1.516  -7.591   8.223  1.00  0.00     0.258 C 
ATOM      8  O   UNL     1       0.682  -8.474   8.346  1.00  0.00    -0.300 OA
ENDBRANCH   6   7
BRANCH   6   9
ATOM      9  O   UNL     1       2.294  -5.595   7.221  1.00  0.00    -0.383 OA
ATOM     10  H   UNL     1       3.126  -5.629   6.679  1.00  0.00     0.211 HD
ENDBRANCH   6   9
ENDBRANCH   5   6
BRANCH   5  11
ATOM     11  O   UNL     1       1.579  -8.789   5.623  1.00  0.00    -0.387 OA
ATOM     12  H   UNL     1       1.677  -9.025   4.663  1.00  0.00     0.211 HD
ENDBRANCH   5  11
ENDBRANCH   1   5
BRANCH   1  13
ATOM     13  O   UNL     1       4.491  -6.684   6.078  1.00  0.00    -0.388 OA
ATOM     14  H   UNL     1       4.902  -6.547   6.972  1.00  0.00     0.211 HD
ENDBRANCH   1  13
TORSDOF 8
ENDMDL
MODEL 3
REMARK VINA RESULT:    -3.603     20.293     21.361
REMARK INTER + INTRA:          -5.490
REMARK INTER:                  -4.981
REMARK INTRA:                  -0.508
REMARK UNBOUND:                -0.623
REMARK SMILES O=C[C@@H](O)[C@H](O)[C@H](O)CO
REMARK SMILES IDX 7 1 9 2 10 3 5 5 3 6 2 7 1 8 4 9 6 11 8 13
REMARK H PARENT 10 4 4 10 6 12 8 14
REMARK Flexibility Score: inf
ROOT
ATOM      1  C   UNL     1      -0.802   7.073  -7.688  1.00  0.00     0.171 C 
ENDROOT
BRANCH   1   2
ATOM      2  C   UNL     1       0.305   7.871  -8.406  1.00  0.00     0.190 C 
BRANCH   2   3
ATOM      3  O   UNL     1       1.331   8.230  -7.520  1.00  0.00    -0.394 OA
ATOM      4  H   UNL     1       1.348   7.537  -6.810  1.00  0.00     0.210 HD
ENDBRANCH   2   3
ENDBRANCH   1   2
BRANCH   1   5
ATOM      5  C   UNL     1      -1.922   6.643  -8.666  1.00  0.00     0.181 C 
BRANCH   5   6
ATOM      6  C   UNL     1      -2.566   5.297  -8.247  1.00  0.00     0.209 C 
BRANCH   6   7
ATOM      7  C   UNL     1      -1.733   4.137  -8.717  1.00  0.00     0.258 C 
ATOM      8  O   UNL     1      -1.818   3.742  -9.869  1.00  0.00    -0.300 OA
ENDBRANCH   6   7
BRANCH   6   9
ATOM      9  O   UNL     1      -2.688   5.230  -6.849  1.00  0.00    -0.383 OA
ATOM     10  H   UNL     1      -1.798   4.976  -6.489  1.00  0.00     0.211 HD
ENDBRANCH   6   9
ENDBRANCH   5   6
BRANCH   5  11
ATOM     11  O   UNL     1      -1.392   6.526  -9.964  1.00  0.00    -0.387 OA
ATOM     12  H   UNL     1      -0.506   6.085  -9.879  1.00  0.00     0.211 HD
ENDBRANCH   5  11
ENDBRANCH   1   5
BRANCH   1  13
ATOM     13  O   UNL     1      -1.352   7.875  -6.674  1.00  0.00    -0.388 OA
ATOM     14  H   UNL     1      -2.316   7.642  -6.612  1.00  0.00     0.211 HD
ENDBRANCH   1  13
TORSDOF 8
ENDMDL
MODEL 4
REMARK VINA RESULT:    -3.586      1.569      2.091
REMARK INTER + INTRA:          -5.467
REMARK INTER:                  -4.963
REMARK INTRA:                  -0.503
REMARK UNBOUND:                -0.623
REMARK SMILES O=C[C@@H](O)[C@H](O)[C@H](O)CO
REMARK SMILES IDX 7 1 9 2 10 3 5 5 3 6 2 7 1 8 4 9 6 11 8 13
REMARK H PARENT 10 4 4 10 6 12 8 14
REMARK Flexibility Score: inf
ROOT
ATOM      1  C   UNL     1       5.272  -9.033   5.175  1.00  0.00     0.171 C 
ENDROOT
BRANCH   1   2
ATOM      2  C   UNL     1       5.289  -9.968   3.949  1.00  0.00     0.190 C 
BRANCH   2   3
ATOM      3  O   UNL     1       5.524  -9.253   2.766  1.00  0.00    -0.394 OA
ATOM      4  H   UNL     1       6.386  -9.584   2.400  1.00  0.00     0.210 HD
ENDBRANCH   2   3
ENDBRANCH   1   2
BRANCH   1   5
ATOM      5  C   UNL     1       3.878  -8.998   5.847  1.00  0.00     0.181 C 
BRANCH   5   6
ATOM      6  C   UNL     1       3.006  -7.839   5.301  1.00  0.00     0.209 C 
BRANCH   6   7
ATOM      7  C   UNL     1       1.545  -8.180   5.396  1.00  0.00     0.258 C 
ATOM      8  O   UNL     1       1.178  -9.153   6.037  1.00  0.00    -0.300 OA
ENDBRANCH   6   7
BRANCH   6   9
ATOM      9  O   UNL     1       3.244  -6.663   6.032  1.00  0.00    -0.383 OA
ATOM     10  H   UNL     1       2.412  -6.122   5.996  1.00  0.00     0.211 HD
ENDBRANCH   6   9
ENDBRANCH   5   6
BRANCH   5  11
ATOM     11  O   UNL     1       4.032  -8.855   7.238  1.00  0.00    -0.387 OA
ATOM     12  H   UNL     1       3.393  -9.481   7.668  1.00  0.00     0.211 HD
ENDBRANCH   5  11
ENDBRANCH   1   5
BRANCH   1  13
ATOM     13  O   UNL     1       5.623  -7.737   4.760  1.00  0.00    -0.388 OA
ATOM     14  H   UNL     1       5.286  -7.630   3.832  1.00  0.00     0.211 HD
ENDBRANCH   1  13
TORSDOF 8
ENDMDL
MODEL 5
REMARK VINA RESULT:    -3.585      1.336      4.161
REMARK INTER + INTRA:          -5.465
REMARK INTER:                  -4.819
REMARK INTRA:                  -0.647
REMARK UNBOUND:                -0.623
REMARK SMILES O=C[C@@H](O)[C@H](O)[C@H](O)CO
REMARK SMILES IDX 7 1 9 2 10 3 5 5 3 6 2 7 1 8 4 9 6 11 8 13
REMARK H PARENT 10 4 4 10 6 12 8 14
REMARK Flexibility Score: inf
ROOT
ATOM      1  C   UNL     1       2.894  -8.206   5.724  1.00  0.00     0.171 C 
ENDROOT
BRANCH   1   2
ATOM      2  C   UNL     1       1.990  -7.325   6.609  1.00  0.00     0.190 C 
BRANCH   2   3
ATOM      3  O   UNL     1       2.561  -6.063   6.825  1.00  0.00    -0.394 OA
ATOM      4  H   UNL     1       3.535  -6.159   6.658  1.00  0.00     0.210 HD
ENDBRANCH   2   3
ENDBRANCH   1   2
BRANCH   1   5
ATOM      5  C   UNL     1       4.394  -7.976   6.032  1.00  0.00     0.181 C 
BRANCH   5   6
ATOM      6  C   UNL     1       5.297  -8.989   5.284  1.00  0.00     0.209 C 
BRANCH   6   7
ATOM      7  C   UNL     1       6.161  -9.749   6.251  1.00  0.00     0.258 C 
ATOM      8  O   UNL     1       7.316  -9.406   6.448  1.00  0.00    -0.300 OA
ENDBRANCH   6   7
BRANCH   6   9
ATOM      9  O   UNL     1       4.510  -9.904   4.564  1.00  0.00    -0.383 OA
ATOM     10  H   UNL     1       5.052 -10.210   3.790  1.00  0.00     0.211 HD
ENDBRANCH   6   9
ENDBRANCH   5   6
BRANCH   5  11
ATOM     11  O   UNL     1       4.610  -8.088   7.418  1.00  0.00    -0.387 OA
ATOM     12  H   UNL     1       5.501  -7.695   7.607  1.00  0.00     0.211 HD
ENDBRANCH   5  11
ENDBRANCH   1   5
BRANCH   1  13
ATOM     13  O   UNL     1       2.644  -7.899   4.376  1.00  0.00    -0.388 OA
ATOM     14  H   UNL     1       3.520  -7.683   3.960  1.00  0.00     0.211 HD
ENDBRANCH   1  13
TORSDOF 8
ENDMDL
MODEL 6
REMARK VINA RESULT:    -3.541      1.771      4.397
REMARK INTER + INTRA:          -5.405
REMARK INTER:                  -4.727
REMARK INTRA:                  -0.679
REMARK UNBOUND:                -0.623
REMARK SMILES O=C[C@@H](O)[C@H](O)[C@H](O)CO
REMARK SMILES IDX 7 1 9 2 10 3 5 5 3 6 2 7 1 8 4 9 6 11 8 13
REMARK H PARENT 10 4 4 10 6 12 8 14
REMARK Flexibility Score: inf
ROOT
ATOM      1  C   UNL     1       2.117  -7.990   7.470  1.00  0.00     0.171 C 
ENDROOT
BRANCH   1   2
ATOM      2  C   UNL     1       1.391  -6.642   7.284  1.00  0.00     0.190 C 
BRANCH   2   3
ATOM      3  O   UNL     1       2.302  -5.581   7.192  1.00  0.00    -0.394 OA
ATOM      4  H   UNL     1       1.767  -4.758   7.041  1.00  0.00     0.210 HD
ENDBRANCH   2   3
ENDBRANCH   1   2
BRANCH   1   5
ATOM      5  C   UNL     1       2.828  -8.439   6.171  1.00  0.00     0.181 C 
BRANCH   5   6
ATOM      6  C   UNL     1       4.344  -8.121   6.205  1.00  0.00     0.209 C 
BRANCH   6   7
ATOM      7  C   UNL     1       5.083  -8.933   5.178  1.00  0.00     0.258 C 
ATOM      8  O   UNL     1       4.497  -9.778   4.519  1.00  0.00    -0.300 OA
ENDBRANCH   6   7
BRANCH   6   9
ATOM      9  O   UNL     1       4.562  -6.757   5.946  1.00  0.00    -0.383 OA
ATOM     10  H   UNL     1       3.700  -6.378   5.630  1.00  0.00     0.211 HD
ENDBRANCH   6   9
ENDBRANCH   5   6
BRANCH   5  11
ATOM     11  O   UNL     1       2.238  -7.797   5.067  1.00  0.00    -0.387 OA
ATOM     12  H   UNL     1       2.610  -8.219   4.249  1.00  0.00     0.211 HD
ENDBRANCH   5  11
ENDBRANCH   1   5
BRANCH   1  13
ATOM     13  O   UNL     1       1.176  -8.963   7.847  1.00  0.00    -0.388 OA
ATOM     14  H   UNL     1       0.597  -8.551   8.542  1.00  0.00     0.211 HD
ENDBRANCH   1  13
TORSDOF 8
ENDMDL
MODEL 7
REMARK VINA RESULT:    -3.432      2.630      4.804
REMARK INTER + INTRA:          -5.258
REMARK INTER:                  -4.296
REMARK INTRA:                  -0.962
REMARK UNBOUND:                -0.623
REMARK SMILES O=C[C@@H](O)[C@H](O)[C@H](O)CO
REMARK SMILES IDX 7 1 9 2 10 3 5 5 3 6 2 7 1 8 4 9 6 11 8 13
REMARK H PARENT 10 4 4 10 6 12 8 14
REMARK Flexibility Score: inf
ROOT
ATOM      1  C   UNL     1       1.407  -7.770   8.119  1.00  0.00     0.171 C 
ENDROOT
BRANCH   1   2
ATOM      2  C   UNL     1       2.776  -7.981   8.796  1.00  0.00     0.190 C 
BRANCH   2   3
ATOM      3  O   UNL     1       3.547  -8.926   8.104  1.00  0.00    -0.394 OA
ATOM      4  H   UNL     1       3.004  -9.223   7.328  1.00  0.00     0.210 HD
ENDBRANCH   2   3
ENDBRANCH   1   2
BRANCH   1   5
ATOM      5  C   UNL     1       1.549  -7.053   6.754  1.00  0.00     0.181 C 
BRANCH   5   6
ATOM      6  C   UNL     1       1.449  -8.046   5.569  1.00  0.00     0.209 C 
BRANCH   6   7
ATOM      7  C   UNL     1       2.737  -8.084   4.795  1.00  0.00     0.258 C 
ATOM      8  O   UNL     1       3.602  -8.901   5.072  1.00  0.00    -0.300 OA
ENDBRANCH   6   7
BRANCH   6   9
ATOM      9  O   UNL     1       1.166  -9.340   6.040  1.00  0.00    -0.383 OA
ATOM     10  H   UNL     1       2.036  -9.778   6.233  1.00  0.00     0.211 HD
ENDBRANCH   6   9
ENDBRANCH   5   6
BRANCH   5  11
ATOM     11  O   UNL     1       2.785  -6.383   6.703  1.00  0.00    -0.387 OA
ATOM     12  H   UNL     1       2.688  -5.640   6.053  1.00  0.00     0.211 HD
ENDBRANCH   5  11
ENDBRANCH   1   5
BRANCH   1  13
ATOM     13  O   UNL     1       0.595  -6.999   8.968  1.00  0.00    -0.388 OA
ATOM     14  H   UNL     1      -0.278  -7.467   9.037  1.00  0.00     0.211 HD
ENDBRANCH   1  13
TORSDOF 8
ENDMDL
MODEL 8
REMARK VINA RESULT:    -3.417     18.540     19.439
REMARK INTER + INTRA:          -5.238
REMARK INTER:                  -4.546
REMARK INTRA:                  -0.693
REMARK UNBOUND:                -0.623
REMARK SMILES O=C[C@@H](O)[C@H](O)[C@H](O)CO
REMARK SMILES IDX 7 1 9 2 10 3 5 5 3 6 2 7 1 8 4 9 6 11 8 13
REMARK H PARENT 10 4 4 10 6 12 8 14
REMARK Flexibility Score: inf
ROOT
ATOM      1  C   UNL     1       8.814   3.018  -8.244  1.00  0.00     0.171 C 
ENDROOT
BRANCH   1   2
ATOM      2  C   UNL     1       9.230   1.826  -9.128  1.00  0.00     0.190 C 
BRANCH   2   3
ATOM      3  O   UNL     1       8.242   1.527 -10.078  1.00  0.00    -0.394 OA
ATOM      4  H   UNL     1       8.546   1.918 -10.938  1.00  0.00     0.210 HD
ENDBRANCH   2   3
ENDBRANCH   1   2
BRANCH   1   5
ATOM      5  C   UNL     1       8.885   4.356  -9.019  1.00  0.00     0.181 C 
BRANCH   5   6
ATOM      6  C   UNL     1       8.509   5.562  -8.121  1.00  0.00     0.209 C 
BRANCH   6   7
ATOM      7  C   UNL     1       7.810   6.626  -8.921  1.00  0.00     0.258 C 
ATOM      8  O   UNL     1       6.591   6.660  -8.972  1.00  0.00    -0.300 OA
ENDBRANCH   6   7
BRANCH   6   9
ATOM      9  O   UNL     1       7.661   5.148  -7.080  1.00  0.00    -0.383 OA
ATOM     10  H   UNL     1       7.997   5.567  -6.245  1.00  0.00     0.211 HD
ENDBRANCH   6   9
ENDBRANCH   5   6
BRANCH   5  11
ATOM     11  O   UNL     1       8.016   4.305 -10.124  1.00  0.00    -0.387 OA
ATOM     12  H   UNL     1       8.569   4.445 -10.937  1.00  0.00     0.211 HD
ENDBRANCH   5  11
ENDBRANCH   1   5
BRANCH   1  13
ATOM     13  O   UNL     1       9.671   3.077  -7.132  1.00  0.00    -0.388 OA
ATOM     14  H   UNL     1       9.107   3.295  -6.344  1.00  0.00     0.211 HD
ENDBRANCH   1  13
TORSDOF 8
ENDMDL
MODEL 9
REMARK VINA RESULT:    -3.386      1.641      2.602
REMARK INTER + INTRA:          -5.196
REMARK INTER:                  -4.710
REMARK INTRA:                  -0.487
REMARK UNBOUND:                -0.623
REMARK SMILES O=C[C@@H](O)[C@H](O)[C@H](O)CO
REMARK SMILES IDX 7 1 9 2 10 3 5 5 3 6 2 7 1 8 4 9 6 11 8 13
REMARK H PARENT 10 4 4 10 6 12 8 14
REMARK Flexibility Score: inf
ROOT
ATOM      1  C   UNL     1       5.158  -8.885   5.551  1.00  0.00     0.171 C 
ENDROOT
BRANCH   1   2
ATOM      2  C   UNL     1       6.095  -9.680   6.482  1.00  0.00     0.190 C 
BRANCH   2   3
ATOM      3  O   UNL     1       7.422  -9.634   6.030  1.00  0.00    -0.394 OA
ATOM      4  H   UNL     1       7.394  -9.782   5.049  1.00  0.00     0.210 HD
ENDBRANCH   2   3
ENDBRANCH   1   2
BRANCH   1   5
ATOM      5  C   UNL     1       4.075  -8.120   6.349  1.00  0.00     0.181 C 
BRANCH   5   6
ATOM      6  C   UNL     1       2.652  -8.654   6.047  1.00  0.00     0.209 C 
BRANCH   6   7
ATOM      7  C   UNL     1       1.678  -8.204   7.099  1.00  0.00     0.258 C 
ATOM      8  O   UNL     1       1.664  -7.042   7.473  1.00  0.00    -0.300 OA
ENDBRANCH   6   7
BRANCH   6   9
ATOM      9  O   UNL     1       2.213  -8.189   4.795  1.00  0.00    -0.383 OA
ATOM     10  H   UNL     1       2.741  -7.376   4.583  1.00  0.00     0.211 HD
ENDBRANCH   6   9
ENDBRANCH   5   6
BRANCH   5  11
ATOM     11  O   UNL     1       4.139  -6.751   6.033  1.00  0.00    -0.387 OA
ATOM     12  H   UNL     1       4.617  -6.673   5.166  1.00  0.00     0.211 HD
ENDBRANCH   5  11
ENDBRANCH   1   5
BRANCH   1  13
ATOM     13  O   UNL     1       4.537  -9.779   4.662  1.00  0.00    -0.388 OA
ATOM     14  H   UNL     1       5.043 -10.632   4.710  1.00  0.00     0.211 HD
ENDBRANCH   1  13
TORSDOF 8
ENDMDL
