MODEL 1
REMARK VINA RESULT:    -3.615      0.000      0.000
REMARK INTER + INTRA:          -5.483
REMARK INTER:                  -4.883
REMARK INTRA:                  -0.600
REMARK UNBOUND:                -0.600
REMARK SMILES CCCCCCCC(=O)[O-]
REMARK SMILES IDX 5 1 6 2 7 3 8 4 9 5 10 6 4 7 3 8 2 9 1 10
REMARK H PARENT
REMARK Flexibility Score: inf
ROOT
ATOM      1  C   UNL     1       7.125   4.254  -5.097  1.00  0.00     0.000 C 
ENDROOT
BRANCH   1   2
ATOM      2  C   UNL     1       7.841   3.182  -4.259  1.00  0.00     0.006 C 
BRANCH   2   3
ATOM      3  C   UNL     1       8.825   2.343  -5.086  1.00  0.00     0.053 C 
BRANCH   3   4
ATOM      4  C   UNL     1       8.364   0.922  -5.159  1.00  0.00     0.041 C 
ATOM      5  O   UNL     1       9.078  -0.001  -4.686  1.00  0.00    -0.550 OA
ATOM      6  O   UNL     1       7.123   0.621  -5.706  1.00  0.00    -0.550 OA
ENDBRANCH   3   4
ENDBRANCH   2   3
ENDBRANCH   1   2
BRANCH   1   7
ATOM      7  C   UNL     1       5.778   3.763  -5.654  1.00  0.00     0.000 C 
BRANCH   7   8
ATOM      8  C   UNL     1       5.825   3.509  -7.170  1.00  0.00    -0.000 C 
BRANCH   8   9
ATOM      9  C   UNL     1       7.041   4.161  -7.843  1.00  0.00    -0.003 C 
ATOM     10  C   UNL     1       7.850   3.134  -8.630  1.00  0.00     0.004 C 
ENDBRANCH   8   9
ENDBRANCH   7   8
ENDBRANCH   1   7
TORSDOF 6
ENDMDL
MODEL 2
REMARK VINA RESULT:    -3.605      1.183      1.787
REMARK INTER + INTRA:          -5.470
REMARK INTER:                  -4.995
REMARK INTRA:                  -0.475
REMARK UNBOUND:                -0.600
REMARK SMILES CCCCCCCC(=O)[O-]
REMARK SMILES IDX 5 1 6 2 7 3 8 4 9 5 10 6 4 7 3 8 2 9 1 10
REMARK H PARENT
REMARK Flexibility Score: inf
ROOT
ATOM      1  C   UNL     1       7.151   3.983  -4.437  1.00  0.00     0.000 C 
ENDROOT
BRANCH   1   2
ATOM      2  C   UNL     1       8.478   3.226  -4.616  1.00  0.00     0.006 C 
BRANCH   2   3
ATOM      3  C   UNL     1       8.474   2.303  -5.842  1.00  0.00     0.053 C 
BRANCH   3   4
ATOM      4  C   UNL     1       7.932   0.957  -5.479  1.00  0.00     0.041 C 
ATOM      5  O   UNL     1       6.739   0.659  -5.750  1.00  0.00    -0.550 OA
ATOM      6  O   UNL     1       8.760   0.011  -4.886  1.00  0.00    -0.550 OA
ENDBRANCH   3   4
ENDBRANCH   2   3
ENDBRANCH   1   2
BRANCH   1   7
ATOM      7  C   UNL     1       6.551   4.442  -5.777  1.00  0.00     0.000 C 
BRANCH   7   8
ATOM      8  C   UNL     1       6.616   5.968  -5.960  1.00  0.00    -0.000 C 
BRANCH   8   9
ATOM      9  C   UNL     1       7.001   6.377  -7.388  1.00  0.00    -0.003 C 
ATOM     10  C   UNL     1       7.758   5.257  -8.097  1.00  0.00     0.004 C 
ENDBRANCH   8   9
ENDBRANCH   7   8
ENDBRANCH   1   7
TORSDOF 6
ENDMDL
MODEL 3
REMARK VINA RESULT:    -3.603      1.461      2.427
REMARK INTER + INTRA:          -5.467
REMARK INTER:                  -5.085
REMARK INTRA:                  -0.381
REMARK UNBOUND:                -0.600
REMARK SMILES CCCCCCCC(=O)[O-]
REMARK SMILES IDX 5 1 6 2 7 3 8 4 9 5 10 6 4 7 3 8 2 9 1 10
REMARK H PARENT
REMARK Flexibility Score: inf
ROOT
ATOM      1  C   UNL     1       7.487   2.126  -7.745  1.00  0.00     0.000 C 
ENDROOT
BRANCH   1   2
ATOM      2  C   UNL     1       8.650   2.232  -6.745  1.00  0.00     0.006 C 
BRANCH   2   3
ATOM      3  C   UNL     1       9.348   0.887  -6.504  1.00  0.00     0.053 C 
BRANCH   3   4
ATOM      4  C   UNL     1       9.172   0.456  -5.082  1.00  0.00     0.041 C 
ATOM      5  O   UNL     1       8.818   1.289  -4.207  1.00  0.00    -0.550 OA
ATOM      6  O   UNL     1       9.350  -0.877  -4.733  1.00  0.00    -0.550 OA
ENDBRANCH   3   4
ENDBRANCH   2   3
ENDBRANCH   1   2
BRANCH   1   7
ATOM      7  C   UNL     1       6.341   3.100  -7.421  1.00  0.00     0.000 C 
BRANCH   7   8
ATOM      8  C   UNL     1       6.095   3.238  -5.910  1.00  0.00    -0.000 C 
BRANCH   8   9
ATOM      9  C   UNL     1       6.341   4.664  -5.397  1.00  0.00    -0.003 C 
ATOM     10  C   UNL     1       6.707   5.605  -6.542  1.00  0.00     0.004 C 
ENDBRANCH   8   9
ENDBRANCH   7   8
ENDBRANCH   1   7
TORSDOF 6
ENDMDL
MODEL 4
REMARK VINA RESULT:    -3.591      1.590      2.354
REMARK INTER + INTRA:          -5.451
REMARK INTER:                  -4.952
REMARK INTRA:                  -0.500
REMARK UNBOUND:                -0.600
REMARK SMILES CCCCCCCC(=O)[O-]
REMARK SMILES IDX 5 1 6 2 7 3 8 4 9 5 10 6 4 7 3 8 2 9 1 10
REMARK H PARENT
REMARK Flexibility Score: inf
ROOT
ATOM      1  C   UNL     1       5.760   3.612  -5.690  1.00  0.00     0.000 C 
ENDROOT
BRANCH   1   2
ATOM      2  C   UNL     1       6.872   4.502  -5.110  1.00  0.00     0.006 C 
BRANCH   2   3
ATOM      3  C   UNL     1       7.676   3.802  -4.006  1.00  0.00     0.053 C 
BRANCH   3   4
ATOM      4  C   UNL     1       8.623   2.809  -4.600  1.00  0.00     0.041 C 
ATOM      5  O   UNL     1       9.349   3.130  -5.577  1.00  0.00    -0.550 OA
ATOM      6  O   UNL     1       8.741   1.541  -4.043  1.00  0.00    -0.550 OA
ENDBRANCH   3   4
ENDBRANCH   2   3
ENDBRANCH   1   2
BRANCH   1   7
ATOM      7  C   UNL     1       5.914   3.389  -7.204  1.00  0.00     0.000 C 
BRANCH   7   8
ATOM      8  C   UNL     1       6.924   4.357  -7.843  1.00  0.00    -0.000 C 
BRANCH   8   9
ATOM      9  C   UNL     1       6.261   5.361  -8.797  1.00  0.00    -0.003 C 
ATOM     10  C   UNL     1       6.201   6.753  -8.174  1.00  0.00     0.004 C 
ENDBRANCH   8   9
ENDBRANCH   7   8
ENDBRANCH   1   7
TORSDOF 6
ENDMDL
MODEL 5
REMARK VINA RESULT:    -3.527     13.657     15.300
REMARK INTER + INTRA:          -5.365
REMARK INTER:                  -5.197
REMARK INTRA:                  -0.167
REMARK UNBOUND:                -0.600
REMARK SMILES CCCCCCCC(=O)[O-]
REMARK SMILES IDX 5 1 6 2 7 3 8 4 9 5 10 6 4 7 3 8 2 9 1 10
REMARK H PARENT
REMARK Flexibility Score: inf
ROOT
ATOM      1  C   UNL     1      -3.867  11.768  -5.714  1.00  0.00     0.000 C 
ENDROOT
BRANCH   1   2
ATOM      2  C   UNL     1      -3.692  12.229  -7.171  1.00  0.00     0.006 C 
BRANCH   2   3
ATOM      3  C   UNL     1      -2.231  12.544  -7.522  1.00  0.00     0.053 C 
BRANCH   3   4
ATOM      4  C   UNL     1      -1.849  11.880  -8.806  1.00  0.00     0.041 C 
ATOM      5  O   UNL     1      -0.669  11.482  -8.987  1.00  0.00    -0.550 OA
ATOM      6  O   UNL     1      -2.809  11.656  -9.786  1.00  0.00    -0.550 OA
ENDBRANCH   3   4
ENDBRANCH   2   3
ENDBRANCH   1   2
BRANCH   1   7
ATOM      7  C   UNL     1      -3.711  12.921  -4.709  1.00  0.00     0.000 C 
BRANCH   7   8
ATOM      8  C   UNL     1      -4.279  12.576  -3.322  1.00  0.00    -0.000 C 
BRANCH   8   9
ATOM      9  C   UNL     1      -4.997  13.762  -2.664  1.00  0.00    -0.003 C 
ATOM     10  C   UNL     1      -6.457  13.834  -3.104  1.00  0.00     0.004 C 
ENDBRANCH   8   9
ENDBRANCH   7   8
ENDBRANCH   1   7
TORSDOF 6
ENDMDL
MODEL 6
REMARK VINA RESULT:    -3.397     15.463     17.032
REMARK INTER + INTRA:          -5.189
REMARK INTER:                  -4.736
REMARK INTRA:                  -0.452
REMARK UNBOUND:                -0.600
REMARK SMILES CCCCCCCC(=O)[O-]
REMARK SMILES IDX 5 1 6 2 7 3 8 4 9 5 10 6 4 7 3 8 2 9 1 10
REMARK H PARENT
REMARK Flexibility Score: inf
ROOT
ATOM      1  C   UNL     1      -6.670  13.780  -2.783  1.00  0.00     0.000 C 
ENDROOT
BRANCH   1   2
ATOM      2  C   UNL     1      -7.132  13.181  -4.121  1.00  0.00     0.006 C 
BRANCH   2   3
ATOM      3  C   UNL     1      -8.211  12.104  -3.948  1.00  0.00     0.053 C 
BRANCH   3   4
ATOM      4  C   UNL     1      -7.728  10.792  -4.480  1.00  0.00     0.041 C 
ATOM      5  O   UNL     1      -6.887  10.758  -5.416  1.00  0.00    -0.550 OA
ATOM      6  O   UNL     1      -8.169   9.605  -3.908  1.00  0.00    -0.550 OA
ENDBRANCH   3   4
ENDBRANCH   2   3
ENDBRANCH   1   2
BRANCH   1   7
ATOM      7  C   UNL     1      -5.140  13.764  -2.627  1.00  0.00     0.000 C 
BRANCH   7   8
ATOM      8  C   UNL     1      -4.489  12.560  -3.327  1.00  0.00    -0.000 C 
BRANCH   8   9
ATOM      9  C   UNL     1      -3.450  12.976  -4.378  1.00  0.00    -0.003 C 
ATOM     10  C   UNL     1      -3.723  12.300  -5.719  1.00  0.00     0.004 C 
ENDBRANCH   8   9
ENDBRANCH   7   8
ENDBRANCH   1   7
TORSDOF 6
ENDMDL
MODEL 7
REMARK VINA RESULT:    -3.372     15.447     16.773
REMARK INTER + INTRA:          -5.155
REMARK INTER:                  -4.788
REMARK INTRA:                  -0.367
REMARK UNBOUND:                -0.600
REMARK SMILES CCCCCCCC(=O)[O-]
REMARK SMILES IDX 5 1 6 2 7 3 8 4 9 5 10 6 4 7 3 8 2 9 1 10
REMARK H PARENT
REMARK Flexibility Score: inf
ROOT
ATOM      1  C   UNL     1      -6.756  12.124  -6.248  1.00  0.00     0.000 C 
ENDROOT
BRANCH   1   2
ATOM      2  C   UNL     1      -6.856  10.773  -5.521  1.00  0.00     0.006 C 
BRANCH   2   3
ATOM      3  C   UNL     1      -8.299  10.263  -5.414  1.00  0.00     0.053 C 
BRANCH   3   4
ATOM      4  C   UNL     1      -8.593   9.294  -6.515  1.00  0.00     0.041 C 
ATOM      5  O   UNL     1      -8.486   8.056  -6.315  1.00  0.00    -0.550 OA
ATOM      6  O   UNL     1      -9.033   9.757  -7.749  1.00  0.00    -0.550 OA
ENDBRANCH   3   4
ENDBRANCH   2   3
ENDBRANCH   1   2
BRANCH   1   7
ATOM      7  C   UNL     1      -5.302  12.520  -6.558  1.00  0.00     0.000 C 
BRANCH   7   8
ATOM      8  C   UNL     1      -4.289  11.786  -5.665  1.00  0.00    -0.000 C 
BRANCH   8   9
ATOM      9  C   UNL     1      -3.639  12.709  -4.624  1.00  0.00    -0.003 C 
ATOM     10  C   UNL     1      -4.439  12.721  -3.324  1.00  0.00     0.004 C 
ENDBRANCH   8   9
ENDBRANCH   7   8
ENDBRANCH   1   7
TORSDOF 6
ENDMDL
MODEL 8
REMARK VINA RESULT:    -3.351     15.374     16.851
REMARK INTER + INTRA:          -5.126
REMARK INTER:                  -4.491
REMARK INTRA:                  -0.635
REMARK UNBOUND:                -0.600
REMARK SMILES CCCCCCCC(=O)[O-]
REMARK SMILES IDX 5 1 6 2 7 3 8 4 9 5 10 6 4 7 3 8 2 9 1 10
REMARK H PARENT
REMARK Flexibility Score: inf
ROOT
ATOM      1  C   UNL     1      -5.894  13.835  -2.387  1.00  0.00     0.000 C 
ENDROOT
BRANCH   1   2
ATOM      2  C   UNL     1      -4.477  13.915  -2.979  1.00  0.00     0.006 C 
BRANCH   2   3
ATOM      3  C   UNL     1      -4.008  12.580  -3.575  1.00  0.00     0.053 C 
BRANCH   3   4
ATOM      4  C   UNL     1      -3.859  12.696  -5.059  1.00  0.00     0.041 C 
ATOM      5  O   UNL     1      -3.667  11.668  -5.759  1.00  0.00    -0.550 OA
ATOM      6  O   UNL     1      -3.982  13.936  -5.675  1.00  0.00    -0.550 OA
ENDBRANCH   3   4
ENDBRANCH   2   3
ENDBRANCH   1   2
BRANCH   1   7
ATOM      7  C   UNL     1      -6.987  14.077  -3.441  1.00  0.00     0.000 C 
BRANCH   7   8
ATOM      8  C   UNL     1      -7.890  12.849  -3.647  1.00  0.00    -0.000 C 
BRANCH   8   9
ATOM      9  C   UNL     1      -7.596  12.111  -4.960  1.00  0.00    -0.003 C 
ATOM     10  C   UNL     1      -7.030  10.719  -4.694  1.00  0.00     0.004 C 
ENDBRANCH   8   9
ENDBRANCH   7   8
ENDBRANCH   1   7
TORSDOF 6
ENDMDL
MODEL 9
REMARK VINA RESULT:    -3.257     15.840     17.178
REMARK INTER + INTRA:          -4.999
REMARK INTER:                  -4.448
REMARK INTRA:                  -0.551
REMARK UNBOUND:                -0.600
REMARK SMILES CCCCCCCC(=O)[O-]
REMARK SMILES IDX 5 1 6 2 7 3 8 4 9 5 10 6 4 7 3 8 2 9 1 10
REMARK H PARENT
REMARK Flexibility Score: inf
ROOT
ATOM      1  C   UNL     1      -4.513  12.731  -3.238  1.00  0.00     0.000 C 
ENDROOT
BRANCH   1   2
ATOM      2  C   UNL     1      -5.498  13.750  -2.640  1.00  0.00     0.006 C 
BRANCH   2   3
ATOM      3  C   UNL     1      -6.691  14.033  -3.564  1.00  0.00     0.053 C 
BRANCH   3   4
ATOM      4  C   UNL     1      -7.757  13.002  -3.371  1.00  0.00     0.041 C 
ATOM      5  O   UNL     1      -8.614  13.139  -2.459  1.00  0.00    -0.550 OA
ATOM      6  O   UNL     1      -7.835  11.913  -4.230  1.00  0.00    -0.550 OA
ENDBRANCH   3   4
ENDBRANCH   2   3
ENDBRANCH   1   2
BRANCH   1   7
ATOM      7  C   UNL     1      -3.374  13.405  -4.022  1.00  0.00     0.000 C 
BRANCH   7   8
ATOM      8  C   UNL     1      -3.385  13.031  -5.514  1.00  0.00    -0.000 C 
BRANCH   8   9
ATOM      9  C   UNL     1      -4.348  11.878  -5.829  1.00  0.00    -0.003 C 
ATOM     10  C   UNL     1      -5.432  12.320  -6.809  1.00  0.00     0.004 C 
ENDBRANCH   8   9
ENDBRANCH   7   8
ENDBRANCH   1   7
TORSDOF 6
ENDMDL
