MODEL 1
REMARK VINA RESULT:    -5.165      0.000      0.000
REMARK INTER + INTRA:          -5.491
REMARK INTER:                  -5.467
REMARK INTRA:                  -0.024
REMARK UNBOUND:                -0.024
REMARK SMILES O=C([O-])c1cccnc1
REMARK SMILES IDX 4 1 5 2 9 3 6 4 8 5 7 6 2 7 1 8 3 9
REMARK H PARENT
REMARK Flexibility Score: inf
ROOT
ATOM      1  C   UNL     1     152.530 155.401 159.799  1.00  0.00     0.016 A 
ATOM      2  C   UNL     1     152.855 155.322 158.436  1.00  0.00     0.013 A 
ATOM      3  C   UNL     1     151.596 156.370 160.208  1.00  0.00     0.120 A 
ATOM      4  C   UNL     1     152.257 156.190 157.521  1.00  0.00     0.021 A 
ATOM      5  N   UNL     1     151.027 157.203 159.296  1.00  0.00    -0.264 NA
ATOM      6  C   UNL     1     151.336 157.134 157.974  1.00  0.00     0.111 A 
ENDROOT
BRANCH   1   7
ATOM      7  C   UNL     1     153.157 154.487 160.779  1.00  0.00     0.073 C 
ATOM      8  O   UNL     1     152.909 154.599 162.009  1.00  0.00    -0.545 OA
ATOM      9  O   UNL     1     154.030 153.492 160.353  1.00  0.00    -0.545 OA
ENDBRANCH   1   7
TORSDOF 1
ENDMDL
MODEL 2
REMARK VINA RESULT:    -5.061      0.926      1.601
REMARK INTER + INTRA:          -5.381
REMARK INTER:                  -5.357
REMARK INTRA:                  -0.024
REMARK UNBOUND:                -0.024
REMARK SMILES O=C([O-])c1cccnc1
REMARK SMILES IDX 4 1 5 2 9 3 6 4 8 5 7 6 2 7 1 8 3 9
REMARK H PARENT
REMARK Flexibility Score: inf
ROOT
ATOM      1  C   UNL     1     152.568 155.364 159.792  1.00  0.00     0.016 A 
ATOM      2  C   UNL     1     151.613 156.314 160.187  1.00  0.00     0.013 A 
ATOM      3  C   UNL     1     152.926 155.302 158.433  1.00  0.00     0.120 A 
ATOM      4  C   UNL     1     151.042 157.169 159.244  1.00  0.00     0.021 A 
ATOM      5  N   UNL     1     152.355 156.147 157.534  1.00  0.00    -0.264 NA
ATOM      6  C   UNL     1     151.429 157.070 157.907  1.00  0.00     0.111 A 
ENDROOT
BRANCH   1   7
ATOM      7  C   UNL     1     153.181 154.453 160.783  1.00  0.00     0.073 C 
ATOM      8  O   UNL     1     152.933 154.582 162.011  1.00  0.00    -0.545 OA
ATOM      9  O   UNL     1     154.041 153.441 160.370  1.00  0.00    -0.545 OA
ENDBRANCH   1   7
TORSDOF 1
ENDMDL
MODEL 3
REMARK VINA RESULT:    -5.004      1.906      2.496
REMARK INTER + INTRA:          -5.320
REMARK INTER:                  -5.300
REMARK INTRA:                  -0.020
REMARK UNBOUND:                -0.024
REMARK SMILES O=C([O-])c1cccnc1
REMARK SMILES IDX 4 1 5 2 9 3 6 4 8 5 7 6 2 7 1 8 3 9
REMARK H PARENT
REMARK Flexibility Score: inf
ROOT
ATOM      1  C   UNL     1     151.495 156.621 158.954  1.00  0.00     0.016 A 
ATOM      2  C   UNL     1     151.132 157.531 157.949  1.00  0.00     0.013 A 
ATOM      3  C   UNL     1     150.692 156.541 160.105  1.00  0.00     0.120 A 
ATOM      4  C   UNL     1     149.998 158.330 158.103  1.00  0.00     0.021 A 
ATOM      5  N   UNL     1     149.592 157.330 160.231  1.00  0.00    -0.264 NA
ATOM      6  C   UNL     1     149.232 158.215 159.263  1.00  0.00     0.111 A 
ENDROOT
BRANCH   1   7
ATOM      7  C   UNL     1     152.694 155.768 158.802  1.00  0.00     0.073 C 
ATOM      8  O   UNL     1     153.492 155.608 159.764  1.00  0.00    -0.545 OA
ATOM      9  O   UNL     1     152.957 155.132 157.594  1.00  0.00    -0.545 OA
ENDBRANCH   1   7
TORSDOF 1
ENDMDL
MODEL 4
REMARK VINA RESULT:    -4.773      2.551      3.517
REMARK INTER + INTRA:          -5.076
REMARK INTER:                  -5.054
REMARK INTRA:                  -0.023
REMARK UNBOUND:                -0.024
REMARK SMILES O=C([O-])c1cccnc1
REMARK SMILES IDX 4 1 5 2 9 3 6 4 8 5 7 6 2 7 1 8 3 9
REMARK H PARENT
REMARK Flexibility Score: inf
ROOT
ATOM      1  C   UNL     1     152.646 155.423 159.274  1.00  0.00     0.016 A 
ATOM      2  C   UNL     1     153.608 154.406 159.387  1.00  0.00     0.013 A 
ATOM      3  C   UNL     1     152.038 155.901 160.448  1.00  0.00     0.120 A 
ATOM      4  C   UNL     1     153.941 153.893 160.641  1.00  0.00     0.021 A 
ATOM      5  N   UNL     1     152.381 155.385 161.658  1.00  0.00    -0.264 NA
ATOM      6  C   UNL     1     153.311 154.400 161.778  1.00  0.00     0.111 A 
ENDROOT
BRANCH   1   7
ATOM      7  C   UNL     1     152.284 155.975 157.950  1.00  0.00     0.073 C 
ATOM      8  O   UNL     1     151.717 157.096 157.857  1.00  0.00    -0.545 OA
ATOM      9  O   UNL     1     152.565 155.262 156.790  1.00  0.00    -0.545 OA
ENDBRANCH   1   7
TORSDOF 1
ENDMDL
MODEL 5
REMARK VINA RESULT:    -4.736      2.267      3.085
REMARK INTER + INTRA:          -5.036
REMARK INTER:                  -5.020
REMARK INTRA:                  -0.016
REMARK UNBOUND:                -0.024
REMARK SMILES O=C([O-])c1cccnc1
REMARK SMILES IDX 4 1 5 2 9 3 6 4 8 5 7 6 2 7 1 8 3 9
REMARK H PARENT
REMARK Flexibility Score: inf
ROOT
ATOM      1  C   UNL     1     151.429 156.930 158.857  1.00  0.00     0.016 A 
ATOM      2  C   UNL     1     150.767 156.560 160.039  1.00  0.00     0.013 A 
ATOM      3  C   UNL     1     150.828 157.895 158.029  1.00  0.00     0.120 A 
ATOM      4  C   UNL     1     149.544 157.145 160.370  1.00  0.00     0.021 A 
ATOM      5  N   UNL     1     149.636 158.449 158.374  1.00  0.00    -0.264 NA
ATOM      6  C   UNL     1     148.987 158.098 159.516  1.00  0.00     0.111 A 
ENDROOT
BRANCH   1   7
ATOM      7  C   UNL     1     152.726 156.318 158.496  1.00  0.00     0.073 C 
ATOM      8  O   UNL     1     153.797 156.736 159.011  1.00  0.00    -0.545 OA
ATOM      9  O   UNL     1     152.780 155.273 157.581  1.00  0.00    -0.545 OA
ENDBRANCH   1   7
TORSDOF 1
ENDMDL
MODEL 6
REMARK VINA RESULT:    -4.733      3.147      4.135
REMARK INTER + INTRA:          -5.033
REMARK INTER:                  -5.012
REMARK INTRA:                  -0.022
REMARK UNBOUND:                -0.024
REMARK SMILES O=C([O-])c1cccnc1
REMARK SMILES IDX 4 1 5 2 9 3 6 4 8 5 7 6 2 7 1 8 3 9
REMARK H PARENT
REMARK Flexibility Score: inf
ROOT
ATOM      1  C   UNL     1     151.225 156.886 159.131  1.00  0.00     0.016 A 
ATOM      2  C   UNL     1     151.410 156.313 160.399  1.00  0.00     0.013 A 
ATOM      3  C   UNL     1     152.053 156.459 158.078  1.00  0.00     0.120 A 
ATOM      4  C   UNL     1     152.397 155.345 160.594  1.00  0.00     0.021 A 
ATOM      5  N   UNL     1     153.006 155.514 158.293  1.00  0.00    -0.264 NA
ATOM      6  C   UNL     1     153.194 154.954 159.518  1.00  0.00     0.111 A 
ENDROOT
BRANCH   1   7
ATOM      7  C   UNL     1     150.182 157.912 158.912  1.00  0.00     0.073 C 
ATOM      8  O   UNL     1     150.315 158.777 158.006  1.00  0.00    -0.545 OA
ATOM      9  O   UNL     1     149.041 157.936 159.707  1.00  0.00    -0.545 OA
ENDBRANCH   1   7
TORSDOF 1
ENDMDL
MODEL 7
REMARK VINA RESULT:    -4.711      3.276      4.054
REMARK INTER + INTRA:          -5.010
REMARK INTER:                  -4.986
REMARK INTRA:                  -0.024
REMARK UNBOUND:                -0.024
REMARK SMILES O=C([O-])c1cccnc1
REMARK SMILES IDX 4 1 5 2 9 3 6 4 8 5 7 6 2 7 1 8 3 9
REMARK H PARENT
REMARK Flexibility Score: inf
ROOT
ATOM      1  C   UNL     1     150.699 157.306 158.986  1.00  0.00     0.016 A 
ATOM      2  C   UNL     1     151.459 157.106 157.822  1.00  0.00     0.013 A 
ATOM      3  C   UNL     1     151.064 156.607 160.151  1.00  0.00     0.120 A 
ATOM      4  C   UNL     1     152.547 156.232 157.837  1.00  0.00     0.021 A 
ATOM      5  N   UNL     1     152.129 155.762 160.139  1.00  0.00    -0.264 NA
ATOM      6  C   UNL     1     152.871 155.561 159.017  1.00  0.00     0.111 A 
ENDROOT
BRANCH   1   7
ATOM      7  C   UNL     1     149.544 158.230 158.983  1.00  0.00     0.073 C 
ATOM      8  O   UNL     1     148.839 158.377 160.017  1.00  0.00    -0.545 OA
ATOM      9  O   UNL     1     149.221 158.948 157.837  1.00  0.00    -0.545 OA
ENDBRANCH   1   7
TORSDOF 1
ENDMDL
MODEL 8
REMARK VINA RESULT:    -4.675     16.705     17.453
REMARK INTER + INTRA:          -4.972
REMARK INTER:                  -4.956
REMARK INTRA:                  -0.016
REMARK UNBOUND:                -0.024
REMARK SMILES O=C([O-])c1cccnc1
REMARK SMILES IDX 4 1 5 2 9 3 6 4 8 5 7 6 2 7 1 8 3 9
REMARK H PARENT
REMARK Flexibility Score: inf
ROOT
ATOM      1  C   UNL     1     149.218 169.966 150.577  1.00  0.00     0.016 A 
ATOM      2  C   UNL     1     148.828 169.616 149.274  1.00  0.00     0.013 A 
ATOM      3  C   UNL     1     150.416 169.431 151.082  1.00  0.00     0.120 A 
ATOM      4  C   UNL     1     149.620 168.757 148.512  1.00  0.00     0.021 A 
ATOM      5  N   UNL     1     151.171 168.597 150.318  1.00  0.00    -0.264 NA
ATOM      6  C   UNL     1     150.801 168.251 149.056  1.00  0.00     0.111 A 
ENDROOT
BRANCH   1   7
ATOM      7  C   UNL     1     148.387 170.876 151.395  1.00  0.00     0.073 C 
ATOM      8  O   UNL     1     148.517 172.125 151.295  1.00  0.00    -0.545 OA
ATOM      9  O   UNL     1     147.450 170.363 152.286  1.00  0.00    -0.545 OA
ENDBRANCH   1   7
TORSDOF 1
ENDMDL
MODEL 9
REMARK VINA RESULT:    -4.503     15.709     16.543
REMARK INTER + INTRA:          -4.790
REMARK INTER:                  -4.770
REMARK INTRA:                  -0.020
REMARK UNBOUND:                -0.024
REMARK SMILES O=C([O-])c1cccnc1
REMARK SMILES IDX 4 1 5 2 9 3 6 4 8 5 7 6 2 7 1 8 3 9
REMARK H PARENT
REMARK Flexibility Score: inf
ROOT
ATOM      1  C   UNL     1     150.725 169.166 150.847  1.00  0.00     0.016 A 
ATOM      2  C   UNL     1     149.539 169.917 150.862  1.00  0.00     0.013 A 
ATOM      3  C   UNL     1     151.037 168.434 149.687  1.00  0.00     0.120 A 
ATOM      4  C   UNL     1     148.701 169.927 149.746  1.00  0.00     0.021 A 
ATOM      5  N   UNL     1     150.204 168.461 148.613  1.00  0.00    -0.264 NA
ATOM      6  C   UNL     1     149.054 169.185 148.618  1.00  0.00     0.111 A 
ENDROOT
BRANCH   1   7
ATOM      7  C   UNL     1     151.621 169.147 152.023  1.00  0.00     0.073 C 
ATOM      8  O   UNL     1     152.872 169.144 151.875  1.00  0.00    -0.545 OA
ATOM      9  O   UNL     1     151.093 169.131 153.310  1.00  0.00    -0.545 OA
ENDBRANCH   1   7
TORSDOF 1
ENDMDL
