MODEL 1
REMARK VINA RESULT:    -1.158      0.000      0.000
REMARK INTER + INTRA:          -1.155
REMARK INTER:                  -1.564
REMARK INTRA:                   0.409
REMARK UNBOUND:                 0.409
REMARK SMILES COc1ccc(-c2cc(=O)c3c(OC)c(OC)c(OC)c(OC)c3o2)cc1
REMARK SMILES IDX 7 1 8 2 9 3 10 4 11 5 24 6 25 7 21 8 18 9 15 10 12 11 6 12
REMARK SMILES IDX 3 13 4 14 27 15 5 16 26 17 2 18 1 19 22 20 23 21 13 22 14 23
REMARK SMILES IDX 19 24 20 25 16 26 17 27
REMARK H PARENT
REMARK Flexibility Score: inf
ROOT
ATOM      1  C   UNL     1       2.114  14.670  18.251  1.00  0.00     0.138 A 
ATOM      2  C   UNL     1       2.723  14.046  19.345  1.00  0.00     0.100 A 
ATOM      3  C   UNL     1       3.561  12.958  19.128  1.00  0.00     0.197 A 
ATOM      4  O   UNL     1       4.103  12.410  20.125  1.00  0.00    -0.289 OA
ATOM      5  C   UNL     1       3.784  12.492  17.810  1.00  0.00     0.115 A 
ATOM      6  C   UNL     1       3.153  13.188  16.752  1.00  0.00     0.188 A 
ATOM      7  O   UNL     1       2.365  14.225  17.024  1.00  0.00    -0.452 OA
ATOM      8  C   UNL     1       3.335  12.775  15.413  1.00  0.00     0.209 A 
ATOM      9  C   UNL     1       4.126  11.630  15.134  1.00  0.00     0.211 A 
ATOM     10  C   UNL     1       4.760  10.932  16.196  1.00  0.00     0.208 A 
ATOM     11  C   UNL     1       4.580  11.360  17.531  1.00  0.00     0.179 A 
ENDROOT
BRANCH   1  12
ATOM     12  C   UNL     1       1.193  15.819  18.426  1.00  0.00     0.018 A 
ATOM     13  C   UNL     1      -0.591  17.968  18.842  1.00  0.00     0.118 A 
ATOM     14  C   UNL     1       0.797  18.196  18.786  1.00  0.00     0.047 A 
ATOM     15  C   UNL     1      -1.073  16.664  18.687  1.00  0.00     0.047 A 
ATOM     16  C   UNL     1       1.680  17.131  18.582  1.00  0.00     0.016 A 
ATOM     17  C   UNL     1      -0.192  15.599  18.485  1.00  0.00     0.016 A 
BRANCH  13  18
ATOM     18  O   UNL     1      -1.517  19.003  19.051  1.00  0.00    -0.497 OA
ATOM     19  C   UNL     1      -1.997  19.868  18.028  1.00  0.00     0.278 C 
ENDBRANCH  13  18
ENDBRANCH   1  12
BRANCH   8  20
ATOM     20  O   UNL     1       2.750  13.466  14.334  1.00  0.00    -0.490 OA
ATOM     21  C   UNL     1       1.402  13.369  13.881  1.00  0.00     0.278 C 
ENDBRANCH   8  20
BRANCH  11  22
ATOM     22  O   UNL     1       5.197  10.691  18.606  1.00  0.00    -0.492 OA
ATOM     23  C   UNL     1       6.454  11.043  19.186  1.00  0.00     0.278 C 
ENDBRANCH  11  22
BRANCH   9  24
ATOM     24  O   UNL     1       4.324  11.153  13.821  1.00  0.00    -0.490 OA
ATOM     25  C   UNL     1       3.507  10.251  13.083  1.00  0.00     0.279 C 
ENDBRANCH   9  24
BRANCH  10  26
ATOM     26  O   UNL     1       5.609   9.827  15.986  1.00  0.00    -0.490 OA
ATOM     27  C   UNL     1       5.373   8.687  15.166  1.00  0.00     0.278 C 
ENDBRANCH  10  26
TORSDOF 6
ENDMDL
MODEL 2
REMARK VINA RESULT:    -0.123      1.058      3.673
REMARK INTER + INTRA:           0.243
REMARK INTER:                  -0.562
REMARK INTRA:                   0.805
REMARK UNBOUND:                 0.409
REMARK SMILES COc1ccc(-c2cc(=O)c3c(OC)c(OC)c(OC)c(OC)c3o2)cc1
REMARK SMILES IDX 7 1 8 2 9 3 10 4 11 5 24 6 25 7 21 8 18 9 15 10 12 11 6 12
REMARK SMILES IDX 3 13 4 14 27 15 5 16 26 17 2 18 1 19 22 20 23 21 13 22 14 23
REMARK SMILES IDX 19 24 20 25 16 26 17 27
REMARK H PARENT
REMARK Flexibility Score: inf
ROOT
ATOM      1  C   UNL     1       1.710  14.839  17.470  1.00  0.00     0.138 A 
ATOM      2  C   UNL     1       1.594  14.690  16.084  1.00  0.00     0.100 A 
ATOM      3  C   UNL     1       2.361  13.727  15.437  1.00  0.00     0.197 A 
ATOM      4  O   UNL     1       2.241  13.604  14.189  1.00  0.00    -0.289 OA
ATOM      5  C   UNL     1       3.248  12.915  16.184  1.00  0.00     0.115 A 
ATOM      6  C   UNL     1       3.295  13.108  17.585  1.00  0.00     0.188 A 
ATOM      7  O   UNL     1       2.533  14.044  18.145  1.00  0.00    -0.452 OA
ATOM      8  C   UNL     1       4.159  12.330  18.388  1.00  0.00     0.209 A 
ATOM      9  C   UNL     1       5.015  11.376  17.777  1.00  0.00     0.211 A 
ATOM     10  C   UNL     1       4.968  11.182  16.370  1.00  0.00     0.208 A 
ATOM     11  C   UNL     1       4.091  11.958  15.578  1.00  0.00     0.179 A 
ENDROOT
BRANCH   1  12
ATOM     12  C   UNL     1       0.935  15.866  18.207  1.00  0.00     0.018 A 
ATOM     13  C   UNL     1      -0.538  17.878  19.534  1.00  0.00     0.118 A 
ATOM     14  C   UNL     1      -1.107  16.610  19.309  1.00  0.00     0.047 A 
ATOM     15  C   UNL     1       0.766  18.126  19.094  1.00  0.00     0.047 A 
ATOM     16  C   UNL     1      -0.378  15.615  18.651  1.00  0.00     0.016 A 
ATOM     17  C   UNL     1       1.495  17.133  18.434  1.00  0.00     0.016 A 
BRANCH  13  18
ATOM     18  O   UNL     1      -1.231  18.910  20.185  1.00  0.00    -0.497 OA
ATOM     19  C   UNL     1      -0.617  20.079  20.717  1.00  0.00     0.278 C 
ENDBRANCH  13  18
ENDBRANCH   1  12
BRANCH   8  20
ATOM     20  O   UNL     1       4.204  12.472  19.788  1.00  0.00    -0.490 OA
ATOM     21  C   UNL     1       4.356  11.434  20.753  1.00  0.00     0.278 C 
ENDBRANCH   8  20
BRANCH  11  22
ATOM     22  O   UNL     1       4.020  11.788  14.181  1.00  0.00    -0.492 OA
ATOM     23  C   UNL     1       3.264  10.779  13.510  1.00  0.00     0.278 C 
ENDBRANCH  11  22
BRANCH   9  24
ATOM     24  O   UNL     1       5.918  10.588  18.520  1.00  0.00    -0.490 OA
ATOM     25  C   UNL     1       7.113  11.003  19.172  1.00  0.00     0.279 C 
ENDBRANCH   9  24
BRANCH  10  26
ATOM     26  O   UNL     1       5.742  10.210  15.706  1.00  0.00    -0.490 OA
ATOM     27  C   UNL     1       5.308   8.965  15.168  1.00  0.00     0.278 C 
ENDBRANCH  10  26
TORSDOF 6
ENDMDL
MODEL 3
REMARK VINA RESULT:     0.251      3.936      7.866
REMARK INTER + INTRA:           0.748
REMARK INTER:                   0.255
REMARK INTRA:                   0.494
REMARK UNBOUND:                 0.409
REMARK SMILES COc1ccc(-c2cc(=O)c3c(OC)c(OC)c(OC)c(OC)c3o2)cc1
REMARK SMILES IDX 7 1 8 2 9 3 10 4 11 5 24 6 25 7 21 8 18 9 15 10 12 11 6 12
REMARK SMILES IDX 3 13 4 14 27 15 5 16 26 17 2 18 1 19 22 20 23 21 13 22 14 23
REMARK SMILES IDX 19 24 20 25 16 26 17 27
REMARK H PARENT
REMARK Flexibility Score: inf
ROOT
ATOM      1  C   UNL     1       2.461   8.590  17.967  1.00  0.00     0.138 A 
ATOM      2  C   UNL     1       2.219   9.581  18.924  1.00  0.00     0.100 A 
ATOM      3  C   UNL     1       2.584  10.894  18.652  1.00  0.00     0.197 A 
ATOM      4  O   UNL     1       2.355  11.774  19.524  1.00  0.00    -0.289 OA
ATOM      5  C   UNL     1       3.198  11.213  17.417  1.00  0.00     0.115 A 
ATOM      6  C   UNL     1       3.390  10.163  16.488  1.00  0.00     0.188 A 
ATOM      7  O   UNL     1       3.016   8.926  16.807  1.00  0.00    -0.452 OA
ATOM      8  C   UNL     1       3.997  10.414  15.236  1.00  0.00     0.209 A 
ATOM      9  C   UNL     1       4.451  11.723  14.927  1.00  0.00     0.211 A 
ATOM     10  C   UNL     1       4.257  12.777  15.860  1.00  0.00     0.208 A 
ATOM     11  C   UNL     1       3.639  12.518  17.104  1.00  0.00     0.179 A 
ENDROOT
BRANCH   1  12
ATOM     12  C   UNL     1       2.115   7.170  18.214  1.00  0.00     0.018 A 
ATOM     13  C   UNL     1       1.536   4.439  18.641  1.00  0.00     0.118 A 
ATOM     14  C   UNL     1       1.748   5.301  19.733  1.00  0.00     0.047 A 
ATOM     15  C   UNL     1       1.614   4.954  17.343  1.00  0.00     0.047 A 
ATOM     16  C   UNL     1       2.037   6.652  19.522  1.00  0.00     0.016 A 
ATOM     17  C   UNL     1       1.904   6.305  17.130  1.00  0.00     0.016 A 
BRANCH  13  18
ATOM     18  O   UNL     1       1.250   3.074  18.802  1.00  0.00    -0.497 OA
ATOM     19  C   UNL     1       2.191   2.027  18.596  1.00  0.00     0.278 C 
ENDBRANCH  13  18
ENDBRANCH   1  12
BRANCH   8  20
ATOM     20  O   UNL     1       4.171   9.399  14.276  1.00  0.00    -0.490 OA
ATOM     21  C   UNL     1       5.281   8.514  14.153  1.00  0.00     0.278 C 
ENDBRANCH   8  20
BRANCH  11  22
ATOM     22  O   UNL     1       3.431  13.541  18.048  1.00  0.00    -0.492 OA
ATOM     23  C   UNL     1       2.344  14.468  18.035  1.00  0.00     0.278 C 
ENDBRANCH  11  22
BRANCH   9  24
ATOM     24  O   UNL     1       5.086  12.031  13.707  1.00  0.00    -0.490 OA
ATOM     25  C   UNL     1       6.026  13.068  13.445  1.00  0.00     0.279 C 
ENDBRANCH   9  24
BRANCH  10  26
ATOM     26  O   UNL     1       4.625  14.111  15.593  1.00  0.00    -0.490 OA
ATOM     27  C   UNL     1       5.753  14.823  16.092  1.00  0.00     0.278 C 
ENDBRANCH  10  26
TORSDOF 6
ENDMDL
MODEL 4
REMARK VINA RESULT:     0.815      2.039      3.522
REMARK INTER + INTRA:           1.509
REMARK INTER:                   1.560
REMARK INTRA:                  -0.050
REMARK UNBOUND:                 0.409
REMARK SMILES COc1ccc(-c2cc(=O)c3c(OC)c(OC)c(OC)c(OC)c3o2)cc1
REMARK SMILES IDX 7 1 8 2 9 3 10 4 11 5 24 6 25 7 21 8 18 9 15 10 12 11 6 12
REMARK SMILES IDX 3 13 4 14 27 15 5 16 26 17 2 18 1 19 22 20 23 21 13 22 14 23
REMARK SMILES IDX 19 24 20 25 16 26 17 27
REMARK H PARENT
REMARK Flexibility Score: inf
ROOT
ATOM      1  C   UNL     1       2.307  13.964  17.206  1.00  0.00     0.138 A 
ATOM      2  C   UNL     1       3.104  14.173  16.076  1.00  0.00     0.100 A 
ATOM      3  C   UNL     1       3.742  13.088  15.483  1.00  0.00     0.197 A 
ATOM      4  O   UNL     1       4.453  13.294  14.464  1.00  0.00    -0.289 OA
ATOM      5  C   UNL     1       3.582  11.792  16.030  1.00  0.00     0.115 A 
ATOM      6  C   UNL     1       2.742  11.655  17.160  1.00  0.00     0.188 A 
ATOM      7  O   UNL     1       2.157  12.731  17.680  1.00  0.00    -0.452 OA
ATOM      8  C   UNL     1       2.539  10.388  17.754  1.00  0.00     0.209 A 
ATOM      9  C   UNL     1       3.216   9.254  17.234  1.00  0.00     0.211 A 
ATOM     10  C   UNL     1       4.059   9.392  16.098  1.00  0.00     0.208 A 
ATOM     11  C   UNL     1       4.246  10.661  15.506  1.00  0.00     0.179 A 
ENDROOT
BRANCH   1  12
ATOM     12  C   UNL     1       1.625  15.087  17.893  1.00  0.00     0.018 A 
ATOM     13  C   UNL     1       0.326  17.275  19.119  1.00  0.00     0.118 A 
ATOM     14  C   UNL     1      -0.320  16.029  19.018  1.00  0.00     0.047 A 
ATOM     15  C   UNL     1       1.620  17.413  18.605  1.00  0.00     0.047 A 
ATOM     16  C   UNL     1       0.322  14.946  18.410  1.00  0.00     0.016 A 
ATOM     17  C   UNL     1       2.263  16.333  17.995  1.00  0.00     0.016 A 
BRANCH  13  18
ATOM     18  O   UNL     1      -0.279  18.392  19.715  1.00  0.00    -0.497 OA
ATOM     19  C   UNL     1       0.134  19.738  19.504  1.00  0.00     0.278 C 
ENDBRANCH  13  18
ENDBRANCH   1  12
BRANCH   8  20
ATOM     20  O   UNL     1       1.683  10.211  18.857  1.00  0.00    -0.490 OA
ATOM     21  C   UNL     1       0.408   9.574  18.862  1.00  0.00     0.278 C 
ENDBRANCH   8  20
BRANCH  11  22
ATOM     22  O   UNL     1       5.073  10.831  14.378  1.00  0.00    -0.492 OA
ATOM     23  C   UNL     1       4.784  10.352  13.064  1.00  0.00     0.278 C 
ENDBRANCH  11  22
BRANCH   9  24
ATOM     24  O   UNL     1       3.076   7.969  17.797  1.00  0.00    -0.490 OA
ATOM     25  C   UNL     1       2.037   7.022  17.574  1.00  0.00     0.279 C 
ENDBRANCH   9  24
BRANCH  10  26
ATOM     26  O   UNL     1       4.710   8.300  15.492  1.00  0.00    -0.490 OA
ATOM     27  C   UNL     1       4.218   7.452  14.459  1.00  0.00     0.278 C 
ENDBRANCH  10  26
TORSDOF 6
ENDMDL
MODEL 5
REMARK VINA RESULT:     0.941      4.623      6.985
REMARK INTER + INTRA:           1.680
REMARK INTER:                   0.829
REMARK INTRA:                   0.851
REMARK UNBOUND:                 0.409
REMARK SMILES COc1ccc(-c2cc(=O)c3c(OC)c(OC)c(OC)c(OC)c3o2)cc1
REMARK SMILES IDX 7 1 8 2 9 3 10 4 11 5 24 6 25 7 21 8 18 9 15 10 12 11 6 12
REMARK SMILES IDX 3 13 4 14 27 15 5 16 26 17 2 18 1 19 22 20 23 21 13 22 14 23
REMARK SMILES IDX 19 24 20 25 16 26 17 27
REMARK H PARENT
REMARK Flexibility Score: inf
ROOT
ATOM      1  C   UNL     1       2.691   9.311  17.689  1.00  0.00     0.138 A 
ATOM      2  C   UNL     1       3.124  10.233  18.647  1.00  0.00     0.100 A 
ATOM      3  C   UNL     1       3.925  11.299  18.252  1.00  0.00     0.197 A 
ATOM      4  O   UNL     1       4.304  12.122  19.128  1.00  0.00    -0.289 OA
ATOM      5  C   UNL     1       4.295  11.437  16.893  1.00  0.00     0.115 A 
ATOM      6  C   UNL     1       3.799  10.478  15.977  1.00  0.00     0.188 A 
ATOM      7  O   UNL     1       3.034   9.483  16.417  1.00  0.00    -0.452 OA
ATOM      8  C   UNL     1       4.130  10.559  14.605  1.00  0.00     0.209 A 
ATOM      9  C   UNL     1       4.997  11.587  14.152  1.00  0.00     0.211 A 
ATOM     10  C   UNL     1       5.494  12.550  15.072  1.00  0.00     0.208 A 
ATOM     11  C   UNL     1       5.148  12.466  16.440  1.00  0.00     0.179 A 
ENDROOT
BRANCH   1  12
ATOM     12  C   UNL     1       1.856   8.142  18.058  1.00  0.00     0.018 A 
ATOM     13  C   UNL     1       0.322   5.903  18.838  1.00  0.00     0.118 A 
ATOM     14  C   UNL     1      -0.265   7.181  18.774  1.00  0.00     0.047 A 
ATOM     15  C   UNL     1       1.673   5.758  18.508  1.00  0.00     0.047 A 
ATOM     16  C   UNL     1       0.496   8.289  18.389  1.00  0.00     0.016 A 
ATOM     17  C   UNL     1       2.435   6.866  18.126  1.00  0.00     0.016 A 
BRANCH  13  18
ATOM     18  O   UNL     1      -0.398   4.762  19.224  1.00  0.00    -0.497 OA
ATOM     19  C   UNL     1       0.198   3.554  19.684  1.00  0.00     0.278 C 
ENDBRANCH  13  18
ENDBRANCH   1  12
BRANCH   8  20
ATOM     20  O   UNL     1       3.625   9.643  13.662  1.00  0.00    -0.490 OA
ATOM     21  C   UNL     1       3.974   8.267  13.529  1.00  0.00     0.278 C 
ENDBRANCH   8  20
BRANCH  11  22
ATOM     22  O   UNL     1       5.623  13.406  17.376  1.00  0.00    -0.492 OA
ATOM     23  C   UNL     1       6.864  13.316  18.078  1.00  0.00     0.278 C 
ENDBRANCH  11  22
BRANCH   9  24
ATOM     24  O   UNL     1       5.385  11.705  12.802  1.00  0.00    -0.490 OA
ATOM     25  C   UNL     1       5.764  10.667  11.904  1.00  0.00     0.279 C 
ENDBRANCH   9  24
BRANCH  10  26
ATOM     26  O   UNL     1       6.307  13.632  14.681  1.00  0.00    -0.490 OA
ATOM     27  C   UNL     1       6.628  14.051  13.358  1.00  0.00     0.278 C 
ENDBRANCH  10  26
TORSDOF 6
ENDMDL
MODEL 6
REMARK VINA RESULT:     1.766      3.938      7.981
REMARK INTER + INTRA:           2.794
REMARK INTER:                   3.118
REMARK INTRA:                  -0.324
REMARK UNBOUND:                 0.409
REMARK SMILES COc1ccc(-c2cc(=O)c3c(OC)c(OC)c(OC)c(OC)c3o2)cc1
REMARK SMILES IDX 7 1 8 2 9 3 10 4 11 5 24 6 25 7 21 8 18 9 15 10 12 11 6 12
REMARK SMILES IDX 3 13 4 14 27 15 5 16 26 17 2 18 1 19 22 20 23 21 13 22 14 23
REMARK SMILES IDX 19 24 20 25 16 26 17 27
REMARK H PARENT
REMARK Flexibility Score: inf
ROOT
ATOM      1  C   UNL     1       3.029   8.053  16.875  1.00  0.00     0.138 A 
ATOM      2  C   UNL     1       3.745   7.633  15.749  1.00  0.00     0.100 A 
ATOM      3  C   UNL     1       4.333   8.584  14.923  1.00  0.00     0.197 A 
ATOM      4  O   UNL     1       4.976   8.188  13.914  1.00  0.00    -0.289 OA
ATOM      5  C   UNL     1       4.198   9.960  15.226  1.00  0.00     0.115 A 
ATOM      6  C   UNL     1       3.480  10.309  16.394  1.00  0.00     0.188 A 
ATOM      7  O   UNL     1       2.943   9.351  17.147  1.00  0.00    -0.452 OA
ATOM      8  C   UNL     1       3.310  11.665  16.754  1.00  0.00     0.209 A 
ATOM      9  C   UNL     1       3.831  12.684  15.914  1.00  0.00     0.211 A 
ATOM     10  C   UNL     1       4.552  12.333  14.741  1.00  0.00     0.208 A 
ATOM     11  C   UNL     1       4.726  10.974  14.397  1.00  0.00     0.179 A 
ENDROOT
BRANCH   1  12
ATOM     12  C   UNL     1       2.362   7.083  17.777  1.00  0.00     0.018 A 
ATOM     13  C   UNL     1       1.162   5.176  19.479  1.00  0.00     0.118 A 
ATOM     14  C   UNL     1       1.570   6.424  19.985  1.00  0.00     0.047 A 
ATOM     15  C   UNL     1       1.356   4.895  18.123  1.00  0.00     0.047 A 
ATOM     16  C   UNL     1       2.166   7.367  19.142  1.00  0.00     0.016 A 
ATOM     17  C   UNL     1       1.953   5.836  17.280  1.00  0.00     0.016 A 
BRANCH  13  18
ATOM     18  O   UNL     1       0.565   4.195  20.286  1.00  0.00    -0.497 OA
ATOM     19  C   UNL     1      -0.424   3.276  19.834  1.00  0.00     0.278 C 
ENDBRANCH  13  18
ENDBRANCH   1  12
BRANCH   8  20
ATOM     20  O   UNL     1       2.631  12.044  17.928  1.00  0.00    -0.490 OA
ATOM     21  C   UNL     1       3.199  12.260  19.218  1.00  0.00     0.278 C 
ENDBRANCH   8  20
BRANCH  11  22
ATOM     22  O   UNL     1       5.438  10.595  13.242  1.00  0.00    -0.492 OA
ATOM     23  C   UNL     1       4.942  10.669  11.905  1.00  0.00     0.278 C 
ENDBRANCH  11  22
BRANCH   9  24
ATOM     24  O   UNL     1       3.671  14.054  16.205  1.00  0.00    -0.490 OA
ATOM     25  C   UNL     1       2.471  14.748  16.529  1.00  0.00     0.279 C 
ENDBRANCH   9  24
BRANCH  10  26
ATOM     26  O   UNL     1       5.150  13.290  13.897  1.00  0.00    -0.490 OA
ATOM     27  C   UNL     1       6.506  13.725  13.891  1.00  0.00     0.278 C 
ENDBRANCH  10  26
TORSDOF 6
ENDMDL
