MODEL 1
REMARK VINA RESULT:    -4.198      0.000      0.000
REMARK INTER + INTRA:          -9.054
REMARK INTER:                  -7.388
REMARK INTRA:                  -1.665
REMARK UNBOUND:                -1.665
REMARK SMILES CCCCCCCCCCCCCCC(=O)[O-]
REMARK SMILES IDX 9 1 10 2 11 3 12 4 13 5 14 6 15 7 16 8 17 9 8 10 7 11 6 12
REMARK SMILES IDX 5 13 4 14 3 15 2 16 1 17
REMARK H PARENT
REMARK Flexibility Score: inf
ROOT
ATOM      1  C   UNL     1      57.985  34.551  80.185  1.00  0.00     0.000 C 
ENDROOT
BRANCH   1   2
ATOM      2  C   UNL     1      58.763  33.656  79.206  1.00  0.00     0.000 C 
BRANCH   2   3
ATOM      3  C   UNL     1      57.843  32.713  78.413  1.00  0.00     0.000 C 
BRANCH   3   4
ATOM      4  C   UNL     1      58.591  31.936  77.316  1.00  0.00     0.000 C 
BRANCH   4   5
ATOM      5  C   UNL     1      57.927  32.033  75.925  1.00  0.00     0.006 C 
BRANCH   5   6
ATOM      6  C   UNL     1      58.237  30.812  75.050  1.00  0.00     0.053 C 
BRANCH   6   7
ATOM      7  C   UNL     1      57.091  29.850  75.067  1.00  0.00     0.041 C 
ATOM      8  O   UNL     1      57.109  28.860  75.845  1.00  0.00    -0.550 OA
ATOM      9  O   UNL     1      55.982  30.074  74.261  1.00  0.00    -0.550 OA
ENDBRANCH   6   7
ENDBRANCH   5   6
ENDBRANCH   4   5
ENDBRANCH   3   4
ENDBRANCH   2   3
ENDBRANCH   1   2
BRANCH   1  10
ATOM     10  C   UNL     1      58.874  35.612  80.852  1.00  0.00     0.000 C 
BRANCH  10  11
ATOM     11  C   UNL     1      58.460  37.024  80.421  1.00  0.00    -0.000 C 
BRANCH  11  12
ATOM     12  C   UNL     1      56.960  37.086  80.106  1.00  0.00    -0.000 C 
BRANCH  12  13
ATOM     13  C   UNL     1      56.718  37.624  78.688  1.00  0.00    -0.000 C 
BRANCH  13  14
ATOM     14  C   UNL     1      57.986  37.603  77.813  1.00  0.00    -0.000 C 
BRANCH  14  15
ATOM     15  C   UNL     1      58.056  36.449  76.797  1.00  0.00    -0.000 C 
BRANCH  15  16
ATOM     16  C   UNL     1      56.734  35.678  76.674  1.00  0.00    -0.003 C 
ATOM     17  C   UNL     1      56.296  35.568  75.217  1.00  0.00     0.004 C 
ENDBRANCH  15  16
ENDBRANCH  14  15
ENDBRANCH  13  14
ENDBRANCH  12  13
ENDBRANCH  11  12
ENDBRANCH  10  11
ENDBRANCH   1  10
TORSDOF 13
ENDMDL
MODEL 2
REMARK VINA RESULT:    -4.141      1.246      1.874
REMARK INTER + INTRA:          -8.953
REMARK INTER:                  -7.226
REMARK INTRA:                  -1.727
REMARK UNBOUND:                -1.665
REMARK SMILES CCCCCCCCCCCCCCC(=O)[O-]
REMARK SMILES IDX 9 1 10 2 11 3 12 4 13 5 14 6 15 7 16 8 17 9 8 10 7 11 6 12
REMARK SMILES IDX 5 13 4 14 3 15 2 16 1 17
REMARK H PARENT
REMARK Flexibility Score: inf
ROOT
ATOM      1  C   UNL     1      57.936  33.565  79.652  1.00  0.00     0.000 C 
ENDROOT
BRANCH   1   2
ATOM      2  C   UNL     1      57.876  32.972  78.235  1.00  0.00     0.000 C 
BRANCH   2   3
ATOM      3  C   UNL     1      57.669  34.046  77.155  1.00  0.00     0.000 C 
BRANCH   3   4
ATOM      4  C   UNL     1      58.369  33.701  75.830  1.00  0.00     0.000 C 
BRANCH   4   5
ATOM      5  C   UNL     1      57.410  33.171  74.742  1.00  0.00     0.006 C 
BRANCH   5   6
ATOM      6  C   UNL     1      57.874  31.827  74.166  1.00  0.00     0.053 C 
BRANCH   6   7
ATOM      7  C   UNL     1      56.935  30.733  74.566  1.00  0.00     0.041 C 
ATOM      8  O   UNL     1      57.028  30.204  75.705  1.00  0.00    -0.550 OA
ATOM      9  O   UNL     1      55.925  30.333  73.700  1.00  0.00    -0.550 OA
ENDBRANCH   6   7
ENDBRANCH   5   6
ENDBRANCH   4   5
ENDBRANCH   3   4
ENDBRANCH   2   3
ENDBRANCH   1   2
BRANCH   1  10
ATOM     10  C   UNL     1      58.944  34.719  79.771  1.00  0.00     0.000 C 
BRANCH  10  11
ATOM     11  C   UNL     1      58.618  35.610  80.976  1.00  0.00    -0.000 C 
BRANCH  11  12
ATOM     12  C   UNL     1      58.258  37.032  80.528  1.00  0.00    -0.000 C 
BRANCH  12  13
ATOM     13  C   UNL     1      56.773  37.129  80.148  1.00  0.00    -0.000 C 
BRANCH  13  14
ATOM     14  C   UNL     1      56.551  37.289  78.632  1.00  0.00    -0.000 C 
BRANCH  14  15
ATOM     15  C   UNL     1      57.487  38.299  77.941  1.00  0.00    -0.000 C 
BRANCH  15  16
ATOM     16  C   UNL     1      58.179  37.719  76.699  1.00  0.00    -0.003 C 
ATOM     17  C   UNL     1      59.566  37.184  77.042  1.00  0.00     0.004 C 
ENDBRANCH  15  16
ENDBRANCH  14  15
ENDBRANCH  13  14
ENDBRANCH  12  13
ENDBRANCH  11  12
ENDBRANCH  10  11
ENDBRANCH   1  10
TORSDOF 13
ENDMDL
MODEL 3
REMARK VINA RESULT:    -4.092      1.269      2.029
REMARK INTER + INTRA:          -8.867
REMARK INTER:                  -6.883
REMARK INTRA:                  -1.984
REMARK UNBOUND:                -1.665
REMARK SMILES CCCCCCCCCCCCCCC(=O)[O-]
REMARK SMILES IDX 9 1 10 2 11 3 12 4 13 5 14 6 15 7 16 8 17 9 8 10 7 11 6 12
REMARK SMILES IDX 5 13 4 14 3 15 2 16 1 17
REMARK H PARENT
REMARK Flexibility Score: inf
ROOT
ATOM      1  C   UNL     1      58.721  36.092  80.396  1.00  0.00     0.000 C 
ENDROOT
BRANCH   1   2
ATOM      2  C   UNL     1      57.887  34.997  79.710  1.00  0.00     0.000 C 
BRANCH   2   3
ATOM      3  C   UNL     1      58.745  33.814  79.233  1.00  0.00     0.000 C 
BRANCH   3   4
ATOM      4  C   UNL     1      57.936  32.774  78.439  1.00  0.00     0.000 C 
BRANCH   4   5
ATOM      5  C   UNL     1      58.733  32.109  77.296  1.00  0.00     0.006 C 
BRANCH   5   6
ATOM      6  C   UNL     1      58.038  30.850  76.762  1.00  0.00     0.053 C 
BRANCH   6   7
ATOM      7  C   UNL     1      57.616  31.047  75.341  1.00  0.00     0.041 C 
ATOM      8  O   UNL     1      58.109  31.983  74.658  1.00  0.00    -0.550 OA
ATOM      9  O   UNL     1      56.716  30.165  74.755  1.00  0.00    -0.550 OA
ENDBRANCH   6   7
ENDBRANCH   5   6
ENDBRANCH   4   5
ENDBRANCH   3   4
ENDBRANCH   2   3
ENDBRANCH   1   2
BRANCH   1  10
ATOM     10  C   UNL     1      58.662  37.436  79.654  1.00  0.00     0.000 C 
BRANCH  10  11
ATOM     11  C   UNL     1      59.610  37.439  78.449  1.00  0.00    -0.000 C 
BRANCH  11  12
ATOM     12  C   UNL     1      59.137  38.430  77.379  1.00  0.00    -0.000 C 
BRANCH  12  13
ATOM     13  C   UNL     1      57.611  38.602  77.425  1.00  0.00    -0.000 C 
BRANCH  13  14
ATOM     14  C   UNL     1      56.883  37.796  76.333  1.00  0.00    -0.000 C 
BRANCH  14  15
ATOM     15  C   UNL     1      56.339  36.430  76.788  1.00  0.00    -0.000 C 
BRANCH  15  16
ATOM     16  C   UNL     1      56.784  35.275  75.879  1.00  0.00    -0.003 C 
ATOM     17  C   UNL     1      58.283  35.339  75.604  1.00  0.00     0.004 C 
ENDBRANCH  15  16
ENDBRANCH  14  15
ENDBRANCH  13  14
ENDBRANCH  12  13
ENDBRANCH  11  12
ENDBRANCH  10  11
ENDBRANCH   1  10
TORSDOF 13
ENDMDL
MODEL 4
REMARK VINA RESULT:    -4.031      3.628      7.238
REMARK INTER + INTRA:          -8.760
REMARK INTER:                  -7.108
REMARK INTRA:                  -1.652
REMARK UNBOUND:                -1.665
REMARK SMILES CCCCCCCCCCCCCCC(=O)[O-]
REMARK SMILES IDX 9 1 10 2 11 3 12 4 13 5 14 6 15 7 16 8 17 9 8 10 7 11 6 12
REMARK SMILES IDX 5 13 4 14 3 15 2 16 1 17
REMARK H PARENT
REMARK Flexibility Score: inf
ROOT
ATOM      1  C   UNL     1      58.826  33.095  75.080  1.00  0.00     0.000 C 
ENDROOT
BRANCH   1   2
ATOM      2  C   UNL     1      57.783  33.103  76.209  1.00  0.00     0.000 C 
BRANCH   2   3
ATOM      3  C   UNL     1      58.283  32.395  77.479  1.00  0.00     0.000 C 
BRANCH   3   4
ATOM      4  C   UNL     1      58.040  33.219  78.754  1.00  0.00     0.000 C 
BRANCH   4   5
ATOM      5  C   UNL     1      57.818  34.723  78.488  1.00  0.00     0.006 C 
BRANCH   5   6
ATOM      6  C   UNL     1      58.930  35.589  79.095  1.00  0.00     0.053 C 
BRANCH   6   7
ATOM      7  C   UNL     1      58.375  36.889  79.584  1.00  0.00     0.041 C 
ATOM      8  O   UNL     1      58.353  37.893  78.824  1.00  0.00    -0.550 OA
ATOM      9  O   UNL     1      57.834  36.979  80.860  1.00  0.00    -0.550 OA
ENDBRANCH   6   7
ENDBRANCH   5   6
ENDBRANCH   4   5
ENDBRANCH   3   4
ENDBRANCH   2   3
ENDBRANCH   1   2
BRANCH   1  10
ATOM     10  C   UNL     1      58.336  32.356  73.824  1.00  0.00     0.000 C 
BRANCH  10  11
ATOM     11  C   UNL     1      56.818  32.497  73.663  1.00  0.00    -0.000 C 
BRANCH  11  12
ATOM     12  C   UNL     1      56.204  31.217  73.082  1.00  0.00    -0.000 C 
BRANCH  12  13
ATOM     13  C   UNL     1      55.639  30.324  74.197  1.00  0.00    -0.000 C 
BRANCH  13  14
ATOM     14  C   UNL     1      56.508  29.082  74.469  1.00  0.00    -0.000 C 
BRANCH  14  15
ATOM     15  C   UNL     1      57.522  29.237  75.617  1.00  0.00    -0.000 C 
BRANCH  15  16
ATOM     16  C   UNL     1      58.959  28.898  75.196  1.00  0.00    -0.003 C 
ATOM     17  C   UNL     1      59.960  29.320  76.268  1.00  0.00     0.004 C 
ENDBRANCH  15  16
ENDBRANCH  14  15
ENDBRANCH  13  14
ENDBRANCH  12  13
ENDBRANCH  11  12
ENDBRANCH  10  11
ENDBRANCH   1  10
TORSDOF 13
ENDMDL
MODEL 5
REMARK VINA RESULT:    -4.030      0.970      1.445
REMARK INTER + INTRA:          -8.758
REMARK INTER:                  -7.232
REMARK INTRA:                  -1.526
REMARK UNBOUND:                -1.665
REMARK SMILES CCCCCCCCCCCCCCC(=O)[O-]
REMARK SMILES IDX 9 1 10 2 11 3 12 4 13 5 14 6 15 7 16 8 17 9 8 10 7 11 6 12
REMARK SMILES IDX 5 13 4 14 3 15 2 16 1 17
REMARK H PARENT
REMARK Flexibility Score: inf
ROOT
ATOM      1  C   UNL     1      57.721  33.566  79.824  1.00  0.00     0.000 C 
ENDROOT
BRANCH   1   2
ATOM      2  C   UNL     1      57.753  32.770  78.508  1.00  0.00     0.000 C 
BRANCH   2   3
ATOM      3  C   UNL     1      58.102  33.650  77.296  1.00  0.00     0.000 C 
BRANCH   3   4
ATOM      4  C   UNL     1      58.292  32.836  76.005  1.00  0.00     0.000 C 
BRANCH   4   5
ATOM      5  C   UNL     1      59.064  31.514  76.214  1.00  0.00     0.006 C 
BRANCH   5   6
ATOM      6  C   UNL     1      58.754  30.484  75.120  1.00  0.00     0.053 C 
BRANCH   6   7
ATOM      7  C   UNL     1      57.305  30.113  75.145  1.00  0.00     0.041 C 
ATOM      8  O   UNL     1      56.835  29.461  76.114  1.00  0.00    -0.550 OA
ATOM      9  O   UNL     1      56.463  30.531  74.123  1.00  0.00    -0.550 OA
ENDBRANCH   6   7
ENDBRANCH   5   6
ENDBRANCH   4   5
ENDBRANCH   3   4
ENDBRANCH   2   3
ENDBRANCH   1   2
BRANCH   1  10
ATOM     10  C   UNL     1      59.113  34.045  80.261  1.00  0.00     0.000 C 
BRANCH  10  11
ATOM     11  C   UNL     1      59.016  35.343  81.072  1.00  0.00    -0.000 C 
BRANCH  11  12
ATOM     12  C   UNL     1      58.373  36.463  80.245  1.00  0.00    -0.000 C 
BRANCH  12  13
ATOM     13  C   UNL     1      59.242  36.817  79.029  1.00  0.00    -0.000 C 
BRANCH  13  14
ATOM     14  C   UNL     1      58.449  37.510  77.905  1.00  0.00    -0.000 C 
BRANCH  14  15
ATOM     15  C   UNL     1      56.928  37.582  78.133  1.00  0.00    -0.000 C 
BRANCH  15  16
ATOM     16  C   UNL     1      56.152  36.530  77.328  1.00  0.00    -0.003 C 
ATOM     17  C   UNL     1      56.159  36.862  75.838  1.00  0.00     0.004 C 
ENDBRANCH  15  16
ENDBRANCH  14  15
ENDBRANCH  13  14
ENDBRANCH  12  13
ENDBRANCH  11  12
ENDBRANCH  10  11
ENDBRANCH   1  10
TORSDOF 13
ENDMDL
MODEL 6
REMARK VINA RESULT:    -4.009      3.768      6.817
REMARK INTER + INTRA:          -8.721
REMARK INTER:                  -7.575
REMARK INTRA:                  -1.146
REMARK UNBOUND:                -1.665
REMARK SMILES CCCCCCCCCCCCCCC(=O)[O-]
REMARK SMILES IDX 9 1 10 2 11 3 12 4 13 5 14 6 15 7 16 8 17 9 8 10 7 11 6 12
REMARK SMILES IDX 5 13 4 14 3 15 2 16 1 17
REMARK H PARENT
REMARK Flexibility Score: inf
ROOT
ATOM      1  C   UNL     1      58.829  33.505  79.127  1.00  0.00     0.000 C 
ENDROOT
BRANCH   1   2
ATOM      2  C   UNL     1      58.563  34.350  80.383  1.00  0.00     0.000 C 
BRANCH   2   3
ATOM      3  C   UNL     1      58.982  35.819  80.205  1.00  0.00     0.000 C 
BRANCH   3   4
ATOM      4  C   UNL     1      57.864  36.806  80.580  1.00  0.00     0.000 C 
BRANCH   4   5
ATOM      5  C   UNL     1      57.037  37.294  79.370  1.00  0.00     0.006 C 
BRANCH   5   6
ATOM      6  C   UNL     1      57.852  37.288  78.071  1.00  0.00     0.053 C 
BRANCH   6   7
ATOM      7  C   UNL     1      58.225  38.683  77.679  1.00  0.00     0.041 C 
ATOM      8  O   UNL     1      57.364  39.602  77.714  1.00  0.00    -0.550 OA
ATOM      9  O   UNL     1      59.535  38.979  77.323  1.00  0.00    -0.550 OA
ENDBRANCH   6   7
ENDBRANCH   5   6
ENDBRANCH   4   5
ENDBRANCH   3   4
ENDBRANCH   2   3
ENDBRANCH   1   2
BRANCH   1  10
ATOM     10  C   UNL     1      57.727  33.655  78.066  1.00  0.00     0.000 C 
BRANCH  10  11
ATOM     11  C   UNL     1      58.043  32.811  76.825  1.00  0.00    -0.000 C 
BRANCH  11  12
ATOM     12  C   UNL     1      58.214  31.332  77.193  1.00  0.00    -0.000 C 
BRANCH  12  13
ATOM     13  C   UNL     1      59.116  30.614  76.178  1.00  0.00    -0.000 C 
BRANCH  13  14
ATOM     14  C   UNL     1      58.348  29.611  75.296  1.00  0.00    -0.000 C 
BRANCH  14  15
ATOM     15  C   UNL     1      56.921  29.286  75.774  1.00  0.00    -0.000 C 
BRANCH  15  16
ATOM     16  C   UNL     1      55.848  29.635  74.732  1.00  0.00    -0.003 C 
ATOM     17  C   UNL     1      56.312  30.769  73.823  1.00  0.00     0.004 C 
ENDBRANCH  15  16
ENDBRANCH  14  15
ENDBRANCH  13  14
ENDBRANCH  12  13
ENDBRANCH  11  12
ENDBRANCH  10  11
ENDBRANCH   1  10
TORSDOF 13
ENDMDL
MODEL 7
REMARK VINA RESULT:    -3.997      3.052      5.935
REMARK INTER + INTRA:          -8.700
REMARK INTER:                  -7.369
REMARK INTRA:                  -1.331
REMARK UNBOUND:                -1.665
REMARK SMILES CCCCCCCCCCCCCCC(=O)[O-]
REMARK SMILES IDX 9 1 10 2 11 3 12 4 13 5 14 6 15 7 16 8 17 9 8 10 7 11 6 12
REMARK SMILES IDX 5 13 4 14 3 15 2 16 1 17
REMARK H PARENT
REMARK Flexibility Score: inf
ROOT
ATOM      1  C   UNL     1      58.397  34.258  80.729  1.00  0.00     0.000 C 
ENDROOT
BRANCH   1   2
ATOM      2  C   UNL     1      59.006  35.595  81.184  1.00  0.00     0.000 C 
BRANCH   2   3
ATOM      3  C   UNL     1      58.547  36.778  80.315  1.00  0.00     0.000 C 
BRANCH   3   4
ATOM      4  C   UNL     1      57.016  36.915  80.257  1.00  0.00     0.000 C 
BRANCH   4   5
ATOM      5  C   UNL     1      56.494  37.466  78.913  1.00  0.00     0.006 C 
BRANCH   5   6
ATOM      6  C   UNL     1      57.546  38.312  78.186  1.00  0.00     0.053 C 
BRANCH   6   7
ATOM      7  C   UNL     1      57.689  37.866  76.765  1.00  0.00     0.041 C 
ATOM      8  O   UNL     1      56.669  37.725  76.040  1.00  0.00    -0.550 OA
ATOM      9  O   UNL     1      58.952  37.655  76.226  1.00  0.00    -0.550 OA
ENDBRANCH   6   7
ENDBRANCH   5   6
ENDBRANCH   4   5
ENDBRANCH   3   4
ENDBRANCH   2   3
ENDBRANCH   1   2
BRANCH   1  10
ATOM     10  C   UNL     1      59.036  33.725  79.436  1.00  0.00     0.000 C 
BRANCH  10  11
ATOM     11  C   UNL     1      57.967  33.185  78.479  1.00  0.00    -0.000 C 
BRANCH  11  12
ATOM     12  C   UNL     1      57.576  34.241  77.437  1.00  0.00    -0.000 C 
BRANCH  12  13
ATOM     13  C   UNL     1      57.605  33.651  76.019  1.00  0.00    -0.000 C 
BRANCH  13  14
ATOM     14  C   UNL     1      58.260  32.258  75.962  1.00  0.00    -0.000 C 
BRANCH  14  15
ATOM     15  C   UNL     1      57.489  31.211  75.137  1.00  0.00    -0.000 C 
BRANCH  15  16
ATOM     16  C   UNL     1      57.317  29.876  75.875  1.00  0.00    -0.003 C 
ATOM     17  C   UNL     1      58.212  28.796  75.275  1.00  0.00     0.004 C 
ENDBRANCH  15  16
ENDBRANCH  14  15
ENDBRANCH  13  14
ENDBRANCH  12  13
ENDBRANCH  11  12
ENDBRANCH  10  11
ENDBRANCH   1  10
TORSDOF 13
ENDMDL
MODEL 8
REMARK VINA RESULT:    -3.892      3.810      6.001
REMARK INTER + INTRA:          -8.516
REMARK INTER:                  -7.055
REMARK INTRA:                  -1.461
REMARK UNBOUND:                -1.665
REMARK SMILES CCCCCCCCCCCCCCC(=O)[O-]
REMARK SMILES IDX 9 1 10 2 11 3 12 4 13 5 14 6 15 7 16 8 17 9 8 10 7 11 6 12
REMARK SMILES IDX 5 13 4 14 3 15 2 16 1 17
REMARK H PARENT
REMARK Flexibility Score: inf
ROOT
ATOM      1  C   UNL     1      58.073  36.769  81.068  1.00  0.00     0.000 C 
ENDROOT
BRANCH   1   2
ATOM      2  C   UNL     1      57.973  37.386  79.663  1.00  0.00     0.000 C 
BRANCH   2   3
ATOM      3  C   UNL     1      56.542  37.344  79.101  1.00  0.00     0.000 C 
BRANCH   3   4
ATOM      4  C   UNL     1      56.476  36.738  77.689  1.00  0.00     0.000 C 
BRANCH   4   5
ATOM      5  C   UNL     1      57.774  36.922  76.874  1.00  0.00     0.006 C 
BRANCH   5   6
ATOM      6  C   UNL     1      57.675  38.088  75.883  1.00  0.00     0.053 C 
BRANCH   6   7
ATOM      7  C   UNL     1      58.335  39.309  76.441  1.00  0.00     0.041 C 
ATOM      8  O   UNL     1      59.519  39.590  76.122  1.00  0.00    -0.550 OA
ATOM      9  O   UNL     1      57.624  40.164  77.274  1.00  0.00    -0.550 OA
ENDBRANCH   6   7
ENDBRANCH   5   6
ENDBRANCH   4   5
ENDBRANCH   3   4
ENDBRANCH   2   3
ENDBRANCH   1   2
BRANCH   1  10
ATOM     10  C   UNL     1      59.140  35.667  81.157  1.00  0.00     0.000 C 
BRANCH  10  11
ATOM     11  C   UNL     1      58.543  34.297  80.816  1.00  0.00    -0.000 C 
BRANCH  11  12
ATOM     12  C   UNL     1      58.926  33.868  79.394  1.00  0.00    -0.000 C 
BRANCH  12  13
ATOM     13  C   UNL     1      57.704  33.331  78.634  1.00  0.00    -0.000 C 
BRANCH  13  14
ATOM     14  C   UNL     1      58.046  32.849  77.211  1.00  0.00    -0.000 C 
BRANCH  14  15
ATOM     15  C   UNL     1      58.354  31.346  77.091  1.00  0.00    -0.000 C 
BRANCH  15  16
ATOM     16  C   UNL     1      57.697  30.697  75.864  1.00  0.00    -0.003 C 
ATOM     17  C   UNL     1      57.514  31.710  74.738  1.00  0.00     0.004 C 
ENDBRANCH  15  16
ENDBRANCH  14  15
ENDBRANCH  13  14
ENDBRANCH  12  13
ENDBRANCH  11  12
ENDBRANCH  10  11
ENDBRANCH   1  10
TORSDOF 13
ENDMDL
MODEL 9
REMARK VINA RESULT:    -3.867      1.696      2.220
REMARK INTER + INTRA:          -8.472
REMARK INTER:                  -6.552
REMARK INTRA:                  -1.920
REMARK UNBOUND:                -1.665
REMARK SMILES CCCCCCCCCCCCCCC(=O)[O-]
REMARK SMILES IDX 9 1 10 2 11 3 12 4 13 5 14 6 15 7 16 8 17 9 8 10 7 11 6 12
REMARK SMILES IDX 5 13 4 14 3 15 2 16 1 17
REMARK H PARENT
REMARK Flexibility Score: inf
ROOT
ATOM      1  C   UNL     1      58.736  35.447  80.725  1.00  0.00     0.000 C 
ENDROOT
BRANCH   1   2
ATOM      2  C   UNL     1      58.258  34.041  80.326  1.00  0.00     0.000 C 
BRANCH   2   3
ATOM      3  C   UNL     1      58.952  33.520  79.057  1.00  0.00     0.000 C 
BRANCH   3   4
ATOM      4  C   UNL     1      57.957  32.997  78.007  1.00  0.00     0.000 C 
BRANCH   4   5
ATOM      5  C   UNL     1      58.411  31.690  77.320  1.00  0.00     0.006 C 
BRANCH   5   6
ATOM      6  C   UNL     1      57.693  31.459  75.985  1.00  0.00     0.053 C 
BRANCH   6   7
ATOM      7  C   UNL     1      58.090  32.501  74.988  1.00  0.00     0.041 C 
ATOM      8  O   UNL     1      59.307  32.745  74.777  1.00  0.00    -0.550 OA
ATOM      9  O   UNL     1      57.117  33.167  74.253  1.00  0.00    -0.550 OA
ENDBRANCH   6   7
ENDBRANCH   5   6
ENDBRANCH   4   5
ENDBRANCH   3   4
ENDBRANCH   2   3
ENDBRANCH   1   2
BRANCH   1  10
ATOM     10  C   UNL     1      59.127  36.306  79.512  1.00  0.00     0.000 C 
BRANCH  10  11
ATOM     11  C   UNL     1      58.345  37.625  79.501  1.00  0.00    -0.000 C 
BRANCH  11  12
ATOM     12  C   UNL     1      56.841  37.373  79.339  1.00  0.00    -0.000 C 
BRANCH  12  13
ATOM     13  C   UNL     1      56.553  36.565  78.065  1.00  0.00    -0.000 C 
BRANCH  13  14
ATOM     14  C   UNL     1      57.054  37.262  76.786  1.00  0.00    -0.000 C 
BRANCH  14  15
ATOM     15  C   UNL     1      57.553  36.312  75.681  1.00  0.00    -0.000 C 
BRANCH  15  16
ATOM     16  C   UNL     1      59.077  36.127  75.695  1.00  0.00    -0.003 C 
ATOM     17  C   UNL     1      59.786  37.432  76.046  1.00  0.00     0.004 C 
ENDBRANCH  15  16
ENDBRANCH  14  15
ENDBRANCH  13  14
ENDBRANCH  12  13
ENDBRANCH  11  12
ENDBRANCH  10  11
ENDBRANCH   1  10
TORSDOF 13
ENDMDL
