MODEL 1
REMARK VINA RESULT:    -3.059      0.000      0.000
REMARK INTER + INTRA:          -3.919
REMARK INTER:                  -3.775
REMARK INTRA:                  -0.144
REMARK UNBOUND:                -0.144
REMARK SMILES CCCCCC(C)=O
REMARK SMILES IDX 4 1 3 2 2 3 1 4 5 5 6 6 8 7 7 8
REMARK H PARENT
REMARK Flexibility Score: inf
ROOT
ATOM      1  C   UNL     1     150.755 151.320 145.845  1.00  0.00     0.008 C 
ENDROOT
BRANCH   1   2
ATOM      2  C   UNL     1     151.590 152.596 145.629  1.00  0.00     0.000 C 
BRANCH   2   3
ATOM      3  C   UNL     1     153.102 152.357 145.466  1.00  0.00    -0.003 C 
ATOM      4  C   UNL     1     153.510 150.907 145.722  1.00  0.00     0.004 C 
ENDBRANCH   2   3
ENDBRANCH   1   2
BRANCH   1   5
ATOM      5  C   UNL     1     149.244 151.572 145.747  1.00  0.00     0.075 C 
BRANCH   5   6
ATOM      6  C   UNL     1     148.493 150.271 145.676  1.00  0.00     0.129 C 
ATOM      7  O   UNL     1     147.274 150.277 145.585  1.00  0.00    -0.300 OA
ATOM      8  C   UNL     1     149.230 148.966 145.694  1.00  0.00     0.087 C 
ENDBRANCH   5   6
ENDBRANCH   1   5
TORSDOF 4
ENDMDL
MODEL 2
REMARK VINA RESULT:    -2.740      2.178      2.682
REMARK INTER + INTRA:          -3.525
REMARK INTER:                  -3.238
REMARK INTRA:                  -0.287
REMARK UNBOUND:                -0.144
REMARK SMILES CCCCCC(C)=O
REMARK SMILES IDX 4 1 3 2 2 3 1 4 5 5 6 6 8 7 7 8
REMARK H PARENT
REMARK Flexibility Score: inf
ROOT
ATOM      1  C   UNL     1     151.421 150.950 143.869  1.00  0.00     0.008 C 
ENDROOT
BRANCH   1   2
ATOM      2  C   UNL     1     151.600 150.005 145.071  1.00  0.00     0.000 C 
BRANCH   2   3
ATOM      3  C   UNL     1     152.987 150.065 145.738  1.00  0.00    -0.003 C 
ATOM      4  C   UNL     1     153.602 151.463 145.712  1.00  0.00     0.004 C 
ENDBRANCH   2   3
ENDBRANCH   1   2
BRANCH   1   5
ATOM      5  C   UNL     1     150.074 151.686 143.884  1.00  0.00     0.075 C 
BRANCH   5   6
ATOM      6  C   UNL     1     149.867 152.387 145.198  1.00  0.00     0.129 C 
ATOM      7  O   UNL     1     150.586 153.326 145.507  1.00  0.00    -0.300 OA
ATOM      8  C   UNL     1     148.769 151.956 146.123  1.00  0.00     0.087 C 
ENDBRANCH   5   6
ENDBRANCH   1   5
TORSDOF 4
ENDMDL
MODEL 3
REMARK VINA RESULT:    -2.692      2.591      3.835
REMARK INTER + INTRA:          -3.466
REMARK INTER:                  -3.234
REMARK INTRA:                  -0.232
REMARK UNBOUND:                -0.144
REMARK SMILES CCCCCC(C)=O
REMARK SMILES IDX 4 1 3 2 2 3 1 4 5 5 6 6 8 7 7 8
REMARK H PARENT
REMARK Flexibility Score: inf
ROOT
ATOM      1  C   UNL     1     150.384 150.151 143.992  1.00  0.00     0.008 C 
ENDROOT
BRANCH   1   2
ATOM      2  C   UNL     1     150.082 151.653 143.840  1.00  0.00     0.000 C 
BRANCH   2   3
ATOM      3  C   UNL     1     150.203 152.470 145.140  1.00  0.00    -0.003 C 
ATOM      4  C   UNL     1     148.962 153.310 145.436  1.00  0.00     0.004 C 
ENDBRANCH   2   3
ENDBRANCH   1   2
BRANCH   1   5
ATOM      5  C   UNL     1     150.765 149.761 145.427  1.00  0.00     0.075 C 
BRANCH   5   6
ATOM      6  C   UNL     1     152.230 149.431 145.516  1.00  0.00     0.129 C 
ATOM      7  O   UNL     1     152.600 148.272 145.401  1.00  0.00    -0.300 OA
ATOM      8  C   UNL     1     153.242 150.517 145.723  1.00  0.00     0.087 C 
ENDBRANCH   5   6
ENDBRANCH   1   5
TORSDOF 4
ENDMDL
MODEL 4
REMARK VINA RESULT:    -2.474      2.065      4.028
REMARK INTER + INTRA:          -3.197
REMARK INTER:                  -3.021
REMARK INTRA:                  -0.176
REMARK UNBOUND:                -0.144
REMARK SMILES CCCCCC(C)=O
REMARK SMILES IDX 4 1 3 2 2 3 1 4 5 5 6 6 8 7 7 8
REMARK H PARENT
REMARK Flexibility Score: inf
ROOT
ATOM      1  C   UNL     1     151.084 150.061 145.674  1.00  0.00     0.008 C 
ENDROOT
BRANCH   1   2
ATOM      2  C   UNL     1     150.038 149.014 146.099  1.00  0.00     0.000 C 
BRANCH   2   3
ATOM      3  C   UNL     1     148.586 149.525 146.122  1.00  0.00    -0.003 C 
ATOM      4  C   UNL     1     147.780 149.094 144.898  1.00  0.00     0.004 C 
ENDBRANCH   2   3
ENDBRANCH   1   2
BRANCH   1   5
ATOM      5  C   UNL     1     150.723 151.483 146.125  1.00  0.00     0.075 C 
BRANCH   5   6
ATOM      6  C   UNL     1     150.224 152.298 144.963  1.00  0.00     0.129 C 
ATOM      7  O   UNL     1     150.286 151.843 143.831  1.00  0.00    -0.300 OA
ATOM      8  C   UNL     1     149.631 153.656 145.188  1.00  0.00     0.087 C 
ENDBRANCH   5   6
ENDBRANCH   1   5
TORSDOF 4
ENDMDL
MODEL 5
REMARK VINA RESULT:    -2.427      9.181     10.010
REMARK INTER + INTRA:          -3.138
REMARK INTER:                  -2.874
REMARK INTRA:                  -0.264
REMARK UNBOUND:                -0.144
REMARK SMILES CCCCCC(C)=O
REMARK SMILES IDX 4 1 3 2 2 3 1 4 5 5 6 6 8 7 7 8
REMARK H PARENT
REMARK Flexibility Score: inf
ROOT
ATOM      1  C   UNL     1     146.658 157.200 138.901  1.00  0.00     0.008 C 
ENDROOT
BRANCH   1   2
ATOM      2  C   UNL     1     147.534 155.935 138.918  1.00  0.00     0.000 C 
BRANCH   2   3
ATOM      3  C   UNL     1     149.037 156.194 139.127  1.00  0.00    -0.003 C 
ATOM      4  C   UNL     1     149.566 155.618 140.440  1.00  0.00     0.004 C 
ENDBRANCH   2   3
ENDBRANCH   1   2
BRANCH   1   5
ATOM      5  C   UNL     1     146.779 158.028 140.188  1.00  0.00     0.075 C 
BRANCH   5   6
ATOM      6  C   UNL     1     147.229 159.429 139.877  1.00  0.00     0.129 C 
ATOM      7  O   UNL     1     147.243 160.273 140.761  1.00  0.00    -0.300 OA
ATOM      8  C   UNL     1     147.683 159.792 138.495  1.00  0.00     0.087 C 
ENDBRANCH   5   6
ENDBRANCH   1   5
TORSDOF 4
ENDMDL
MODEL 6
REMARK VINA RESULT:    -2.425      8.441      9.970
REMARK INTER + INTRA:          -3.136
REMARK INTER:                  -2.882
REMARK INTRA:                  -0.253
REMARK UNBOUND:                -0.144
REMARK SMILES CCCCCC(C)=O
REMARK SMILES IDX 4 1 3 2 2 3 1 4 5 5 6 6 8 7 7 8
REMARK H PARENT
REMARK Flexibility Score: inf
ROOT
ATOM      1  C   UNL     1     144.059 146.627 138.988  1.00  0.00     0.008 C 
ENDROOT
BRANCH   1   2
ATOM      2  C   UNL     1     145.256 147.594 138.920  1.00  0.00     0.000 C 
BRANCH   2   3
ATOM      3  C   UNL     1     144.922 149.058 139.258  1.00  0.00    -0.003 C 
ATOM      4  C   UNL     1     145.686 149.580 140.474  1.00  0.00     0.004 C 
ENDBRANCH   2   3
ENDBRANCH   1   2
BRANCH   1   5
ATOM      5  C   UNL     1     143.211 146.815 140.253  1.00  0.00     0.075 C 
BRANCH   5   6
ATOM      6  C   UNL     1     141.798 147.187 139.895  1.00  0.00     0.129 C 
ATOM      7  O   UNL     1     140.939 147.220 140.764  1.00  0.00    -0.300 OA
ATOM      8  C   UNL     1     141.441 147.540 138.483  1.00  0.00     0.087 C 
ENDBRANCH   5   6
ENDBRANCH   1   5
TORSDOF 4
ENDMDL
MODEL 7
REMARK VINA RESULT:    -2.409      8.225      9.246
REMARK INTER + INTRA:          -3.116
REMARK INTER:                  -2.773
REMARK INTRA:                  -0.343
REMARK UNBOUND:                -0.144
REMARK SMILES CCCCCC(C)=O
REMARK SMILES IDX 4 1 3 2 2 3 1 4 5 5 6 6 8 7 7 8
REMARK H PARENT
REMARK Flexibility Score: inf
ROOT
ATOM      1  C   UNL     1     157.204 153.980 139.699  1.00  0.00     0.008 C 
ENDROOT
BRANCH   1   2
ATOM      2  C   UNL     1     156.747 154.824 138.495  1.00  0.00     0.000 C 
BRANCH   2   3
ATOM      3  C   UNL     1     155.383 155.515 138.673  1.00  0.00    -0.003 C 
ATOM      4  C   UNL     1     154.332 155.031 137.674  1.00  0.00     0.004 C 
ENDBRANCH   2   3
ENDBRANCH   1   2
BRANCH   1   5
ATOM      5  C   UNL     1     157.150 152.470 139.425  1.00  0.00     0.075 C 
BRANCH   5   6
ATOM      6  C   UNL     1     155.805 151.910 139.801  1.00  0.00     0.129 C 
ATOM      7  O   UNL     1     155.491 151.823 140.979  1.00  0.00    -0.300 OA
ATOM      8  C   UNL     1     154.839 151.479 138.739  1.00  0.00     0.087 C 
ENDBRANCH   5   6
ENDBRANCH   1   5
TORSDOF 4
ENDMDL
MODEL 8
REMARK VINA RESULT:    -2.403      8.282      9.335
REMARK INTER + INTRA:          -3.110
REMARK INTER:                  -2.774
REMARK INTRA:                  -0.336
REMARK UNBOUND:                -0.144
REMARK SMILES CCCCCC(C)=O
REMARK SMILES IDX 4 1 3 2 2 3 1 4 5 5 6 6 8 7 7 8
REMARK H PARENT
REMARK Flexibility Score: inf
ROOT
ATOM      1  C   UNL     1     147.356 157.310 139.715  1.00  0.00     0.008 C 
ENDROOT
BRANCH   1   2
ATOM      2  C   UNL     1     146.467 156.857 138.542  1.00  0.00     0.000 C 
BRANCH   2   3
ATOM      3  C   UNL     1     145.849 155.456 138.705  1.00  0.00    -0.003 C 
ATOM      4  C   UNL     1     146.136 154.535 137.520  1.00  0.00     0.004 C 
ENDBRANCH   2   3
ENDBRANCH   1   2
BRANCH   1   5
ATOM      5  C   UNL     1     148.855 157.193 139.407  1.00  0.00     0.075 C 
BRANCH   5   6
ATOM      6  C   UNL     1     149.374 155.838 139.802  1.00  0.00     0.129 C 
ATOM      7  O   UNL     1     149.460 155.541 140.985  1.00  0.00    -0.300 OA
ATOM      8  C   UNL     1     149.765 154.839 138.755  1.00  0.00     0.087 C 
ENDBRANCH   5   6
ENDBRANCH   1   5
TORSDOF 4
ENDMDL
MODEL 9
REMARK VINA RESULT:    -2.373      9.739     10.708
REMARK INTER + INTRA:          -3.072
REMARK INTER:                  -2.776
REMARK INTRA:                  -0.296
REMARK UNBOUND:                -0.144
REMARK SMILES CCCCCC(C)=O
REMARK SMILES IDX 4 1 3 2 2 3 1 4 5 5 6 6 8 7 7 8
REMARK H PARENT
REMARK Flexibility Score: inf
ROOT
ATOM      1  C   UNL     1     154.321 144.166 138.854  1.00  0.00     0.008 C 
ENDROOT
BRANCH   1   2
ATOM      2  C   UNL     1     153.349 145.353 138.983  1.00  0.00     0.000 C 
BRANCH   2   3
ATOM      3  C   UNL     1     152.312 145.218 140.114  1.00  0.00    -0.003 C 
ATOM      4  C   UNL     1     150.968 144.676 139.630  1.00  0.00     0.004 C 
ENDBRANCH   2   3
ENDBRANCH   1   2
BRANCH   1   5
ATOM      5  C   UNL     1     154.431 143.342 140.145  1.00  0.00     0.075 C 
BRANCH   5   6
ATOM      6  C   UNL     1     154.077 141.903 139.888  1.00  0.00     0.129 C 
ATOM      7  O   UNL     1     154.114 141.095 140.804  1.00  0.00    -0.300 OA
ATOM      8  C   UNL     1     153.656 141.457 138.520  1.00  0.00     0.087 C 
ENDBRANCH   5   6
ENDBRANCH   1   5
TORSDOF 4
ENDMDL
