MODEL 1
REMARK VINA RESULT:    -4.051      0.000      0.000
REMARK INTER + INTRA:         -13.447
REMARK INTER:                  -9.262
REMARK INTRA:                  -4.185
REMARK UNBOUND:                -4.185
REMARK SMILES CCCCCCCCCCCCCCCCCCCCCCCC(=O)[O-]
REMARK SMILES IDX 13 1 14 2 15 3 16 4 17 5 18 6 19 7 20 8 21 9 22 10 23 11
REMARK SMILES IDX 24 12 25 13 26 14 12 15 11 16 10 17 9 18 8 19 7 20 6 21 5 22
REMARK SMILES IDX 4 23 3 24 2 25 1 26
REMARK H PARENT
REMARK Flexibility Score: inf
ROOT
ATOM      1  C   UNL     1      23.122  -5.184  18.116  1.00  0.00     0.000 C 
ENDROOT
BRANCH   1   2
ATOM      2  C   UNL     1      21.885  -4.295  18.312  1.00  0.00     0.000 C 
BRANCH   2   3
ATOM      3  C   UNL     1      20.800  -4.545  17.249  1.00  0.00     0.000 C 
BRANCH   3   4
ATOM      4  C   UNL     1      20.202  -3.239  16.698  1.00  0.00     0.000 C 
BRANCH   4   5
ATOM      5  C   UNL     1      20.069  -2.148  17.770  1.00  0.00     0.000 C 
BRANCH   5   6
ATOM      6  C   UNL     1      20.255  -0.755  17.159  1.00  0.00     0.000 C 
BRANCH   6   7
ATOM      7  C   UNL     1      21.596  -0.141  17.577  1.00  0.00     0.000 C 
BRANCH   7   8
ATOM      8  C   UNL     1      21.867   1.161  16.809  1.00  0.00     0.000 C 
BRANCH   8   9
ATOM      9  C   UNL     1      23.360   1.520  16.754  1.00  0.00     0.000 C 
BRANCH   9  10
ATOM     10  C   UNL     1      23.966   1.312  15.355  1.00  0.00     0.006 C 
BRANCH  10  11
ATOM     11  C   UNL     1      23.287   2.187  14.293  1.00  0.00     0.053 C 
BRANCH  11  12
ATOM     12  C   UNL     1      23.610   3.638  14.477  1.00  0.00     0.041 C 
ATOM     13  O   UNL     1      24.735   4.086  14.126  1.00  0.00    -0.550 OA
ATOM     14  O   UNL     1      22.682   4.491  15.061  1.00  0.00    -0.550 OA
ENDBRANCH  11  12
ENDBRANCH  10  11
ENDBRANCH   9  10
ENDBRANCH   8   9
ENDBRANCH   7   8
ENDBRANCH   6   7
ENDBRANCH   5   6
ENDBRANCH   4   5
ENDBRANCH   3   4
ENDBRANCH   2   3
ENDBRANCH   1   2
BRANCH   1  15
ATOM     15  C   UNL     1      24.237  -4.481  17.322  1.00  0.00     0.000 C 
BRANCH  15  16
ATOM     16  C   UNL     1      24.129  -2.942  17.385  1.00  0.00     0.000 C 
BRANCH  16  17
ATOM     17  C   UNL     1      23.892  -2.277  16.014  1.00  0.00     0.000 C 
BRANCH  17  18
ATOM     18  C   UNL     1      23.442  -3.235  14.896  1.00  0.00    -0.000 C 
BRANCH  18  19
ATOM     19  C   UNL     1      22.786  -2.556  13.676  1.00  0.00    -0.000 C 
BRANCH  19  20
ATOM     20  C   UNL     1      21.826  -1.400  14.008  1.00  0.00    -0.000 C 
BRANCH  20  21
ATOM     21  C   UNL     1      21.461  -0.554  12.778  1.00  0.00    -0.000 C 
BRANCH  21  22
ATOM     22  C   UNL     1      20.844  -1.429  11.676  1.00  0.00    -0.000 C 
BRANCH  22  23
ATOM     23  C   UNL     1      19.307  -1.358  11.646  1.00  0.00    -0.000 C 
BRANCH  23  24
ATOM     24  C   UNL     1      18.591  -2.248  12.683  1.00  0.00    -0.000 C 
BRANCH  24  25
ATOM     25  C   UNL     1      19.095  -3.700  12.754  1.00  0.00    -0.003 C 
ATOM     26  C   UNL     1      18.293  -4.561  13.728  1.00  0.00     0.004 C 
ENDBRANCH  24  25
ENDBRANCH  23  24
ENDBRANCH  22  23
ENDBRANCH  21  22
ENDBRANCH  20  21
ENDBRANCH  19  20
ENDBRANCH  18  19
ENDBRANCH  17  18
ENDBRANCH  16  17
ENDBRANCH  15  16
ENDBRANCH   1  15
TORSDOF 22
ENDMDL
MODEL 2
REMARK VINA RESULT:    -4.002      3.159      6.698
REMARK INTER + INTRA:         -13.333
REMARK INTER:                  -9.263
REMARK INTRA:                  -4.071
REMARK UNBOUND:                -4.185
REMARK SMILES CCCCCCCCCCCCCCCCCCCCCCCC(=O)[O-]
REMARK SMILES IDX 13 1 14 2 15 3 16 4 17 5 18 6 19 7 20 8 21 9 22 10 23 11
REMARK SMILES IDX 24 12 25 13 26 14 12 15 11 16 10 17 9 18 8 19 7 20 6 21 5 22
REMARK SMILES IDX 4 23 3 24 2 25 1 26
REMARK H PARENT
REMARK Flexibility Score: inf
ROOT
ATOM      1  C   UNL     1      20.931   1.128  17.761  1.00  0.00     0.000 C 
ENDROOT
BRANCH   1   2
ATOM      2  C   UNL     1      19.854   0.386  16.953  1.00  0.00     0.000 C 
BRANCH   2   3
ATOM      3  C   UNL     1      20.232  -1.079  16.670  1.00  0.00     0.000 C 
BRANCH   3   4
ATOM      4  C   UNL     1      20.270  -1.397  15.166  1.00  0.00     0.000 C 
BRANCH   4   5
ATOM      5  C   UNL     1      21.143  -0.415  14.372  1.00  0.00     0.000 C 
BRANCH   5   6
ATOM      6  C   UNL     1      22.617  -0.835  14.415  1.00  0.00     0.000 C 
BRANCH   6   7
ATOM      7  C   UNL     1      22.825  -2.193  13.734  1.00  0.00     0.000 C 
BRANCH   7   8
ATOM      8  C   UNL     1      23.467  -3.198  14.702  1.00  0.00     0.000 C 
BRANCH   8   9
ATOM      9  C   UNL     1      23.977  -2.539  15.993  1.00  0.00     0.000 C 
BRANCH   9  10
ATOM     10  C   UNL     1      23.694  -3.391  17.243  1.00  0.00     0.006 C 
BRANCH  10  11
ATOM     11  C   UNL     1      22.482  -4.312  17.054  1.00  0.00     0.053 C 
BRANCH  11  12
ATOM     12  C   UNL     1      21.474  -4.139  18.148  1.00  0.00     0.041 C 
ATOM     13  O   UNL     1      20.321  -4.634  18.030  1.00  0.00    -0.550 OA
ATOM     14  O   UNL     1      21.797  -3.407  19.284  1.00  0.00    -0.550 OA
ENDBRANCH  11  12
ENDBRANCH  10  11
ENDBRANCH   9  10
ENDBRANCH   8   9
ENDBRANCH   7   8
ENDBRANCH   6   7
ENDBRANCH   5   6
ENDBRANCH   4   5
ENDBRANCH   3   4
ENDBRANCH   2   3
ENDBRANCH   1   2
BRANCH   1  15
ATOM     15  C   UNL     1      22.009   0.183  18.320  1.00  0.00     0.000 C 
BRANCH  15  16
ATOM     16  C   UNL     1      23.412   0.481  17.747  1.00  0.00     0.000 C 
BRANCH  16  17
ATOM     17  C   UNL     1      23.968   1.862  18.145  1.00  0.00     0.000 C 
BRANCH  17  18
ATOM     18  C   UNL     1      25.105   2.388  17.250  1.00  0.00    -0.000 C 
BRANCH  18  19
ATOM     19  C   UNL     1      24.678   3.424  16.189  1.00  0.00    -0.000 C 
BRANCH  19  20
ATOM     20  C   UNL     1      23.186   3.801  16.204  1.00  0.00    -0.000 C 
BRANCH  20  21
ATOM     21  C   UNL     1      22.379   3.091  15.107  1.00  0.00    -0.000 C 
BRANCH  21  22
ATOM     22  C   UNL     1      23.235   2.877  13.849  1.00  0.00    -0.000 C 
BRANCH  22  23
ATOM     23  C   UNL     1      22.805   3.774  12.674  1.00  0.00    -0.000 C 
BRANCH  23  24
ATOM     24  C   UNL     1      23.460   5.171  12.644  1.00  0.00    -0.000 C 
BRANCH  24  25
ATOM     25  C   UNL     1      24.954   5.196  13.009  1.00  0.00    -0.003 C 
ATOM     26  C   UNL     1      25.424   6.566  13.494  1.00  0.00     0.004 C 
ENDBRANCH  24  25
ENDBRANCH  23  24
ENDBRANCH  22  23
ENDBRANCH  21  22
ENDBRANCH  20  21
ENDBRANCH  19  20
ENDBRANCH  18  19
ENDBRANCH  17  18
ENDBRANCH  16  17
ENDBRANCH  15  16
ENDBRANCH   1  15
TORSDOF 22
ENDMDL
MODEL 3
REMARK VINA RESULT:    -3.897      2.866      6.824
REMARK INTER + INTRA:         -13.094
REMARK INTER:                  -9.282
REMARK INTRA:                  -3.812
REMARK UNBOUND:                -4.185
REMARK SMILES CCCCCCCCCCCCCCCCCCCCCCCC(=O)[O-]
REMARK SMILES IDX 13 1 14 2 15 3 16 4 17 5 18 6 19 7 20 8 21 9 22 10 23 11
REMARK SMILES IDX 24 12 25 13 26 14 12 15 11 16 10 17 9 18 8 19 7 20 6 21 5 22
REMARK SMILES IDX 4 23 3 24 2 25 1 26
REMARK H PARENT
REMARK Flexibility Score: inf
ROOT
ATOM      1  C   UNL     1      23.482   4.213  16.692  1.00  0.00     0.000 C 
ENDROOT
BRANCH   1   2
ATOM      2  C   UNL     1      23.328   5.726  16.475  1.00  0.00     0.000 C 
BRANCH   2   3
ATOM      3  C   UNL     1      24.624   6.388  15.976  1.00  0.00     0.000 C 
BRANCH   3   4
ATOM      4  C   UNL     1      24.409   7.219  14.700  1.00  0.00     0.000 C 
BRANCH   4   5
ATOM      5  C   UNL     1      25.389   6.848  13.577  1.00  0.00     0.000 C 
BRANCH   5   6
ATOM      6  C   UNL     1      25.122   5.428  13.065  1.00  0.00     0.000 C 
BRANCH   6   7
ATOM      7  C   UNL     1      23.755   5.335  12.378  1.00  0.00     0.000 C 
BRANCH   7   8
ATOM      8  C   UNL     1      23.061   4.007  12.716  1.00  0.00     0.000 C 
BRANCH   8   9
ATOM      9  C   UNL     1      21.707   4.204  13.415  1.00  0.00     0.000 C 
BRANCH   9  10
ATOM     10  C   UNL     1      21.195   5.652  13.313  1.00  0.00     0.006 C 
BRANCH  10  11
ATOM     11  C   UNL     1      20.258   6.019  14.471  1.00  0.00     0.053 C 
BRANCH  11  12
ATOM     12  C   UNL     1      18.899   6.414  13.983  1.00  0.00     0.041 C 
ATOM     13  O   UNL     1      18.262   5.659  13.200  1.00  0.00    -0.550 OA
ATOM     14  O   UNL     1      18.344   7.628  14.370  1.00  0.00    -0.550 OA
ENDBRANCH  11  12
ENDBRANCH  10  11
ENDBRANCH   9  10
ENDBRANCH   8   9
ENDBRANCH   7   8
ENDBRANCH   6   7
ENDBRANCH   5   6
ENDBRANCH   4   5
ENDBRANCH   3   4
ENDBRANCH   2   3
ENDBRANCH   1   2
BRANCH   1  15
ATOM     15  C   UNL     1      24.869   3.692  16.275  1.00  0.00     0.000 C 
BRANCH  15  16
ATOM     16  C   UNL     1      24.793   2.352  15.512  1.00  0.00     0.000 C 
BRANCH  16  17
ATOM     17  C   UNL     1      23.965   1.270  16.231  1.00  0.00     0.000 C 
BRANCH  17  18
ATOM     18  C   UNL     1      23.390   0.175  15.314  1.00  0.00    -0.000 C 
BRANCH  18  19
ATOM     19  C   UNL     1      22.507   0.686  14.157  1.00  0.00    -0.000 C 
BRANCH  19  20
ATOM     20  C   UNL     1      21.261  -0.166  13.859  1.00  0.00    -0.000 C 
BRANCH  20  21
ATOM     21  C   UNL     1      20.681  -0.837  15.113  1.00  0.00    -0.000 C 
BRANCH  21  22
ATOM     22  C   UNL     1      20.267  -2.286  14.816  1.00  0.00    -0.000 C 
BRANCH  22  23
ATOM     23  C   UNL     1      20.545  -3.240  15.992  1.00  0.00    -0.000 C 
BRANCH  23  24
ATOM     24  C   UNL     1      21.720  -2.829  16.904  1.00  0.00    -0.000 C 
BRANCH  24  25
ATOM     25  C   UNL     1      22.974  -3.713  16.789  1.00  0.00    -0.003 C 
ATOM     26  C   UNL     1      23.880  -3.312  15.627  1.00  0.00     0.004 C 
ENDBRANCH  24  25
ENDBRANCH  23  24
ENDBRANCH  22  23
ENDBRANCH  21  22
ENDBRANCH  20  21
ENDBRANCH  19  20
ENDBRANCH  18  19
ENDBRANCH  17  18
ENDBRANCH  16  17
ENDBRANCH  15  16
ENDBRANCH   1  15
TORSDOF 22
ENDMDL
MODEL 4
REMARK VINA RESULT:    -3.862      3.128      6.617
REMARK INTER + INTRA:         -13.014
REMARK INTER:                  -9.178
REMARK INTRA:                  -3.835
REMARK UNBOUND:                -4.185
REMARK SMILES CCCCCCCCCCCCCCCCCCCCCCCC(=O)[O-]
REMARK SMILES IDX 13 1 14 2 15 3 16 4 17 5 18 6 19 7 20 8 21 9 22 10 23 11
REMARK SMILES IDX 24 12 25 13 26 14 12 15 11 16 10 17 9 18 8 19 7 20 6 21 5 22
REMARK SMILES IDX 4 23 3 24 2 25 1 26
REMARK H PARENT
REMARK Flexibility Score: inf
ROOT
ATOM      1  C   UNL     1      24.026   1.426  19.210  1.00  0.00     0.000 C 
ENDROOT
BRANCH   1   2
ATOM      2  C   UNL     1      23.345   0.167  18.652  1.00  0.00     0.000 C 
BRANCH   2   3
ATOM      3  C   UNL     1      22.066  -0.206  19.423  1.00  0.00     0.000 C 
BRANCH   3   4
ATOM      4  C   UNL     1      20.793  -0.005  18.585  1.00  0.00     0.000 C 
BRANCH   4   5
ATOM      5  C   UNL     1      21.093   0.273  17.104  1.00  0.00     0.000 C 
BRANCH   5   6
ATOM      6  C   UNL     1      20.107  -0.472  16.197  1.00  0.00     0.000 C 
BRANCH   6   7
ATOM      7  C   UNL     1      20.825  -1.105  15.000  1.00  0.00     0.000 C 
BRANCH   7   8
ATOM      8  C   UNL     1      20.785  -2.638  15.086  1.00  0.00     0.000 C 
BRANCH   8   9
ATOM      9  C   UNL     1      20.629  -3.149  16.527  1.00  0.00     0.000 C 
BRANCH   9  10
ATOM     10  C   UNL     1      21.791  -4.063  16.957  1.00  0.00     0.006 C 
BRANCH  10  11
ATOM     11  C   UNL     1      23.142  -3.337  16.926  1.00  0.00     0.053 C 
BRANCH  11  12
ATOM     12  C   UNL     1      24.126  -3.948  17.875  1.00  0.00     0.041 C 
ATOM     13  O   UNL     1      24.536  -5.126  17.691  1.00  0.00    -0.550 OA
ATOM     14  O   UNL     1      24.568  -3.230  18.979  1.00  0.00    -0.550 OA
ENDBRANCH  11  12
ENDBRANCH  10  11
ENDBRANCH   9  10
ENDBRANCH   8   9
ENDBRANCH   7   8
ENDBRANCH   6   7
ENDBRANCH   5   6
ENDBRANCH   4   5
ENDBRANCH   3   4
ENDBRANCH   2   3
ENDBRANCH   1   2
BRANCH   1  15
ATOM     15  C   UNL     1      23.333   2.724  18.758  1.00  0.00     0.000 C 
BRANCH  15  16
ATOM     16  C   UNL     1      24.229   3.584  17.841  1.00  0.00     0.000 C 
BRANCH  16  17
ATOM     17  C   UNL     1      25.383   2.802  17.184  1.00  0.00     0.000 C 
BRANCH  17  18
ATOM     18  C   UNL     1      25.199   2.510  15.683  1.00  0.00    -0.000 C 
BRANCH  18  19
ATOM     19  C   UNL     1      24.199   1.383  15.353  1.00  0.00    -0.000 C 
BRANCH  19  20
ATOM     20  C   UNL     1      23.059   1.777  14.398  1.00  0.00    -0.000 C 
BRANCH  20  21
ATOM     21  C   UNL     1      22.438   3.141  14.740  1.00  0.00    -0.000 C 
BRANCH  21  22
ATOM     22  C   UNL     1      21.856   3.807  13.483  1.00  0.00    -0.000 C 
BRANCH  22  23
ATOM     23  C   UNL     1      22.916   4.056  12.394  1.00  0.00    -0.000 C 
BRANCH  23  24
ATOM     24  C   UNL     1      23.634   5.418  12.480  1.00  0.00    -0.000 C 
BRANCH  24  25
ATOM     25  C   UNL     1      25.028   5.379  13.130  1.00  0.00    -0.003 C 
ATOM     26  C   UNL     1      25.040   5.952  14.546  1.00  0.00     0.004 C 
ENDBRANCH  24  25
ENDBRANCH  23  24
ENDBRANCH  22  23
ENDBRANCH  21  22
ENDBRANCH  20  21
ENDBRANCH  19  20
ENDBRANCH  18  19
ENDBRANCH  17  18
ENDBRANCH  16  17
ENDBRANCH  15  16
ENDBRANCH   1  15
TORSDOF 22
ENDMDL
MODEL 5
REMARK VINA RESULT:    -3.847      2.591      6.160
REMARK INTER + INTRA:         -12.980
REMARK INTER:                  -9.309
REMARK INTRA:                  -3.671
REMARK UNBOUND:                -4.185
REMARK SMILES CCCCCCCCCCCCCCCCCCCCCCCC(=O)[O-]
REMARK SMILES IDX 13 1 14 2 15 3 16 4 17 5 18 6 19 7 20 8 21 9 22 10 23 11
REMARK SMILES IDX 24 12 25 13 26 14 12 15 11 16 10 17 9 18 8 19 7 20 6 21 5 22
REMARK SMILES IDX 4 23 3 24 2 25 1 26
REMARK H PARENT
REMARK Flexibility Score: inf
ROOT
ATOM      1  C   UNL     1      21.254   0.688  17.052  1.00  0.00     0.000 C 
ENDROOT
BRANCH   1   2
ATOM      2  C   UNL     1      19.855   0.054  17.038  1.00  0.00     0.000 C 
BRANCH   2   3
ATOM      3  C   UNL     1      19.793  -1.264  17.830  1.00  0.00     0.000 C 
BRANCH   3   4
ATOM      4  C   UNL     1      21.188  -1.813  18.171  1.00  0.00     0.000 C 
BRANCH   4   5
ATOM      5  C   UNL     1      21.284  -3.337  18.005  1.00  0.00     0.000 C 
BRANCH   5   6
ATOM      6  C   UNL     1      21.880  -3.701  16.640  1.00  0.00     0.000 C 
BRANCH   6   7
ATOM      7  C   UNL     1      23.330  -3.217  16.521  1.00  0.00     0.000 C 
BRANCH   7   8
ATOM      8  C   UNL     1      23.500  -2.289  15.309  1.00  0.00     0.000 C 
BRANCH   8   9
ATOM      9  C   UNL     1      22.446  -2.536  14.219  1.00  0.00     0.000 C 
BRANCH   9  10
ATOM     10  C   UNL     1      21.545  -1.311  13.981  1.00  0.00     0.006 C 
BRANCH  10  11
ATOM     11  C   UNL     1      20.101  -1.709  13.648  1.00  0.00     0.053 C 
BRANCH  11  12
ATOM     12  C   UNL     1      19.803  -1.555  12.189  1.00  0.00     0.041 C 
ATOM     13  O   UNL     1      18.608  -1.500  11.789  1.00  0.00    -0.550 OA
ATOM     14  O   UNL     1      20.840  -1.500  11.266  1.00  0.00    -0.550 OA
ENDBRANCH  11  12
ENDBRANCH  10  11
ENDBRANCH   9  10
ENDBRANCH   8   9
ENDBRANCH   7   8
ENDBRANCH   6   7
ENDBRANCH   5   6
ENDBRANCH   4   5
ENDBRANCH   3   4
ENDBRANCH   2   3
ENDBRANCH   1   2
BRANCH   1  15
ATOM     15  C   UNL     1      21.246   2.130  17.588  1.00  0.00     0.000 C 
BRANCH  15  16
ATOM     16  C   UNL     1      21.913   2.250  18.976  1.00  0.00     0.000 C 
BRANCH  16  17
ATOM     17  C   UNL     1      23.321   2.875  18.940  1.00  0.00     0.000 C 
BRANCH  17  18
ATOM     18  C   UNL     1      24.350   2.110  18.087  1.00  0.00    -0.000 C 
BRANCH  18  19
ATOM     19  C   UNL     1      25.224   2.990  17.170  1.00  0.00    -0.000 C 
BRANCH  19  20
ATOM     20  C   UNL     1      25.148   2.653  15.671  1.00  0.00    -0.000 C 
BRANCH  20  21
ATOM     21  C   UNL     1      24.223   1.463  15.372  1.00  0.00    -0.000 C 
BRANCH  21  22
ATOM     22  C   UNL     1      23.215   1.818  14.269  1.00  0.00    -0.000 C 
BRANCH  22  23
ATOM     23  C   UNL     1      22.904   3.325  14.206  1.00  0.00    -0.000 C 
BRANCH  23  24
ATOM     24  C   UNL     1      22.831   3.918  12.783  1.00  0.00    -0.000 C 
BRANCH  24  25
ATOM     25  C   UNL     1      23.536   5.275  12.608  1.00  0.00    -0.003 C 
ATOM     26  C   UNL     1      24.999   5.247  13.047  1.00  0.00     0.004 C 
ENDBRANCH  24  25
ENDBRANCH  23  24
ENDBRANCH  22  23
ENDBRANCH  21  22
ENDBRANCH  20  21
ENDBRANCH  19  20
ENDBRANCH  18  19
ENDBRANCH  17  18
ENDBRANCH  16  17
ENDBRANCH  15  16
ENDBRANCH   1  15
TORSDOF 22
ENDMDL
MODEL 6
REMARK VINA RESULT:    -3.817      1.490      4.187
REMARK INTER + INTRA:         -12.911
REMARK INTER:                  -8.938
REMARK INTRA:                  -3.973
REMARK UNBOUND:                -4.185
REMARK SMILES CCCCCCCCCCCCCCCCCCCCCCCC(=O)[O-]
REMARK SMILES IDX 13 1 14 2 15 3 16 4 17 5 18 6 19 7 20 8 21 9 22 10 23 11
REMARK SMILES IDX 24 12 25 13 26 14 12 15 11 16 10 17 9 18 8 19 7 20 6 21 5 22
REMARK SMILES IDX 4 23 3 24 2 25 1 26
REMARK H PARENT
REMARK Flexibility Score: inf
ROOT
ATOM      1  C   UNL     1      19.562  -0.201  17.299  1.00  0.00     0.000 C 
ENDROOT
BRANCH   1   2
ATOM      2  C   UNL     1      20.794   0.501  16.707  1.00  0.00     0.000 C 
BRANCH   2   3
ATOM      3  C   UNL     1      21.852   0.838  17.772  1.00  0.00     0.000 C 
BRANCH   3   4
ATOM      4  C   UNL     1      21.776   2.302  18.237  1.00  0.00     0.000 C 
BRANCH   4   5
ATOM      5  C   UNL     1      23.156   2.895  18.559  1.00  0.00     0.000 C 
BRANCH   5   6
ATOM      6  C   UNL     1      24.254   2.201  17.745  1.00  0.00     0.000 C 
BRANCH   6   7
ATOM      7  C   UNL     1      24.707   3.074  16.570  1.00  0.00     0.000 C 
BRANCH   7   8
ATOM      8  C   UNL     1      24.792   2.251  15.276  1.00  0.00     0.000 C 
BRANCH   8   9
ATOM      9  C   UNL     1      23.429   2.089  14.585  1.00  0.00     0.000 C 
BRANCH   9  10
ATOM     10  C   UNL     1      22.743   3.439  14.309  1.00  0.00     0.006 C 
BRANCH  10  11
ATOM     11  C   UNL     1      22.804   3.828  12.826  1.00  0.00     0.053 C 
BRANCH  11  12
ATOM     12  C   UNL     1      23.680   5.020  12.598  1.00  0.00     0.041 C 
ATOM     13  O   UNL     1      24.907   4.968  12.883  1.00  0.00    -0.550 OA
ATOM     14  O   UNL     1      23.140   6.198  12.098  1.00  0.00    -0.550 OA
ENDBRANCH  11  12
ENDBRANCH  10  11
ENDBRANCH   9  10
ENDBRANCH   8   9
ENDBRANCH   7   8
ENDBRANCH   6   7
ENDBRANCH   5   6
ENDBRANCH   4   5
ENDBRANCH   3   4
ENDBRANCH   2   3
ENDBRANCH   1   2
BRANCH   1  15
ATOM     15  C   UNL     1      19.935  -1.322  18.284  1.00  0.00     0.000 C 
BRANCH  15  16
ATOM     16  C   UNL     1      20.169  -2.676  17.580  1.00  0.00     0.000 C 
BRANCH  16  17
ATOM     17  C   UNL     1      20.937  -3.700  18.437  1.00  0.00     0.000 C 
BRANCH  17  18
ATOM     18  C   UNL     1      21.661  -4.802  17.642  1.00  0.00    -0.000 C 
BRANCH  18  19
ATOM     19  C   UNL     1      23.175  -4.582  17.445  1.00  0.00    -0.000 C 
BRANCH  19  20
ATOM     20  C   UNL     1      23.560  -3.734  16.221  1.00  0.00    -0.000 C 
BRANCH  20  21
ATOM     21  C   UNL     1      23.730  -2.244  16.555  1.00  0.00    -0.000 C 
BRANCH  21  22
ATOM     22  C   UNL     1      23.510  -1.375  15.307  1.00  0.00    -0.000 C 
BRANCH  22  23
ATOM     23  C   UNL     1      22.797  -2.130  14.171  1.00  0.00    -0.000 C 
BRANCH  23  24
ATOM     24  C   UNL     1      21.876  -1.264  13.287  1.00  0.00    -0.000 C 
BRANCH  24  25
ATOM     25  C   UNL     1      20.372  -1.404  13.581  1.00  0.00    -0.003 C 
ATOM     26  C   UNL     1      19.982  -2.812  14.027  1.00  0.00     0.004 C 
ENDBRANCH  24  25
ENDBRANCH  23  24
ENDBRANCH  22  23
ENDBRANCH  21  22
ENDBRANCH  20  21
ENDBRANCH  19  20
ENDBRANCH  18  19
ENDBRANCH  17  18
ENDBRANCH  16  17
ENDBRANCH  15  16
ENDBRANCH   1  15
TORSDOF 22
ENDMDL
MODEL 7
REMARK VINA RESULT:    -3.814      2.291      5.279
REMARK INTER + INTRA:         -12.904
REMARK INTER:                  -8.187
REMARK INTRA:                  -4.717
REMARK UNBOUND:                -4.185
REMARK SMILES CCCCCCCCCCCCCCCCCCCCCCCC(=O)[O-]
REMARK SMILES IDX 13 1 14 2 15 3 16 4 17 5 18 6 19 7 20 8 21 9 22 10 23 11
REMARK SMILES IDX 24 12 25 13 26 14 12 15 11 16 10 17 9 18 8 19 7 20 6 21 5 22
REMARK SMILES IDX 4 23 3 24 2 25 1 26
REMARK H PARENT
REMARK Flexibility Score: inf
ROOT
ATOM      1  C   UNL     1      23.608  -5.353  17.999  1.00  0.00     0.000 C 
ENDROOT
BRANCH   1   2
ATOM      2  C   UNL     1      24.626  -4.202  17.996  1.00  0.00     0.000 C 
BRANCH   2   3
ATOM      3  C   UNL     1      24.177  -3.017  17.123  1.00  0.00     0.000 C 
BRANCH   3   4
ATOM      4  C   UNL     1      23.103  -3.414  16.096  1.00  0.00     0.000 C 
BRANCH   4   5
ATOM      5  C   UNL     1      23.485  -3.030  14.659  1.00  0.00     0.000 C 
BRANCH   5   6
ATOM      6  C   UNL     1      22.253  -2.576  13.868  1.00  0.00     0.000 C 
BRANCH   6   7
ATOM      7  C   UNL     1      20.986  -2.648  14.728  1.00  0.00     0.000 C 
BRANCH   7   8
ATOM      8  C   UNL     1      20.277  -1.287  14.776  1.00  0.00     0.000 C 
BRANCH   8   9
ATOM      9  C   UNL     1      20.122  -0.747  16.206  1.00  0.00     0.000 C 
BRANCH   9  10
ATOM     10  C   UNL     1      20.915   0.552  16.436  1.00  0.00     0.006 C 
BRANCH  10  11
ATOM     11  C   UNL     1      22.340   0.280  16.936  1.00  0.00     0.053 C 
BRANCH  11  12
ATOM     12  C   UNL     1      23.373   0.796  15.983  1.00  0.00     0.041 C 
ATOM     13  O   UNL     1      23.255   0.584  14.746  1.00  0.00    -0.550 OA
ATOM     14  O   UNL     1      24.480   1.486  16.460  1.00  0.00    -0.550 OA
ENDBRANCH  11  12
ENDBRANCH  10  11
ENDBRANCH   9  10
ENDBRANCH   8   9
ENDBRANCH   7   8
ENDBRANCH   6   7
ENDBRANCH   5   6
ENDBRANCH   4   5
ENDBRANCH   3   4
ENDBRANCH   2   3
ENDBRANCH   1   2
BRANCH   1  15
ATOM     15  C   UNL     1      23.847  -6.352  19.146  1.00  0.00     0.000 C 
BRANCH  15  16
ATOM     16  C   UNL     1      22.747  -6.283  20.228  1.00  0.00     0.000 C 
BRANCH  16  17
ATOM     17  C   UNL     1      23.287  -6.034  21.650  1.00  0.00     0.000 C 
BRANCH  17  18
ATOM     18  C   UNL     1      24.291  -4.873  21.770  1.00  0.00    -0.000 C 
BRANCH  18  19
ATOM     19  C   UNL     1      23.709  -3.472  21.489  1.00  0.00    -0.000 C 
BRANCH  19  20
ATOM     20  C   UNL     1      22.337  -3.193  22.125  1.00  0.00    -0.000 C 
BRANCH  20  21
ATOM     21  C   UNL     1      21.481  -2.221  21.298  1.00  0.00    -0.000 C 
BRANCH  21  22
ATOM     22  C   UNL     1      21.897  -2.248  19.819  1.00  0.00    -0.000 C 
BRANCH  22  23
ATOM     23  C   UNL     1      20.745  -2.653  18.881  1.00  0.00    -0.000 C 
BRANCH  23  24
ATOM     24  C   UNL     1      20.351  -4.144  18.935  1.00  0.00    -0.000 C 
BRANCH  24  25
ATOM     25  C   UNL     1      19.952  -4.761  17.583  1.00  0.00    -0.003 C 
ATOM     26  C   UNL     1      19.952  -6.288  17.603  1.00  0.00     0.004 C 
ENDBRANCH  24  25
ENDBRANCH  23  24
ENDBRANCH  22  23
ENDBRANCH  21  22
ENDBRANCH  20  21
ENDBRANCH  19  20
ENDBRANCH  18  19
ENDBRANCH  17  18
ENDBRANCH  16  17
ENDBRANCH  15  16
ENDBRANCH   1  15
TORSDOF 22
ENDMDL
MODEL 8
REMARK VINA RESULT:    -3.806      3.305      6.550
REMARK INTER + INTRA:         -12.886
REMARK INTER:                  -8.675
REMARK INTRA:                  -4.211
REMARK UNBOUND:                -4.185
REMARK SMILES CCCCCCCCCCCCCCCCCCCCCCCC(=O)[O-]
REMARK SMILES IDX 13 1 14 2 15 3 16 4 17 5 18 6 19 7 20 8 21 9 22 10 23 11
REMARK SMILES IDX 24 12 25 13 26 14 12 15 11 16 10 17 9 18 8 19 7 20 6 21 5 22
REMARK SMILES IDX 4 23 3 24 2 25 1 26
REMARK H PARENT
REMARK Flexibility Score: inf
ROOT
ATOM      1  C   UNL     1      21.432   0.783  18.233  1.00  0.00     0.000 C 
ENDROOT
BRANCH   1   2
ATOM      2  C   UNL     1      20.734   0.552  16.884  1.00  0.00     0.000 C 
BRANCH   2   3
ATOM      3  C   UNL     1      20.660  -0.937  16.502  1.00  0.00     0.000 C 
BRANCH   3   4
ATOM      4  C   UNL     1      20.305  -1.149  15.021  1.00  0.00     0.000 C 
BRANCH   4   5
ATOM      5  C   UNL     1      20.985  -2.388  14.419  1.00  0.00     0.000 C 
BRANCH   5   6
ATOM      6  C   UNL     1      22.404  -2.056  13.943  1.00  0.00     0.000 C 
BRANCH   6   7
ATOM      7  C   UNL     1      23.443  -2.940  14.642  1.00  0.00     0.000 C 
BRANCH   7   8
ATOM      8  C   UNL     1      23.852  -2.339  15.995  1.00  0.00     0.000 C 
BRANCH   8   9
ATOM      9  C   UNL     1      24.161  -3.410  17.053  1.00  0.00     0.000 C 
BRANCH   9  10
ATOM     10  C   UNL     1      23.088  -4.512  17.108  1.00  0.00     0.006 C 
BRANCH  10  11
ATOM     11  C   UNL     1      21.816  -4.046  17.828  1.00  0.00     0.053 C 
BRANCH  11  12
ATOM     12  C   UNL     1      20.655  -4.950  17.550  1.00  0.00     0.041 C 
ATOM     13  O   UNL     1      20.675  -6.147  17.945  1.00  0.00    -0.550 OA
ATOM     14  O   UNL     1      19.562  -4.481  16.831  1.00  0.00    -0.550 OA
ENDBRANCH  11  12
ENDBRANCH  10  11
ENDBRANCH   9  10
ENDBRANCH   8   9
ENDBRANCH   7   8
ENDBRANCH   6   7
ENDBRANCH   5   6
ENDBRANCH   4   5
ENDBRANCH   3   4
ENDBRANCH   2   3
ENDBRANCH   1   2
BRANCH   1  15
ATOM     15  C   UNL     1      22.236  -0.443  18.702  1.00  0.00     0.000 C 
BRANCH  15  16
ATOM     16  C   UNL     1      23.729  -0.120  18.929  1.00  0.00     0.000 C 
BRANCH  16  17
ATOM     17  C   UNL     1      24.005   1.361  19.252  1.00  0.00     0.000 C 
BRANCH  17  18
ATOM     18  C   UNL     1      25.489   1.719  19.444  1.00  0.00    -0.000 C 
BRANCH  18  19
ATOM     19  C   UNL     1      26.200   2.261  18.187  1.00  0.00    -0.000 C 
BRANCH  19  20
ATOM     20  C   UNL     1      25.283   2.951  17.162  1.00  0.00    -0.000 C 
BRANCH  20  21
ATOM     21  C   UNL     1      25.369   2.319  15.764  1.00  0.00    -0.000 C 
BRANCH  21  22
ATOM     22  C   UNL     1      24.213   1.332  15.538  1.00  0.00    -0.000 C 
BRANCH  22  23
ATOM     23  C   UNL     1      23.208   1.821  14.480  1.00  0.00    -0.000 C 
BRANCH  23  24
ATOM     24  C   UNL     1      23.482   3.233  13.920  1.00  0.00    -0.000 C 
BRANCH  24  25
ATOM     25  C   UNL     1      22.610   4.350  14.518  1.00  0.00    -0.003 C 
ATOM     26  C   UNL     1      21.882   3.920  15.790  1.00  0.00     0.004 C 
ENDBRANCH  24  25
ENDBRANCH  23  24
ENDBRANCH  22  23
ENDBRANCH  21  22
ENDBRANCH  20  21
ENDBRANCH  19  20
ENDBRANCH  18  19
ENDBRANCH  17  18
ENDBRANCH  16  17
ENDBRANCH  15  16
ENDBRANCH   1  15
TORSDOF 22
ENDMDL
MODEL 9
REMARK VINA RESULT:    -3.746      3.103      6.092
REMARK INTER + INTRA:         -12.749
REMARK INTER:                  -8.866
REMARK INTRA:                  -3.883
REMARK UNBOUND:                -4.185
REMARK SMILES CCCCCCCCCCCCCCCCCCCCCCCC(=O)[O-]
REMARK SMILES IDX 13 1 14 2 15 3 16 4 17 5 18 6 19 7 20 8 21 9 22 10 23 11
REMARK SMILES IDX 24 12 25 13 26 14 12 15 11 16 10 17 9 18 8 19 7 20 6 21 5 22
REMARK SMILES IDX 4 23 3 24 2 25 1 26
REMARK H PARENT
REMARK Flexibility Score: inf
ROOT
ATOM      1  C   UNL     1      24.215  -5.245  17.616  1.00  0.00     0.000 C 
ENDROOT
BRANCH   1   2
ATOM      2  C   UNL     1      24.433  -3.810  18.121  1.00  0.00     0.000 C 
BRANCH   2   3
ATOM      3  C   UNL     1      24.038  -2.748  17.080  1.00  0.00     0.000 C 
BRANCH   3   4
ATOM      4  C   UNL     1      23.847  -3.343  15.675  1.00  0.00     0.000 C 
BRANCH   4   5
ATOM      5  C   UNL     1      22.893  -2.513  14.803  1.00  0.00     0.000 C 
BRANCH   5   6
ATOM      6  C   UNL     1      21.432  -2.877  15.090  1.00  0.00     0.000 C 
BRANCH   6   7
ATOM      7  C   UNL     1      20.472  -1.913  14.385  1.00  0.00     0.000 C 
BRANCH   7   8
ATOM      8  C   UNL     1      21.240  -0.937  13.482  1.00  0.00     0.000 C 
BRANCH   8   9
ATOM      9  C   UNL     1      20.886  -1.097  11.995  1.00  0.00     0.000 C 
BRANCH   9  10
ATOM     10  C   UNL     1      19.733  -2.091  11.767  1.00  0.00     0.006 C 
BRANCH  10  11
ATOM     11  C   UNL     1      18.464  -1.398  11.254  1.00  0.00     0.053 C 
BRANCH  11  12
ATOM     12  C   UNL     1      17.253  -2.266  11.411  1.00  0.00     0.041 C 
ATOM     13  O   UNL     1      16.892  -3.024  10.471  1.00  0.00    -0.550 OA
ATOM     14  O   UNL     1      16.507  -2.218  12.582  1.00  0.00    -0.550 OA
ENDBRANCH  11  12
ENDBRANCH  10  11
ENDBRANCH   9  10
ENDBRANCH   8   9
ENDBRANCH   7   8
ENDBRANCH   6   7
ENDBRANCH   5   6
ENDBRANCH   4   5
ENDBRANCH   3   4
ENDBRANCH   2   3
ENDBRANCH   1   2
BRANCH   1  15
ATOM     15  C   UNL     1      23.879  -6.228  18.751  1.00  0.00     0.000 C 
BRANCH  15  16
ATOM     16  C   UNL     1      23.594  -5.513  20.089  1.00  0.00     0.000 C 
BRANCH  16  17
ATOM     17  C   UNL     1      22.273  -5.943  20.757  1.00  0.00     0.000 C 
BRANCH  17  18
ATOM     18  C   UNL     1      21.032  -5.147  20.313  1.00  0.00    -0.000 C 
BRANCH  18  19
ATOM     19  C   UNL     1      21.290  -3.663  19.979  1.00  0.00    -0.000 C 
BRANCH  19  20
ATOM     20  C   UNL     1      20.722  -3.187  18.631  1.00  0.00    -0.000 C 
BRANCH  20  21
ATOM     21  C   UNL     1      19.588  -2.162  18.788  1.00  0.00    -0.000 C 
BRANCH  21  22
ATOM     22  C   UNL     1      19.873  -0.901  17.958  1.00  0.00    -0.000 C 
BRANCH  22  23
ATOM     23  C   UNL     1      21.350  -0.471  18.011  1.00  0.00    -0.000 C 
BRANCH  23  24
ATOM     24  C   UNL     1      21.803   0.453  16.862  1.00  0.00    -0.000 C 
BRANCH  24  25
ATOM     25  C   UNL     1      23.305   0.788  16.849  1.00  0.00    -0.003 C 
ATOM     26  C   UNL     1      23.866   0.954  15.438  1.00  0.00     0.004 C 
ENDBRANCH  24  25
ENDBRANCH  23  24
ENDBRANCH  22  23
ENDBRANCH  21  22
ENDBRANCH  20  21
ENDBRANCH  19  20
ENDBRANCH  18  19
ENDBRANCH  17  18
ENDBRANCH  16  17
ENDBRANCH  15  16
ENDBRANCH   1  15
TORSDOF 22
ENDMDL
